MODEL 1
REMARK VINA RESULT:     -12.4      0.000      0.000
REMARK SMILES O=C(CS(=O)(=O)[C@@H]1CCOC2(CCCCC2)C1)OCCOC(=O)c1ccc(-c2c3nc(c(-c4c(F)c(F)c(F)c(F)c4F)c4ccc([nH]4)c(-c4c(F)c(F)c(F)c(F)c4F)c4nc(c(-c5c(F)c(F)c(F)c(F)c5F)c5ccc2[nH]5)C=C4)C=C3)cc1
REMARK SMILES IDX 19 1 18 2 2 3 1 4 3 5 4 6 5 7 6 8 7 9 8 10 17 11 9 12 11 13
REMARK SMILES IDX 10 14 12 15 16 16 13 17 15 18 14 19 20 20 21 21 22 22 23 23
REMARK SMILES IDX 24 24 25 25 86 26 26 27 85 28 27 29 28 30 29 31 79 32 30 33
REMARK SMILES IDX 84 34 78 35 80 36 31 37 83 38 77 39 76 40 32 42 64 43 44 44
REMARK SMILES IDX 63 45 45 46 48 47 62 48 81 49 46 50 47 51 61 53 82 54 49 55
REMARK SMILES IDX 33 56 34 57 42 58 35 59 36 60 40 61 43 62 37 63 38 64 41 65
REMARK SMILES IDX 39 66 65 67 66 68 74 69 67 70 68 71 72 72 75 73 69 74 70 75
REMARK SMILES IDX 73 76 71 77 50 78 51 79 59 80 52 81 53 82 57 83 60 84 54 85
REMARK SMILES IDX 55 86 58 87 56 88
REMARK H PARENT 80 41 48 52
REMARK Flexibility Score: inf
ROOT
ATOM      1  C   UNL A   1      31.767  28.925  24.984  1.00  0.00     0.274 C 
ENDROOT
BRANCH   1   2
ATOM      2  O   UNL A   1      30.824  28.875  23.894  1.00  0.00    -0.461 OA
BRANCH   2   3
ATOM      3  C   UNL A   1      30.444  27.762  23.233  1.00  0.00     0.321 C 
ATOM      4  O   UNL A   1      30.419  27.769  22.005  1.00  0.00    -0.251 OA
BRANCH   3   5
ATOM      5  C   UNL A   1      29.923  26.599  23.998  1.00  0.00     0.259 C 
BRANCH   5   6
ATOM      6  S   UNL A   1      31.144  25.338  24.267  1.00  0.00     0.164 S 
ATOM      7  O   UNL A   1      31.424  25.328  25.693  1.00  0.00    -0.228 OA
ATOM      8  O   UNL A   1      30.577  24.132  23.679  1.00  0.00    -0.228 OA
BRANCH   6   9
ATOM      9  C   UNL A   1      32.715  25.634  23.406  1.00  0.00     0.114 C 
ATOM     10  C   UNL A   1      32.789  25.058  22.005  1.00  0.00     0.048 C 
ATOM     11  C   UNL A   1      34.015  25.360  24.203  1.00  0.00     0.055 C 
ATOM     12  C   UNL A   1      33.236  23.614  22.019  1.00  0.00     0.162 C 
ATOM     13  C   UNL A   1      34.524  23.917  24.084  1.00  0.00     0.069 C 
ATOM     14  O   UNL A   1      34.452  23.479  22.723  1.00  0.00    -0.375 OA
ATOM     15  C   UNL A   1      33.814  23.020  25.096  1.00  0.00     0.035 C 
ATOM     16  C   UNL A   1      36.020  23.725  24.424  1.00  0.00     0.035 C 
ATOM     17  C   UNL A   1      34.043  21.567  24.769  1.00  0.00     0.003 C 
ATOM     18  C   UNL A   1      36.450  22.271  24.127  1.00  0.00     0.003 C 
ATOM     19  C   UNL A   1      35.517  21.200  24.693  1.00  0.00     0.000 C 
ENDBRANCH   6   9
ENDBRANCH   5   6
ENDBRANCH   3   5
ENDBRANCH   2   3
ENDBRANCH   1   2
BRANCH   1  20
ATOM     20  C   UNL A   1      31.671  30.258  25.730  1.00  0.00     0.275 C 
BRANCH  20  21
ATOM     21  O   UNL A   1      32.460  30.262  26.944  1.00  0.00    -0.458 OA
BRANCH  21  22
ATOM     22  C   UNL A   1      33.081  31.429  27.255  1.00  0.00     0.338 C 
ATOM     23  O   UNL A   1      32.576  32.538  27.199  1.00  0.00    -0.246 OA
BRANCH  22  24
ATOM     24  C   UNL A   1      34.473  31.205  27.748  1.00  0.00     0.060 A 
ATOM     25  C   UNL A   1      34.824  29.904  28.125  1.00  0.00     0.016 A 
ATOM     26  C   UNL A   1      35.424  32.229  27.878  1.00  0.00     0.016 A 
ATOM     27  C   UNL A   1      36.108  29.630  28.616  1.00  0.00     0.010 A 
ATOM     28  C   UNL A   1      36.715  31.954  28.379  1.00  0.00     0.010 A 
ATOM     29  C   UNL A   1      37.074  30.650  28.748  1.00  0.00    -0.014 A 
BRANCH  29  30
ATOM     30  C   UNL A   1      38.378  30.300  29.392  1.00  0.00     0.031 A 
ATOM     31  C   UNL A   1      38.566  30.699  30.826  1.00  0.00     0.074 A 
ATOM     32  C   UNL A   1      39.350  29.581  28.792  1.00  0.00     0.049 A 
ATOM     33  N   UNL A   1      39.450  30.299  31.702  1.00  0.00    -0.248 NA
ATOM     34  C   UNL A   1      37.628  31.716  31.326  1.00  0.00     0.031 C 
ATOM     35  C   UNL A   1      39.388  29.201  27.387  1.00  0.00     0.029 A 
ATOM     36  N   UNL A   1      40.466  28.964  29.326  1.00  0.00    -0.354 N 
ATOM     37  C   UNL A   1      39.186  31.027  32.851  1.00  0.00     0.074 A 
ATOM     38  C   UNL A   1      38.044  31.871  32.570  1.00  0.00     0.031 C 
ATOM     39  C   UNL A   1      40.368  28.296  27.199  1.00  0.00     0.029 A 
ATOM     40  C   UNL A   1      41.063  28.065  28.464  1.00  0.00     0.049 A 
ATOM     41  H   UNL A   1      40.804  29.148  30.233  1.00  0.00     0.167 HD
ATOM     42  C   UNL A   1      39.862  31.034  34.024  1.00  0.00     0.037 A 
ATOM     43  C   UNL A   1      42.021  27.139  28.685  1.00  0.00     0.037 A 
ATOM     44  C   UNL A   1      41.048  30.272  34.291  1.00  0.00     0.049 A 
ATOM     45  C   UNL A   1      42.715  27.104  30.031  1.00  0.00     0.074 A 
ATOM     46  C   UNL A   1      41.847  30.283  35.421  1.00  0.00     0.029 A 
ATOM     47  N   UNL A   1      41.625  29.378  33.402  1.00  0.00    -0.354 N 
ATOM     48  N   UNL A   1      42.434  27.758  31.130  1.00  0.00    -0.248 NA
ATOM     49  C   UNL A   1      43.897  26.230  30.144  1.00  0.00     0.031 C 
ATOM     50  C   UNL A   1      42.934  29.430  35.197  1.00  0.00     0.029 A 
ATOM     51  C   UNL A   1      42.779  28.844  33.953  1.00  0.00     0.049 A 
ATOM     52  H   UNL A   1      41.267  29.156  32.513  1.00  0.00     0.167 HD
ATOM     53  C   UNL A   1      43.408  27.393  32.052  1.00  0.00     0.074 A 
ATOM     54  C   UNL A   1      44.250  26.409  31.408  1.00  0.00     0.031 C 
ATOM     55  C   UNL A   1      43.609  27.859  33.309  1.00  0.00     0.037 A 
BRANCH  42  56
ATOM     56  C   UNL A   1      39.369  31.997  35.058  1.00  0.00     0.064 A 
ATOM     57  C   UNL A   1      39.789  33.334  35.081  1.00  0.00     0.173 A 
ATOM     58  C   UNL A   1      38.523  31.549  36.084  1.00  0.00     0.173 A 
ATOM     59  F   UNL A   1      40.629  33.794  34.140  1.00  0.00    -0.203 F 
ATOM     60  C   UNL A   1      39.410  34.181  36.118  1.00  0.00     0.198 A 
ATOM     61  C   UNL A   1      38.124  32.407  37.104  1.00  0.00     0.198 A 
ATOM     62  F   UNL A   1      38.108  30.275  36.111  1.00  0.00    -0.203 F 
ATOM     63  F   UNL A   1      39.881  35.435  36.162  1.00  0.00    -0.200 F 
ATOM     64  C   UNL A   1      38.578  33.717  37.126  1.00  0.00     0.200 A 
ATOM     65  F   UNL A   1      37.324  31.957  38.079  1.00  0.00    -0.200 F 
ATOM     66  F   UNL A   1      38.231  34.528  38.135  1.00  0.00    -0.200 F 
ENDBRANCH  42  56
BRANCH  43  67
ATOM     67  C   UNL A   1      42.409  26.134  27.647  1.00  0.00     0.064 A 
ATOM     68  C   UNL A   1      43.447  26.415  26.738  1.00  0.00     0.173 A 
ATOM     69  C   UNL A   1      41.710  24.934  27.465  1.00  0.00     0.173 A 
ATOM     70  F   UNL A   1      44.131  27.565  26.836  1.00  0.00    -0.203 F 
ATOM     71  C   UNL A   1      43.741  25.556  25.679  1.00  0.00     0.198 A 
ATOM     72  C   UNL A   1      42.031  24.057  26.428  1.00  0.00     0.198 A 
ATOM     73  F   UNL A   1      40.697  24.616  28.284  1.00  0.00    -0.203 F 
ATOM     74  F   UNL A   1      44.681  25.893  24.784  1.00  0.00    -0.200 F 
ATOM     75  C   UNL A   1      43.035  24.375  25.527  1.00  0.00     0.200 A 
ATOM     76  F   UNL A   1      41.349  22.911  26.289  1.00  0.00    -0.200 F 
ATOM     77  F   UNL A   1      43.306  23.554  24.503  1.00  0.00    -0.200 F 
ENDBRANCH  43  67
BRANCH  55  78
ATOM     78  C   UNL A   1      44.784  27.322  34.077  1.00  0.00     0.064 A 
ATOM     79  C   UNL A   1      44.674  26.182  34.888  1.00  0.00     0.173 A 
ATOM     80  C   UNL A   1      46.047  27.920  33.956  1.00  0.00     0.173 A 
ATOM     81  F   UNL A   1      43.487  25.576  35.046  1.00  0.00    -0.203 F 
ATOM     82  C   UNL A   1      45.778  25.676  35.569  1.00  0.00     0.198 A 
ATOM     83  C   UNL A   1      47.156  27.394  34.614  1.00  0.00     0.198 A 
ATOM     84  F   UNL A   1      46.209  29.006  33.186  1.00  0.00    -0.203 F 
ATOM     85  F   UNL A   1      45.640  24.611  36.371  1.00  0.00    -0.200 F 
ATOM     86  C   UNL A   1      47.019  26.278  35.425  1.00  0.00     0.200 A 
ATOM     87  F   UNL A   1      48.357  27.969  34.463  1.00  0.00    -0.200 F 
ATOM     88  F   UNL A   1      48.084  25.784  36.073  1.00  0.00    -0.200 F 
ENDBRANCH  55  78
ENDBRANCH  29  30
ENDBRANCH  22  24
ENDBRANCH  21  22
ENDBRANCH  20  21
ENDBRANCH   1  20
TORSDOF 13
ENDMDL
MODEL 2
REMARK VINA RESULT:     -12.4      0.875      2.096
REMARK SMILES O=C(CS(=O)(=O)[C@@H]1CCOC2(CCCCC2)C1)OCCOC(=O)c1ccc(-c2c3nc(c(-c4c(F)c(F)c(F)c(F)c4F)c4ccc([nH]4)c(-c4c(F)c(F)c(F)c(F)c4F)c4nc(c(-c5c(F)c(F)c(F)c(F)c5F)c5ccc2[nH]5)C=C4)C=C3)cc1
REMARK SMILES IDX 19 1 18 2 2 3 1 4 3 5 4 6 5 7 6 8 7 9 8 10 17 11 9 12 11 13
REMARK SMILES IDX 10 14 12 15 16 16 13 17 15 18 14 19 20 20 21 21 22 22 23 23
REMARK SMILES IDX 24 24 25 25 86 26 26 27 85 28 27 29 28 30 29 31 79 32 30 33
REMARK SMILES IDX 84 34 78 35 80 36 31 37 83 38 77 39 76 40 32 42 64 43 44 44
REMARK SMILES IDX 63 45 45 46 48 47 62 48 81 49 46 50 47 51 61 53 82 54 49 55
REMARK SMILES IDX 33 56 34 57 42 58 35 59 36 60 40 61 43 62 37 63 38 64 41 65
REMARK SMILES IDX 39 66 65 67 66 68 74 69 67 70 68 71 72 72 75 73 69 74 70 75
REMARK SMILES IDX 73 76 71 77 50 78 51 79 59 80 52 81 53 82 57 83 60 84 54 85
REMARK SMILES IDX 55 86 58 87 56 88
REMARK H PARENT 80 41 48 52
REMARK Flexibility Score: inf
ROOT
ATOM      1  C   UNL A   1      31.449  28.702  25.345  1.00  0.00     0.274 C 
ENDROOT
BRANCH   1   2
ATOM      2  O   UNL A   1      30.747  28.571  24.093  1.00  0.00    -0.461 OA
BRANCH   2   3
ATOM      3  C   UNL A   1      31.292  28.177  22.923  1.00  0.00     0.321 C 
ATOM      4  O   UNL A   1      30.556  27.870  21.988  1.00  0.00    -0.251 OA
BRANCH   3   5
ATOM      5  C   UNL A   1      32.763  27.982  22.830  1.00  0.00     0.259 C 
BRANCH   5   6
ATOM      6  S   UNL A   1      33.258  26.295  23.073  1.00  0.00     0.164 S 
ATOM      7  O   UNL A   1      33.848  25.851  21.821  1.00  0.00    -0.228 OA
ATOM      8  O   UNL A   1      34.112  26.319  24.253  1.00  0.00    -0.228 OA
BRANCH   6   9
ATOM      9  C   UNL A   1      31.887  25.169  23.458  1.00  0.00     0.114 C 
ATOM     10  C   UNL A   1      31.488  25.132  24.920  1.00  0.00     0.048 C 
ATOM     11  C   UNL A   1      31.958  23.745  22.851  1.00  0.00     0.055 C 
ATOM     12  C   UNL A   1      32.326  24.146  25.702  1.00  0.00     0.162 C 
ATOM     13  C   UNL A   1      32.693  22.729  23.735  1.00  0.00     0.069 C 
ATOM     14  O   UNL A   1      32.282  22.871  25.099  1.00  0.00    -0.375 OA
ATOM     15  C   UNL A   1      34.199  22.813  23.496  1.00  0.00     0.035 C 
ATOM     16  C   UNL A   1      32.366  21.248  23.433  1.00  0.00     0.035 C 
ATOM     17  C   UNL A   1      34.950  22.082  24.579  1.00  0.00     0.003 C 
ATOM     18  C   UNL A   1      33.046  20.331  24.476  1.00  0.00     0.003 C 
ATOM     19  C   UNL A   1      34.526  20.628  24.720  1.00  0.00     0.000 C 
ENDBRANCH   6   9
ENDBRANCH   5   6
ENDBRANCH   3   5
ENDBRANCH   2   3
ENDBRANCH   1   2
BRANCH   1  20
ATOM     20  C   UNL A   1      31.714  30.174  25.672  1.00  0.00     0.275 C 
BRANCH  20  21
ATOM     21  O   UNL A   1      32.265  30.348  26.999  1.00  0.00    -0.458 OA
BRANCH  21  22
ATOM     22  C   UNL A   1      32.913  31.518  27.234  1.00  0.00     0.338 C 
ATOM     23  O   UNL A   1      32.425  32.632  27.132  1.00  0.00    -0.246 OA
BRANCH  22  24
ATOM     24  C   UNL A   1      34.312  31.296  27.706  1.00  0.00     0.060 A 
ATOM     25  C   UNL A   1      34.692  29.984  28.011  1.00  0.00     0.016 A 
ATOM     26  C   UNL A   1      35.245  32.330  27.885  1.00  0.00     0.016 A 
ATOM     27  C   UNL A   1      35.984  29.709  28.478  1.00  0.00     0.010 A 
ATOM     28  C   UNL A   1      36.544  32.054  28.362  1.00  0.00     0.010 A 
ATOM     29  C   UNL A   1      36.931  30.740  28.659  1.00  0.00    -0.014 A 
BRANCH  29  30
ATOM     30  C   UNL A   1      38.247  30.382  29.275  1.00  0.00     0.031 A 
ATOM     31  C   UNL A   1      38.457  30.756  30.712  1.00  0.00     0.074 A 
ATOM     32  C   UNL A   1      39.210  29.675  28.647  1.00  0.00     0.049 A 
ATOM     33  N   UNL A   1      39.357  30.344  31.566  1.00  0.00    -0.248 NA
ATOM     34  C   UNL A   1      37.526  31.763  31.244  1.00  0.00     0.031 C 
ATOM     35  C   UNL A   1      39.225  29.319  27.234  1.00  0.00     0.029 A 
ATOM     36  N   UNL A   1      40.335  29.052  29.151  1.00  0.00    -0.354 N 
ATOM     37  C   UNL A   1      39.110  31.051  32.732  1.00  0.00     0.074 A 
ATOM     38  C   UNL A   1      37.962  31.897  32.484  1.00  0.00     0.031 C 
ATOM     39  C   UNL A   1      40.203  28.420  27.015  1.00  0.00     0.029 A 
ATOM     40  C   UNL A   1      40.919  28.169  28.264  1.00  0.00     0.049 A 
ATOM     41  H   UNL A   1      40.688  29.221  30.055  1.00  0.00     0.167 HD
ATOM     42  C   UNL A   1      39.806  31.040  33.894  1.00  0.00     0.037 A 
ATOM     43  C   UNL A   1      41.883  27.241  28.454  1.00  0.00     0.037 A 
ATOM     44  C   UNL A   1      40.998  30.276  34.127  1.00  0.00     0.049 A 
ATOM     45  C   UNL A   1      42.599  27.184  29.787  1.00  0.00     0.074 A 
ATOM     46  C   UNL A   1      41.815  30.269  35.244  1.00  0.00     0.029 A 
ATOM     47  N   UNL A   1      41.561  29.399  33.214  1.00  0.00    -0.354 N 
ATOM     48  N   UNL A   1      42.335  27.819  30.901  1.00  0.00    -0.248 NA
ATOM     49  C   UNL A   1      43.784  26.312  29.865  1.00  0.00     0.031 C 
ATOM     50  C   UNL A   1      42.899  29.422  34.988  1.00  0.00     0.029 A 
ATOM     51  C   UNL A   1      42.725  28.857  33.737  1.00  0.00     0.049 A 
ATOM     52  H   UNL A   1      41.189  29.191  32.327  1.00  0.00     0.167 HD
ATOM     53  C   UNL A   1      43.325  27.440  31.801  1.00  0.00     0.074 A 
ATOM     54  C   UNL A   1      44.159  26.469  31.126  1.00  0.00     0.031 C 
ATOM     55  C   UNL A   1      43.546  27.886  33.062  1.00  0.00     0.037 A 
BRANCH  42  56
ATOM     56  C   UNL A   1      39.328  31.984  34.952  1.00  0.00     0.064 A 
ATOM     57  C   UNL A   1      39.746  33.321  34.990  1.00  0.00     0.173 A 
ATOM     58  C   UNL A   1      38.501  31.517  35.984  1.00  0.00     0.173 A 
ATOM     59  F   UNL A   1      40.569  33.799  34.044  1.00  0.00    -0.203 F 
ATOM     60  C   UNL A   1      39.382  34.150  36.048  1.00  0.00     0.198 A 
ATOM     61  C   UNL A   1      38.117  32.356  37.025  1.00  0.00     0.198 A 
ATOM     62  F   UNL A   1      38.089  30.241  35.996  1.00  0.00    -0.203 F 
ATOM     63  F   UNL A   1      39.851  35.403  36.105  1.00  0.00    -0.200 F 
ATOM     64  C   UNL A   1      38.569  33.667  37.062  1.00  0.00     0.200 A 
ATOM     65  F   UNL A   1      37.334  31.887  38.005  1.00  0.00    -0.200 F 
ATOM     66  F   UNL A   1      38.236  34.460  38.090  1.00  0.00    -0.200 F 
ENDBRANCH  42  56
BRANCH  43  67
ATOM     67  C   UNL A   1      42.255  26.255  27.392  1.00  0.00     0.064 A 
ATOM     68  C   UNL A   1      41.589  25.018  27.303  1.00  0.00     0.173 A 
ATOM     69  C   UNL A   1      43.327  26.466  26.515  1.00  0.00     0.173 A 
ATOM     70  F   UNL A   1      40.577  24.741  28.140  1.00  0.00    -0.203 F 
ATOM     71  C   UNL A   1      42.002  24.029  26.411  1.00  0.00     0.198 A 
ATOM     72  C   UNL A   1      43.715  25.490  25.595  1.00  0.00     0.198 A 
ATOM     73  F   UNL A   1      44.018  27.615  26.561  1.00  0.00    -0.203 F 
ATOM     74  F   UNL A   1      41.398  22.832  26.409  1.00  0.00    -0.200 F 
ATOM     75  C   UNL A   1      43.064  24.268  25.554  1.00  0.00     0.200 A 
ATOM     76  F   UNL A   1      44.739  25.728  24.763  1.00  0.00    -0.200 F 
ATOM     77  F   UNL A   1      43.471  23.315  24.704  1.00  0.00    -0.200 F 
ENDBRANCH  43  67
BRANCH  55  78
ATOM     78  C   UNL A   1      44.734  27.338  33.801  1.00  0.00     0.064 A 
ATOM     79  C   UNL A   1      45.994  27.953  33.730  1.00  0.00     0.173 A 
ATOM     80  C   UNL A   1      44.600  26.217  34.634  1.00  0.00     0.173 A 
ATOM     81  F   UNL A   1      46.180  29.023  32.941  1.00  0.00    -0.203 F 
ATOM     82  C   UNL A   1      47.079  27.452  34.445  1.00  0.00     0.198 A 
ATOM     83  C   UNL A   1      45.679  25.737  35.371  1.00  0.00     0.198 A 
ATOM     84  F   UNL A   1      43.416  25.597  34.745  1.00  0.00    -0.203 F 
ATOM     85  F   UNL A   1      48.282  28.032  34.329  1.00  0.00    -0.200 F 
ATOM     86  C   UNL A   1      46.919  26.350  35.270  1.00  0.00     0.200 A 
ATOM     87  F   UNL A   1      45.519  24.679  36.179  1.00  0.00    -0.200 F 
ATOM     88  F   UNL A   1      47.961  25.874  35.966  1.00  0.00    -0.200 F 
ENDBRANCH  55  78
ENDBRANCH  29  30
ENDBRANCH  22  24
ENDBRANCH  21  22
ENDBRANCH  20  21
ENDBRANCH   1  20
TORSDOF 13
ENDMDL
MODEL 3
REMARK VINA RESULT:     -12.3      0.190      1.630
REMARK SMILES O=C(CS(=O)(=O)[C@@H]1CCOC2(CCCCC2)C1)OCCOC(=O)c1ccc(-c2c3nc(c(-c4c(F)c(F)c(F)c(F)c4F)c4ccc([nH]4)c(-c4c(F)c(F)c(F)c(F)c4F)c4nc(c(-c5c(F)c(F)c(F)c(F)c5F)c5ccc2[nH]5)C=C4)C=C3)cc1
REMARK SMILES IDX 19 1 18 2 2 3 1 4 3 5 4 6 5 7 6 8 7 9 8 10 17 11 9 12 11 13
REMARK SMILES IDX 10 14 12 15 16 16 13 17 15 18 14 19 20 20 21 21 22 22 23 23
REMARK SMILES IDX 24 24 25 25 86 26 26 27 85 28 27 29 28 30 29 31 79 32 30 33
REMARK SMILES IDX 84 34 78 35 80 36 31 37 83 38 77 39 76 40 32 42 64 43 44 44
REMARK SMILES IDX 63 45 45 46 48 47 62 48 81 49 46 50 47 51 61 53 82 54 49 55
REMARK SMILES IDX 33 56 34 57 42 58 35 59 36 60 40 61 43 62 37 63 38 64 41 65
REMARK SMILES IDX 39 66 65 67 66 68 74 69 67 70 68 71 72 72 75 73 69 74 70 75
REMARK SMILES IDX 73 76 71 77 50 78 51 79 59 80 52 81 53 82 57 83 60 84 54 85
REMARK SMILES IDX 55 86 58 87 56 88
REMARK H PARENT 80 41 48 52
REMARK Flexibility Score: inf
ROOT
ATOM      1  C   UNL A   1      31.368  28.958  25.255  1.00  0.00     0.274 C 
ENDROOT
BRANCH   1   2
ATOM      2  O   UNL A   1      31.068  28.902  23.846  1.00  0.00    -0.461 OA
BRANCH   2   3
ATOM      3  C   UNL A   1      30.469  27.874  23.209  1.00  0.00     0.321 C 
ATOM      4  O   UNL A   1      30.278  27.944  21.998  1.00  0.00    -0.251 OA
BRANCH   3   5
ATOM      5  C   UNL A   1      29.921  26.742  24.002  1.00  0.00     0.259 C 
BRANCH   5   6
ATOM      6  S   UNL A   1      31.065  25.396  24.177  1.00  0.00     0.164 S 
ATOM      7  O   UNL A   1      31.266  25.203  25.604  1.00  0.00    -0.228 OA
ATOM      8  O   UNL A   1      30.474  24.298  23.422  1.00  0.00    -0.228 OA
BRANCH   6   9
ATOM      9  C   UNL A   1      32.692  25.707  23.436  1.00  0.00     0.114 C 
ATOM     10  C   UNL A   1      32.849  25.202  22.014  1.00  0.00     0.048 C 
ATOM     11  C   UNL A   1      33.933  25.367  24.300  1.00  0.00     0.055 C 
ATOM     12  C   UNL A   1      33.272  23.751  21.980  1.00  0.00     0.162 C 
ATOM     13  C   UNL A   1      34.427  23.923  24.136  1.00  0.00     0.069 C 
ATOM     14  O   UNL A   1      34.438  23.558  22.752  1.00  0.00    -0.375 OA
ATOM     15  C   UNL A   1      33.639  22.988  25.052  1.00  0.00     0.035 C 
ATOM     16  C   UNL A   1      35.895  23.686  24.562  1.00  0.00     0.035 C 
ATOM     17  C   UNL A   1      33.867  21.550  24.664  1.00  0.00     0.003 C 
ATOM     18  C   UNL A   1      36.321  22.241  24.216  1.00  0.00     0.003 C 
ATOM     19  C   UNL A   1      35.337  21.160  24.663  1.00  0.00     0.000 C 
ENDBRANCH   6   9
ENDBRANCH   5   6
ENDBRANCH   3   5
ENDBRANCH   2   3
ENDBRANCH   1   2
BRANCH   1  20
ATOM     20  C   UNL A   1      31.713  30.386  25.685  1.00  0.00     0.275 C 
BRANCH  20  21
ATOM     21  O   UNL A   1      32.373  30.424  26.972  1.00  0.00    -0.458 OA
BRANCH  21  22
ATOM     22  C   UNL A   1      33.009  31.582  27.289  1.00  0.00     0.338 C 
ATOM     23  O   UNL A   1      32.515  32.697  27.246  1.00  0.00    -0.246 OA
BRANCH  22  24
ATOM     24  C   UNL A   1      34.401  31.339  27.772  1.00  0.00     0.060 A 
ATOM     25  C   UNL A   1      34.769  30.018  28.049  1.00  0.00     0.016 A 
ATOM     26  C   UNL A   1      35.337  32.363  27.987  1.00  0.00     0.016 A 
ATOM     27  C   UNL A   1      36.054  29.724  28.525  1.00  0.00     0.010 A 
ATOM     28  C   UNL A   1      36.629  32.066  28.473  1.00  0.00     0.010 A 
ATOM     29  C   UNL A   1      37.005  30.744  28.742  1.00  0.00    -0.014 A 
BRANCH  29  30
ATOM     30  C   UNL A   1      38.311  30.362  29.365  1.00  0.00     0.031 A 
ATOM     31  C   UNL A   1      38.511  30.710  30.810  1.00  0.00     0.074 A 
ATOM     32  C   UNL A   1      39.273  29.656  28.734  1.00  0.00     0.049 A 
ATOM     33  N   UNL A   1      39.398  30.274  31.665  1.00  0.00    -0.248 NA
ATOM     34  C   UNL A   1      37.584  31.716  31.350  1.00  0.00     0.031 C 
ATOM     35  C   UNL A   1      39.299  29.324  27.316  1.00  0.00     0.029 A 
ATOM     36  N   UNL A   1      40.388  29.014  29.238  1.00  0.00    -0.354 N 
ATOM     37  C   UNL A   1      39.147  30.964  32.841  1.00  0.00     0.074 A 
ATOM     38  C   UNL A   1      38.009  31.826  32.596  1.00  0.00     0.031 C 
ATOM     39  C   UNL A   1      40.270  28.419  27.091  1.00  0.00     0.029 A 
ATOM     40  C   UNL A   1      40.971  28.140  28.342  1.00  0.00     0.049 A 
ATOM     41  H   UNL A   1      40.733  29.164  30.149  1.00  0.00     0.167 HD
ATOM     42  C   UNL A   1      39.831  30.926  34.009  1.00  0.00     0.037 A 
ATOM     43  C   UNL A   1      41.924  27.199  28.526  1.00  0.00     0.037 A 
ATOM     44  C   UNL A   1      41.013  30.147  34.241  1.00  0.00     0.049 A 
ATOM     45  C   UNL A   1      42.626  27.113  29.864  1.00  0.00     0.074 A 
ATOM     46  C   UNL A   1      41.819  30.114  35.365  1.00  0.00     0.029 A 
ATOM     47  N   UNL A   1      41.576  29.280  33.318  1.00  0.00    -0.354 N 
ATOM     48  N   UNL A   1      42.358  27.732  30.987  1.00  0.00    -0.248 NA
ATOM     49  C   UNL A   1      43.802  26.228  29.939  1.00  0.00     0.031 C 
ATOM     50  C   UNL A   1      42.897  29.260  35.105  1.00  0.00     0.029 A 
ATOM     51  C   UNL A   1      42.730  28.718  33.843  1.00  0.00     0.049 A 
ATOM     52  H   UNL A   1      41.211  29.091  32.424  1.00  0.00     0.167 HD
ATOM     53  C   UNL A   1      43.335  27.328  31.889  1.00  0.00     0.074 A 
ATOM     54  C   UNL A   1      44.166  26.360  31.206  1.00  0.00     0.031 C 
ATOM     55  C   UNL A   1      43.548  27.750  33.160  1.00  0.00     0.037 A 
BRANCH  42  56
ATOM     56  C   UNL A   1      39.352  31.857  35.078  1.00  0.00     0.064 A 
ATOM     57  C   UNL A   1      39.755  33.199  35.123  1.00  0.00     0.173 A 
ATOM     58  C   UNL A   1      38.538  31.373  36.113  1.00  0.00     0.173 A 
ATOM     59  F   UNL A   1      40.565  33.693  34.173  1.00  0.00    -0.203 F 
ATOM     60  C   UNL A   1      39.391  34.015  36.190  1.00  0.00     0.198 A 
ATOM     61  C   UNL A   1      38.154  32.201  37.164  1.00  0.00     0.198 A 
ATOM     62  F   UNL A   1      38.140  30.093  36.119  1.00  0.00    -0.203 F 
ATOM     63  F   UNL A   1      39.848  35.273  36.253  1.00  0.00    -0.200 F 
ATOM     64  C   UNL A   1      38.592  33.516  37.207  1.00  0.00     0.200 A 
ATOM     65  F   UNL A   1      37.385  31.716  38.147  1.00  0.00    -0.200 F 
ATOM     66  F   UNL A   1      38.260  34.297  38.244  1.00  0.00    -0.200 F 
ENDBRANCH  42  56
BRANCH  43  67
ATOM     67  C   UNL A   1      42.297  26.228  27.451  1.00  0.00     0.064 A 
ATOM     68  C   UNL A   1      41.643  24.985  27.355  1.00  0.00     0.173 A 
ATOM     69  C   UNL A   1      43.359  26.458  26.567  1.00  0.00     0.173 A 
ATOM     70  F   UNL A   1      40.641  24.689  28.198  1.00  0.00    -0.203 F 
ATOM     71  C   UNL A   1      42.059  24.009  26.450  1.00  0.00     0.198 A 
ATOM     72  C   UNL A   1      43.749  25.496  25.634  1.00  0.00     0.198 A 
ATOM     73  F   UNL A   1      44.038  27.614  26.618  1.00  0.00    -0.203 F 
ATOM     74  F   UNL A   1      41.467  22.806  26.442  1.00  0.00    -0.200 F 
ATOM     75  C   UNL A   1      43.110  24.267  25.586  1.00  0.00     0.200 A 
ATOM     76  F   UNL A   1      44.763  25.753  24.795  1.00  0.00    -0.200 F 
ATOM     77  F   UNL A   1      43.520  23.327  24.724  1.00  0.00    -0.200 F 
ENDBRANCH  43  67
BRANCH  55  78
ATOM     78  C   UNL A   1      44.724  27.178  33.901  1.00  0.00     0.064 A 
ATOM     79  C   UNL A   1      45.982  27.800  33.880  1.00  0.00     0.173 A 
ATOM     80  C   UNL A   1      44.577  26.025  34.687  1.00  0.00     0.173 A 
ATOM     81  F   UNL A   1      46.179  28.900  33.137  1.00  0.00    -0.203 F 
ATOM     82  C   UNL A   1      47.054  27.275  34.596  1.00  0.00     0.198 A 
ATOM     83  C   UNL A   1      45.644  25.520  35.426  1.00  0.00     0.198 A 
ATOM     84  F   UNL A   1      43.394  25.396  34.750  1.00  0.00    -0.203 F 
ATOM     85  F   UNL A   1      48.257  27.863  34.527  1.00  0.00    -0.200 F 
ATOM     86  C   UNL A   1      46.883  26.141  35.375  1.00  0.00     0.200 A 
ATOM     87  F   UNL A   1      45.472  24.431  36.189  1.00  0.00    -0.200 F 
ATOM     88  F   UNL A   1      47.913  25.643  36.072  1.00  0.00    -0.200 F 
ENDBRANCH  55  78
ENDBRANCH  29  30
ENDBRANCH  22  24
ENDBRANCH  21  22
ENDBRANCH  20  21
ENDBRANCH   1  20
TORSDOF 13
ENDMDL
