MODEL 1
REMARK VINA RESULT:     -10.6      0.000      0.000
REMARK SMILES C#CC[C@@]1(C(=O)OCCOC(=O)c2ccc(-c3c4nc(c(-c5c(F)c(F)c(F)c(F)c5F)c5ccc([nH]5)c(-c5c(F)c(F)c(F)c(F)c5F)c5nc(c(-c6c(F)c(F)c(F)c(F)c6F)c6ccc3[nH]6)C=C5)C=C4)cc2)CCCN1C(=O)OC(C)(C)C
REMARK SMILES IDX 8 1 7 2 5 3 6 4 4 5 76 6 79 7 77 8 78 9 3 10 2 11 1 12 80 13
REMARK SMILES IDX 81 14 82 15 83 16 84 17 85 18 86 19 9 20 10 21 11 22 12 23
REMARK SMILES IDX 13 24 14 25 75 26 15 27 74 28 16 29 17 30 18 31 68 32 19 33
REMARK SMILES IDX 73 34 67 35 69 36 20 37 72 38 66 39 65 40 21 42 53 43 33 44
REMARK SMILES IDX 52 45 34 46 37 47 51 48 70 49 35 50 36 51 50 53 71 54 38 55
REMARK SMILES IDX 22 56 23 57 31 58 24 59 25 60 29 61 32 62 26 63 27 64 30 65
REMARK SMILES IDX 28 66 54 67 55 68 63 69 56 70 57 71 61 72 64 73 58 74 59 75
REMARK SMILES IDX 62 76 60 77 39 78 40 79 48 80 41 81 42 82 46 83 49 84 43 85
REMARK SMILES IDX 44 86 47 87 45 88
REMARK H PARENT 69 41 37 52
REMARK Flexibility Score: inf
ROOT
ATOM      1  C   UNL A   1      33.619  34.339  28.403  1.00  0.00     0.274 C 
ENDROOT
BRANCH   1   2
ATOM      2  O   UNL A   1      32.640  34.656  29.424  1.00  0.00    -0.460 OA
BRANCH   2   3
ATOM      3  C   UNL A   1      32.876  35.836  30.063  1.00  0.00     0.333 C 
ATOM      4  O   UNL A   1      32.931  36.895  29.442  1.00  0.00    -0.249 OA
BRANCH   3   5
ATOM      5  C   UNL A   1      33.204  35.724  31.586  1.00  0.00     0.154 C 
ATOM      6  C   UNL A   1      33.388  37.163  32.145  1.00  0.00     0.044 C 
ATOM      7  N   UNL A   1      34.468  35.095  32.087  1.00  0.00    -0.291 N 
ATOM      8  C   UNL A   1      34.034  36.970  33.508  1.00  0.00     0.025 C 
ATOM      9  C   UNL A   1      34.891  35.731  33.332  1.00  0.00     0.124 C 
BRANCH   5  10
ATOM     10  C   UNL A   1      31.988  35.026  32.295  1.00  0.00     0.130 C 
BRANCH  10  11
ATOM     11  C   UNL A   1      30.989  35.956  32.852  1.00  0.00    -0.104 C 
ATOM     12  C   UNL A   1      30.097  36.639  33.296  1.00  0.00     0.004 C 
ENDBRANCH  10  11
ENDBRANCH   5  10
BRANCH   7  13
ATOM     13  C   UNL A   1      34.942  33.807  31.879  1.00  0.00     0.411 C 
ATOM     14  O   UNL A   1      34.246  32.842  32.176  1.00  0.00    -0.224 OA
BRANCH  13  15
ATOM     15  O   UNL A   1      36.203  33.738  31.386  1.00  0.00    -0.444 OA
BRANCH  15  16
ATOM     16  C   UNL A   1      37.607  32.872  31.891  1.00  0.00     0.106 C 
ATOM     17  C   UNL A   1      38.157  32.730  30.192  1.00  0.00     0.056 C 
ATOM     18  C   UNL A   1      38.606  34.195  31.977  1.00  0.00     0.056 C 
ATOM     19  C   UNL A   1      37.405  31.239  33.342  1.00  0.00     0.056 C 
ENDBRANCH  15  16
ENDBRANCH  13  15
ENDBRANCH   7  13
ENDBRANCH   3   5
ENDBRANCH   2   3
ENDBRANCH   1   2
BRANCH   1  20
ATOM     20  C   UNL A   1      34.286  32.971  28.588  1.00  0.00     0.275 C 
BRANCH  20  21
ATOM     21  O   UNL A   1      33.959  32.061  27.516  1.00  0.00    -0.458 OA
BRANCH  21  22
ATOM     22  C   UNL A   1      34.237  30.783  27.844  1.00  0.00     0.338 C 
ATOM     23  O   UNL A   1      33.460  29.849  27.716  1.00  0.00    -0.246 OA
BRANCH  22  24
ATOM     24  C   UNL A   1      35.622  30.571  28.327  1.00  0.00     0.060 A 
ATOM     25  C   UNL A   1      36.980  30.455  27.136  1.00  0.00     0.016 A 
ATOM     26  C   UNL A   1      35.865  29.875  29.988  1.00  0.00     0.016 A 
ATOM     27  C   UNL A   1      38.467  29.509  27.531  1.00  0.00     0.010 A 
ATOM     28  C   UNL A   1      37.381  28.958  30.382  1.00  0.00     0.010 A 
ATOM     29  C   UNL A   1      38.728  28.836  29.178  1.00  0.00    -0.014 A 
BRANCH  29  30
ATOM     30  C   UNL A   1      40.126  28.397  29.585  1.00  0.00     0.031 A 
ATOM     31  C   UNL A   1      41.032  29.242  30.450  1.00  0.00     0.074 A 
ATOM     32  C   UNL A   1      40.637  27.226  29.149  1.00  0.00     0.049 A 
ATOM     33  N   UNL A   1      42.335  29.395  30.425  1.00  0.00    -0.248 NA
ATOM     34  C   UNL A   1      40.399  30.041  31.491  1.00  0.00     0.031 C 
ATOM     35  C   UNL A   1      39.927  26.200  28.388  1.00  0.00     0.029 A 
ATOM     36  N   UNL A   1      41.906  26.701  29.279  1.00  0.00    -0.354 N 
ATOM     37  C   UNL A   1      42.607  30.430  31.322  1.00  0.00     0.074 A 
ATOM     38  C   UNL A   1      41.340  30.911  31.809  1.00  0.00     0.031 C 
ATOM     39  C   UNL A   1      40.753  25.178  28.126  1.00  0.00     0.029 A 
ATOM     40  C   UNL A   1      42.084  25.519  28.599  1.00  0.00     0.049 A 
ATOM     41  H   UNL A   1      42.617  27.133  29.808  1.00  0.00     0.167 HD
ATOM     42  C   UNL A   1      43.793  30.868  31.809  1.00  0.00     0.037 A 
ATOM     43  C   UNL A   1      43.198  24.816  28.314  1.00  0.00     0.037 A 
ATOM     44  C   UNL A   1      45.033  30.179  31.594  1.00  0.00     0.049 A 
ATOM     45  C   UNL A   1      44.525  25.327  28.800  1.00  0.00     0.074 A 
ATOM     46  C   UNL A   1      46.290  30.489  32.074  1.00  0.00     0.029 A 
ATOM     47  N   UNL A   1      45.144  28.981  30.904  1.00  0.00    -0.354 N 
ATOM     48  N   UNL A   1      44.789  26.413  29.486  1.00  0.00    -0.248 NA
ATOM     49  C   UNL A   1      45.709  24.527  28.462  1.00  0.00     0.031 C 
ATOM     50  C   UNL A   1      47.171  29.487  31.654  1.00  0.00     0.029 A 
ATOM     51  C   UNL A   1      46.451  28.536  30.946  1.00  0.00     0.049 A 
ATOM     52  H   UNL A   1      44.402  28.516  30.453  1.00  0.00     0.167 HD
ATOM     53  C   UNL A   1      46.161  26.412  29.689  1.00  0.00     0.074 A 
ATOM     54  C   UNL A   1      46.676  25.217  29.052  1.00  0.00     0.031 C 
ATOM     55  C   UNL A   1      46.926  27.318  30.342  1.00  0.00     0.037 A 
BRANCH  42  56
ATOM     56  C   UNL A   1      43.798  32.134  32.625  1.00  0.00     0.064 A 
ATOM     57  C   UNL A   1      43.638  32.155  34.020  1.00  0.00     0.173 A 
ATOM     58  C   UNL A   1      43.936  33.370  31.971  1.00  0.00     0.173 A 
ATOM     59  F   UNL A   1      43.504  31.008  34.702  1.00  0.00    -0.203 F 
ATOM     60  C   UNL A   1      43.532  33.359  34.714  1.00  0.00     0.198 A 
ATOM     61  C   UNL A   1      43.877  34.571  32.675  1.00  0.00     0.198 A 
ATOM     62  F   UNL A   1      44.120  33.414  30.643  1.00  0.00    -0.203 F 
ATOM     63  F   UNL A   1      43.277  33.352  36.031  1.00  0.00    -0.200 F 
ATOM     64  C   UNL A   1      43.654  34.565  34.042  1.00  0.00     0.200 A 
ATOM     65  F   UNL A   1      44.021  35.734  32.024  1.00  0.00    -0.200 F 
ATOM     66  F   UNL A   1      43.543  35.722  34.710  1.00  0.00    -0.200 F 
ENDBRANCH  42  56
BRANCH  43  67
ATOM     67  C   UNL A   1      43.097  23.591  27.472  1.00  0.00     0.064 A 
ATOM     68  C   UNL A   1      43.493  23.593  26.128  1.00  0.00     0.173 A 
ATOM     69  C   UNL A   1      42.643  22.376  28.014  1.00  0.00     0.173 A 
ATOM     70  F   UNL A   1      43.913  24.731  25.556  1.00  0.00    -0.203 F 
ATOM     71  C   UNL A   1      43.438  22.431  25.359  1.00  0.00     0.198 A 
ATOM     72  C   UNL A   1      42.620  21.209  27.254  1.00  0.00     0.198 A 
ATOM     73  F   UNL A   1      42.255  22.315  29.296  1.00  0.00    -0.203 F 
ATOM     74  F   UNL A   1      43.793  22.468  24.068  1.00  0.00    -0.200 F 
ATOM     75  C   UNL A   1      43.013  21.238  25.925  1.00  0.00     0.200 A 
ATOM     76  F   UNL A   1      42.229  20.056  27.812  1.00  0.00    -0.200 F 
ATOM     77  F   UNL A   1      42.981  20.118  25.190  1.00  0.00    -0.200 F 
ENDBRANCH  43  67
BRANCH  55  78
ATOM     78  C   UNL A   1      48.388  27.027  30.473  1.00  0.00     0.064 A 
ATOM     79  C   UNL A   1      48.877  26.169  31.466  1.00  0.00     0.173 A 
ATOM     80  C   UNL A   1      49.293  27.534  29.527  1.00  0.00     0.173 A 
ATOM     81  F   UNL A   1      48.049  25.674  32.399  1.00  0.00    -0.203 F 
ATOM     82  C   UNL A   1      50.225  25.826  31.509  1.00  0.00     0.198 A 
ATOM     83  C   UNL A   1      50.634  27.168  29.557  1.00  0.00     0.198 A 
ATOM     84  F   UNL A   1      48.866  28.352  28.554  1.00  0.00    -0.203 F 
ATOM     85  F   UNL A   1      50.678  25.020  32.478  1.00  0.00    -0.200 F 
ATOM     86  C   UNL A   1      51.098  26.316  30.547  1.00  0.00     0.200 A 
ATOM     87  F   UNL A   1      51.472  27.625  28.617  1.00  0.00    -0.200 F 
ATOM     88  F   UNL A   1      52.391  25.963  30.575  1.00  0.00    -0.200 F 
ENDBRANCH  55  78
ENDBRANCH  29  30
ENDBRANCH  22  24
ENDBRANCH  21  22
ENDBRANCH  20  21
ENDBRANCH   1  20
TORSDOF 16
ENDMDL
MODEL 2
REMARK VINA RESULT:     -10.4      4.462     10.043
REMARK SMILES C#CC[C@@]1(C(=O)OCCOC(=O)c2ccc(-c3c4nc(c(-c5c(F)c(F)c(F)c(F)c5F)c5ccc([nH]5)c(-c5c(F)c(F)c(F)c(F)c5F)c5nc(c(-c6c(F)c(F)c(F)c(F)c6F)c6ccc3[nH]6)C=C5)C=C4)cc2)CCCN1C(=O)OC(C)(C)C
REMARK SMILES IDX 8 1 7 2 5 3 6 4 4 5 76 6 79 7 77 8 78 9 3 10 2 11 1 12 80 13
REMARK SMILES IDX 81 14 82 15 83 16 84 17 85 18 86 19 9 20 10 21 11 22 12 23
REMARK SMILES IDX 13 24 14 25 75 26 15 27 74 28 16 29 17 30 18 31 68 32 19 33
REMARK SMILES IDX 73 34 67 35 69 36 20 37 72 38 66 39 65 40 21 42 53 43 33 44
REMARK SMILES IDX 52 45 34 46 37 47 51 48 70 49 35 50 36 51 50 53 71 54 38 55
REMARK SMILES IDX 22 56 23 57 31 58 24 59 25 60 29 61 32 62 26 63 27 64 30 65
REMARK SMILES IDX 28 66 54 67 55 68 63 69 56 70 57 71 61 72 64 73 58 74 59 75
REMARK SMILES IDX 62 76 60 77 39 78 40 79 48 80 41 81 42 82 46 83 49 84 43 85
REMARK SMILES IDX 44 86 47 87 45 88
REMARK H PARENT 69 41 37 52
REMARK Flexibility Score: inf
ROOT
ATOM      1  C   UNL A   1      31.527  28.609  24.327  1.00  0.00     0.274 C 
ENDROOT
BRANCH   1   2
ATOM      2  O   UNL A   1      31.965  27.452  25.084  1.00  0.00    -0.460 OA
BRANCH   2   3
ATOM      3  C   UNL A   1      32.230  26.362  24.311  1.00  0.00     0.333 C 
ATOM      4  O   UNL A   1      32.961  26.441  23.328  1.00  0.00    -0.249 OA
BRANCH   3   5
ATOM      5  C   UNL A   1      31.441  25.066  24.682  1.00  0.00     0.154 C 
ATOM      6  C   UNL A   1      30.836  25.261  26.101  1.00  0.00     0.044 C 
ATOM      7  N   UNL A   1      32.119  23.744  24.875  1.00  0.00    -0.291 N 
ATOM      8  C   UNL A   1      30.395  23.870  26.529  1.00  0.00     0.025 C 
ATOM      9  C   UNL A   1      31.405  22.949  25.870  1.00  0.00     0.124 C 
BRANCH   5  10
ATOM     10  C   UNL A   1      30.287  24.881  23.631  1.00  0.00     0.130 C 
BRANCH  10  11
ATOM     11  C   UNL A   1      29.186  25.853  23.753  1.00  0.00    -0.104 C 
ATOM     12  C   UNL A   1      28.358  26.727  23.859  1.00  0.00     0.004 C 
ENDBRANCH  10  11
ENDBRANCH   5  10
BRANCH   7  13
ATOM     13  C   UNL A   1      32.899  23.026  23.980  1.00  0.00     0.411 C 
ATOM     14  O   UNL A   1      32.822  23.256  22.778  1.00  0.00    -0.224 OA
BRANCH  13  15
ATOM     15  O   UNL A   1      33.673  22.066  24.542  1.00  0.00    -0.444 OA
BRANCH  15  16
ATOM     16  C   UNL A   1      35.383  21.850  24.631  1.00  0.00     0.106 C 
ATOM     17  C   UNL A   1      35.326  21.967  26.418  1.00  0.00     0.056 C 
ATOM     18  C   UNL A   1      35.338  20.206  24.859  1.00  0.00     0.056 C 
ATOM     19  C   UNL A   1      36.687  22.989  23.286  1.00  0.00     0.056 C 
ENDBRANCH  15  16
ENDBRANCH  13  15
ENDBRANCH   7  13
ENDBRANCH   3   5
ENDBRANCH   2   3
ENDBRANCH   1   2
BRANCH   1  20
ATOM     20  C   UNL A   1      31.389  29.884  25.169  1.00  0.00     0.275 C 
BRANCH  20  21
ATOM     21  O   UNL A   1      32.672  30.467  25.482  1.00  0.00    -0.458 OA
BRANCH  21  22
ATOM     22  C   UNL A   1      32.617  31.226  26.595  1.00  0.00     0.338 C 
ATOM     23  O   UNL A   1      31.705  31.993  26.868  1.00  0.00    -0.246 OA
BRANCH  22  24
ATOM     24  C   UNL A   1      33.746  31.010  27.529  1.00  0.00     0.060 A 
ATOM     25  C   UNL A   1      34.830  32.393  27.962  1.00  0.00     0.016 A 
ATOM     26  C   UNL A   1      34.367  29.318  27.765  1.00  0.00     0.016 A 
ATOM     27  C   UNL A   1      36.546  32.099  28.441  1.00  0.00     0.010 A 
ATOM     28  C   UNL A   1      36.083  29.037  28.282  1.00  0.00     0.010 A 
ATOM     29  C   UNL A   1      37.163  30.429  28.699  1.00  0.00    -0.014 A 
BRANCH  29  30
ATOM     30  C   UNL A   1      38.462  30.231  29.464  1.00  0.00     0.031 A 
ATOM     31  C   UNL A   1      39.584  29.351  28.965  1.00  0.00     0.074 A 
ATOM     32  C   UNL A   1      38.654  30.820  30.665  1.00  0.00     0.049 A 
ATOM     33  N   UNL A   1      40.424  28.585  29.620  1.00  0.00    -0.248 NA
ATOM     34  C   UNL A   1      39.801  29.306  27.524  1.00  0.00     0.031 C 
ATOM     35  C   UNL A   1      37.766  31.785  31.309  1.00  0.00     0.029 A 
ATOM     36  N   UNL A   1      39.678  30.673  31.578  1.00  0.00    -0.354 N 
ATOM     37  C   UNL A   1      41.114  27.865  28.643  1.00  0.00     0.074 A 
ATOM     38  C   UNL A   1      40.546  28.227  27.371  1.00  0.00     0.031 C 
ATOM     39  C   UNL A   1      38.274  32.148  32.494  1.00  0.00     0.029 A 
ATOM     40  C   UNL A   1      39.469  31.360  32.751  1.00  0.00     0.049 A 
ATOM     41  H   UNL A   1      40.481  30.129  31.406  1.00  0.00     0.167 HD
ATOM     42  C   UNL A   1      42.207  27.072  28.758  1.00  0.00     0.037 A 
ATOM     43  C   UNL A   1      40.111  31.314  33.935  1.00  0.00     0.037 A 
ATOM     44  C   UNL A   1      42.983  26.975  29.961  1.00  0.00     0.049 A 
ATOM     45  C   UNL A   1      41.288  30.393  34.089  1.00  0.00     0.074 A 
ATOM     46  C   UNL A   1      44.136  26.250  30.190  1.00  0.00     0.029 A 
ATOM     47  N   UNL A   1      42.723  27.704  31.112  1.00  0.00    -0.354 N 
ATOM     48  N   UNL A   1      41.812  29.573  33.211  1.00  0.00    -0.248 NA
ATOM     49  C   UNL A   1      41.953  30.377  35.398  1.00  0.00     0.031 C 
ATOM     50  C   UNL A   1      44.565  26.523  31.493  1.00  0.00     0.029 A 
ATOM     51  C   UNL A   1      43.698  27.447  32.057  1.00  0.00     0.049 A 
ATOM     52  H   UNL A   1      41.960  28.313  31.236  1.00  0.00     0.167 HD
ATOM     53  C   UNL A   1      42.885  28.967  33.848  1.00  0.00     0.074 A 
ATOM     54  C   UNL A   1      42.937  29.514  35.189  1.00  0.00     0.031 C 
ATOM     55  C   UNL A   1      43.750  28.042  33.368  1.00  0.00     0.037 A 
BRANCH  42  56
ATOM     56  C   UNL A   1      42.626  26.267  27.556  1.00  0.00     0.064 A 
ATOM     57  C   UNL A   1      42.116  24.991  27.264  1.00  0.00     0.173 A 
ATOM     58  C   UNL A   1      43.599  26.789  26.687  1.00  0.00     0.173 A 
ATOM     59  F   UNL A   1      41.184  24.440  28.055  1.00  0.00    -0.203 F 
ATOM     60  C   UNL A   1      42.621  24.239  26.206  1.00  0.00     0.198 A 
ATOM     61  C   UNL A   1      44.068  26.053  25.601  1.00  0.00     0.198 A 
ATOM     62  F   UNL A   1      44.103  28.015  26.896  1.00  0.00    -0.203 F 
ATOM     63  F   UNL A   1      42.191  22.984  26.011  1.00  0.00    -0.200 F 
ATOM     64  C   UNL A   1      43.595  24.771  25.374  1.00  0.00     0.200 A 
ATOM     65  F   UNL A   1      44.990  26.581  24.784  1.00  0.00    -0.200 F 
ATOM     66  F   UNL A   1      44.086  24.043  24.361  1.00  0.00    -0.200 F 
ENDBRANCH  42  56
BRANCH  43  67
ATOM     67  C   UNL A   1      39.603  32.124  35.078  1.00  0.00     0.064 A 
ATOM     68  C   UNL A   1      38.677  31.601  35.990  1.00  0.00     0.173 A 
ATOM     69  C   UNL A   1      40.072  33.430  35.306  1.00  0.00     0.173 A 
ATOM     70  F   UNL A   1      38.180  30.369  35.806  1.00  0.00    -0.203 F 
ATOM     71  C   UNL A   1      38.239  32.349  37.082  1.00  0.00     0.198 A 
ATOM     72  C   UNL A   1      39.660  34.164  36.415  1.00  0.00     0.198 A 
ATOM     73  F   UNL A   1      40.962  33.980  34.466  1.00  0.00    -0.203 F 
ATOM     74  F   UNL A   1      37.330  31.836  37.922  1.00  0.00    -0.200 F 
ATOM     75  C   UNL A   1      38.739  33.624  37.301  1.00  0.00     0.200 A 
ATOM     76  F   UNL A   1      40.162  35.386  36.632  1.00  0.00    -0.200 F 
ATOM     77  F   UNL A   1      38.335  34.334  38.363  1.00  0.00    -0.200 F 
ENDBRANCH  43  67
BRANCH  55  78
ATOM     78  C   UNL A   1      44.871  27.610  34.259  1.00  0.00     0.064 A 
ATOM     79  C   UNL A   1      44.765  26.474  35.071  1.00  0.00     0.173 A 
ATOM     80  C   UNL A   1      46.101  28.284  34.216  1.00  0.00     0.173 A 
ATOM     81  F   UNL A   1      43.602  25.809  35.152  1.00  0.00    -0.203 F 
ATOM     82  C   UNL A   1      45.853  26.027  35.814  1.00  0.00     0.198 A 
ATOM     83  C   UNL A   1      47.194  27.818  34.939  1.00  0.00     0.198 A 
ATOM     84  F   UNL A   1      46.250  29.371  33.445  1.00  0.00    -0.203 F 
ATOM     85  F   UNL A   1      45.726  24.951  36.602  1.00  0.00    -0.200 F 
ATOM     86  C   UNL A   1      47.069  26.691  35.736  1.00  0.00     0.200 A 
ATOM     87  F   UNL A   1      48.373  28.450  34.849  1.00  0.00    -0.200 F 
ATOM     88  F   UNL A   1      48.123  26.242  36.432  1.00  0.00    -0.200 F 
ENDBRANCH  55  78
ENDBRANCH  29  30
ENDBRANCH  22  24
ENDBRANCH  21  22
ENDBRANCH  20  21
ENDBRANCH   1  20
TORSDOF 16
ENDMDL
MODEL 3
REMARK VINA RESULT:     -10.2      7.666     11.894
REMARK SMILES C#CC[C@@]1(C(=O)OCCOC(=O)c2ccc(-c3c4nc(c(-c5c(F)c(F)c(F)c(F)c5F)c5ccc([nH]5)c(-c5c(F)c(F)c(F)c(F)c5F)c5nc(c(-c6c(F)c(F)c(F)c(F)c6F)c6ccc3[nH]6)C=C5)C=C4)cc2)CCCN1C(=O)OC(C)(C)C
REMARK SMILES IDX 8 1 7 2 5 3 6 4 4 5 76 6 79 7 77 8 78 9 3 10 2 11 1 12 80 13
REMARK SMILES IDX 81 14 82 15 83 16 84 17 85 18 86 19 9 20 10 21 11 22 12 23
REMARK SMILES IDX 13 24 14 25 75 26 15 27 74 28 16 29 17 30 18 31 68 32 19 33
REMARK SMILES IDX 73 34 67 35 69 36 20 37 72 38 66 39 65 40 21 42 53 43 33 44
REMARK SMILES IDX 52 45 34 46 37 47 51 48 70 49 35 50 36 51 50 53 71 54 38 55
REMARK SMILES IDX 22 56 23 57 31 58 24 59 25 60 29 61 32 62 26 63 27 64 30 65
REMARK SMILES IDX 28 66 54 67 55 68 63 69 56 70 57 71 61 72 64 73 58 74 59 75
REMARK SMILES IDX 62 76 60 77 39 78 40 79 48 80 41 81 42 82 46 83 49 84 43 85
REMARK SMILES IDX 44 86 47 87 45 88
REMARK H PARENT 69 41 37 52
REMARK Flexibility Score: inf
ROOT
ATOM      1  C   UNL A   1      44.812  40.281  25.752  1.00  0.00     0.274 C 
ENDROOT
BRANCH   1   2
ATOM      2  O   UNL A   1      44.778  41.297  24.718  1.00  0.00    -0.460 OA
BRANCH   2   3
ATOM      3  C   UNL A   1      43.648  42.058  24.736  1.00  0.00     0.333 C 
ATOM      4  O   UNL A   1      42.895  42.056  25.707  1.00  0.00    -0.249 OA
BRANCH   3   5
ATOM      5  C   UNL A   1      43.318  42.806  23.405  1.00  0.00     0.154 C 
ATOM      6  C   UNL A   1      41.864  42.442  22.996  1.00  0.00     0.044 C 
ATOM      7  N   UNL A   1      44.026  42.501  22.121  1.00  0.00    -0.291 N 
ATOM      8  C   UNL A   1      41.738  42.907  21.554  1.00  0.00     0.025 C 
ATOM      9  C   UNL A   1      43.131  42.713  20.987  1.00  0.00     0.124 C 
BRANCH   5  10
ATOM     10  C   UNL A   1      43.426  44.351  23.675  1.00  0.00     0.130 C 
BRANCH  10  11
ATOM     11  C   UNL A   1      44.579  44.748  24.505  1.00  0.00    -0.104 C 
ATOM     12  C   UNL A   1      45.576  45.089  25.093  1.00  0.00     0.004 C 
ENDBRANCH  10  11
ENDBRANCH   5  10
BRANCH   7  13
ATOM     13  C   UNL A   1      45.383  42.569  21.836  1.00  0.00     0.411 C 
ATOM     14  O   UNL A   1      46.146  41.718  22.281  1.00  0.00    -0.224 OA
BRANCH  13  15
ATOM     15  O   UNL A   1      45.757  43.642  21.097  1.00  0.00    -0.444 OA
BRANCH  15  16
ATOM     16  C   UNL A   1      46.876  44.924  21.384  1.00  0.00     0.106 C 
ATOM     17  C   UNL A   1      47.052  45.193  19.622  1.00  0.00     0.056 C 
ATOM     18  C   UNL A   1      45.755  46.147  21.336  1.00  0.00     0.056 C 
ATOM     19  C   UNL A   1      48.497  44.637  22.833  1.00  0.00     0.056 C 
ENDBRANCH  15  16
ENDBRANCH  13  15
ENDBRANCH   7  13
ENDBRANCH   3   5
ENDBRANCH   2   3
ENDBRANCH   1   2
BRANCH   1  20
ATOM     20  C   UNL A   1      46.229  39.856  26.156  1.00  0.00     0.275 C 
BRANCH  20  21
ATOM     21  O   UNL A   1      46.294  38.459  26.514  1.00  0.00    -0.458 OA
BRANCH  21  22
ATOM     22  C   UNL A   1      45.959  38.259  27.804  1.00  0.00     0.338 C 
ATOM     23  O   UNL A   1      46.063  39.097  28.687  1.00  0.00    -0.246 OA
BRANCH  22  24
ATOM     24  C   UNL A   1      45.375  36.925  28.076  1.00  0.00     0.060 A 
ATOM     25  C   UNL A   1      46.168  35.824  29.274  1.00  0.00     0.016 A 
ATOM     26  C   UNL A   1      44.259  36.197  26.839  1.00  0.00     0.016 A 
ATOM     27  C   UNL A   1      45.998  34.032  29.126  1.00  0.00     0.010 A 
ATOM     28  C   UNL A   1      44.069  34.396  26.725  1.00  0.00     0.010 A 
ATOM     29  C   UNL A   1      44.879  33.303  27.921  1.00  0.00    -0.014 A 
BRANCH  29  30
ATOM     30  C   UNL A   1      44.468  31.848  28.079  1.00  0.00     0.031 A 
ATOM     31  C   UNL A   1      45.214  30.707  27.426  1.00  0.00     0.074 A 
ATOM     32  C   UNL A   1      43.374  31.513  28.797  1.00  0.00     0.049 A 
ATOM     33  N   UNL A   1      44.774  29.579  26.923  1.00  0.00    -0.248 NA
ATOM     34  C   UNL A   1      46.659  30.844  27.305  1.00  0.00     0.031 C 
ATOM     35  C   UNL A   1      42.551  32.418  29.597  1.00  0.00     0.029 A 
ATOM     36  N   UNL A   1      42.750  30.293  28.959  1.00  0.00    -0.354 N 
ATOM     37  C   UNL A   1      45.875  28.998  26.289  1.00  0.00     0.074 A 
ATOM     38  C   UNL A   1      46.969  29.927  26.406  1.00  0.00     0.031 C 
ATOM     39  C   UNL A   1      41.547  31.736  30.164  1.00  0.00     0.029 A 
ATOM     40  C   UNL A   1      41.583  30.365  29.682  1.00  0.00     0.049 A 
ATOM     41  H   UNL A   1      43.107  29.452  28.591  1.00  0.00     0.167 HD
ATOM     42  C   UNL A   1      46.022  27.756  25.768  1.00  0.00     0.037 A 
ATOM     43  C   UNL A   1      40.603  29.461  29.881  1.00  0.00     0.037 A 
ATOM     44  C   UNL A   1      45.057  26.710  25.947  1.00  0.00     0.049 A 
ATOM     45  C   UNL A   1      40.730  28.101  29.257  1.00  0.00     0.074 A 
ATOM     46  C   UNL A   1      45.111  25.399  25.516  1.00  0.00     0.029 A 
ATOM     47  N   UNL A   1      43.899  26.845  26.699  1.00  0.00    -0.354 N 
ATOM     48  N   UNL A   1      41.690  27.629  28.498  1.00  0.00    -0.248 NA
ATOM     49  C   UNL A   1      39.636  27.153  29.501  1.00  0.00     0.031 C 
ATOM     50  C   UNL A   1      43.970  24.743  25.988  1.00  0.00     0.029 A 
ATOM     51  C   UNL A   1      43.228  25.637  26.746  1.00  0.00     0.049 A 
ATOM     52  H   UNL A   1      43.600  27.675  27.135  1.00  0.00     0.167 HD
ATOM     53  C   UNL A   1      41.333  26.322  28.200  1.00  0.00     0.074 A 
ATOM     54  C   UNL A   1      40.066  26.075  28.859  1.00  0.00     0.031 C 
ATOM     55  C   UNL A   1      41.992  25.409  27.448  1.00  0.00     0.037 A 
BRANCH  42  56
ATOM     56  C   UNL A   1      47.268  27.466  24.973  1.00  0.00     0.064 A 
ATOM     57  C   UNL A   1      47.425  27.825  23.624  1.00  0.00     0.173 A 
ATOM     58  C   UNL A   1      48.325  26.773  25.585  1.00  0.00     0.173 A 
ATOM     59  F   UNL A   1      46.451  28.490  22.984  1.00  0.00    -0.203 F 
ATOM     60  C   UNL A   1      48.549  27.431  22.901  1.00  0.00     0.198 A 
ATOM     61  C   UNL A   1      49.469  26.422  24.871  1.00  0.00     0.198 A 
ATOM     62  F   UNL A   1      48.247  26.428  26.879  1.00  0.00    -0.203 F 
ATOM     63  F   UNL A   1      48.628  27.698  21.589  1.00  0.00    -0.200 F 
ATOM     64  C   UNL A   1      49.571  26.732  23.525  1.00  0.00     0.200 A 
ATOM     65  F   UNL A   1      50.466  25.769  25.485  1.00  0.00    -0.200 F 
ATOM     66  F   UNL A   1      50.648  26.346  22.826  1.00  0.00    -0.200 F 
ENDBRANCH  42  56
BRANCH  43  67
ATOM     67  C   UNL A   1      39.392  29.851  30.656  1.00  0.00     0.064 A 
ATOM     68  C   UNL A   1      39.332  29.694  32.047  1.00  0.00     0.173 A 
ATOM     69  C   UNL A   1      38.282  30.435  30.021  1.00  0.00     0.173 A 
ATOM     70  F   UNL A   1      40.354  29.121  32.700  1.00  0.00    -0.203 F 
ATOM     71  C   UNL A   1      38.212  30.103  32.771  1.00  0.00     0.198 A 
ATOM     72  C   UNL A   1      37.179  30.874  30.749  1.00  0.00     0.198 A 
ATOM     73  F   UNL A   1      38.287  30.613  28.691  1.00  0.00    -0.203 F 
ATOM     74  F   UNL A   1      38.169  29.912  34.097  1.00  0.00    -0.200 F 
ATOM     75  C   UNL A   1      37.143  30.703  32.124  1.00  0.00     0.200 A 
ATOM     76  F   UNL A   1      36.158  31.472  30.120  1.00  0.00    -0.200 F 
ATOM     77  F   UNL A   1      36.077  31.115  32.824  1.00  0.00    -0.200 F 
ENDBRANCH  43  67
BRANCH  55  78
ATOM     78  C   UNL A   1      41.407  24.035  27.352  1.00  0.00     0.064 A 
ATOM     79  C   UNL A   1      40.270  23.778  26.577  1.00  0.00     0.173 A 
ATOM     80  C   UNL A   1      42.058  22.951  27.960  1.00  0.00     0.173 A 
ATOM     81  F   UNL A   1      39.609  24.788  25.990  1.00  0.00    -0.203 F 
ATOM     82  C   UNL A   1      39.801  22.478  26.413  1.00  0.00     0.198 A 
ATOM     83  C   UNL A   1      41.602  21.650  27.772  1.00  0.00     0.198 A 
ATOM     84  F   UNL A   1      43.156  23.151  28.703  1.00  0.00    -0.203 F 
ATOM     85  F   UNL A   1      38.698  22.253  25.685  1.00  0.00    -0.200 F 
ATOM     86  C   UNL A   1      40.475  21.416  27.000  1.00  0.00     0.200 A 
ATOM     87  F   UNL A   1      42.264  20.624  28.323  1.00  0.00    -0.200 F 
ATOM     88  F   UNL A   1      40.036  20.162  26.819  1.00  0.00    -0.200 F 
ENDBRANCH  55  78
ENDBRANCH  29  30
ENDBRANCH  22  24
ENDBRANCH  21  22
ENDBRANCH  20  21
ENDBRANCH   1  20
TORSDOF 16
ENDMDL
