MODEL 1
REMARK VINA RESULT:     -12.1      0.000      0.000
REMARK SMILES CC(C)(C)OC(=O)N1CCC[C@H]1C(=O)N1CCC[C@H]1C(=O)N1CCC[C@@H]1C(=O)OCCOC(=O)c1ccc(-c2c3nc(c(-c4c(F)c(F)c(F)c(F)c4F)c4ccc([nH]4)c(-c4c(F)c(F)c(F)c(F)c4F)c4nc(c(-c5c(F)c(F)c(F)c(F)c5F)c5ccc2[nH]5)C=C4)C=C3)cc1
REMARK SMILES IDX 27 1 28 2 26 3 22 4 23 5 24 6 25 7 20 8 21 9 19 10 15 11
REMARK SMILES IDX 16 12 17 13 18 14 13 15 14 16 12 17 8 18 9 19 10 20 11 21
REMARK SMILES IDX 6 22 7 23 5 24 2 25 1 26 3 27 4 28 29 29 30 30 31 31 32 32
REMARK SMILES IDX 33 33 34 34 35 35 36 36 97 37 37 38 96 39 38 40 39 41 40 42
REMARK SMILES IDX 90 43 41 44 95 45 89 46 91 47 42 48 94 49 88 50 87 51 43 53
REMARK SMILES IDX 75 54 55 55 74 56 56 57 59 58 73 59 92 60 57 61 58 62 72 64
REMARK SMILES IDX 93 65 60 66 44 67 45 68 53 69 46 70 47 71 51 72 54 73 48 74
REMARK SMILES IDX 49 75 52 76 50 77 76 78 77 79 85 80 78 81 79 82 83 83 86 84
REMARK SMILES IDX 80 85 81 86 84 87 82 88 61 89 62 90 70 91 63 92 64 93 68 94
REMARK SMILES IDX 71 95 65 96 66 97 69 98 67 99
REMARK H PARENT 91 52 59 63
REMARK Flexibility Score: inf
ROOT
ATOM      1  C   UNL A   1      30.922  27.277  25.599  1.00  0.00     0.328 C 
ATOM      2  O   UNL A   1      30.841  26.555  26.590  1.00  0.00    -0.250 OA
ENDROOT
BRANCH   1   3
ATOM      3  C   UNL A   1      30.359  26.868  24.219  1.00  0.00     0.195 C 
ATOM      4  N   UNL A   1      31.415  26.761  23.228  1.00  0.00    -0.327 N 
ATOM      5  C   UNL A   1      31.045  27.409  21.987  1.00  0.00     0.120 C 
ATOM      6  C   UNL A   1      30.018  28.445  22.401  1.00  0.00     0.024 C 
ATOM      7  C   UNL A   1      29.318  27.809  23.601  1.00  0.00     0.039 C 
BRANCH   4   8
ATOM      8  C   UNL A   1      32.494  25.934  23.425  1.00  0.00     0.246 C 
ATOM      9  O   UNL A   1      33.627  26.390  23.592  1.00  0.00    -0.272 OA
BRANCH   8  10
ATOM     10  C   UNL A   1      32.251  24.431  23.138  1.00  0.00     0.174 C 
ATOM     11  N   UNL A   1      33.089  23.602  24.046  1.00  0.00    -0.329 N 
ATOM     12  C   UNL A   1      32.313  23.352  25.245  1.00  0.00     0.120 C 
ATOM     13  C   UNL A   1      30.917  23.116  24.706  1.00  0.00     0.024 C 
ATOM     14  C   UNL A   1      30.805  24.045  23.499  1.00  0.00     0.037 C 
BRANCH  11  15
ATOM     15  C   UNL A   1      34.393  23.307  23.699  1.00  0.00     0.246 C 
ATOM     16  O   UNL A   1      34.674  23.307  22.493  1.00  0.00    -0.272 OA
BRANCH  15  17
ATOM     17  C   UNL A   1      35.504  22.803  24.690  1.00  0.00     0.178 C 
ATOM     18  N   UNL A   1      35.674  21.347  24.930  1.00  0.00    -0.296 N 
ATOM     19  C   UNL A   1      37.087  20.991  24.963  1.00  0.00     0.124 C 
ATOM     20  C   UNL A   1      37.751  22.294  25.368  1.00  0.00     0.024 C 
ATOM     21  C   UNL A   1      36.948  23.285  24.538  1.00  0.00     0.037 C 
BRANCH  18  22
ATOM     22  C   UNL A   1      34.709  20.567  25.542  1.00  0.00     0.410 C 
ATOM     23  O   UNL A   1      34.065  20.905  26.523  1.00  0.00    -0.224 OA
BRANCH  22  24
ATOM     24  O   UNL A   1      34.590  19.360  24.931  1.00  0.00    -0.444 OA
BRANCH  24  25
ATOM     25  C   UNL A   1      33.375  18.848  24.316  1.00  0.00     0.106 C 
ATOM     26  C   UNL A   1      32.532  18.310  25.483  1.00  0.00     0.056 C 
ATOM     27  C   UNL A   1      33.786  17.687  23.408  1.00  0.00     0.056 C 
ATOM     28  C   UNL A   1      32.528  19.866  23.546  1.00  0.00     0.056 C 
ENDBRANCH  24  25
ENDBRANCH  22  24
ENDBRANCH  18  22
ENDBRANCH  15  17
ENDBRANCH  11  15
ENDBRANCH   8  10
ENDBRANCH   4   8
ENDBRANCH   1   3
BRANCH   1  29
ATOM     29  O   UNL A   1      31.555  28.479  25.604  1.00  0.00    -0.461 OA
BRANCH  29  30
ATOM     30  C   UNL A   1      31.776  29.057  26.903  1.00  0.00     0.274 C 
BRANCH  30  31
ATOM     31  C   UNL A   1      31.875  30.581  26.840  1.00  0.00     0.275 C 
BRANCH  31  32
ATOM     32  O   UNL A   1      33.221  31.016  26.592  1.00  0.00    -0.458 OA
BRANCH  32  33
ATOM     33  C   UNL A   1      33.627  32.068  27.342  1.00  0.00     0.338 C 
ATOM     34  O   UNL A   1      33.041  33.116  27.546  1.00  0.00    -0.246 OA
BRANCH  33  35
ATOM     35  C   UNL A   1      34.863  31.699  28.038  1.00  0.00     0.060 A 
ATOM     36  C   UNL A   1      34.939  30.425  28.607  1.00  0.00     0.016 A 
ATOM     37  C   UNL A   1      35.915  32.604  28.161  1.00  0.00     0.016 A 
ATOM     38  C   UNL A   1      36.084  30.031  29.284  1.00  0.00     0.010 A 
ATOM     39  C   UNL A   1      37.061  32.215  28.853  1.00  0.00     0.010 A 
ATOM     40  C   UNL A   1      37.150  30.926  29.411  1.00  0.00    -0.014 A 
BRANCH  40  41
ATOM     41  C   UNL A   1      38.358  30.528  30.157  1.00  0.00     0.031 A 
ATOM     42  C   UNL A   1      39.312  29.554  29.542  1.00  0.00     0.074 A 
ATOM     43  C   UNL A   1      38.571  31.034  31.383  1.00  0.00     0.049 A 
ATOM     44  N   UNL A   1      40.327  28.936  30.085  1.00  0.00    -0.248 NA
ATOM     45  C   UNL A   1      39.090  29.228  28.125  1.00  0.00     0.031 C 
ATOM     46  C   UNL A   1      37.732  32.040  32.037  1.00  0.00     0.029 A 
ATOM     47  N   UNL A   1      39.547  30.757  32.304  1.00  0.00    -0.354 N 
ATOM     48  C   UNL A   1      40.850  28.128  29.087  1.00  0.00     0.074 A 
ATOM     49  C   UNL A   1      40.038  28.329  27.905  1.00  0.00     0.031 C 
ATOM     50  C   UNL A   1      38.218  32.280  33.265  1.00  0.00     0.029 A 
ATOM     51  C   UNL A   1      39.362  31.404  33.501  1.00  0.00     0.049 A 
ATOM     52  H   UNL A   1      40.304  30.154  32.126  1.00  0.00     0.167 HD
ATOM     53  C   UNL A   1      41.912  27.293  29.163  1.00  0.00     0.037 A 
ATOM     54  C   UNL A   1      40.015  31.262  34.668  1.00  0.00     0.037 A 
ATOM     55  C   UNL A   1      42.710  27.120  30.348  1.00  0.00     0.049 A 
ATOM     56  C   UNL A   1      41.139  30.266  34.751  1.00  0.00     0.074 A 
ATOM     57  C   UNL A   1      43.823  26.321  30.533  1.00  0.00     0.029 A 
ATOM     58  N   UNL A   1      42.472  27.762  31.556  1.00  0.00    -0.354 N 
ATOM     59  N   UNL A   1      41.624  29.489  33.812  1.00  0.00    -0.248 NA
ATOM     60  C   UNL A   1      41.792  30.113  36.056  1.00  0.00     0.031 C 
ATOM     61  C   UNL A   1      44.232  26.444  31.866  1.00  0.00     0.029 A 
ATOM     62  C   UNL A   1      43.398  27.352  32.500  1.00  0.00     0.049 A 
ATOM     63  H   UNL A   1      41.751  28.413  31.718  1.00  0.00     0.167 HD
ATOM     64  C   UNL A   1      42.642  28.759  34.408  1.00  0.00     0.074 A 
ATOM     65  C   UNL A   1      42.719  29.203  35.786  1.00  0.00     0.031 C 
ATOM     66  C   UNL A   1      43.438  27.804  33.869  1.00  0.00     0.037 A 
BRANCH  53  67
ATOM     67  C   UNL A   1      42.241  26.477  27.949  1.00  0.00     0.064 A 
ATOM     68  C   UNL A   1      43.204  26.891  27.019  1.00  0.00     0.173 A 
ATOM     69  C   UNL A   1      41.596  25.251  27.726  1.00  0.00     0.173 A 
ATOM     70  F   UNL A   1      43.836  28.064  27.176  1.00  0.00    -0.203 F 
ATOM     71  C   UNL A   1      43.496  26.117  25.898  1.00  0.00     0.198 A 
ATOM     72  C   UNL A   1      41.907  24.469  26.618  1.00  0.00     0.198 A 
ATOM     73  F   UNL A   1      40.665  24.811  28.587  1.00  0.00    -0.203 F 
ATOM     74  F   UNL A   1      44.391  26.550  24.999  1.00  0.00    -0.200 F 
ATOM     75  C   UNL A   1      42.852  24.904  25.703  1.00  0.00     0.200 A 
ATOM     76  F   UNL A   1      41.289  23.293  26.436  1.00  0.00    -0.200 F 
ATOM     77  F   UNL A   1      43.138  24.157  24.627  1.00  0.00    -0.200 F 
ENDBRANCH  53  67
BRANCH  54  78
ATOM     78  C   UNL A   1      39.585  32.045  35.855  1.00  0.00     0.064 A 
ATOM     79  C   UNL A   1      40.211  33.252  36.189  1.00  0.00     0.173 A 
ATOM     80  C   UNL A   1      38.533  31.605  36.672  1.00  0.00     0.173 A 
ATOM     81  F   UNL A   1      41.239  33.699  35.454  1.00  0.00    -0.203 F 
ATOM     82  C   UNL A   1      39.803  33.989  37.301  1.00  0.00     0.198 A 
ATOM     83  C   UNL A   1      38.110  32.354  37.768  1.00  0.00     0.198 A 
ATOM     84  F   UNL A   1      37.905  30.452  36.399  1.00  0.00    -0.203 F 
ATOM     85  F   UNL A   1      40.442  35.122  37.621  1.00  0.00    -0.200 F 
ATOM     86  C   UNL A   1      38.749  33.543  38.084  1.00  0.00     0.200 A 
ATOM     87  F   UNL A   1      37.084  31.925  38.515  1.00  0.00    -0.200 F 
ATOM     88  F   UNL A   1      38.354  34.255  39.148  1.00  0.00    -0.200 F 
ENDBRANCH  54  78
BRANCH  66  89
ATOM     89  C   UNL A   1      44.457  27.181  34.774  1.00  0.00     0.064 A 
ATOM     90  C   UNL A   1      45.717  27.768  34.963  1.00  0.00     0.173 A 
ATOM     91  C   UNL A   1      44.158  26.012  35.488  1.00  0.00     0.173 A 
ATOM     92  F   UNL A   1      46.054  28.876  34.287  1.00  0.00    -0.203 F 
ATOM     93  C   UNL A   1      46.649  27.192  35.822  1.00  0.00     0.198 A 
ATOM     94  C   UNL A   1      45.082  25.455  36.366  1.00  0.00     0.198 A 
ATOM     95  F   UNL A   1      42.963  25.418  35.343  1.00  0.00    -0.203 F 
ATOM     96  F   UNL A   1      47.862  27.745  35.958  1.00  0.00    -0.200 F 
ATOM     97  C   UNL A   1      46.327  26.042  36.528  1.00  0.00     0.200 A 
ATOM     98  F   UNL A   1      44.767  24.349  37.055  1.00  0.00    -0.200 F 
ATOM     99  F   UNL A   1      47.224  25.494  37.360  1.00  0.00    -0.200 F 
ENDBRANCH  66  89
ENDBRANCH  40  41
ENDBRANCH  33  35
ENDBRANCH  32  33
ENDBRANCH  31  32
ENDBRANCH  30  31
ENDBRANCH  29  30
ENDBRANCH   1  29
TORSDOF 18
ENDMDL
MODEL 2
REMARK VINA RESULT:     -11.6      0.808      2.127
REMARK SMILES CC(C)(C)OC(=O)N1CCC[C@H]1C(=O)N1CCC[C@H]1C(=O)N1CCC[C@@H]1C(=O)OCCOC(=O)c1ccc(-c2c3nc(c(-c4c(F)c(F)c(F)c(F)c4F)c4ccc([nH]4)c(-c4c(F)c(F)c(F)c(F)c4F)c4nc(c(-c5c(F)c(F)c(F)c(F)c5F)c5ccc2[nH]5)C=C4)C=C3)cc1
REMARK SMILES IDX 27 1 28 2 26 3 22 4 23 5 24 6 25 7 20 8 21 9 19 10 15 11
REMARK SMILES IDX 16 12 17 13 18 14 13 15 14 16 12 17 8 18 9 19 10 20 11 21
REMARK SMILES IDX 6 22 7 23 5 24 2 25 1 26 3 27 4 28 29 29 30 30 31 31 32 32
REMARK SMILES IDX 33 33 34 34 35 35 36 36 97 37 37 38 96 39 38 40 39 41 40 42
REMARK SMILES IDX 90 43 41 44 95 45 89 46 91 47 42 48 94 49 88 50 87 51 43 53
REMARK SMILES IDX 75 54 55 55 74 56 56 57 59 58 73 59 92 60 57 61 58 62 72 64
REMARK SMILES IDX 93 65 60 66 44 67 45 68 53 69 46 70 47 71 51 72 54 73 48 74
REMARK SMILES IDX 49 75 52 76 50 77 76 78 77 79 85 80 78 81 79 82 83 83 86 84
REMARK SMILES IDX 80 85 81 86 84 87 82 88 61 89 62 90 70 91 63 92 64 93 68 94
REMARK SMILES IDX 71 95 65 96 66 97 69 98 67 99
REMARK H PARENT 91 52 59 63
REMARK Flexibility Score: inf
ROOT
ATOM      1  C   UNL A   1      32.768  28.829  24.815  1.00  0.00     0.328 C 
ATOM      2  O   UNL A   1      33.582  29.300  24.024  1.00  0.00    -0.250 OA
ENDROOT
BRANCH   1   3
ATOM      3  C   UNL A   1      31.387  28.293  24.374  1.00  0.00     0.195 C 
ATOM      4  N   UNL A   1      31.521  27.264  23.358  1.00  0.00    -0.327 N 
ATOM      5  C   UNL A   1      30.590  27.471  22.268  1.00  0.00     0.120 C 
ATOM      6  C   UNL A   1      30.302  28.959  22.303  1.00  0.00     0.024 C 
ATOM      7  C   UNL A   1      30.414  29.320  23.783  1.00  0.00     0.039 C 
BRANCH   4   8
ATOM      8  C   UNL A   1      32.278  26.140  23.580  1.00  0.00     0.246 C 
ATOM      9  O   UNL A   1      33.458  26.083  23.225  1.00  0.00    -0.272 OA
BRANCH   8  10
ATOM     10  C   UNL A   1      31.496  24.878  24.024  1.00  0.00     0.174 C 
ATOM     11  N   UNL A   1      32.345  24.049  24.922  1.00  0.00    -0.329 N 
ATOM     12  C   UNL A   1      32.110  24.499  26.280  1.00  0.00     0.120 C 
ATOM     13  C   UNL A   1      30.617  24.758  26.300  1.00  0.00     0.024 C 
ATOM     14  C   UNL A   1      30.295  25.276  24.900  1.00  0.00     0.037 C 
BRANCH  11  15
ATOM     15  C   UNL A   1      33.226  23.133  24.381  1.00  0.00     0.246 C 
ATOM     16  O   UNL A   1      33.003  22.742  23.227  1.00  0.00    -0.272 OA
BRANCH  15  17
ATOM     17  C   UNL A   1      34.386  22.416  25.165  1.00  0.00     0.178 C 
ATOM     18  N   UNL A   1      34.715  21.000  24.863  1.00  0.00    -0.296 N 
ATOM     19  C   UNL A   1      36.159  20.804  24.823  1.00  0.00     0.124 C 
ATOM     20  C   UNL A   1      36.674  21.928  25.704  1.00  0.00     0.024 C 
ATOM     21  C   UNL A   1      35.767  23.067  25.260  1.00  0.00     0.037 C 
BRANCH  18  22
ATOM     22  C   UNL A   1      33.841  19.956  25.108  1.00  0.00     0.410 C 
ATOM     23  O   UNL A   1      32.875  20.020  25.850  1.00  0.00    -0.224 OA
BRANCH  22  24
ATOM     24  O   UNL A   1      34.216  18.834  24.439  1.00  0.00    -0.444 OA
BRANCH  24  25
ATOM     25  C   UNL A   1      33.317  17.771  24.017  1.00  0.00     0.106 C 
ATOM     26  C   UNL A   1      34.222  16.728  23.339  1.00  0.00     0.056 C 
ATOM     27  C   UNL A   1      32.368  18.372  22.978  1.00  0.00     0.056 C 
ATOM     28  C   UNL A   1      32.532  17.069  25.129  1.00  0.00     0.056 C 
ENDBRANCH  24  25
ENDBRANCH  22  24
ENDBRANCH  18  22
ENDBRANCH  15  17
ENDBRANCH  11  15
ENDBRANCH   8  10
ENDBRANCH   4   8
ENDBRANCH   1   3
BRANCH   1  29
ATOM     29  O   UNL A   1      32.978  28.779  26.157  1.00  0.00    -0.461 OA
BRANCH  29  30
ATOM     30  C   UNL A   1      31.943  29.362  26.968  1.00  0.00     0.274 C 
BRANCH  30  31
ATOM     31  C   UNL A   1      32.012  30.889  26.970  1.00  0.00     0.275 C 
BRANCH  31  32
ATOM     32  O   UNL A   1      33.347  31.361  26.729  1.00  0.00    -0.458 OA
BRANCH  32  33
ATOM     33  C   UNL A   1      33.741  32.383  27.524  1.00  0.00     0.338 C 
ATOM     34  O   UNL A   1      33.147  33.417  27.769  1.00  0.00    -0.246 OA
BRANCH  33  35
ATOM     35  C   UNL A   1      34.977  31.994  28.209  1.00  0.00     0.060 A 
ATOM     36  C   UNL A   1      35.030  30.730  28.800  1.00  0.00     0.016 A 
ATOM     37  C   UNL A   1      36.054  32.874  28.301  1.00  0.00     0.016 A 
ATOM     38  C   UNL A   1      36.174  30.318  29.468  1.00  0.00     0.010 A 
ATOM     39  C   UNL A   1      37.200  32.468  28.984  1.00  0.00     0.010 A 
ATOM     40  C   UNL A   1      37.264  31.187  29.564  1.00  0.00    -0.014 A 
BRANCH  40  41
ATOM     41  C   UNL A   1      38.472  30.772  30.299  1.00  0.00     0.031 A 
ATOM     42  C   UNL A   1      39.427  29.813  29.661  1.00  0.00     0.074 A 
ATOM     43  C   UNL A   1      38.686  31.248  31.538  1.00  0.00     0.049 A 
ATOM     44  N   UNL A   1      40.441  29.182  30.189  1.00  0.00    -0.248 NA
ATOM     45  C   UNL A   1      39.204  29.521  28.237  1.00  0.00     0.031 C 
ATOM     46  C   UNL A   1      37.847  32.237  32.216  1.00  0.00     0.029 A 
ATOM     47  N   UNL A   1      39.662  30.948  32.451  1.00  0.00    -0.354 N 
ATOM     48  C   UNL A   1      40.964  28.398  29.171  1.00  0.00     0.074 A 
ATOM     49  C   UNL A   1      40.152  28.628  27.994  1.00  0.00     0.031 C 
ATOM     50  C   UNL A   1      38.332  32.447  33.450  1.00  0.00     0.029 A 
ATOM     51  C   UNL A   1      39.477  31.566  33.663  1.00  0.00     0.049 A 
ATOM     52  H   UNL A   1      40.418  30.350  32.259  1.00  0.00     0.167 HD
ATOM     53  C   UNL A   1      42.026  27.562  29.226  1.00  0.00     0.037 A 
ATOM     54  C   UNL A   1      40.130  31.396  34.827  1.00  0.00     0.037 A 
ATOM     55  C   UNL A   1      42.825  27.360  30.407  1.00  0.00     0.049 A 
ATOM     56  C   UNL A   1      41.254  30.398  34.885  1.00  0.00     0.074 A 
ATOM     57  C   UNL A   1      43.938  26.557  30.572  1.00  0.00     0.029 A 
ATOM     58  N   UNL A   1      42.586  27.973  31.630  1.00  0.00    -0.354 N 
ATOM     59  N   UNL A   1      41.739  29.645  33.928  1.00  0.00    -0.248 NA
ATOM     60  C   UNL A   1      41.907  30.213  36.186  1.00  0.00     0.031 C 
ATOM     61  C   UNL A   1      44.346  26.648  31.907  1.00  0.00     0.029 A 
ATOM     62  C   UNL A   1      43.513  27.540  32.564  1.00  0.00     0.049 A 
ATOM     63  H   UNL A   1      41.865  28.619  31.808  1.00  0.00     0.167 HD
ATOM     64  C   UNL A   1      42.757  28.900  34.505  1.00  0.00     0.074 A 
ATOM     65  C   UNL A   1      42.834  29.311  35.894  1.00  0.00     0.031 C 
ATOM     66  C   UNL A   1      43.553  27.959  33.943  1.00  0.00     0.037 A 
BRANCH  53  67
ATOM     67  C   UNL A   1      42.355  26.776  27.993  1.00  0.00     0.064 A 
ATOM     68  C   UNL A   1      41.759  25.536  27.726  1.00  0.00     0.173 A 
ATOM     69  C   UNL A   1      43.267  27.284  27.055  1.00  0.00     0.173 A 
ATOM     70  F   UNL A   1      40.895  24.998  28.599  1.00  0.00    -0.203 F 
ATOM     71  C   UNL A   1      42.079  24.822  26.572  1.00  0.00     0.198 A 
ATOM     72  C   UNL A   1      43.566  26.579  25.893  1.00  0.00     0.198 A 
ATOM     73  F   UNL A   1      43.866  28.466  27.266  1.00  0.00    -0.203 F 
ATOM     74  F   UNL A   1      41.528  23.620  26.354  1.00  0.00    -0.200 F 
ATOM     75  C   UNL A   1      42.976  25.348  25.654  1.00  0.00     0.200 A 
ATOM     76  F   UNL A   1      44.428  27.093  25.003  1.00  0.00    -0.200 F 
ATOM     77  F   UNL A   1      43.279  24.663  24.543  1.00  0.00    -0.200 F 
ENDBRANCH  53  67
BRANCH  54  78
ATOM     78  C   UNL A   1      39.700  32.149  36.032  1.00  0.00     0.064 A 
ATOM     79  C   UNL A   1      38.656  31.684  36.841  1.00  0.00     0.173 A 
ATOM     80  C   UNL A   1      40.333  33.346  36.405  1.00  0.00     0.173 A 
ATOM     81  F   UNL A   1      38.003  30.560  36.510  1.00  0.00    -0.203 F 
ATOM     82  C   UNL A   1      38.256  32.390  37.975  1.00  0.00     0.198 A 
ATOM     83  C   UNL A   1      39.950  34.036  37.552  1.00  0.00     0.198 A 
ATOM     84  F   UNL A   1      41.334  33.837  35.661  1.00  0.00    -0.203 F 
ATOM     85  F   UNL A   1      37.230  31.942  38.711  1.00  0.00    -0.200 F 
ATOM     86  C   UNL A   1      38.908  33.560  38.334  1.00  0.00     0.200 A 
ATOM     87  F   UNL A   1      40.589  35.161  37.900  1.00  0.00    -0.200 F 
ATOM     88  F   UNL A   1      38.527  34.233  39.428  1.00  0.00    -0.200 F 
ENDBRANCH  54  78
BRANCH  66  89
ATOM     89  C   UNL A   1      44.572  27.314  34.833  1.00  0.00     0.064 A 
ATOM     90  C   UNL A   1      44.299  26.109  35.497  1.00  0.00     0.173 A 
ATOM     91  C   UNL A   1      45.843  27.883  34.992  1.00  0.00     0.173 A 
ATOM     92  F   UNL A   1      43.090  25.538  35.390  1.00  0.00    -0.203 F 
ATOM     93  C   UNL A   1      45.259  25.508  36.306  1.00  0.00     0.198 A 
ATOM     94  C   UNL A   1      46.809  27.265  35.779  1.00  0.00     0.198 A 
ATOM     95  F   UNL A   1      46.151  29.033  34.372  1.00  0.00    -0.203 F 
ATOM     96  F   UNL A   1      44.965  24.378  36.964  1.00  0.00    -0.200 F 
ATOM     97  C   UNL A   1      46.515  26.082  36.439  1.00  0.00     0.200 A 
ATOM     98  F   UNL A   1      48.026  27.815  35.900  1.00  0.00    -0.200 F 
ATOM     99  F   UNL A   1      47.440  25.497  37.212  1.00  0.00    -0.200 F 
ENDBRANCH  66  89
ENDBRANCH  40  41
ENDBRANCH  33  35
ENDBRANCH  32  33
ENDBRANCH  31  32
ENDBRANCH  30  31
ENDBRANCH  29  30
ENDBRANCH   1  29
TORSDOF 18
ENDMDL
MODEL 3
REMARK VINA RESULT:     -11.6      3.310      7.751
REMARK SMILES CC(C)(C)OC(=O)N1CCC[C@H]1C(=O)N1CCC[C@H]1C(=O)N1CCC[C@@H]1C(=O)OCCOC(=O)c1ccc(-c2c3nc(c(-c4c(F)c(F)c(F)c(F)c4F)c4ccc([nH]4)c(-c4c(F)c(F)c(F)c(F)c4F)c4nc(c(-c5c(F)c(F)c(F)c(F)c5F)c5ccc2[nH]5)C=C4)C=C3)cc1
REMARK SMILES IDX 27 1 28 2 26 3 22 4 23 5 24 6 25 7 20 8 21 9 19 10 15 11
REMARK SMILES IDX 16 12 17 13 18 14 13 15 14 16 12 17 8 18 9 19 10 20 11 21
REMARK SMILES IDX 6 22 7 23 5 24 2 25 1 26 3 27 4 28 29 29 30 30 31 31 32 32
REMARK SMILES IDX 33 33 34 34 35 35 36 36 97 37 37 38 96 39 38 40 39 41 40 42
REMARK SMILES IDX 90 43 41 44 95 45 89 46 91 47 42 48 94 49 88 50 87 51 43 53
REMARK SMILES IDX 75 54 55 55 74 56 56 57 59 58 73 59 92 60 57 61 58 62 72 64
REMARK SMILES IDX 93 65 60 66 44 67 45 68 53 69 46 70 47 71 51 72 54 73 48 74
REMARK SMILES IDX 49 75 52 76 50 77 76 78 77 79 85 80 78 81 79 82 83 83 86 84
REMARK SMILES IDX 80 85 81 86 84 87 82 88 61 89 62 90 70 91 63 92 64 93 68 94
REMARK SMILES IDX 71 95 65 96 66 97 69 98 67 99
REMARK H PARENT 91 52 59 63
REMARK Flexibility Score: inf
ROOT
ATOM      1  C   UNL A   1      32.558  28.836  23.951  1.00  0.00     0.328 C 
ATOM      2  O   UNL A   1      32.943  28.590  22.810  1.00  0.00    -0.250 OA
ENDROOT
BRANCH   1   3
ATOM      3  C   UNL A   1      31.075  28.732  24.373  1.00  0.00     0.195 C 
ATOM      4  N   UNL A   1      30.660  27.347  24.508  1.00  0.00    -0.327 N 
ATOM      5  C   UNL A   1      29.380  27.112  23.873  1.00  0.00     0.120 C 
ATOM      6  C   UNL A   1      29.284  28.197  22.819  1.00  0.00     0.024 C 
ATOM      7  C   UNL A   1      30.050  29.370  23.428  1.00  0.00     0.039 C 
BRANCH   4   8
ATOM      8  C   UNL A   1      31.324  26.484  25.345  1.00  0.00     0.246 C 
ATOM      9  O   UNL A   1      31.421  26.713  26.553  1.00  0.00    -0.272 OA
BRANCH   8  10
ATOM     10  C   UNL A   1      32.172  25.389  24.650  1.00  0.00     0.174 C 
ATOM     11  N   UNL A   1      31.666  24.043  25.028  1.00  0.00    -0.329 N 
ATOM     12  C   UNL A   1      30.653  23.672  24.060  1.00  0.00     0.120 C 
ATOM     13  C   UNL A   1      31.229  24.174  22.752  1.00  0.00     0.024 C 
ATOM     14  C   UNL A   1      31.978  25.452  23.124  1.00  0.00     0.037 C 
BRANCH  11  15
ATOM     15  C   UNL A   1      32.112  23.443  26.190  1.00  0.00     0.246 C 
ATOM     16  O   UNL A   1      31.527  23.737  27.242  1.00  0.00    -0.272 OA
BRANCH  15  17
ATOM     17  C   UNL A   1      33.404  22.555  26.316  1.00  0.00     0.178 C 
ATOM     18  N   UNL A   1      33.758  21.609  25.227  1.00  0.00    -0.296 N 
ATOM     19  C   UNL A   1      35.190  21.647  24.958  1.00  0.00     0.124 C 
ATOM     20  C   UNL A   1      35.766  22.129  26.277  1.00  0.00     0.024 C 
ATOM     21  C   UNL A   1      34.750  23.200  26.649  1.00  0.00     0.037 C 
BRANCH  18  22
ATOM     22  C   UNL A   1      32.980  20.513  24.900  1.00  0.00     0.410 C 
ATOM     23  O   UNL A   1      31.782  20.425  25.112  1.00  0.00    -0.224 OA
BRANCH  22  24
ATOM     24  O   UNL A   1      33.730  19.527  24.340  1.00  0.00    -0.444 OA
BRANCH  24  25
ATOM     25  C   UNL A   1      33.321  18.138  24.206  1.00  0.00     0.106 C 
ATOM     26  C   UNL A   1      34.633  17.347  24.074  1.00  0.00     0.056 C 
ATOM     27  C   UNL A   1      32.527  18.026  22.902  1.00  0.00     0.056 C 
ATOM     28  C   UNL A   1      32.527  17.552  25.377  1.00  0.00     0.056 C 
ENDBRANCH  24  25
ENDBRANCH  22  24
ENDBRANCH  18  22
ENDBRANCH  15  17
ENDBRANCH  11  15
ENDBRANCH   8  10
ENDBRANCH   4   8
ENDBRANCH   1   3
BRANCH   1  29
ATOM     29  O   UNL A   1      33.385  29.270  24.938  1.00  0.00    -0.461 OA
BRANCH  29  30
ATOM     30  C   UNL A   1      32.763  30.069  25.960  1.00  0.00     0.274 C 
BRANCH  30  31
ATOM     31  C   UNL A   1      33.002  29.495  27.356  1.00  0.00     0.275 C 
BRANCH  31  32
ATOM     32  O   UNL A   1      34.399  29.290  27.615  1.00  0.00    -0.458 OA
BRANCH  32  33
ATOM     33  C   UNL A   1      35.033  30.343  28.183  1.00  0.00     0.338 C 
ATOM     34  O   UNL A   1      34.569  31.429  28.479  1.00  0.00    -0.246 OA
BRANCH  33  35
ATOM     35  C   UNL A   1      36.390  29.930  28.554  1.00  0.00     0.060 A 
ATOM     36  C   UNL A   1      37.405  30.087  27.607  1.00  0.00     0.016 A 
ATOM     37  C   UNL A   1      36.652  29.363  29.800  1.00  0.00     0.016 A 
ATOM     38  C   UNL A   1      38.704  29.703  27.906  1.00  0.00     0.010 A 
ATOM     39  C   UNL A   1      37.955  28.963  30.097  1.00  0.00     0.010 A 
ATOM     40  C   UNL A   1      38.983  29.138  29.153  1.00  0.00    -0.014 A 
BRANCH  40  41
ATOM     41  C   UNL A   1      40.354  28.696  29.469  1.00  0.00     0.031 A 
ATOM     42  C   UNL A   1      41.266  29.614  30.219  1.00  0.00     0.074 A 
ATOM     43  C   UNL A   1      40.766  27.483  29.061  1.00  0.00     0.049 A 
ATOM     44  N   UNL A   1      42.549  29.505  30.441  1.00  0.00    -0.248 NA
ATOM     45  C   UNL A   1      40.651  30.821  30.792  1.00  0.00     0.031 C 
ATOM     46  C   UNL A   1      39.928  26.493  28.383  1.00  0.00     0.029 A 
ATOM     47  N   UNL A   1      41.997  26.887  29.141  1.00  0.00    -0.354 N 
ATOM     48  C   UNL A   1      42.902  30.640  31.156  1.00  0.00     0.074 A 
ATOM     49  C   UNL A   1      41.700  31.429  31.327  1.00  0.00     0.031 C 
ATOM     50  C   UNL A   1      40.676  25.419  28.088  1.00  0.00     0.029 A 
ATOM     51  C   UNL A   1      42.053  25.672  28.504  1.00  0.00     0.049 A 
ATOM     52  H   UNL A   1      42.764  27.290  29.607  1.00  0.00     0.167 HD
ATOM     53  C   UNL A   1      44.125  30.984  31.620  1.00  0.00     0.037 A 
ATOM     54  C   UNL A   1      43.110  24.882  28.244  1.00  0.00     0.037 A 
ATOM     55  C   UNL A   1      45.304  30.176  31.446  1.00  0.00     0.049 A 
ATOM     56  C   UNL A   1      44.473  25.327  28.697  1.00  0.00     0.074 A 
ATOM     57  C   UNL A   1      46.590  30.413  31.894  1.00  0.00     0.029 A 
ATOM     58  N   UNL A   1      45.333  28.968  30.762  1.00  0.00    -0.354 N 
ATOM     59  N   UNL A   1      44.810  26.408  29.359  1.00  0.00    -0.248 NA
ATOM     60  C   UNL A   1      45.602  24.456  28.351  1.00  0.00     0.031 C 
ATOM     61  C   UNL A   1      47.407  29.371  31.443  1.00  0.00     0.029 A 
ATOM     62  C   UNL A   1      46.622  28.463  30.748  1.00  0.00     0.049 A 
ATOM     63  H   UNL A   1      44.552  28.534  30.347  1.00  0.00     0.167 HD
ATOM     64  C   UNL A   1      46.188  26.346  29.516  1.00  0.00     0.074 A 
ATOM     65  C   UNL A   1      46.620  25.108  28.897  1.00  0.00     0.031 C 
ATOM     66  C   UNL A   1      47.021  27.233  30.111  1.00  0.00     0.037 A 
BRANCH  53  67
ATOM     67  C   UNL A   1      44.256  32.304  32.318  1.00  0.00     0.064 A 
ATOM     68  C   UNL A   1      44.544  33.485  31.620  1.00  0.00     0.173 A 
ATOM     69  C   UNL A   1      44.070  32.390  33.707  1.00  0.00     0.173 A 
ATOM     70  F   UNL A   1      44.748  33.454  30.295  1.00  0.00    -0.203 F 
ATOM     71  C   UNL A   1      44.659  34.702  32.289  1.00  0.00     0.198 A 
ATOM     72  C   UNL A   1      44.163  33.610  34.368  1.00  0.00     0.198 A 
ATOM     73  F   UNL A   1      43.795  31.287  34.421  1.00  0.00    -0.203 F 
ATOM     74  F   UNL A   1      44.975  35.813  31.608  1.00  0.00    -0.200 F 
ATOM     75  C   UNL A   1      44.463  34.764  33.660  1.00  0.00     0.200 A 
ATOM     76  F   UNL A   1      43.965  33.670  35.693  1.00  0.00    -0.200 F 
ATOM     77  F   UNL A   1      44.570  35.936  34.302  1.00  0.00    -0.200 F 
ENDBRANCH  53  67
BRANCH  54  78
ATOM     78  C   UNL A   1      42.921  23.625  27.477  1.00  0.00     0.064 A 
ATOM     79  C   UNL A   1      43.242  23.554  26.115  1.00  0.00     0.173 A 
ATOM     80  C   UNL A   1      42.426  22.465  28.093  1.00  0.00     0.173 A 
ATOM     81  F   UNL A   1      43.692  24.644  25.477  1.00  0.00    -0.203 F 
ATOM     82  C   UNL A   1      43.068  22.372  25.397  1.00  0.00     0.198 A 
ATOM     83  C   UNL A   1      42.277  21.278  27.381  1.00  0.00     0.198 A 
ATOM     84  F   UNL A   1      42.098  22.483  29.394  1.00  0.00    -0.203 F 
ATOM     85  F   UNL A   1      43.348  22.340  24.088  1.00  0.00    -0.200 F 
ATOM     86  C   UNL A   1      42.594  21.233  26.032  1.00  0.00     0.200 A 
ATOM     87  F   UNL A   1      41.828  20.178  28.001  1.00  0.00    -0.200 F 
ATOM     88  F   UNL A   1      42.435  20.096  25.342  1.00  0.00    -0.200 F 
ENDBRANCH  54  78
BRANCH  66  89
ATOM     89  C   UNL A   1      48.481  26.891  30.119  1.00  0.00     0.064 A 
ATOM     90  C   UNL A   1      49.350  27.393  29.139  1.00  0.00     0.173 A 
ATOM     91  C   UNL A   1      49.020  26.088  31.134  1.00  0.00     0.173 A 
ATOM     92  F   UNL A   1      48.876  28.149  28.138  1.00  0.00    -0.203 F 
ATOM     93  C   UNL A   1      50.708  27.085  29.167  1.00  0.00     0.198 A 
ATOM     94  C   UNL A   1      50.381  25.806  31.173  1.00  0.00     0.198 A 
ATOM     95  F   UNL A   1      48.227  25.590  32.095  1.00  0.00    -0.203 F 
ATOM     96  F   UNL A   1      51.515  27.541  28.199  1.00  0.00    -0.200 F 
ATOM     97  C   UNL A   1      51.222  26.299  30.188  1.00  0.00     0.200 A 
ATOM     98  F   UNL A   1      50.880  25.054  32.166  1.00  0.00    -0.200 F 
ATOM     99  F   UNL A   1      52.531  26.011  30.216  1.00  0.00    -0.200 F 
ENDBRANCH  66  89
ENDBRANCH  40  41
ENDBRANCH  33  35
ENDBRANCH  32  33
ENDBRANCH  31  32
ENDBRANCH  30  31
ENDBRANCH  29  30
ENDBRANCH   1  29
TORSDOF 18
ENDMDL
