MODEL 1
REMARK VINA RESULT:     -11.8      0.000      0.000
REMARK SMILES CCOc1ccc(C(=O)N2CCC(C(=O)OCCOC(=O)c3ccc(-c4c5nc(c(-c6c(F)c(F)c(F)c(F)c6F)c6ccc([nH]6)c(-c6c(F)c(F)c(F)c(F)c6F)c6nc(c(-c7c(F)c(F)c(F)c(F)c7F)c7ccc4[nH]7)C=C6)C=C5)cc3)(c3ccccc3)CC2)cc1OC
REMARK SMILES IDX 17 1 16 2 14 3 15 4 13 5 8 6 9 7 10 8 11 9 92 10 12 11 91 12
REMARK SMILES IDX 7 13 4 14 5 15 94 16 6 17 93 18 3 19 2 20 1 21 95 22 96 23
REMARK SMILES IDX 85 24 86 25 90 26 87 27 89 28 88 29 18 30 19 31 20 32 21 33
REMARK SMILES IDX 22 34 23 35 84 36 24 37 83 38 25 39 26 40 27 41 77 42 28 43
REMARK SMILES IDX 82 44 76 45 78 46 29 47 81 48 75 49 74 50 30 52 62 53 42 54
REMARK SMILES IDX 61 55 43 56 46 57 60 58 79 59 44 60 45 61 59 63 80 64 47 65
REMARK SMILES IDX 31 66 32 67 40 68 33 69 34 70 38 71 41 72 35 73 36 74 39 75
REMARK SMILES IDX 37 76 63 77 64 78 72 79 65 80 66 81 70 82 73 83 67 84 68 85
REMARK SMILES IDX 71 86 69 87 48 88 49 89 57 90 50 91 51 92 55 93 58 94 52 95
REMARK SMILES IDX 53 96 56 97 54 98
REMARK H PARENT 78 51 46 62
REMARK Flexibility Score: inf
ROOT
ATOM      1  C   UNL A   1      31.515  30.299  25.964  1.00  0.00     0.274 C 
ENDROOT
BRANCH   1   2
ATOM      2  O   UNL A   1      32.476  29.292  26.345  1.00  0.00    -0.461 OA
BRANCH   2   3
ATOM      3  C   UNL A   1      31.989  28.138  26.886  1.00  0.00     0.316 C 
ATOM      4  O   UNL A   1      31.375  28.117  27.947  1.00  0.00    -0.251 OA
BRANCH   3   5
ATOM      5  C   UNL A   1      32.386  26.871  26.053  1.00  0.00     0.096 C 
ATOM      6  C   UNL A   1      34.285  22.928  26.113  1.00  0.00     0.253 C 
ATOM      7  O   UNL A   1      35.470  22.798  26.422  1.00  0.00    -0.269 OA
ATOM      8  N   UNL A   1      33.638  24.172  26.140  1.00  0.00    -0.339 N 
ATOM      9  C   UNL A   1      34.479  25.305  25.788  1.00  0.00     0.121 C 
ATOM     10  C   UNL A   1      32.188  24.346  26.188  1.00  0.00     0.121 C 
ATOM     11  C   UNL A   1      33.933  26.694  26.105  1.00  0.00     0.045 C 
ATOM     12  C   UNL A   1      31.768  25.671  26.808  1.00  0.00     0.045 C 
BRANCH   6  13
ATOM     13  C   UNL A   1      33.588  21.727  25.577  1.00  0.00     0.043 A 
ATOM     14  C   UNL A   1      32.577  19.355  24.477  1.00  0.00     0.161 A 
ATOM     15  C   UNL A   1      33.025  19.383  25.805  1.00  0.00     0.051 A 
ATOM     16  C   UNL A   1      32.593  20.519  23.706  1.00  0.00     0.161 A 
ATOM     17  C   UNL A   1      33.529  20.567  26.355  1.00  0.00     0.018 A 
ATOM     18  C   UNL A   1      33.159  21.676  24.246  1.00  0.00     0.064 A 
BRANCH  14  19
ATOM     19  O   UNL A   1      32.125  18.176  23.952  1.00  0.00    -0.490 OA
BRANCH  19  20
ATOM     20  C   UNL A   1      33.009  17.084  24.241  1.00  0.00     0.226 C 
ATOM     21  C   UNL A   1      33.971  16.923  23.075  1.00  0.00     0.049 C 
ENDBRANCH  19  20
ENDBRANCH  14  19
BRANCH  16  22
ATOM     22  O   UNL A   1      32.178  20.676  22.413  1.00  0.00    -0.493 OA
ATOM     23  C   UNL A   1      32.183  21.994  21.881  1.00  0.00     0.278 C 
ENDBRANCH  16  22
ENDBRANCH   6  13
BRANCH   5  24
ATOM     24  C   UNL A   1      31.797  26.937  24.604  1.00  0.00    -0.031 A 
ATOM     25  C   UNL A   1      32.645  26.889  23.475  1.00  0.00     0.005 A 
ATOM     26  C   UNL A   1      30.423  27.084  24.336  1.00  0.00     0.005 A 
ATOM     27  C   UNL A   1      32.148  26.941  22.167  1.00  0.00     0.000 A 
ATOM     28  C   UNL A   1      29.928  27.186  23.028  1.00  0.00     0.000 A 
ATOM     29  C   UNL A   1      30.788  27.101  21.941  1.00  0.00     0.000 A 
ENDBRANCH   5  24
ENDBRANCH   3   5
ENDBRANCH   2   3
ENDBRANCH   1   2
BRANCH   1  30
ATOM     30  C   UNL A   1      31.781  31.598  26.719  1.00  0.00     0.275 C 
BRANCH  30  31
ATOM     31  O   UNL A   1      33.178  31.923  26.625  1.00  0.00    -0.458 OA
BRANCH  31  32
ATOM     32  C   UNL A   1      33.647  32.808  27.534  1.00  0.00     0.338 C 
ATOM     33  O   UNL A   1      33.159  33.869  27.872  1.00  0.00    -0.246 OA
BRANCH  32  34
ATOM     34  C   UNL A   1      34.883  32.266  28.119  1.00  0.00     0.060 A 
ATOM     35  C   UNL A   1      34.872  30.974  28.636  1.00  0.00     0.016 A 
ATOM     36  C   UNL A   1      36.014  33.069  28.248  1.00  0.00     0.016 A 
ATOM     37  C   UNL A   1      35.979  30.486  29.322  1.00  0.00     0.010 A 
ATOM     38  C   UNL A   1      37.149  32.557  28.890  1.00  0.00     0.010 A 
ATOM     39  C   UNL A   1      37.132  31.268  29.455  1.00  0.00    -0.014 A 
BRANCH  39  40
ATOM     40  C   UNL A   1      38.276  30.767  30.261  1.00  0.00     0.031 A 
ATOM     41  C   UNL A   1      39.294  29.863  29.625  1.00  0.00     0.074 A 
ATOM     42  C   UNL A   1      38.450  31.166  31.535  1.00  0.00     0.049 A 
ATOM     43  N   UNL A   1      40.281  29.204  30.176  1.00  0.00    -0.248 NA
ATOM     44  C   UNL A   1      39.186  29.679  28.169  1.00  0.00     0.031 C 
ATOM     45  C   UNL A   1      37.601  32.117  32.249  1.00  0.00     0.029 A 
ATOM     46  N   UNL A   1      39.420  30.834  32.449  1.00  0.00    -0.354 N 
ATOM     47  C   UNL A   1      40.873  28.481  29.149  1.00  0.00     0.074 A 
ATOM     48  C   UNL A   1      40.143  28.794  27.937  1.00  0.00     0.031 C 
ATOM     49  C   UNL A   1      38.113  32.330  33.472  1.00  0.00     0.029 A 
ATOM     50  C   UNL A   1      39.279  31.471  33.657  1.00  0.00     0.049 A 
ATOM     51  H   UNL A   1      40.147  30.198  32.257  1.00  0.00     0.167 HD
ATOM     52  C   UNL A   1      41.923  27.629  29.212  1.00  0.00     0.037 A 
ATOM     53  C   UNL A   1      39.991  31.352  34.794  1.00  0.00     0.037 A 
ATOM     54  C   UNL A   1      42.679  27.356  30.406  1.00  0.00     0.049 A 
ATOM     55  C   UNL A   1      41.115  30.355  34.860  1.00  0.00     0.074 A 
ATOM     56  C   UNL A   1      43.748  26.493  30.577  1.00  0.00     0.029 A 
ATOM     57  N   UNL A   1      42.455  27.962  31.634  1.00  0.00    -0.354 N 
ATOM     58  N   UNL A   1      41.607  29.597  33.910  1.00  0.00    -0.248 NA
ATOM     59  C   UNL A   1      41.759  30.171  36.169  1.00  0.00     0.031 C 
ATOM     60  C   UNL A   1      44.152  26.556  31.916  1.00  0.00     0.029 A 
ATOM     61  C   UNL A   1      43.356  27.483  32.570  1.00  0.00     0.049 A 
ATOM     62  H   UNL A   1      41.757  28.633  31.812  1.00  0.00     0.167 HD
ATOM     63  C   UNL A   1      42.616  28.851  34.502  1.00  0.00     0.074 A 
ATOM     64  C   UNL A   1      42.684  29.263  35.889  1.00  0.00     0.031 C 
ATOM     65  C   UNL A   1      43.409  27.901  33.947  1.00  0.00     0.037 A 
BRANCH  52  66
ATOM     66  C   UNL A   1      42.272  26.883  27.959  1.00  0.00     0.064 A 
ATOM     67  C   UNL A   1      41.709  25.637  27.653  1.00  0.00     0.173 A 
ATOM     68  C   UNL A   1      43.197  27.429  27.056  1.00  0.00     0.173 A 
ATOM     69  F   UNL A   1      40.836  25.065  28.495  1.00  0.00    -0.203 F 
ATOM     70  C   UNL A   1      42.085  24.948  26.502  1.00  0.00     0.198 A 
ATOM     71  C   UNL A   1      43.551  26.750  25.895  1.00  0.00     0.198 A 
ATOM     72  F   UNL A   1      43.762  28.620  27.304  1.00  0.00    -0.203 F 
ATOM     73  F   UNL A   1      41.575  23.733  26.253  1.00  0.00    -0.200 F 
ATOM     74  C   UNL A   1      43.002  25.506  25.622  1.00  0.00     0.200 A 
ATOM     75  F   UNL A   1      44.433  27.294  25.044  1.00  0.00    -0.200 F 
ATOM     76  F   UNL A   1      43.367  24.839  24.519  1.00  0.00    -0.200 F 
ENDBRANCH  52  66
BRANCH  53  77
ATOM     77  C   UNL A   1      39.643  32.181  35.976  1.00  0.00     0.064 A 
ATOM     78  C   UNL A   1      40.338  33.368  36.248  1.00  0.00     0.173 A 
ATOM     79  C   UNL A   1      38.614  31.811  36.854  1.00  0.00     0.173 A 
ATOM     80  F   UNL A   1      41.350  33.746  35.454  1.00  0.00    -0.203 F 
ATOM     81  C   UNL A   1      40.015  34.153  37.352  1.00  0.00     0.198 A 
ATOM     82  C   UNL A   1      38.275  32.611  37.943  1.00  0.00     0.198 A 
ATOM     83  F   UNL A   1      37.926  30.680  36.644  1.00  0.00    -0.203 F 
ATOM     84  F   UNL A   1      40.715  35.267  37.607  1.00  0.00    -0.200 F 
ATOM     85  C   UNL A   1      38.978  33.779  38.193  1.00  0.00     0.200 A 
ATOM     86  F   UNL A   1      37.265  32.250  38.748  1.00  0.00    -0.200 F 
ATOM     87  F   UNL A   1      38.660  34.541  39.249  1.00  0.00    -0.200 F 
ENDBRANCH  53  77
BRANCH  65  88
ATOM     88  C   UNL A   1      44.425  27.253  34.838  1.00  0.00     0.064 A 
ATOM     89  C   UNL A   1      45.699  27.811  35.019  1.00  0.00     0.173 A 
ATOM     90  C   UNL A   1      44.109  26.085  35.548  1.00  0.00     0.173 A 
ATOM     91  F   UNL A   1      46.052  28.919  34.348  1.00  0.00    -0.203 F 
ATOM     92  C   UNL A   1      46.628  27.211  35.863  1.00  0.00     0.198 A 
ATOM     93  C   UNL A   1      45.034  25.501  36.409  1.00  0.00     0.198 A 
ATOM     94  F   UNL A   1      42.903  25.516  35.411  1.00  0.00    -0.203 F 
ATOM     95  F   UNL A   1      47.853  27.740  35.992  1.00  0.00    -0.200 F 
ATOM     96  C   UNL A   1      46.294  26.061  36.563  1.00  0.00     0.200 A 
ATOM     97  F   UNL A   1      44.707  24.392  37.088  1.00  0.00    -0.200 F 
ATOM     98  F   UNL A   1      47.188  25.486  37.378  1.00  0.00    -0.200 F 
ENDBRANCH  65  88
ENDBRANCH  39  40
ENDBRANCH  32  34
ENDBRANCH  31  32
ENDBRANCH  30  31
ENDBRANCH   1  30
TORSDOF 16
ENDMDL
MODEL 2
REMARK VINA RESULT:     -11.6      0.708      7.152
REMARK SMILES CCOc1ccc(C(=O)N2CCC(C(=O)OCCOC(=O)c3ccc(-c4c5nc(c(-c6c(F)c(F)c(F)c(F)c6F)c6ccc([nH]6)c(-c6c(F)c(F)c(F)c(F)c6F)c6nc(c(-c7c(F)c(F)c(F)c(F)c7F)c7ccc4[nH]7)C=C6)C=C5)cc3)(c3ccccc3)CC2)cc1OC
REMARK SMILES IDX 17 1 16 2 14 3 15 4 13 5 8 6 9 7 10 8 11 9 92 10 12 11 91 12
REMARK SMILES IDX 7 13 4 14 5 15 94 16 6 17 93 18 3 19 2 20 1 21 95 22 96 23
REMARK SMILES IDX 85 24 86 25 90 26 87 27 89 28 88 29 18 30 19 31 20 32 21 33
REMARK SMILES IDX 22 34 23 35 84 36 24 37 83 38 25 39 26 40 27 41 77 42 28 43
REMARK SMILES IDX 82 44 76 45 78 46 29 47 81 48 75 49 74 50 30 52 62 53 42 54
REMARK SMILES IDX 61 55 43 56 46 57 60 58 79 59 44 60 45 61 59 63 80 64 47 65
REMARK SMILES IDX 31 66 32 67 40 68 33 69 34 70 38 71 41 72 35 73 36 74 39 75
REMARK SMILES IDX 37 76 63 77 64 78 72 79 65 80 66 81 70 82 73 83 67 84 68 85
REMARK SMILES IDX 71 86 69 87 48 88 49 89 57 90 50 91 51 92 55 93 58 94 52 95
REMARK SMILES IDX 53 96 56 97 54 98
REMARK H PARENT 78 51 46 62
REMARK Flexibility Score: inf
ROOT
ATOM      1  C   UNL A   1      31.543  30.371  26.014  1.00  0.00     0.274 C 
ENDROOT
BRANCH   1   2
ATOM      2  O   UNL A   1      32.500  29.360  26.392  1.00  0.00    -0.461 OA
BRANCH   2   3
ATOM      3  C   UNL A   1      32.014  28.229  26.980  1.00  0.00     0.316 C 
ATOM      4  O   UNL A   1      31.559  28.224  28.118  1.00  0.00    -0.251 OA
BRANCH   3   5
ATOM      5  C   UNL A   1      32.197  26.959  26.079  1.00  0.00     0.096 C 
ATOM      6  C   UNL A   1      34.332  23.181  25.508  1.00  0.00     0.253 C 
ATOM      7  O   UNL A   1      35.555  23.158  25.369  1.00  0.00    -0.269 OA
ATOM      8  N   UNL A   1      33.631  24.372  25.748  1.00  0.00    -0.339 N 
ATOM      9  C   UNL A   1      34.185  25.549  25.099  1.00  0.00     0.121 C 
ATOM     10  C   UNL A   1      32.285  24.436  26.315  1.00  0.00     0.121 C 
ATOM     11  C   UNL A   1      33.668  26.905  25.571  1.00  0.00     0.045 C 
ATOM     12  C   UNL A   1      32.000  25.752  27.024  1.00  0.00     0.045 C 
BRANCH   6  13
ATOM     13  C   UNL A   1      33.598  21.907  25.279  1.00  0.00     0.043 A 
ATOM     14  C   UNL A   1      32.515  19.370  24.783  1.00  0.00     0.161 A 
ATOM     15  C   UNL A   1      32.981  19.701  26.063  1.00  0.00     0.051 A 
ATOM     16  C   UNL A   1      32.549  20.316  23.757  1.00  0.00     0.161 A 
ATOM     17  C   UNL A   1      33.521  20.967  26.311  1.00  0.00     0.018 A 
ATOM     18  C   UNL A   1      33.150  21.552  24.001  1.00  0.00     0.064 A 
BRANCH  14  19
ATOM     19  O   UNL A   1      32.026  18.112  24.558  1.00  0.00    -0.490 OA
BRANCH  19  20
ATOM     20  C   UNL A   1      33.004  17.098  24.830  1.00  0.00     0.226 C 
ATOM     21  C   UNL A   1      33.725  16.766  23.534  1.00  0.00     0.049 C 
ENDBRANCH  19  20
ENDBRANCH  14  19
BRANCH  16  22
ATOM     22  O   UNL A   1      32.119  20.172  22.466  1.00  0.00    -0.493 OA
ATOM     23  C   UNL A   1      31.850  21.358  21.732  1.00  0.00     0.278 C 
ENDBRANCH  16  22
ENDBRANCH   6  13
BRANCH   5  24
ATOM     24  C   UNL A   1      31.124  26.913  24.941  1.00  0.00    -0.031 A 
ATOM     25  C   UNL A   1      31.374  27.511  23.686  1.00  0.00     0.005 A 
ATOM     26  C   UNL A   1      29.856  26.322  25.099  1.00  0.00     0.005 A 
ATOM     27  C   UNL A   1      30.436  27.483  22.646  1.00  0.00     0.000 A 
ATOM     28  C   UNL A   1      28.897  26.335  24.075  1.00  0.00     0.000 A 
ATOM     29  C   UNL A   1      29.190  26.904  22.843  1.00  0.00     0.000 A 
ENDBRANCH   5  24
ENDBRANCH   3   5
ENDBRANCH   2   3
ENDBRANCH   1   2
BRANCH   1  30
ATOM     30  C   UNL A   1      31.758  31.639  26.836  1.00  0.00     0.275 C 
BRANCH  30  31
ATOM     31  O   UNL A   1      33.088  32.133  26.605  1.00  0.00    -0.458 OA
BRANCH  31  32
ATOM     32  C   UNL A   1      33.602  32.933  27.567  1.00  0.00     0.338 C 
ATOM     33  O   UNL A   1      33.147  33.972  28.004  1.00  0.00    -0.246 OA
BRANCH  32  34
ATOM     34  C   UNL A   1      34.843  32.322  28.068  1.00  0.00     0.060 A 
ATOM     35  C   UNL A   1      34.844  30.967  28.388  1.00  0.00     0.016 A 
ATOM     36  C   UNL A   1      35.966  33.107  28.316  1.00  0.00     0.016 A 
ATOM     37  C   UNL A   1      35.955  30.394  28.998  1.00  0.00     0.010 A 
ATOM     38  C   UNL A   1      37.105  32.517  28.878  1.00  0.00     0.010 A 
ATOM     39  C   UNL A   1      37.100  31.158  29.246  1.00  0.00    -0.014 A 
BRANCH  39  40
ATOM     40  C   UNL A   1      38.248  30.555  29.972  1.00  0.00     0.031 A 
ATOM     41  C   UNL A   1      38.462  30.879  31.424  1.00  0.00     0.074 A 
ATOM     42  C   UNL A   1      39.061  29.670  29.365  1.00  0.00     0.049 A 
ATOM     43  N   UNL A   1      39.470  30.580  32.203  1.00  0.00    -0.248 NA
ATOM     44  C   UNL A   1      37.394  31.642  32.088  1.00  0.00     0.031 C 
ATOM     45  C   UNL A   1      38.914  29.186  27.995  1.00  0.00     0.029 A 
ATOM     46  N   UNL A   1      40.165  29.002  29.838  1.00  0.00    -0.354 N 
ATOM     47  C   UNL A   1      39.187  31.167  33.429  1.00  0.00     0.074 A 
ATOM     48  C   UNL A   1      37.906  31.829  33.295  1.00  0.00     0.031 C 
ATOM     49  C   UNL A   1      39.859  28.262  27.752  1.00  0.00     0.029 A 
ATOM     50  C   UNL A   1      40.726  28.149  28.921  1.00  0.00     0.049 A 
ATOM     51  H   UNL A   1      40.519  29.124  30.748  1.00  0.00     0.167 HD
ATOM     52  C   UNL A   1      39.932  31.163  34.560  1.00  0.00     0.037 A 
ATOM     53  C   UNL A   1      41.834  27.387  29.003  1.00  0.00     0.037 A 
ATOM     54  C   UNL A   1      41.182  30.464  34.708  1.00  0.00     0.049 A 
ATOM     55  C   UNL A   1      42.678  27.444  30.245  1.00  0.00     0.074 A 
ATOM     56  C   UNL A   1      42.022  30.414  35.808  1.00  0.00     0.029 A 
ATOM     57  N   UNL A   1      41.762  29.673  33.727  1.00  0.00    -0.354 N 
ATOM     58  N   UNL A   1      42.457  28.083  31.369  1.00  0.00    -0.248 NA
ATOM     59  C   UNL A   1      43.946  26.699  30.217  1.00  0.00     0.031 C 
ATOM     60  C   UNL A   1      43.125  29.616  35.480  1.00  0.00     0.029 A 
ATOM     61  C   UNL A   1      42.954  29.142  34.190  1.00  0.00     0.049 A 
ATOM     62  H   UNL A   1      41.381  29.514  32.833  1.00  0.00     0.167 HD
ATOM     63  C   UNL A   1      43.553  27.818  32.179  1.00  0.00     0.074 A 
ATOM     64  C   UNL A   1      44.427  26.940  31.430  1.00  0.00     0.031 C 
ATOM     65  C   UNL A   1      43.814  28.271  33.430  1.00  0.00     0.037 A 
BRANCH  52  66
ATOM     66  C   UNL A   1      39.438  31.993  35.705  1.00  0.00     0.064 A 
ATOM     67  C   UNL A   1      39.884  33.303  35.924  1.00  0.00     0.173 A 
ATOM     68  C   UNL A   1      38.503  31.456  36.605  1.00  0.00     0.173 A 
ATOM     69  F   UNL A   1      40.792  33.852  35.103  1.00  0.00    -0.203 F 
ATOM     70  C   UNL A   1      39.438  34.035  37.022  1.00  0.00     0.198 A 
ATOM     71  C   UNL A   1      38.041  32.199  37.686  1.00  0.00     0.198 A 
ATOM     72  F   UNL A   1      38.044  30.207  36.438  1.00  0.00    -0.203 F 
ATOM     73  F   UNL A   1      39.918  35.267  37.243  1.00  0.00    -0.200 F 
ATOM     74  C   UNL A   1      38.515  33.485  37.900  1.00  0.00     0.200 A 
ATOM     75  F   UNL A   1      37.144  31.668  38.529  1.00  0.00    -0.200 F 
ATOM     76  F   UNL A   1      38.092  34.189  38.958  1.00  0.00    -0.200 F 
ENDBRANCH  52  66
BRANCH  53  77
ATOM     77  C   UNL A   1      42.224  26.523  27.859  1.00  0.00     0.064 A 
ATOM     78  C   UNL A   1      41.662  25.249  27.700  1.00  0.00     0.173 A 
ATOM     79  C   UNL A   1      43.159  26.948  26.905  1.00  0.00     0.173 A 
ATOM     80  F   UNL A   1      40.787  24.786  28.605  1.00  0.00    -0.203 F 
ATOM     81  C   UNL A   1      42.020  24.434  26.629  1.00  0.00     0.198 A 
ATOM     82  C   UNL A   1      43.497  26.143  25.819  1.00  0.00     0.198 A 
ATOM     83  F   UNL A   1      43.733  28.155  27.018  1.00  0.00    -0.203 F 
ATOM     84  F   UNL A   1      41.492  23.208  26.516  1.00  0.00    -0.200 F 
ATOM     85  C   UNL A   1      42.930  24.885  25.684  1.00  0.00     0.200 A 
ATOM     86  F   UNL A   1      44.370  26.587  24.904  1.00  0.00    -0.200 F 
ATOM     87  F   UNL A   1      43.266  24.105  24.647  1.00  0.00    -0.200 F 
ENDBRANCH  53  77
BRANCH  65  88
ATOM     88  C   UNL A   1      45.091  27.815  34.069  1.00  0.00     0.064 A 
ATOM     89  C   UNL A   1      46.272  28.560  33.952  1.00  0.00     0.173 A 
ATOM     90  C   UNL A   1      45.124  26.640  34.836  1.00  0.00     0.173 A 
ATOM     91  F   UNL A   1      46.294  29.681  33.215  1.00  0.00    -0.203 F 
ATOM     92  C   UNL A   1      47.448  28.136  34.565  1.00  0.00     0.198 A 
ATOM     93  C   UNL A   1      46.295  26.232  35.467  1.00  0.00     0.198 A 
ATOM     94  F   UNL A   1      44.018  25.896  34.980  1.00  0.00    -0.203 F 
ATOM     95  F   UNL A   1      48.576  28.844  34.410  1.00  0.00    -0.200 F 
ATOM     96  C   UNL A   1      47.457  26.977  35.327  1.00  0.00     0.200 A 
ATOM     97  F   UNL A   1      46.302  25.115  36.207  1.00  0.00    -0.200 F 
ATOM     98  F   UNL A   1      48.589  26.572  35.920  1.00  0.00    -0.200 F 
ENDBRANCH  65  88
ENDBRANCH  39  40
ENDBRANCH  32  34
ENDBRANCH  31  32
ENDBRANCH  30  31
ENDBRANCH   1  30
TORSDOF 16
ENDMDL
MODEL 3
REMARK VINA RESULT:     -11.6      0.656      1.984
REMARK SMILES CCOc1ccc(C(=O)N2CCC(C(=O)OCCOC(=O)c3ccc(-c4c5nc(c(-c6c(F)c(F)c(F)c(F)c6F)c6ccc([nH]6)c(-c6c(F)c(F)c(F)c(F)c6F)c6nc(c(-c7c(F)c(F)c(F)c(F)c7F)c7ccc4[nH]7)C=C6)C=C5)cc3)(c3ccccc3)CC2)cc1OC
REMARK SMILES IDX 17 1 16 2 14 3 15 4 13 5 8 6 9 7 10 8 11 9 92 10 12 11 91 12
REMARK SMILES IDX 7 13 4 14 5 15 94 16 6 17 93 18 3 19 2 20 1 21 95 22 96 23
REMARK SMILES IDX 85 24 86 25 90 26 87 27 89 28 88 29 18 30 19 31 20 32 21 33
REMARK SMILES IDX 22 34 23 35 84 36 24 37 83 38 25 39 26 40 27 41 77 42 28 43
REMARK SMILES IDX 82 44 76 45 78 46 29 47 81 48 75 49 74 50 30 52 62 53 42 54
REMARK SMILES IDX 61 55 43 56 46 57 60 58 79 59 44 60 45 61 59 63 80 64 47 65
REMARK SMILES IDX 31 66 32 67 40 68 33 69 34 70 38 71 41 72 35 73 36 74 39 75
REMARK SMILES IDX 37 76 63 77 64 78 72 79 65 80 66 81 70 82 73 83 67 84 68 85
REMARK SMILES IDX 71 86 69 87 48 88 49 89 57 90 50 91 51 92 55 93 58 94 52 95
REMARK SMILES IDX 53 96 56 97 54 98
REMARK H PARENT 78 51 46 62
REMARK Flexibility Score: inf
ROOT
ATOM      1  C   UNL A   1      31.325  30.638  26.016  1.00  0.00     0.274 C 
ENDROOT
BRANCH   1   2
ATOM      2  O   UNL A   1      32.337  29.686  26.407  1.00  0.00    -0.461 OA
BRANCH   2   3
ATOM      3  C   UNL A   1      31.910  28.510  26.950  1.00  0.00     0.316 C 
ATOM      4  O   UNL A   1      31.341  28.455  28.035  1.00  0.00    -0.251 OA
BRANCH   3   5
ATOM      5  C   UNL A   1      32.315  27.268  26.084  1.00  0.00     0.096 C 
ATOM      6  C   UNL A   1      34.281  23.358  26.028  1.00  0.00     0.253 C 
ATOM      7  O   UNL A   1      35.472  23.241  26.315  1.00  0.00    -0.269 OA
ATOM      8  N   UNL A   1      33.614  24.590  26.093  1.00  0.00    -0.339 N 
ATOM      9  C   UNL A   1      34.430  25.744  25.752  1.00  0.00     0.121 C 
ATOM     10  C   UNL A   1      32.162  24.738  26.168  1.00  0.00     0.121 C 
ATOM     11  C   UNL A   1      33.865  27.117  26.108  1.00  0.00     0.045 C 
ATOM     12  C   UNL A   1      31.730  26.042  26.823  1.00  0.00     0.045 C 
BRANCH   6  13
ATOM     13  C   UNL A   1      33.595  22.157  25.478  1.00  0.00     0.043 A 
ATOM     14  C   UNL A   1      32.607  19.792  24.342  1.00  0.00     0.161 A 
ATOM     15  C   UNL A   1      33.079  19.798  25.662  1.00  0.00     0.051 A 
ATOM     16  C   UNL A   1      32.587  20.974  23.599  1.00  0.00     0.161 A 
ATOM     17  C   UNL A   1      33.573  20.978  26.229  1.00  0.00     0.018 A 
ATOM     18  C   UNL A   1      33.142  22.128  24.155  1.00  0.00     0.064 A 
BRANCH  14  19
ATOM     19  O   UNL A   1      32.166  18.617  23.798  1.00  0.00    -0.490 OA
BRANCH  19  20
ATOM     20  C   UNL A   1      32.898  17.487  24.293  1.00  0.00     0.226 C 
ATOM     21  C   UNL A   1      33.818  16.991  23.190  1.00  0.00     0.049 C 
ENDBRANCH  19  20
ENDBRANCH  14  19
BRANCH  16  22
ATOM     22  O   UNL A   1      32.143  21.153  22.317  1.00  0.00    -0.493 OA
ATOM     23  C   UNL A   1      32.525  22.352  21.656  1.00  0.00     0.278 C 
ENDBRANCH  16  22
ENDBRANCH   6  13
BRANCH   5  24
ATOM     24  C   UNL A   1      31.702  27.355  24.647  1.00  0.00    -0.031 A 
ATOM     25  C   UNL A   1      32.534  27.429  23.508  1.00  0.00     0.005 A 
ATOM     26  C   UNL A   1      30.316  27.403  24.401  1.00  0.00     0.005 A 
ATOM     27  C   UNL A   1      32.015  27.503  22.209  1.00  0.00     0.000 A 
ATOM     28  C   UNL A   1      29.796  27.526  23.105  1.00  0.00     0.000 A 
ATOM     29  C   UNL A   1      30.644  27.563  22.006  1.00  0.00     0.000 A 
ENDBRANCH   5  24
ENDBRANCH   3   5
ENDBRANCH   2   3
ENDBRANCH   1   2
BRANCH   1  30
ATOM     30  C   UNL A   1      31.426  31.900  26.869  1.00  0.00     0.275 C 
BRANCH  30  31
ATOM     31  O   UNL A   1      32.748  32.451  26.745  1.00  0.00    -0.458 OA
BRANCH  31  32
ATOM     32  C   UNL A   1      33.137  33.296  27.726  1.00  0.00     0.338 C 
ATOM     33  O   UNL A   1      32.568  34.292  28.130  1.00  0.00    -0.246 OA
BRANCH  32  34
ATOM     34  C   UNL A   1      34.398  32.800  28.298  1.00  0.00     0.060 A 
ATOM     35  C   UNL A   1      34.522  31.442  28.575  1.00  0.00     0.016 A 
ATOM     36  C   UNL A   1      35.411  33.689  28.652  1.00  0.00     0.016 A 
ATOM     37  C   UNL A   1      35.644  30.965  29.246  1.00  0.00     0.010 A 
ATOM     38  C   UNL A   1      36.565  33.200  29.277  1.00  0.00     0.010 A 
ATOM     39  C   UNL A   1      36.680  31.835  29.602  1.00  0.00    -0.014 A 
BRANCH  39  40
ATOM     40  C   UNL A   1      37.833  31.328  30.391  1.00  0.00     0.031 A 
ATOM     41  C   UNL A   1      38.816  30.389  29.750  1.00  0.00     0.074 A 
ATOM     42  C   UNL A   1      38.046  31.750  31.651  1.00  0.00     0.049 A 
ATOM     43  N   UNL A   1      39.803  29.721  30.292  1.00  0.00    -0.248 NA
ATOM     44  C   UNL A   1      38.669  30.176  28.302  1.00  0.00     0.031 C 
ATOM     45  C   UNL A   1      37.235  32.733  32.365  1.00  0.00     0.029 A 
ATOM     46  N   UNL A   1      39.032  31.417  32.549  1.00  0.00    -0.354 N 
ATOM     47  C   UNL A   1      40.354  28.964  29.266  1.00  0.00     0.074 A 
ATOM     48  C   UNL A   1      39.602  29.266  28.066  1.00  0.00     0.031 C 
ATOM     49  C   UNL A   1      37.782  32.962  33.570  1.00  0.00     0.029 A 
ATOM     50  C   UNL A   1      38.933  32.083  33.745  1.00  0.00     0.049 A 
ATOM     51  H   UNL A   1      39.740  30.762  32.353  1.00  0.00     0.167 HD
ATOM     52  C   UNL A   1      41.387  28.092  29.323  1.00  0.00     0.037 A 
ATOM     53  C   UNL A   1      39.670  31.973  34.867  1.00  0.00     0.037 A 
ATOM     54  C   UNL A   1      42.167  27.829  30.504  1.00  0.00     0.049 A 
ATOM     55  C   UNL A   1      40.775  30.954  34.928  1.00  0.00     0.074 A 
ATOM     56  C   UNL A   1      43.222  26.947  30.668  1.00  0.00     0.029 A 
ATOM     57  N   UNL A   1      41.986  28.465  31.723  1.00  0.00    -0.354 N 
ATOM     58  N   UNL A   1      41.228  30.166  33.983  1.00  0.00    -0.248 NA
ATOM     59  C   UNL A   1      41.447  30.784  36.225  1.00  0.00     0.031 C 
ATOM     60  C   UNL A   1      43.660  27.030  31.996  1.00  0.00     0.029 A 
ATOM     61  C   UNL A   1      42.900  27.988  32.648  1.00  0.00     0.049 A 
ATOM     62  H   UNL A   1      41.307  29.154  31.904  1.00  0.00     0.167 HD
ATOM     63  C   UNL A   1      42.236  29.412  34.567  1.00  0.00     0.074 A 
ATOM     64  C   UNL A   1      42.346  29.852  35.942  1.00  0.00     0.031 C 
ATOM     65  C   UNL A   1      42.995  28.434  34.014  1.00  0.00     0.037 A 
BRANCH  52  66
ATOM     66  C   UNL A   1      41.690  27.312  28.079  1.00  0.00     0.064 A 
ATOM     67  C   UNL A   1      42.571  27.787  27.098  1.00  0.00     0.173 A 
ATOM     68  C   UNL A   1      41.075  26.068  27.867  1.00  0.00     0.173 A 
ATOM     69  F   UNL A   1      43.167  28.979  27.247  1.00  0.00    -0.203 F 
ATOM     70  C   UNL A   1      42.801  27.059  25.933  1.00  0.00     0.198 A 
ATOM     71  C   UNL A   1      41.326  25.332  26.713  1.00  0.00     0.198 A 
ATOM     72  F   UNL A   1      40.225  25.570  28.777  1.00  0.00    -0.203 F 
ATOM     73  F   UNL A   1      43.605  27.555  24.983  1.00  0.00    -0.200 F 
ATOM     74  C   UNL A   1      42.181  25.832  25.742  1.00  0.00     0.200 A 
ATOM     75  F   UNL A   1      40.732  24.144  26.535  1.00  0.00    -0.200 F 
ATOM     76  F   UNL A   1      42.399  25.137  24.618  1.00  0.00    -0.200 F 
ENDBRANCH  52  66
BRANCH  53  77
ATOM     77  C   UNL A   1      39.369  32.834  36.039  1.00  0.00     0.064 A 
ATOM     78  C   UNL A   1      38.506  32.390  37.051  1.00  0.00     0.173 A 
ATOM     79  C   UNL A   1      39.933  34.111  36.176  1.00  0.00     0.173 A 
ATOM     80  F   UNL A   1      37.918  31.189  36.949  1.00  0.00    -0.203 F 
ATOM     81  C   UNL A   1      38.221  33.190  38.155  1.00  0.00     0.198 A 
ATOM     82  C   UNL A   1      39.668  34.899  37.293  1.00  0.00     0.198 A 
ATOM     83  F   UNL A   1      40.757  34.585  35.231  1.00  0.00    -0.203 F 
ATOM     84  F   UNL A   1      37.369  32.755  39.093  1.00  0.00    -0.200 F 
ATOM     85  C   UNL A   1      38.809  34.440  38.280  1.00  0.00     0.200 A 
ATOM     86  F   UNL A   1      40.247  36.102  37.415  1.00  0.00    -0.200 F 
ATOM     87  F   UNL A   1      38.543  35.205  39.348  1.00  0.00    -0.200 F 
ENDBRANCH  53  77
BRANCH  65  88
ATOM     88  C   UNL A   1      44.019  27.784  34.894  1.00  0.00     0.064 A 
ATOM     89  C   UNL A   1      43.732  26.607  35.601  1.00  0.00     0.173 A 
ATOM     90  C   UNL A   1      45.310  28.321  35.003  1.00  0.00     0.173 A 
ATOM     91  F   UNL A   1      42.506  26.066  35.543  1.00  0.00    -0.203 F 
ATOM     92  C   UNL A   1      44.697  26.002  36.402  1.00  0.00     0.198 A 
ATOM     93  C   UNL A   1      46.279  27.700  35.785  1.00  0.00     0.198 A 
ATOM     94  F   UNL A   1      45.633  29.442  34.342  1.00  0.00    -0.203 F 
ATOM     95  F   UNL A   1      44.390  24.899  37.099  1.00  0.00    -0.200 F 
ATOM     96  C   UNL A   1      45.971  26.544  36.488  1.00  0.00     0.200 A 
ATOM     97  F   UNL A   1      47.511  28.221  35.864  1.00  0.00    -0.200 F 
ATOM     98  F   UNL A   1      46.900  25.958  37.256  1.00  0.00    -0.200 F 
ENDBRANCH  65  88
ENDBRANCH  39  40
ENDBRANCH  32  34
ENDBRANCH  31  32
ENDBRANCH  30  31
ENDBRANCH   1  30
TORSDOF 16
ENDMDL
