MODEL 1
REMARK VINA RESULT:     -12.0      0.000      0.000
REMARK SMILES O=C(OCCOC(=O)c1cccc2c1cc(Br)c1ccccc12)c1ccc(-c2c3nc(c(-c4c(F)c(F)c(F)c(F)c4F)c4ccc([nH]4)c(-c4c(F)c(F)c(F)c(F)c4F)c4nc(c(-c5c(F)c(F)c(F)c(F)c5F)c5ccc2[nH]5)C=C4)C=C3)cc1
REMARK SMILES IDX 4 1 3 2 2 3 1 4 24 5 25 6 86 7 26 8 85 9 27 10 28 11 29 12
REMARK SMILES IDX 79 13 30 14 84 15 78 16 80 17 31 18 83 19 77 20 76 21 32 23
REMARK SMILES IDX 64 24 44 25 63 26 45 27 48 28 62 29 81 30 46 31 47 32 61 34
REMARK SMILES IDX 82 35 49 36 33 37 34 38 42 39 35 40 36 41 40 42 43 43 37 44
REMARK SMILES IDX 38 45 41 46 39 47 65 48 66 49 74 50 67 51 68 52 72 53 75 54
REMARK SMILES IDX 69 55 70 56 73 57 71 58 50 59 51 60 59 61 52 62 53 63 57 64
REMARK SMILES IDX 60 65 54 66 55 67 58 68 56 69 5 70 6 71 7 72 8 73 9 74 10 75
REMARK SMILES IDX 14 76 11 77 13 78 15 79 12 80 23 81 16 82 18 83 22 84 17 85
REMARK SMILES IDX 19 86 21 87 20 88
REMARK H PARENT 80 22 48 33
REMARK Flexibility Score: inf
ROOT
ATOM      1  C   UNL A   1      37.054  23.665  24.676  1.00  0.00     0.275 C 
ENDROOT
BRANCH   1   2
ATOM      2  O   UNL A   1      37.658  22.809  25.661  1.00  0.00    -0.458 OA
BRANCH   2   3
ATOM      3  C   UNL A   1      38.888  22.921  26.222  1.00  0.00     0.338 C 
ATOM      4  O   UNL A   1      39.549  21.910  26.447  1.00  0.00    -0.246 OA
BRANCH   3   5
ATOM      5  C   UNL A   1      39.379  24.215  26.776  1.00  0.00     0.060 A 
ATOM      6  C   UNL A   1      39.051  24.480  28.114  1.00  0.00     0.016 A 
ATOM      7  C   UNL A   1      40.146  25.154  26.086  1.00  0.00     0.016 A 
ATOM      8  C   UNL A   1      39.358  25.710  28.699  1.00  0.00     0.010 A 
ATOM      9  C   UNL A   1      40.478  26.378  26.675  1.00  0.00     0.010 A 
ATOM     10  C   UNL A   1      40.071  26.677  27.978  1.00  0.00    -0.014 A 
BRANCH  10  11
ATOM     11  C   UNL A   1      40.583  27.893  28.651  1.00  0.00     0.031 A 
ATOM     12  C   UNL A   1      41.976  27.988  29.200  1.00  0.00     0.074 A 
ATOM     13  C   UNL A   1      39.713  28.904  28.828  1.00  0.00     0.049 A 
ATOM     14  N   UNL A   1      42.597  29.037  29.681  1.00  0.00    -0.248 NA
ATOM     15  C   UNL A   1      42.788  26.764  29.209  1.00  0.00     0.031 C 
ATOM     16  C   UNL A   1      38.311  28.884  28.404  1.00  0.00     0.029 A 
ATOM     17  N   UNL A   1      39.860  30.121  29.435  1.00  0.00    -0.354 N 
ATOM     18  C   UNL A   1      43.892  28.620  29.960  1.00  0.00     0.074 A 
ATOM     19  C   UNL A   1      43.958  27.208  29.658  1.00  0.00     0.031 C 
ATOM     20  C   UNL A   1      37.723  30.028  28.774  1.00  0.00     0.029 A 
ATOM     21  C   UNL A   1      38.697  30.845  29.489  1.00  0.00     0.049 A 
ATOM     22  H   UNL A   1      40.717  30.445  29.798  1.00  0.00     0.167 HD
ATOM     23  C   UNL A   1      44.925  29.360  30.425  1.00  0.00     0.037 A 
ATOM     24  C   UNL A   1      38.434  32.026  30.075  1.00  0.00     0.037 A 
ATOM     25  C   UNL A   1      44.791  30.720  30.882  1.00  0.00     0.049 A 
ATOM     26  C   UNL A   1      39.558  32.763  30.738  1.00  0.00     0.074 A 
ATOM     27  C   UNL A   1      45.767  31.560  31.390  1.00  0.00     0.029 A 
ATOM     28  N   UNL A   1      43.589  31.408  30.958  1.00  0.00    -0.354 N 
ATOM     29  N   UNL A   1      40.822  32.428  30.828  1.00  0.00    -0.248 NA
ATOM     30  C   UNL A   1      39.227  34.044  31.373  1.00  0.00     0.031 C 
ATOM     31  C   UNL A   1      45.138  32.715  31.865  1.00  0.00     0.029 A 
ATOM     32  C   UNL A   1      43.784  32.630  31.578  1.00  0.00     0.049 A 
ATOM     33  H   UNL A   1      42.725  31.076  30.620  1.00  0.00     0.167 HD
ATOM     34  C   UNL A   1      41.444  33.462  31.511  1.00  0.00     0.074 A 
ATOM     35  C   UNL A   1      40.418  34.446  31.798  1.00  0.00     0.031 C 
ATOM     36  C   UNL A   1      42.746  33.588  31.866  1.00  0.00     0.037 A 
BRANCH  23  37
ATOM     37  C   UNL A   1      46.289  28.737  30.485  1.00  0.00     0.064 A 
ATOM     38  C   UNL A   1      47.169  28.830  29.397  1.00  0.00     0.173 A 
ATOM     39  C   UNL A   1      46.775  28.176  31.676  1.00  0.00     0.173 A 
ATOM     40  F   UNL A   1      46.751  29.351  28.233  1.00  0.00    -0.203 F 
ATOM     41  C   UNL A   1      48.491  28.400  29.503  1.00  0.00     0.198 A 
ATOM     42  C   UNL A   1      48.101  27.759  31.784  1.00  0.00     0.198 A 
ATOM     43  F   UNL A   1      45.975  28.068  32.746  1.00  0.00    -0.203 F 
ATOM     44  F   UNL A   1      49.315  28.504  28.452  1.00  0.00    -0.200 F 
ATOM     45  C   UNL A   1      48.958  27.876  30.700  1.00  0.00     0.200 A 
ATOM     46  F   UNL A   1      48.553  27.263  32.942  1.00  0.00    -0.200 F 
ATOM     47  F   UNL A   1      50.236  27.488  30.809  1.00  0.00    -0.200 F 
ENDBRANCH  23  37
BRANCH  24  48
ATOM     48  C   UNL A   1      37.050  32.557  30.036  1.00  0.00     0.064 A 
ATOM     49  C   UNL A   1      36.170  32.361  31.107  1.00  0.00     0.173 A 
ATOM     50  C   UNL A   1      36.600  33.334  28.954  1.00  0.00     0.173 A 
ATOM     51  F   UNL A   1      36.550  31.618  32.156  1.00  0.00    -0.203 F 
ATOM     52  C   UNL A   1      34.892  32.915  31.097  1.00  0.00     0.198 A 
ATOM     53  C   UNL A   1      35.335  33.914  28.960  1.00  0.00     0.198 A 
ATOM     54  F   UNL A   1      37.410  33.562  27.909  1.00  0.00    -0.203 F 
ATOM     55  F   UNL A   1      34.060  32.690  32.123  1.00  0.00    -0.200 F 
ATOM     56  C   UNL A   1      34.480  33.701  30.030  1.00  0.00     0.200 A 
ATOM     57  F   UNL A   1      34.951  34.690  27.938  1.00  0.00    -0.200 F 
ATOM     58  F   UNL A   1      33.259  34.251  30.033  1.00  0.00    -0.200 F 
ENDBRANCH  24  48
BRANCH  36  59
ATOM     59  C   UNL A   1      43.141  34.828  32.610  1.00  0.00     0.064 A 
ATOM     60  C   UNL A   1      43.514  35.998  31.934  1.00  0.00     0.173 A 
ATOM     61  C   UNL A   1      43.066  34.869  34.010  1.00  0.00     0.173 A 
ATOM     62  F   UNL A   1      43.613  36.002  30.595  1.00  0.00    -0.203 F 
ATOM     63  C   UNL A   1      43.811  37.162  32.634  1.00  0.00     0.198 A 
ATOM     64  C   UNL A   1      43.331  36.045  34.705  1.00  0.00     0.198 A 
ATOM     65  F   UNL A   1      42.705  33.777  34.702  1.00  0.00    -0.203 F 
ATOM     66  F   UNL A   1      44.200  38.260  31.971  1.00  0.00    -0.200 F 
ATOM     67  C   UNL A   1      43.707  37.189  34.017  1.00  0.00     0.200 A 
ATOM     68  F   UNL A   1      43.211  36.075  36.040  1.00  0.00    -0.200 F 
ATOM     69  F   UNL A   1      43.972  38.318  34.689  1.00  0.00    -0.200 F 
ENDBRANCH  36  59
ENDBRANCH  10  11
ENDBRANCH   3   5
ENDBRANCH   2   3
ENDBRANCH   1   2
BRANCH   1  70
ATOM     70  C   UNL A   1      36.480  22.936  23.459  1.00  0.00     0.275 C 
BRANCH  70  71
ATOM     71  O   UNL A   1      35.181  22.369  23.686  1.00  0.00    -0.458 OA
BRANCH  71  72
ATOM     72  C   UNL A   1      34.130  23.152  23.319  1.00  0.00     0.338 C 
ATOM     73  O   UNL A   1      33.743  23.356  22.181  1.00  0.00    -0.246 OA
BRANCH  72  74
ATOM     74  C   UNL A   1      33.487  23.713  24.535  1.00  0.00     0.067 A 
ATOM     75  C   UNL A   1      33.025  22.796  25.485  1.00  0.00     0.016 A 
ATOM     76  C   UNL A   1      33.341  25.119  24.731  1.00  0.00    -0.002 A 
ATOM     77  C   UNL A   1      32.391  23.256  26.625  1.00  0.00     0.002 A 
ATOM     78  C   UNL A   1      32.663  25.598  25.887  1.00  0.00    -0.010 A 
ATOM     79  C   UNL A   1      33.797  26.067  23.798  1.00  0.00     0.026 A 
ATOM     80  C   UNL A   1      32.198  24.624  26.807  1.00  0.00     0.009 A 
ATOM     81  C   UNL A   1      32.457  27.016  26.080  1.00  0.00    -0.009 A 
ATOM     82  C   UNL A   1      33.591  27.438  23.973  1.00  0.00     0.026 A 
ATOM     83  C   UNL A   1      32.929  27.942  25.110  1.00  0.00    -0.004 A 
ATOM     84  C   UNL A   1      31.790  27.558  27.213  1.00  0.00     0.009 A 
ATOM     85  Br  UNL A   1      34.232  28.559  22.566  1.00  0.00    -0.050 Br
ATOM     86  C   UNL A   1      32.717  29.329  25.323  1.00  0.00     0.010 A 
ATOM     87  C   UNL A   1      31.603  28.928  27.403  1.00  0.00     0.001 A 
ATOM     88  C   UNL A   1      32.071  29.818  26.455  1.00  0.00     0.001 A 
ENDBRANCH  72  74
ENDBRANCH  71  72
ENDBRANCH  70  71
ENDBRANCH   1  70
TORSDOF 11
ENDMDL
MODEL 2
REMARK VINA RESULT:     -12.0      3.307      8.650
REMARK SMILES O=C(OCCOC(=O)c1cccc2c1cc(Br)c1ccccc12)c1ccc(-c2c3nc(c(-c4c(F)c(F)c(F)c(F)c4F)c4ccc([nH]4)c(-c4c(F)c(F)c(F)c(F)c4F)c4nc(c(-c5c(F)c(F)c(F)c(F)c5F)c5ccc2[nH]5)C=C4)C=C3)cc1
REMARK SMILES IDX 4 1 3 2 2 3 1 4 24 5 25 6 86 7 26 8 85 9 27 10 28 11 29 12
REMARK SMILES IDX 79 13 30 14 84 15 78 16 80 17 31 18 83 19 77 20 76 21 32 23
REMARK SMILES IDX 64 24 44 25 63 26 45 27 48 28 62 29 81 30 46 31 47 32 61 34
REMARK SMILES IDX 82 35 49 36 33 37 34 38 42 39 35 40 36 41 40 42 43 43 37 44
REMARK SMILES IDX 38 45 41 46 39 47 65 48 66 49 74 50 67 51 68 52 72 53 75 54
REMARK SMILES IDX 69 55 70 56 73 57 71 58 50 59 51 60 59 61 52 62 53 63 57 64
REMARK SMILES IDX 60 65 54 66 55 67 58 68 56 69 5 70 6 71 7 72 8 73 9 74 10 75
REMARK SMILES IDX 14 76 11 77 13 78 15 79 12 80 23 81 16 82 18 83 22 84 17 85
REMARK SMILES IDX 19 86 21 87 20 88
REMARK H PARENT 80 22 48 33
REMARK Flexibility Score: inf
ROOT
ATOM      1  C   UNL A   1      32.695  30.060  25.880  1.00  0.00     0.275 C 
ENDROOT
BRANCH   1   2
ATOM      2  O   UNL A   1      33.735  29.668  26.792  1.00  0.00    -0.458 OA
BRANCH   2   3
ATOM      3  C   UNL A   1      34.450  30.457  27.631  1.00  0.00     0.338 C 
ATOM      4  O   UNL A   1      34.084  31.610  27.844  1.00  0.00    -0.246 OA
BRANCH   3   5
ATOM      5  C   UNL A   1      35.792  30.046  28.136  1.00  0.00     0.060 A 
ATOM      6  C   UNL A   1      36.859  30.172  27.233  1.00  0.00     0.016 A 
ATOM      7  C   UNL A   1      36.066  29.577  29.420  1.00  0.00     0.016 A 
ATOM      8  C   UNL A   1      38.135  29.707  27.559  1.00  0.00     0.010 A 
ATOM      9  C   UNL A   1      37.348  29.133  29.761  1.00  0.00     0.010 A 
ATOM     10  C   UNL A   1      38.389  29.175  28.830  1.00  0.00    -0.014 A 
BRANCH  10  11
ATOM     11  C   UNL A   1      39.775  28.876  29.258  1.00  0.00     0.031 A 
ATOM     12  C   UNL A   1      40.617  29.859  30.017  1.00  0.00     0.074 A 
ATOM     13  C   UNL A   1      40.294  27.698  28.867  1.00  0.00     0.049 A 
ATOM     14  N   UNL A   1      41.788  29.676  30.576  1.00  0.00    -0.248 NA
ATOM     15  C   UNL A   1      40.089  31.220  30.184  1.00  0.00     0.031 C 
ATOM     16  C   UNL A   1      39.588  26.702  28.057  1.00  0.00     0.029 A 
ATOM     17  N   UNL A   1      41.533  27.152  29.061  1.00  0.00    -0.354 N 
ATOM     18  C   UNL A   1      42.088  30.861  31.235  1.00  0.00     0.074 A 
ATOM     19  C   UNL A   1      41.011  31.785  30.956  1.00  0.00     0.031 C 
ATOM     20  C   UNL A   1      40.408  25.672  27.813  1.00  0.00     0.029 A 
ATOM     21  C   UNL A   1      41.704  25.952  28.420  1.00  0.00     0.049 A 
ATOM     22  H   UNL A   1      42.233  27.579  29.607  1.00  0.00     0.167 HD
ATOM     23  C   UNL A   1      43.168  31.140  32.000  1.00  0.00     0.037 A 
ATOM     24  C   UNL A   1      42.794  25.174  28.309  1.00  0.00     0.037 A 
ATOM     25  C   UNL A   1      44.309  30.267  32.121  1.00  0.00     0.049 A 
ATOM     26  C   UNL A   1      44.044  25.582  29.028  1.00  0.00     0.074 A 
ATOM     27  C   UNL A   1      45.466  30.457  32.855  1.00  0.00     0.029 A 
ATOM     28  N   UNL A   1      44.463  29.077  31.425  1.00  0.00    -0.354 N 
ATOM     29  N   UNL A   1      44.246  26.622  29.800  1.00  0.00    -0.248 NA
ATOM     30  C   UNL A   1      45.213  24.709  28.874  1.00  0.00     0.031 C 
ATOM     31  C   UNL A   1      46.359  29.433  32.525  1.00  0.00     0.029 A 
ATOM     32  C   UNL A   1      45.728  28.561  31.650  1.00  0.00     0.049 A 
ATOM     33  H   UNL A   1      43.775  28.660  30.858  1.00  0.00     0.167 HD
ATOM     34  C   UNL A   1      45.557  26.522  30.240  1.00  0.00     0.074 A 
ATOM     35  C   UNL A   1      46.098  25.308  29.661  1.00  0.00     0.031 C 
ATOM     36  C   UNL A   1      46.250  27.358  31.052  1.00  0.00     0.037 A 
BRANCH  23  37
ATOM     37  C   UNL A   1      43.198  32.433  32.761  1.00  0.00     0.064 A 
ATOM     38  C   UNL A   1      43.661  33.611  32.156  1.00  0.00     0.173 A 
ATOM     39  C   UNL A   1      42.629  32.532  34.040  1.00  0.00     0.173 A 
ATOM     40  F   UNL A   1      44.222  33.569  30.938  1.00  0.00    -0.203 F 
ATOM     41  C   UNL A   1      43.539  34.843  32.797  1.00  0.00     0.198 A 
ATOM     42  C   UNL A   1      42.495  33.767  34.672  1.00  0.00     0.198 A 
ATOM     43  F   UNL A   1      42.167  31.436  34.659  1.00  0.00    -0.203 F 
ATOM     44  F   UNL A   1      43.983  35.956  32.198  1.00  0.00    -0.200 F 
ATOM     45  C   UNL A   1      42.945  34.921  34.048  1.00  0.00     0.200 A 
ATOM     46  F   UNL A   1      41.913  33.842  35.876  1.00  0.00    -0.200 F 
ATOM     47  F   UNL A   1      42.803  36.109  34.651  1.00  0.00    -0.200 F 
ENDBRANCH  23  37
BRANCH  24  48
ATOM     48  C   UNL A   1      42.718  23.940  27.488  1.00  0.00     0.064 A 
ATOM     49  C   UNL A   1      43.088  23.947  26.138  1.00  0.00     0.173 A 
ATOM     50  C   UNL A   1      42.339  22.712  28.057  1.00  0.00     0.173 A 
ATOM     51  F   UNL A   1      43.447  25.096  25.549  1.00  0.00    -0.203 F 
ATOM     52  C   UNL A   1      43.078  22.774  25.385  1.00  0.00     0.198 A 
ATOM     53  C   UNL A   1      42.360  21.536  27.312  1.00  0.00     0.198 A 
ATOM     54  F   UNL A   1      41.987  22.651  29.350  1.00  0.00    -0.203 F 
ATOM     55  F   UNL A   1      43.412  22.812  24.088  1.00  0.00    -0.200 F 
ATOM     56  C   UNL A   1      42.725  21.569  25.975  1.00  0.00     0.200 A 
ATOM     57  F   UNL A   1      42.041  20.372  27.893  1.00  0.00    -0.200 F 
ATOM     58  F   UNL A   1      42.738  20.440  25.255  1.00  0.00    -0.200 F 
ENDBRANCH  24  48
BRANCH  36  59
ATOM     59  C   UNL A   1      47.672  26.997  31.360  1.00  0.00     0.064 A 
ATOM     60  C   UNL A   1      47.989  26.084  32.376  1.00  0.00     0.173 A 
ATOM     61  C   UNL A   1      48.719  27.508  30.580  1.00  0.00     0.173 A 
ATOM     62  F   UNL A   1      47.022  25.579  33.158  1.00  0.00    -0.203 F 
ATOM     63  C   UNL A   1      49.308  25.704  32.607  1.00  0.00     0.198 A 
ATOM     64  C   UNL A   1      50.032  27.100  30.792  1.00  0.00     0.198 A 
ATOM     65  F   UNL A   1      48.464  28.378  29.591  1.00  0.00    -0.203 F 
ATOM     66  F   UNL A   1      49.593  24.857  33.605  1.00  0.00    -0.200 F 
ATOM     67  C   UNL A   1      50.326  26.202  31.807  1.00  0.00     0.200 A 
ATOM     68  F   UNL A   1      51.012  27.566  30.006  1.00  0.00    -0.200 F 
ATOM     69  F   UNL A   1      51.593  25.818  32.017  1.00  0.00    -0.200 F 
ENDBRANCH  36  59
ENDBRANCH  10  11
ENDBRANCH   3   5
ENDBRANCH   2   3
ENDBRANCH   1   2
BRANCH   1  70
ATOM     70  C   UNL A   1      31.959  28.899  25.208  1.00  0.00     0.275 C 
BRANCH  70  71
ATOM     71  O   UNL A   1      32.654  27.646  25.298  1.00  0.00    -0.458 OA
BRANCH  71  72
ATOM     72  C   UNL A   1      33.120  27.151  24.119  1.00  0.00     0.338 C 
ATOM     73  O   UNL A   1      33.903  27.700  23.363  1.00  0.00    -0.246 OA
BRANCH  72  74
ATOM     74  C   UNL A   1      32.547  25.799  23.893  1.00  0.00     0.067 A 
ATOM     75  C   UNL A   1      31.236  25.741  23.411  1.00  0.00     0.016 A 
ATOM     76  C   UNL A   1      33.293  24.610  24.155  1.00  0.00    -0.002 A 
ATOM     77  C   UNL A   1      30.637  24.512  23.207  1.00  0.00     0.002 A 
ATOM     78  C   UNL A   1      32.672  23.341  23.977  1.00  0.00    -0.010 A 
ATOM     79  C   UNL A   1      34.614  24.632  24.638  1.00  0.00     0.026 A 
ATOM     80  C   UNL A   1      31.335  23.342  23.505  1.00  0.00     0.009 A 
ATOM     81  C   UNL A   1      33.390  22.125  24.287  1.00  0.00    -0.009 A 
ATOM     82  C   UNL A   1      35.309  23.461  24.950  1.00  0.00     0.026 A 
ATOM     83  C   UNL A   1      34.723  22.192  24.778  1.00  0.00    -0.004 A 
ATOM     84  C   UNL A   1      32.829  20.828  24.129  1.00  0.00     0.009 A 
ATOM     85  Br  UNL A   1      37.070  23.704  25.648  1.00  0.00    -0.050 Br
ATOM     86  C   UNL A   1      35.408  20.984  25.072  1.00  0.00     0.010 A 
ATOM     87  C   UNL A   1      33.528  19.655  24.418  1.00  0.00     0.001 A 
ATOM     88  C   UNL A   1      34.824  19.733  24.889  1.00  0.00     0.001 A 
ENDBRANCH  72  74
ENDBRANCH  71  72
ENDBRANCH  70  71
ENDBRANCH   1  70
TORSDOF 11
ENDMDL
MODEL 3
REMARK VINA RESULT:     -11.9      3.125      5.851
REMARK SMILES O=C(OCCOC(=O)c1cccc2c1cc(Br)c1ccccc12)c1ccc(-c2c3nc(c(-c4c(F)c(F)c(F)c(F)c4F)c4ccc([nH]4)c(-c4c(F)c(F)c(F)c(F)c4F)c4nc(c(-c5c(F)c(F)c(F)c(F)c5F)c5ccc2[nH]5)C=C4)C=C3)cc1
REMARK SMILES IDX 4 1 3 2 2 3 1 4 24 5 25 6 86 7 26 8 85 9 27 10 28 11 29 12
REMARK SMILES IDX 79 13 30 14 84 15 78 16 80 17 31 18 83 19 77 20 76 21 32 23
REMARK SMILES IDX 64 24 44 25 63 26 45 27 48 28 62 29 81 30 46 31 47 32 61 34
REMARK SMILES IDX 82 35 49 36 33 37 34 38 42 39 35 40 36 41 40 42 43 43 37 44
REMARK SMILES IDX 38 45 41 46 39 47 65 48 66 49 74 50 67 51 68 52 72 53 75 54
REMARK SMILES IDX 69 55 70 56 73 57 71 58 50 59 51 60 59 61 52 62 53 63 57 64
REMARK SMILES IDX 60 65 54 66 55 67 58 68 56 69 5 70 6 71 7 72 8 73 9 74 10 75
REMARK SMILES IDX 14 76 11 77 13 78 15 79 12 80 23 81 16 82 18 83 22 84 17 85
REMARK SMILES IDX 19 86 21 87 20 88
REMARK H PARENT 80 22 48 33
REMARK Flexibility Score: inf
ROOT
ATOM      1  C   UNL A   1      39.639  20.723  25.774  1.00  0.00     0.275 C 
ENDROOT
BRANCH   1   2
ATOM      2  O   UNL A   1      39.959  22.102  26.029  1.00  0.00    -0.458 OA
BRANCH   2   3
ATOM      3  C   UNL A   1      39.104  23.125  26.274  1.00  0.00     0.338 C 
ATOM      4  O   UNL A   1      37.957  23.080  25.836  1.00  0.00    -0.246 OA
BRANCH   3   5
ATOM      5  C   UNL A   1      39.573  24.408  26.872  1.00  0.00     0.060 A 
ATOM      6  C   UNL A   1      39.152  24.670  28.185  1.00  0.00     0.016 A 
ATOM      7  C   UNL A   1      40.402  25.340  26.247  1.00  0.00     0.016 A 
ATOM      8  C   UNL A   1      39.433  25.891  28.800  1.00  0.00     0.010 A 
ATOM      9  C   UNL A   1      40.708  26.555  26.868  1.00  0.00     0.010 A 
ATOM     10  C   UNL A   1      40.211  26.851  28.141  1.00  0.00    -0.014 A 
BRANCH  10  11
ATOM     11  C   UNL A   1      40.691  28.055  28.858  1.00  0.00     0.031 A 
ATOM     12  C   UNL A   1      42.064  28.147  29.457  1.00  0.00     0.074 A 
ATOM     13  C   UNL A   1      39.809  29.056  29.028  1.00  0.00     0.049 A 
ATOM     14  N   UNL A   1      42.661  29.188  29.983  1.00  0.00    -0.248 NA
ATOM     15  C   UNL A   1      42.884  26.928  29.467  1.00  0.00     0.031 C 
ATOM     16  C   UNL A   1      38.422  29.036  28.556  1.00  0.00     0.029 A 
ATOM     17  N   UNL A   1      39.926  30.260  29.668  1.00  0.00    -0.354 N 
ATOM     18  C   UNL A   1      43.948  28.774  30.297  1.00  0.00     0.074 A 
ATOM     19  C   UNL A   1      44.034  27.369  29.965  1.00  0.00     0.031 C 
ATOM     20  C   UNL A   1      37.813  30.168  28.931  1.00  0.00     0.029 A 
ATOM     21  C   UNL A   1      38.756  30.974  29.698  1.00  0.00     0.049 A 
ATOM     22  H   UNL A   1      40.767  30.580  30.067  1.00  0.00     0.167 HD
ATOM     23  C   UNL A   1      44.959  29.510  30.814  1.00  0.00     0.037 A 
ATOM     24  C   UNL A   1      38.464  32.140  30.301  1.00  0.00     0.037 A 
ATOM     25  C   UNL A   1      44.800  30.858  31.297  1.00  0.00     0.049 A 
ATOM     26  C   UNL A   1      39.559  32.869  31.020  1.00  0.00     0.074 A 
ATOM     27  C   UNL A   1      45.751  31.692  31.858  1.00  0.00     0.029 A 
ATOM     28  N   UNL A   1      43.590  31.535  31.347  1.00  0.00    -0.354 N 
ATOM     29  N   UNL A   1      40.822  32.540  31.145  1.00  0.00    -0.248 NA
ATOM     30  C   UNL A   1      39.197  34.133  31.671  1.00  0.00     0.031 C 
ATOM     31  C   UNL A   1      45.098  32.831  32.336  1.00  0.00     0.029 A 
ATOM     32  C   UNL A   1      43.755  32.744  32.001  1.00  0.00     0.049 A 
ATOM     33  H   UNL A   1      42.741  31.206  30.973  1.00  0.00     0.167 HD
ATOM     34  C   UNL A   1      41.412  33.563  31.872  1.00  0.00     0.074 A 
ATOM     35  C   UNL A   1      40.370  34.532  32.146  1.00  0.00     0.031 C 
ATOM     36  C   UNL A   1      42.700  33.688  32.275  1.00  0.00     0.037 A 
BRANCH  23  37
ATOM     37  C   UNL A   1      46.324  28.894  30.907  1.00  0.00     0.064 A 
ATOM     38  C   UNL A   1      46.712  28.178  32.049  1.00  0.00     0.173 A 
ATOM     39  C   UNL A   1      47.192  28.889  29.804  1.00  0.00     0.173 A 
ATOM     40  F   UNL A   1      45.923  28.157  33.134  1.00  0.00    -0.203 F 
ATOM     41  C   UNL A   1      47.911  27.466  32.078  1.00  0.00     0.198 A 
ATOM     42  C   UNL A   1      48.382  28.166  29.830  1.00  0.00     0.198 A 
ATOM     43  F   UNL A   1      46.865  29.555  28.687  1.00  0.00    -0.203 F 
ATOM     44  F   UNL A   1      48.258  26.785  33.178  1.00  0.00    -0.200 F 
ATOM     45  C   UNL A   1      48.738  27.451  30.964  1.00  0.00     0.200 A 
ATOM     46  F   UNL A   1      49.175  28.144  28.751  1.00  0.00    -0.200 F 
ATOM     47  F   UNL A   1      49.877  26.744  30.983  1.00  0.00    -0.200 F 
ENDBRANCH  23  37
BRANCH  24  48
ATOM     48  C   UNL A   1      37.078  32.663  30.227  1.00  0.00     0.064 A 
ATOM     49  C   UNL A   1      36.155  32.412  31.249  1.00  0.00     0.173 A 
ATOM     50  C   UNL A   1      36.668  33.484  29.162  1.00  0.00     0.173 A 
ATOM     51  F   UNL A   1      36.497  31.625  32.280  1.00  0.00    -0.203 F 
ATOM     52  C   UNL A   1      34.874  32.958  31.209  1.00  0.00     0.198 A 
ATOM     53  C   UNL A   1      35.399  34.055  29.140  1.00  0.00     0.198 A 
ATOM     54  F   UNL A   1      37.520  33.764  28.164  1.00  0.00    -0.203 F 
ATOM     55  F   UNL A   1      34.001  32.681  32.188  1.00  0.00    -0.200 F 
ATOM     56  C   UNL A   1      34.501  33.788  30.161  1.00  0.00     0.200 A 
ATOM     57  F   UNL A   1      35.052  34.874  28.138  1.00  0.00    -0.200 F 
ATOM     58  F   UNL A   1      33.276  34.329  30.137  1.00  0.00    -0.200 F 
ENDBRANCH  24  48
BRANCH  36  59
ATOM     59  C   UNL A   1      43.060  34.913  33.061  1.00  0.00     0.064 A 
ATOM     60  C   UNL A   1      43.447  36.101  32.424  1.00  0.00     0.173 A 
ATOM     61  C   UNL A   1      42.938  34.922  34.458  1.00  0.00     0.173 A 
ATOM     62  F   UNL A   1      43.591  36.137  31.090  1.00  0.00    -0.203 F 
ATOM     63  C   UNL A   1      43.712  37.251  33.161  1.00  0.00     0.198 A 
ATOM     64  C   UNL A   1      43.170  36.083  35.188  1.00  0.00     0.198 A 
ATOM     65  F   UNL A   1      42.562  33.812  35.111  1.00  0.00    -0.203 F 
ATOM     66  F   UNL A   1      44.114  38.367  32.536  1.00  0.00    -0.200 F 
ATOM     67  C   UNL A   1      43.561  37.245  34.540  1.00  0.00     0.200 A 
ATOM     68  F   UNL A   1      43.005  36.081  36.518  1.00  0.00    -0.200 F 
ATOM     69  F   UNL A   1      43.794  38.360  35.246  1.00  0.00    -0.200 F 
ENDBRANCH  36  59
ENDBRANCH  10  11
ENDBRANCH   3   5
ENDBRANCH   2   3
ENDBRANCH   1   2
BRANCH   1  70
ATOM     70  C   UNL A   1      40.488  19.714  26.550  1.00  0.00     0.275 C 
BRANCH  70  71
ATOM     71  O   UNL A   1      41.365  18.939  25.718  1.00  0.00    -0.458 OA
BRANCH  71  72
ATOM     72  C   UNL A   1      42.621  18.752  26.208  1.00  0.00     0.338 C 
ATOM     73  O   UNL A   1      42.943  17.986  27.100  1.00  0.00    -0.246 OA
BRANCH  72  74
ATOM     74  C   UNL A   1      43.572  19.616  25.462  1.00  0.00     0.067 A 
ATOM     75  C   UNL A   1      44.220  19.040  24.365  1.00  0.00     0.016 A 
ATOM     76  C   UNL A   1      43.821  20.968  25.843  1.00  0.00    -0.002 A 
ATOM     77  C   UNL A   1      45.139  19.784  23.647  1.00  0.00     0.002 A 
ATOM     78  C   UNL A   1      44.788  21.730  25.128  1.00  0.00    -0.010 A 
ATOM     79  C   UNL A   1      43.186  21.579  26.939  1.00  0.00     0.026 A 
ATOM     80  C   UNL A   1      45.429  21.090  24.037  1.00  0.00     0.009 A 
ATOM     81  C   UNL A   1      45.096  23.085  25.529  1.00  0.00    -0.009 A 
ATOM     82  C   UNL A   1      43.486  22.883  27.338  1.00  0.00     0.026 A 
ATOM     83  C   UNL A   1      44.434  23.663  26.647  1.00  0.00    -0.004 A 
ATOM     84  C   UNL A   1      46.048  23.898  24.856  1.00  0.00     0.009 A 
ATOM     85  Br  UNL A   1      42.559  23.511  28.886  1.00  0.00    -0.050 Br
ATOM     86  C   UNL A   1      44.750  24.996  27.019  1.00  0.00     0.010 A 
ATOM     87  C   UNL A   1      46.334  25.210  25.237  1.00  0.00     0.001 A 
ATOM     88  C   UNL A   1      45.681  25.762  26.322  1.00  0.00     0.001 A 
ENDBRANCH  72  74
ENDBRANCH  71  72
ENDBRANCH  70  71
ENDBRANCH   1  70
TORSDOF 11
ENDMDL
