MODEL 1
REMARK VINA RESULT:     -12.3      0.000      0.000
REMARK SMILES Cc1nc(CCc2ccc(S(=O)(=O)N3CCCC3)cc2)ncc1C(=O)OCCOC(=O)c1ccc(-c2c3nc(c(-c4c(F)c(F)c(F)c(F)c4F)c4ccc([nH]4)c(-c4c(F)c(F)c(F)c(F)c4F)c4nc(c(-c5c(F)c(F)c(F)c(F)c5F)c5ccc2[nH]5)C=C4)C=C3)cc1
REMARK SMILES IDX 26 1 24 2 25 3 23 4 1 5 2 6 3 7 4 8 22 9 21 10 5 11 6 12
REMARK SMILES IDX 7 13 8 14 20 15 9 16 19 17 10 18 11 19 12 20 13 21 14 22
REMARK SMILES IDX 15 23 18 24 16 25 17 26 27 27 28 28 29 29 30 30 31 31 32 32
REMARK SMILES IDX 33 33 94 34 34 35 93 36 35 37 36 38 37 39 87 40 38 41 92 42
REMARK SMILES IDX 86 43 88 44 39 45 91 46 85 47 84 48 40 50 72 51 52 52 71 53
REMARK SMILES IDX 53 54 56 55 70 56 89 57 54 58 55 59 69 61 90 62 57 63 41 64
REMARK SMILES IDX 42 65 50 66 43 67 44 68 48 69 51 70 45 71 46 72 49 73 47 74
REMARK SMILES IDX 73 75 74 76 82 77 75 78 76 79 80 80 83 81 77 82 78 83 81 84
REMARK SMILES IDX 79 85 58 86 59 87 67 88 60 89 61 90 65 91 68 92 62 93 63 94
REMARK SMILES IDX 66 95 64 96
REMARK H PARENT 88 49 56 60
REMARK Flexibility Score: inf
ROOT
ATOM      1  O   UNL A   1      41.414  21.483  25.694  1.00  0.00    -0.458 OA
ENDROOT
BRANCH   1   2
ATOM      2  C   UNL A   1      40.456  21.363  26.650  1.00  0.00     0.341 C 
ATOM      3  O   UNL A   1      40.631  21.153  27.837  1.00  0.00    -0.246 OA
BRANCH   2   4
ATOM      4  C   UNL A   1      39.120  21.558  26.064  1.00  0.00     0.099 A 
ATOM      5  C   UNL A   1      39.065  23.938  26.808  1.00  0.00     0.068 C 
ATOM      6  C   UNL A   1      38.491  22.778  26.080  1.00  0.00     0.056 A 
ATOM      7  N   UNL A   1      37.271  22.979  25.537  1.00  0.00    -0.237 NA
ATOM      8  C   UNL A   1      36.630  21.921  25.019  1.00  0.00     0.128 A 
ATOM      9  C   UNL A   1      38.433  20.563  25.403  1.00  0.00     0.130 A 
ATOM     10  N   UNL A   1      37.178  20.700  24.910  1.00  0.00    -0.240 NA
BRANCH   8  11
ATOM     11  C   UNL A   1      35.193  22.120  24.623  1.00  0.00     0.082 C 
BRANCH  11  12
ATOM     12  C   UNL A   1      34.411  22.972  25.638  1.00  0.00     0.043 C 
BRANCH  12  13
ATOM     13  C   UNL A   1      33.960  24.325  25.119  1.00  0.00    -0.047 A 
ATOM     14  C   UNL A   1      33.973  24.605  23.749  1.00  0.00     0.005 A 
ATOM     15  C   UNL A   1      33.574  25.342  26.009  1.00  0.00     0.005 A 
ATOM     16  C   UNL A   1      33.640  25.882  23.283  1.00  0.00     0.022 A 
ATOM     17  C   UNL A   1      33.248  26.626  25.548  1.00  0.00     0.022 A 
ATOM     18  C   UNL A   1      33.290  26.900  24.181  1.00  0.00     0.082 A 
BRANCH  18  19
ATOM     19  S   UNL A   1      32.883  28.509  23.513  1.00  0.00     0.243 S 
ATOM     20  O   UNL A   1      32.849  29.421  24.641  1.00  0.00    -0.207 OA
ATOM     21  O   UNL A   1      33.767  28.732  22.391  1.00  0.00    -0.207 OA
BRANCH  19  22
ATOM     22  N   UNL A   1      31.312  28.445  22.928  1.00  0.00    -0.198 NA
ATOM     23  C   UNL A   1      30.671  29.623  22.337  1.00  0.00     0.102 C 
ATOM     24  C   UNL A   1      30.306  27.534  23.507  1.00  0.00     0.102 C 
ATOM     25  C   UNL A   1      29.307  29.620  23.001  1.00  0.00     0.018 C 
ATOM     26  C   UNL A   1      28.962  28.155  23.129  1.00  0.00     0.018 C 
ENDBRANCH  19  22
ENDBRANCH  18  19
ENDBRANCH  12  13
ENDBRANCH  11  12
ENDBRANCH   8  11
ENDBRANCH   2   4
ENDBRANCH   1   2
BRANCH   1  27
ATOM     27  C   UNL A   1      42.722  20.934  25.980  1.00  0.00     0.275 C 
BRANCH  27  28
ATOM     28  C   UNL A   1      43.835  21.729  25.294  1.00  0.00     0.275 C 
BRANCH  28  29
ATOM     29  O   UNL A   1      43.309  22.966  24.786  1.00  0.00    -0.458 OA
BRANCH  29  30
ATOM     30  C   UNL A   1      44.036  24.057  25.112  1.00  0.00     0.338 C 
ATOM     31  O   UNL A   1      45.083  24.437  24.615  1.00  0.00    -0.246 OA
BRANCH  30  32
ATOM     32  C   UNL A   1      43.270  24.888  26.045  1.00  0.00     0.060 A 
ATOM     33  C   UNL A   1      43.437  26.260  25.926  1.00  0.00     0.016 A 
ATOM     34  C   UNL A   1      42.584  24.362  27.130  1.00  0.00     0.016 A 
ATOM     35  C   UNL A   1      43.065  27.112  26.950  1.00  0.00     0.010 A 
ATOM     36  C   UNL A   1      42.075  25.238  28.099  1.00  0.00     0.010 A 
ATOM     37  C   UNL A   1      42.350  26.620  28.042  1.00  0.00    -0.014 A 
BRANCH  37  38
ATOM     38  C   UNL A   1      41.946  27.554  29.127  1.00  0.00     0.031 A 
ATOM     39  C   UNL A   1      42.781  27.655  30.375  1.00  0.00     0.074 A 
ATOM     40  C   UNL A   1      40.862  28.344  28.981  1.00  0.00     0.049 A 
ATOM     41  N   UNL A   1      42.502  28.236  31.515  1.00  0.00    -0.248 NA
ATOM     42  C   UNL A   1      44.100  27.002  30.345  1.00  0.00     0.031 C 
ATOM     43  C   UNL A   1      40.011  28.411  27.789  1.00  0.00     0.029 A 
ATOM     44  N   UNL A   1      40.290  29.252  29.837  1.00  0.00    -0.354 N 
ATOM     45  C   UNL A   1      43.572  27.955  32.354  1.00  0.00     0.074 A 
ATOM     46  C   UNL A   1      44.508  27.154  31.598  1.00  0.00     0.031 C 
ATOM     47  C   UNL A   1      39.062  29.339  27.971  1.00  0.00     0.029 A 
ATOM     48  C   UNL A   1      39.154  29.839  29.334  1.00  0.00     0.049 A 
ATOM     49  H   UNL A   1      40.659  29.462  30.726  1.00  0.00     0.167 HD
ATOM     50  C   UNL A   1      43.746  28.332  33.644  1.00  0.00     0.037 A 
ATOM     51  C   UNL A   1      38.245  30.639  29.922  1.00  0.00     0.037 A 
ATOM     52  C   UNL A   1      42.832  29.183  34.361  1.00  0.00     0.049 A 
ATOM     53  C   UNL A   1      38.430  30.988  31.373  1.00  0.00     0.074 A 
ATOM     54  C   UNL A   1      42.918  29.639  35.664  1.00  0.00     0.029 A 
ATOM     55  N   UNL A   1      41.668  29.719  33.826  1.00  0.00    -0.354 N 
ATOM     56  N   UNL A   1      39.408  30.665  32.183  1.00  0.00    -0.248 NA
ATOM     57  C   UNL A   1      37.372  31.794  31.995  1.00  0.00     0.031 C 
ATOM     58  C   UNL A   1      41.780  30.403  35.936  1.00  0.00     0.029 A 
ATOM     59  C   UNL A   1      41.016  30.480  34.782  1.00  0.00     0.049 A 
ATOM     60  H   UNL A   1      41.352  29.578  32.904  1.00  0.00     0.167 HD
ATOM     61  C   UNL A   1      39.099  31.248  33.403  1.00  0.00     0.074 A 
ATOM     62  C   UNL A   1      37.850  31.961  33.219  1.00  0.00     0.031 C 
ATOM     63  C   UNL A   1      39.782  31.194  34.573  1.00  0.00     0.037 A 
BRANCH  50  64
ATOM     64  C   UNL A   1      44.937  27.790  34.381  1.00  0.00     0.064 A 
ATOM     65  C   UNL A   1      46.151  28.487  34.464  1.00  0.00     0.173 A 
ATOM     66  C   UNL A   1      44.842  26.561  35.055  1.00  0.00     0.173 A 
ATOM     67  F   UNL A   1      46.303  29.658  33.827  1.00  0.00    -0.203 F 
ATOM     68  C   UNL A   1      47.231  27.963  35.173  1.00  0.00     0.198 A 
ATOM     69  C   UNL A   1      45.912  26.057  35.789  1.00  0.00     0.198 A 
ATOM     70  F   UNL A   1      43.704  25.852  35.012  1.00  0.00    -0.203 F 
ATOM     71  F   UNL A   1      48.397  28.624  35.199  1.00  0.00    -0.200 F 
ATOM     72  C   UNL A   1      47.107  26.755  35.843  1.00  0.00     0.200 A 
ATOM     73  F   UNL A   1      45.784  24.896  36.447  1.00  0.00    -0.200 F 
ATOM     74  F   UNL A   1      48.144  26.259  36.534  1.00  0.00    -0.200 F 
ENDBRANCH  50  64
BRANCH  51  75
ATOM     75  C   UNL A   1      37.050  31.103  29.166  1.00  0.00     0.064 A 
ATOM     76  C   UNL A   1      36.945  32.426  28.720  1.00  0.00     0.173 A 
ATOM     77  C   UNL A   1      35.981  30.236  28.885  1.00  0.00     0.173 A 
ATOM     78  F   UNL A   1      37.926  33.301  28.983  1.00  0.00    -0.203 F 
ATOM     79  C   UNL A   1      35.810  32.871  28.043  1.00  0.00     0.198 A 
ATOM     80  C   UNL A   1      34.865  30.672  28.173  1.00  0.00     0.198 A 
ATOM     81  F   UNL A   1      36.025  28.957  29.288  1.00  0.00    -0.203 F 
ATOM     82  F   UNL A   1      35.712  34.157  27.679  1.00  0.00    -0.200 F 
ATOM     83  C   UNL A   1      34.775  31.992  27.763  1.00  0.00     0.200 A 
ATOM     84  F   UNL A   1      33.878  29.811  27.889  1.00  0.00    -0.200 F 
ATOM     85  F   UNL A   1      33.688  32.419  27.107  1.00  0.00    -0.200 F 
ENDBRANCH  51  75
BRANCH  63  86
ATOM     86  C   UNL A   1      39.222  31.975  35.725  1.00  0.00     0.064 A 
ATOM     87  C   UNL A   1      39.543  33.325  35.929  1.00  0.00     0.173 A 
ATOM     88  C   UNL A   1      38.330  31.367  36.622  1.00  0.00     0.173 A 
ATOM     89  F   UNL A   1      40.405  33.945  35.111  1.00  0.00    -0.203 F 
ATOM     90  C   UNL A   1      39.014  34.028  37.008  1.00  0.00     0.198 A 
ATOM     91  C   UNL A   1      37.777  32.083  37.676  1.00  0.00     0.198 A 
ATOM     92  F   UNL A   1      37.988  30.079  36.466  1.00  0.00    -0.203 F 
ATOM     93  F   UNL A   1      39.380  35.301  37.218  1.00  0.00    -0.200 F 
ATOM     94  C   UNL A   1      38.126  33.410  37.875  1.00  0.00     0.200 A 
ATOM     95  F   UNL A   1      36.905  31.489  38.503  1.00  0.00    -0.200 F 
ATOM     96  F   UNL A   1      37.612  34.091  38.908  1.00  0.00    -0.200 F 
ENDBRANCH  63  86
ENDBRANCH  37  38
ENDBRANCH  30  32
ENDBRANCH  29  30
ENDBRANCH  28  29
ENDBRANCH  27  28
ENDBRANCH   1  27
TORSDOF 16
ENDMDL
MODEL 2
REMARK VINA RESULT:     -12.0      3.367      9.315
REMARK SMILES Cc1nc(CCc2ccc(S(=O)(=O)N3CCCC3)cc2)ncc1C(=O)OCCOC(=O)c1ccc(-c2c3nc(c(-c4c(F)c(F)c(F)c(F)c4F)c4ccc([nH]4)c(-c4c(F)c(F)c(F)c(F)c4F)c4nc(c(-c5c(F)c(F)c(F)c(F)c5F)c5ccc2[nH]5)C=C4)C=C3)cc1
REMARK SMILES IDX 26 1 24 2 25 3 23 4 1 5 2 6 3 7 4 8 22 9 21 10 5 11 6 12
REMARK SMILES IDX 7 13 8 14 20 15 9 16 19 17 10 18 11 19 12 20 13 21 14 22
REMARK SMILES IDX 15 23 18 24 16 25 17 26 27 27 28 28 29 29 30 30 31 31 32 32
REMARK SMILES IDX 33 33 94 34 34 35 93 36 35 37 36 38 37 39 87 40 38 41 92 42
REMARK SMILES IDX 86 43 88 44 39 45 91 46 85 47 84 48 40 50 72 51 52 52 71 53
REMARK SMILES IDX 53 54 56 55 70 56 89 57 54 58 55 59 69 61 90 62 57 63 41 64
REMARK SMILES IDX 42 65 50 66 43 67 44 68 48 69 51 70 45 71 46 72 49 73 47 74
REMARK SMILES IDX 73 75 74 76 82 77 75 78 76 79 80 80 83 81 77 82 78 83 81 84
REMARK SMILES IDX 79 85 58 86 59 87 67 88 60 89 61 90 65 91 68 92 62 93 63 94
REMARK SMILES IDX 66 95 64 96
REMARK H PARENT 88 49 56 60
REMARK Flexibility Score: inf
ROOT
ATOM      1  O   UNL A   1      34.101  34.159  27.871  1.00  0.00    -0.458 OA
ENDROOT
BRANCH   1   2
ATOM      2  C   UNL A   1      34.094  32.956  28.499  1.00  0.00     0.341 C 
ATOM      3  O   UNL A   1      34.510  32.713  29.619  1.00  0.00    -0.246 OA
BRANCH   2   4
ATOM      4  C   UNL A   1      33.465  31.935  27.646  1.00  0.00     0.099 A 
ATOM      5  C   UNL A   1      35.537  30.547  27.659  1.00  0.00     0.068 C 
ATOM      6  C   UNL A   1      34.115  30.775  27.302  1.00  0.00     0.056 A 
ATOM      7  N   UNL A   1      33.550  29.822  26.530  1.00  0.00    -0.237 NA
ATOM      8  C   UNL A   1      32.326  30.057  26.034  1.00  0.00     0.128 A 
ATOM      9  C   UNL A   1      32.169  32.028  27.188  1.00  0.00     0.130 A 
ATOM     10  N   UNL A   1      31.589  31.133  26.352  1.00  0.00    -0.240 NA
BRANCH   8  11
ATOM     11  C   UNL A   1      31.809  29.089  25.005  1.00  0.00     0.082 C 
BRANCH  11  12
ATOM     12  C   UNL A   1      31.424  27.728  25.613  1.00  0.00     0.043 C 
BRANCH  12  13
ATOM     13  C   UNL A   1      32.397  26.602  25.317  1.00  0.00    -0.047 A 
ATOM     14  C   UNL A   1      33.194  26.629  24.168  1.00  0.00     0.005 A 
ATOM     15  C   UNL A   1      32.474  25.481  26.162  1.00  0.00     0.005 A 
ATOM     16  C   UNL A   1      34.023  25.546  23.855  1.00  0.00     0.022 A 
ATOM     17  C   UNL A   1      33.299  24.391  25.848  1.00  0.00     0.022 A 
ATOM     18  C   UNL A   1      34.068  24.418  24.686  1.00  0.00     0.082 A 
BRANCH  18  19
ATOM     19  S   UNL A   1      35.149  23.071  24.218  1.00  0.00     0.243 S 
ATOM     20  O   UNL A   1      35.443  23.257  22.809  1.00  0.00    -0.207 OA
ATOM     21  O   UNL A   1      36.202  23.018  25.206  1.00  0.00    -0.207 OA
BRANCH  19  22
ATOM     22  N   UNL A   1      34.273  21.644  24.319  1.00  0.00    -0.198 NA
ATOM     23  C   UNL A   1      32.929  21.533  23.742  1.00  0.00     0.102 C 
ATOM     24  C   UNL A   1      34.438  20.710  25.448  1.00  0.00     0.102 C 
ATOM     25  C   UNL A   1      32.151  20.859  24.857  1.00  0.00     0.018 C 
ATOM     26  C   UNL A   1      33.143  19.901  25.473  1.00  0.00     0.018 C 
ENDBRANCH  19  22
ENDBRANCH  18  19
ENDBRANCH  12  13
ENDBRANCH  11  12
ENDBRANCH   8  11
ENDBRANCH   2   4
ENDBRANCH   1   2
BRANCH   1  27
ATOM     27  C   UNL A   1      34.262  35.344  28.687  1.00  0.00     0.275 C 
BRANCH  27  28
ATOM     28  C   UNL A   1      32.917  35.877  29.184  1.00  0.00     0.275 C 
BRANCH  28  29
ATOM     29  O   UNL A   1      32.514  35.163  30.364  1.00  0.00    -0.458 OA
BRANCH  29  30
ATOM     30  C   UNL A   1      32.763  35.813  31.522  1.00  0.00     0.338 C 
ATOM     31  O   UNL A   1      32.154  36.755  32.000  1.00  0.00    -0.246 OA
BRANCH  30  32
ATOM     32  C   UNL A   1      33.781  35.080  32.280  1.00  0.00     0.060 A 
ATOM     33  C   UNL A   1      35.051  35.635  32.300  1.00  0.00     0.016 A 
ATOM     34  C   UNL A   1      33.572  33.799  32.772  1.00  0.00     0.016 A 
ATOM     35  C   UNL A   1      36.151  34.878  32.663  1.00  0.00     0.010 A 
ATOM     36  C   UNL A   1      34.665  33.082  33.278  1.00  0.00     0.010 A 
ATOM     37  C   UNL A   1      35.975  33.597  33.187  1.00  0.00    -0.014 A 
BRANCH  37  38
ATOM     38  C   UNL A   1      37.168  32.803  33.584  1.00  0.00     0.031 A 
ATOM     39  C   UNL A   1      37.792  33.017  34.936  1.00  0.00     0.074 A 
ATOM     40  C   UNL A   1      37.668  31.861  32.757  1.00  0.00     0.049 A 
ATOM     41  N   UNL A   1      38.943  32.594  35.395  1.00  0.00    -0.248 NA
ATOM     42  C   UNL A   1      37.028  33.829  35.898  1.00  0.00     0.031 C 
ATOM     43  C   UNL A   1      37.111  31.489  31.453  1.00  0.00     0.029 A 
ATOM     44  N   UNL A   1      38.755  31.032  32.892  1.00  0.00    -0.354 N 
ATOM     45  C   UNL A   1      39.072  33.148  36.662  1.00  0.00     0.074 A 
ATOM     46  C   UNL A   1      37.885  33.937  36.904  1.00  0.00     0.031 C 
ATOM     47  C   UNL A   1      37.827  30.482  30.934  1.00  0.00     0.029 A 
ATOM     48  C   UNL A   1      38.966  30.224  31.801  1.00  0.00     0.049 A 
ATOM     49  H   UNL A   1      39.327  31.019  33.693  1.00  0.00     0.167 HD
ATOM     50  C   UNL A   1      40.097  33.010  37.536  1.00  0.00     0.037 A 
ATOM     51  C   UNL A   1      39.996  29.413  31.495  1.00  0.00     0.037 A 
ATOM     52  C   UNL A   1      41.243  32.168  37.301  1.00  0.00     0.049 A 
ATOM     53  C   UNL A   1      41.150  29.328  32.455  1.00  0.00     0.074 A 
ATOM     54  C   UNL A   1      42.332  31.943  38.125  1.00  0.00     0.029 A 
ATOM     55  N   UNL A   1      41.439  31.401  36.161  1.00  0.00    -0.354 N 
ATOM     56  N   UNL A   1      41.300  29.907  33.621  1.00  0.00    -0.248 NA
ATOM     57  C   UNL A   1      42.287  28.497  32.043  1.00  0.00     0.031 C 
ATOM     58  C   UNL A   1      43.212  31.085  37.460  1.00  0.00     0.029 A 
ATOM     59  C   UNL A   1      42.642  30.721  36.250  1.00  0.00     0.049 A 
ATOM     60  H   UNL A   1      40.815  31.349  35.401  1.00  0.00     0.167 HD
ATOM     61  C   UNL A   1      42.535  29.490  34.096  1.00  0.00     0.074 A 
ATOM     62  C   UNL A   1      43.084  28.595  33.097  1.00  0.00     0.031 C 
ATOM     63  C   UNL A   1      43.162  29.822  35.251  1.00  0.00     0.037 A 
BRANCH  50  64
ATOM     64  C   UNL A   1      40.059  33.819  38.801  1.00  0.00     0.064 A 
ATOM     65  C   UNL A   1      40.701  35.060  38.919  1.00  0.00     0.173 A 
ATOM     66  C   UNL A   1      39.325  33.356  39.904  1.00  0.00     0.173 A 
ATOM     67  F   UNL A   1      41.429  35.544  37.902  1.00  0.00    -0.203 F 
ATOM     68  C   UNL A   1      40.629  35.794  40.102  1.00  0.00     0.198 A 
ATOM     69  C   UNL A   1      39.228  34.106  41.072  1.00  0.00     0.198 A 
ATOM     70  F   UNL A   1      38.688  32.176  39.846  1.00  0.00    -0.203 F 
ATOM     71  F   UNL A   1      41.290  36.955  40.210  1.00  0.00    -0.200 F 
ATOM     72  C   UNL A   1      39.885  35.322  41.173  1.00  0.00     0.200 A 
ATOM     73  F   UNL A   1      38.496  33.654  42.100  1.00  0.00    -0.200 F 
ATOM     74  F   UNL A   1      39.808  36.036  42.306  1.00  0.00    -0.200 F 
ENDBRANCH  50  64
BRANCH  51  75
ATOM     75  C   UNL A   1      40.016  28.677  30.202  1.00  0.00     0.064 A 
ATOM     76  C   UNL A   1      39.442  27.404  30.086  1.00  0.00     0.173 A 
ATOM     77  C   UNL A   1      40.620  29.223  29.059  1.00  0.00     0.173 A 
ATOM     78  F   UNL A   1      38.873  26.825  31.153  1.00  0.00    -0.203 F 
ATOM     79  C   UNL A   1      39.492  26.698  28.884  1.00  0.00     0.198 A 
ATOM     80  C   UNL A   1      40.633  28.534  27.848  1.00  0.00     0.198 A 
ATOM     81  F   UNL A   1      41.186  30.439  29.110  1.00  0.00    -0.203 F 
ATOM     82  F   UNL A   1      38.986  25.459  28.817  1.00  0.00    -0.200 F 
ATOM     83  C   UNL A   1      40.080  27.267  27.765  1.00  0.00     0.200 A 
ATOM     84  F   UNL A   1      41.185  29.098  26.765  1.00  0.00    -0.200 F 
ATOM     85  F   UNL A   1      40.121  26.590  26.609  1.00  0.00    -0.200 F 
ENDBRANCH  51  75
BRANCH  63  86
ATOM     86  C   UNL A   1      44.485  29.168  35.520  1.00  0.00     0.064 A 
ATOM     87  C   UNL A   1      45.695  29.757  35.127  1.00  0.00     0.173 A 
ATOM     88  C   UNL A   1      44.539  27.945  36.207  1.00  0.00     0.173 A 
ATOM     89  F   UNL A   1      45.695  30.915  34.452  1.00  0.00    -0.203 F 
ATOM     90  C   UNL A   1      46.911  29.129  35.386  1.00  0.00     0.198 A 
ATOM     91  C   UNL A   1      45.757  27.339  36.494  1.00  0.00     0.198 A 
ATOM     92  F   UNL A   1      43.409  27.343  36.609  1.00  0.00    -0.203 F 
ATOM     93  F   UNL A   1      48.052  29.680  34.950  1.00  0.00    -0.200 F 
ATOM     94  C   UNL A   1      46.941  27.926  36.075  1.00  0.00     0.200 A 
ATOM     95  F   UNL A   1      45.785  26.185  37.175  1.00  0.00    -0.200 F 
ATOM     96  F   UNL A   1      48.112  27.328  36.329  1.00  0.00    -0.200 F 
ENDBRANCH  63  86
ENDBRANCH  37  38
ENDBRANCH  30  32
ENDBRANCH  29  30
ENDBRANCH  28  29
ENDBRANCH  27  28
ENDBRANCH   1  27
TORSDOF 16
ENDMDL
MODEL 3
REMARK VINA RESULT:     -12.0      3.486      9.397
REMARK SMILES Cc1nc(CCc2ccc(S(=O)(=O)N3CCCC3)cc2)ncc1C(=O)OCCOC(=O)c1ccc(-c2c3nc(c(-c4c(F)c(F)c(F)c(F)c4F)c4ccc([nH]4)c(-c4c(F)c(F)c(F)c(F)c4F)c4nc(c(-c5c(F)c(F)c(F)c(F)c5F)c5ccc2[nH]5)C=C4)C=C3)cc1
REMARK SMILES IDX 26 1 24 2 25 3 23 4 1 5 2 6 3 7 4 8 22 9 21 10 5 11 6 12
REMARK SMILES IDX 7 13 8 14 20 15 9 16 19 17 10 18 11 19 12 20 13 21 14 22
REMARK SMILES IDX 15 23 18 24 16 25 17 26 27 27 28 28 29 29 30 30 31 31 32 32
REMARK SMILES IDX 33 33 94 34 34 35 93 36 35 37 36 38 37 39 87 40 38 41 92 42
REMARK SMILES IDX 86 43 88 44 39 45 91 46 85 47 84 48 40 50 72 51 52 52 71 53
REMARK SMILES IDX 53 54 56 55 70 56 89 57 54 58 55 59 69 61 90 62 57 63 41 64
REMARK SMILES IDX 42 65 50 66 43 67 44 68 48 69 51 70 45 71 46 72 49 73 47 74
REMARK SMILES IDX 73 75 74 76 82 77 75 78 76 79 80 80 83 81 77 82 78 83 81 84
REMARK SMILES IDX 79 85 58 86 59 87 67 88 60 89 61 90 65 91 68 92 62 93 63 94
REMARK SMILES IDX 66 95 64 96
REMARK H PARENT 88 49 56 60
REMARK Flexibility Score: inf
ROOT
ATOM      1  O   UNL A   1      34.148  33.810  28.968  1.00  0.00    -0.458 OA
ENDROOT
BRANCH   1   2
ATOM      2  C   UNL A   1      34.786  33.042  28.047  1.00  0.00     0.341 C 
ATOM      3  O   UNL A   1      35.919  33.194  27.627  1.00  0.00    -0.246 OA
BRANCH   2   4
ATOM      4  C   UNL A   1      33.921  31.932  27.616  1.00  0.00     0.099 A 
ATOM      5  C   UNL A   1      35.768  30.284  27.917  1.00  0.00     0.068 C 
ATOM      6  C   UNL A   1      34.357  30.630  27.614  1.00  0.00     0.056 A 
ATOM      7  N   UNL A   1      33.574  29.598  27.235  1.00  0.00    -0.237 NA
ATOM      8  C   UNL A   1      32.341  29.874  26.784  1.00  0.00     0.128 A 
ATOM      9  C   UNL A   1      32.602  32.099  27.252  1.00  0.00     0.130 A 
ATOM     10  N   UNL A   1      31.805  31.104  26.794  1.00  0.00    -0.240 NA
BRANCH   8  11
ATOM     11  C   UNL A   1      31.571  28.741  26.163  1.00  0.00     0.082 C 
BRANCH  11  12
ATOM     12  C   UNL A   1      31.722  27.424  26.945  1.00  0.00     0.043 C 
BRANCH  12  13
ATOM     13  C   UNL A   1      32.261  26.260  26.134  1.00  0.00    -0.047 A 
ATOM     14  C   UNL A   1      33.538  26.317  25.565  1.00  0.00     0.005 A 
ATOM     15  C   UNL A   1      31.466  25.127  25.889  1.00  0.00     0.005 A 
ATOM     16  C   UNL A   1      33.995  25.280  24.745  1.00  0.00     0.022 A 
ATOM     17  C   UNL A   1      31.918  24.088  25.062  1.00  0.00     0.022 A 
ATOM     18  C   UNL A   1      33.181  24.169  24.479  1.00  0.00     0.082 A 
BRANCH  18  19
ATOM     19  S   UNL A   1      33.832  22.884  23.417  1.00  0.00     0.243 S 
ATOM     20  O   UNL A   1      32.874  21.795  23.465  1.00  0.00    -0.207 OA
ATOM     21  O   UNL A   1      34.190  23.517  22.167  1.00  0.00    -0.207 OA
BRANCH  19  22
ATOM     22  N   UNL A   1      35.236  22.292  24.118  1.00  0.00    -0.198 NA
ATOM     23  C   UNL A   1      35.315  22.028  25.558  1.00  0.00     0.102 C 
ATOM     24  C   UNL A   1      36.568  22.602  23.567  1.00  0.00     0.102 C 
ATOM     25  C   UNL A   1      36.644  22.658  25.932  1.00  0.00     0.018 C 
ATOM     26  C   UNL A   1      37.528  22.392  24.737  1.00  0.00     0.018 C 
ENDBRANCH  19  22
ENDBRANCH  18  19
ENDBRANCH  12  13
ENDBRANCH  11  12
ENDBRANCH   8  11
ENDBRANCH   2   4
ENDBRANCH   1   2
BRANCH   1  27
ATOM     27  C   UNL A   1      34.164  35.244  28.776  1.00  0.00     0.275 C 
BRANCH  27  28
ATOM     28  C   UNL A   1      32.911  35.908  29.351  1.00  0.00     0.275 C 
BRANCH  28  29
ATOM     29  O   UNL A   1      32.477  35.200  30.523  1.00  0.00    -0.458 OA
BRANCH  29  30
ATOM     30  C   UNL A   1      32.739  35.834  31.687  1.00  0.00     0.338 C 
ATOM     31  O   UNL A   1      32.140  36.774  32.182  1.00  0.00    -0.246 OA
BRANCH  30  32
ATOM     32  C   UNL A   1      33.759  35.086  32.426  1.00  0.00     0.060 A 
ATOM     33  C   UNL A   1      35.014  35.671  32.508  1.00  0.00     0.016 A 
ATOM     34  C   UNL A   1      33.574  33.774  32.841  1.00  0.00     0.016 A 
ATOM     35  C   UNL A   1      36.125  34.923  32.854  1.00  0.00     0.010 A 
ATOM     36  C   UNL A   1      34.675  33.058  33.332  1.00  0.00     0.010 A 
ATOM     37  C   UNL A   1      35.972  33.611  33.301  1.00  0.00    -0.014 A 
BRANCH  37  38
ATOM     38  C   UNL A   1      37.177  32.827  33.681  1.00  0.00     0.031 A 
ATOM     39  C   UNL A   1      37.811  33.036  35.030  1.00  0.00     0.074 A 
ATOM     40  C   UNL A   1      37.680  31.896  32.842  1.00  0.00     0.049 A 
ATOM     41  N   UNL A   1      38.970  32.622  35.476  1.00  0.00    -0.248 NA
ATOM     42  C   UNL A   1      37.046  33.832  36.005  1.00  0.00     0.031 C 
ATOM     43  C   UNL A   1      37.116  31.529  31.540  1.00  0.00     0.029 A 
ATOM     44  N   UNL A   1      38.777  31.078  32.961  1.00  0.00    -0.354 N 
ATOM     45  C   UNL A   1      39.104  33.167  36.746  1.00  0.00     0.074 A 
ATOM     46  C   UNL A   1      37.910  33.941  37.005  1.00  0.00     0.031 C 
ATOM     47  C   UNL A   1      37.838  30.534  31.007  1.00  0.00     0.029 A 
ATOM     48  C   UNL A   1      38.987  30.281  31.862  1.00  0.00     0.049 A 
ATOM     49  H   UNL A   1      39.356  31.065  33.757  1.00  0.00     0.167 HD
ATOM     50  C   UNL A   1      40.138  33.033  37.610  1.00  0.00     0.037 A 
ATOM     51  C   UNL A   1      40.023  29.484  31.541  1.00  0.00     0.037 A 
ATOM     52  C   UNL A   1      41.290  32.206  37.359  1.00  0.00     0.049 A 
ATOM     53  C   UNL A   1      41.186  29.405  32.490  1.00  0.00     0.074 A 
ATOM     54  C   UNL A   1      42.389  31.986  38.171  1.00  0.00     0.029 A 
ATOM     55  N   UNL A   1      41.485  31.450  36.210  1.00  0.00    -0.354 N 
ATOM     56  N   UNL A   1      41.340  29.975  33.659  1.00  0.00    -0.248 NA
ATOM     57  C   UNL A   1      42.329  28.589  32.062  1.00  0.00     0.031 C 
ATOM     58  C   UNL A   1      43.273  31.142  37.491  1.00  0.00     0.029 A 
ATOM     59  C   UNL A   1      42.696  30.783  36.283  1.00  0.00     0.049 A 
ATOM     60  H   UNL A   1      40.855  31.397  35.455  1.00  0.00     0.167 HD
ATOM     61  C   UNL A   1      42.584  29.568  34.120  1.00  0.00     0.074 A 
ATOM     62  C   UNL A   1      43.133  28.686  33.110  1.00  0.00     0.031 C 
ATOM     63  C   UNL A   1      43.217  29.897  35.273  1.00  0.00     0.037 A 
BRANCH  50  64
ATOM     64  C   UNL A   1      40.102  33.831  38.882  1.00  0.00     0.064 A 
ATOM     65  C   UNL A   1      39.440  33.381  40.033  1.00  0.00     0.173 A 
ATOM     66  C   UNL A   1      40.783  35.057  38.957  1.00  0.00     0.173 A 
ATOM     67  F   UNL A   1      38.760  32.225  40.014  1.00  0.00    -0.203 F 
ATOM     68  C   UNL A   1      39.442  34.139  41.203  1.00  0.00     0.198 A 
ATOM     69  C   UNL A   1      40.811  35.795  40.136  1.00  0.00     0.198 A 
ATOM     70  F   UNL A   1      41.435  35.535  37.887  1.00  0.00    -0.203 F 
ATOM     71  F   UNL A   1      38.763  33.712  42.277  1.00  0.00    -0.200 F 
ATOM     72  C   UNL A   1      40.135  35.339  41.257  1.00  0.00     0.200 A 
ATOM     73  F   UNL A   1      41.494  36.947  40.189  1.00  0.00    -0.200 F 
ATOM     74  F   UNL A   1      40.146  36.061  42.387  1.00  0.00    -0.200 F 
ENDBRANCH  50  64
BRANCH  51  75
ATOM     75  C   UNL A   1      40.040  28.759  30.242  1.00  0.00     0.064 A 
ATOM     76  C   UNL A   1      40.637  29.322  29.107  1.00  0.00     0.173 A 
ATOM     77  C   UNL A   1      39.448  27.493  30.103  1.00  0.00     0.173 A 
ATOM     78  F   UNL A   1      41.195  30.539  29.178  1.00  0.00    -0.203 F 
ATOM     79  C   UNL A   1      40.621  28.659  27.880  1.00  0.00     0.198 A 
ATOM     80  C   UNL A   1      39.469  26.814  28.887  1.00  0.00     0.198 A 
ATOM     81  F   UNL A   1      38.861  26.904  31.156  1.00  0.00    -0.203 F 
ATOM     82  F   UNL A   1      41.150  29.246  26.798  1.00  0.00    -0.200 F 
ATOM     83  C   UNL A   1      40.045  27.402  27.773  1.00  0.00     0.200 A 
ATOM     84  F   UNL A   1      38.928  25.591  28.796  1.00  0.00    -0.200 F 
ATOM     85  F   UNL A   1      40.037  26.764  26.595  1.00  0.00    -0.200 F 
ENDBRANCH  51  75
BRANCH  63  86
ATOM     86  C   UNL A   1      44.549  29.255  35.525  1.00  0.00     0.064 A 
ATOM     87  C   UNL A   1      44.663  28.028  36.196  1.00  0.00     0.173 A 
ATOM     88  C   UNL A   1      45.725  29.866  35.064  1.00  0.00     0.173 A 
ATOM     89  F   UNL A   1      43.570  27.415  36.672  1.00  0.00    -0.203 F 
ATOM     90  C   UNL A   1      45.910  27.453  36.422  1.00  0.00     0.198 A 
ATOM     91  C   UNL A   1      46.965  29.270  35.261  1.00  0.00     0.198 A 
ATOM     92  F   UNL A   1      45.669  31.038  34.413  1.00  0.00    -0.203 F 
ATOM     93  F   UNL A   1      46.001  26.310  37.116  1.00  0.00    -0.200 F 
ATOM     94  C   UNL A   1      47.059  28.070  35.948  1.00  0.00     0.200 A 
ATOM     95  F   UNL A   1      48.073  29.859  34.788  1.00  0.00    -0.200 F 
ATOM     96  F   UNL A   1      48.257  27.509  36.160  1.00  0.00    -0.200 F 
ENDBRANCH  63  86
ENDBRANCH  37  38
ENDBRANCH  30  32
ENDBRANCH  29  30
ENDBRANCH  28  29
ENDBRANCH  27  28
ENDBRANCH   1  27
TORSDOF 16
ENDMDL
