MODEL 1
REMARK VINA RESULT:     -11.9      0.000      0.000
REMARK SMILES CCn1cccc1C(=O)N(C)c1snc(C)c1C(=O)OCCOC(=O)c1ccc(-c2c3nc(c(-c4c(F)c(F)c(F)c(F)c4F)c4ccc([nH]4)c(-c4c(F)c(F)c(F)c(F)c4F)c4nc(c(-c5c(F)c(F)c(F)c(F)c5F)c5ccc2[nH]5)C=C4)C=C3)cc1
REMARK SMILES IDX 21 1 20 2 18 3 19 4 17 5 12 6 13 7 14 8 15 9 16 10 10 11
REMARK SMILES IDX 11 12 8 13 9 14 7 15 3 16 4 17 5 18 6 19 2 20 1 21 22 22
REMARK SMILES IDX 23 23 24 24 25 25 26 26 27 27 88 28 28 29 87 30 29 31 30 32
REMARK SMILES IDX 31 33 81 34 32 35 86 36 80 37 82 38 33 39 85 40 79 41 78 42
REMARK SMILES IDX 34 44 66 45 46 46 65 47 47 48 50 49 64 50 83 51 48 52 49 53
REMARK SMILES IDX 63 55 84 56 51 57 35 58 36 59 44 60 37 61 38 62 42 63 45 64
REMARK SMILES IDX 39 65 40 66 43 67 41 68 67 69 68 70 76 71 69 72 70 73 74 74
REMARK SMILES IDX 77 75 71 76 72 77 75 78 73 79 52 80 53 81 61 82 54 83 55 84
REMARK SMILES IDX 59 85 62 86 56 87 57 88 60 89 58 90
REMARK H PARENT 82 43 50 54
REMARK Flexibility Score: inf
ROOT
ATOM      1  C   UNL A   1      33.769  28.488  26.061  1.00  0.00     0.275 C 
ENDROOT
BRANCH   1   2
ATOM      2  O   UNL A   1      33.190  27.387  26.781  1.00  0.00    -0.458 OA
BRANCH   2   3
ATOM      3  C   UNL A   1      31.820  27.307  26.754  1.00  0.00     0.343 C 
ATOM      4  O   UNL A   1      31.109  27.805  27.600  1.00  0.00    -0.246 OA
BRANCH   3   5
ATOM      5  C   UNL A   1      31.296  26.614  25.575  1.00  0.00     0.117 A 
ATOM      6  C   UNL A   1      31.429  25.271  25.264  1.00  0.00     0.133 A 
ATOM      7  S   UNL A   1      30.607  24.918  23.819  1.00  0.00    -0.017 S 
ATOM      8  N   UNL A   1      30.193  26.483  23.478  1.00  0.00    -0.195 NA
ATOM      9  C   UNL A   1      30.665  27.276  24.446  1.00  0.00     0.068 A 
ATOM     10  C   UNL A   1      30.577  28.749  24.205  1.00  0.00     0.069 C 
BRANCH   6  11
ATOM     11  N   UNL A   1      32.282  24.287  25.774  1.00  0.00    -0.300 N 
ATOM     12  C   UNL A   1      31.719  23.385  26.770  1.00  0.00     0.154 C 
BRANCH  11  13
ATOM     13  C   UNL A   1      33.501  24.124  25.102  1.00  0.00     0.275 C 
ATOM     14  O   UNL A   1      33.953  25.020  24.386  1.00  0.00    -0.267 OA
BRANCH  13  15
ATOM     15  C   UNL A   1      34.155  22.815  25.103  1.00  0.00     0.107 A 
ATOM     16  N   UNL A   1      33.810  21.594  24.536  1.00  0.00    -0.344 N 
ATOM     17  C   UNL A   1      34.769  20.653  24.880  1.00  0.00     0.086 A 
ATOM     18  C   UNL A   1      35.647  21.214  25.771  1.00  0.00     0.020 A 
ATOM     19  C   UNL A   1      35.267  22.560  25.909  1.00  0.00     0.033 A 
BRANCH  16  20
ATOM     20  C   UNL A   1      32.543  21.158  23.966  1.00  0.00     0.119 C 
ATOM     21  C   UNL A   1      32.167  21.678  22.593  1.00  0.00     0.027 C 
ENDBRANCH  16  20
ENDBRANCH  13  15
ENDBRANCH  11  13
ENDBRANCH   6  11
ENDBRANCH   3   5
ENDBRANCH   2   3
ENDBRANCH   1   2
BRANCH   1  22
ATOM     22  C   UNL A   1      34.183  29.626  26.996  1.00  0.00     0.275 C 
BRANCH  22  23
ATOM     23  O   UNL A   1      35.231  29.302  27.924  1.00  0.00    -0.458 OA
BRANCH  23  24
ATOM     24  C   UNL A   1      36.211  30.227  27.997  1.00  0.00     0.338 C 
ATOM     25  O   UNL A   1      36.131  31.404  27.687  1.00  0.00    -0.246 OA
BRANCH  24  26
ATOM     26  C   UNL A   1      37.510  29.645  28.342  1.00  0.00     0.060 A 
ATOM     27  C   UNL A   1      38.515  29.707  27.370  1.00  0.00     0.016 A 
ATOM     28  C   UNL A   1      37.664  28.870  29.499  1.00  0.00     0.016 A 
ATOM     29  C   UNL A   1      39.673  28.970  27.542  1.00  0.00     0.010 A 
ATOM     30  C   UNL A   1      38.820  28.117  29.664  1.00  0.00     0.010 A 
ATOM     31  C   UNL A   1      39.820  28.172  28.685  1.00  0.00    -0.014 A 
BRANCH  31  32
ATOM     32  C   UNL A   1      41.149  27.567  28.907  1.00  0.00     0.031 A 
ATOM     33  C   UNL A   1      41.196  26.129  28.391  1.00  0.00     0.074 A 
ATOM     34  C   UNL A   1      42.075  28.303  29.589  1.00  0.00     0.049 A 
ATOM     35  N   UNL A   1      41.894  25.121  28.812  1.00  0.00    -0.248 NA
ATOM     36  C   UNL A   1      40.264  25.728  27.301  1.00  0.00     0.031 C 
ATOM     37  C   UNL A   1      41.871  29.700  30.010  1.00  0.00     0.029 A 
ATOM     38  N   UNL A   1      43.343  28.045  30.079  1.00  0.00    -0.354 N 
ATOM     39  C   UNL A   1      41.648  24.052  27.929  1.00  0.00     0.074 A 
ATOM     40  C   UNL A   1      40.532  24.436  27.120  1.00  0.00     0.031 C 
ATOM     41  C   UNL A   1      42.918  30.139  30.738  1.00  0.00     0.029 A 
ATOM     42  C   UNL A   1      43.917  29.091  30.850  1.00  0.00     0.049 A 
ATOM     43  H   UNL A   1      43.814  27.198  29.906  1.00  0.00     0.167 HD
ATOM     44  C   UNL A   1      42.488  22.985  27.802  1.00  0.00     0.037 A 
ATOM     45  C   UNL A   1      45.094  29.110  31.555  1.00  0.00     0.037 A 
ATOM     46  C   UNL A   1      43.552  23.083  28.743  1.00  0.00     0.049 A 
ATOM     47  C   UNL A   1      45.777  27.849  31.227  1.00  0.00     0.074 A 
ATOM     48  C   UNL A   1      43.612  22.939  30.103  1.00  0.00     0.029 A 
ATOM     49  N   UNL A   1      44.707  23.679  28.304  1.00  0.00    -0.354 N 
ATOM     50  N   UNL A   1      46.379  27.609  30.101  1.00  0.00    -0.248 NA
ATOM     51  C   UNL A   1      45.762  26.754  32.207  1.00  0.00     0.031 C 
ATOM     52  C   UNL A   1      44.643  23.818  30.495  1.00  0.00     0.029 A 
ATOM     53  C   UNL A   1      45.246  24.368  29.357  1.00  0.00     0.049 A 
ATOM     54  H   UNL A   1      45.080  23.621  27.395  1.00  0.00     0.167 HD
ATOM     55  C   UNL A   1      46.507  26.239  30.129  1.00  0.00     0.074 A 
ATOM     56  C   UNL A   1      46.444  25.844  31.515  1.00  0.00     0.031 C 
ATOM     57  C   UNL A   1      46.067  25.522  29.064  1.00  0.00     0.037 A 
BRANCH  44  58
ATOM     58  C   UNL A   1      42.627  21.959  26.711  1.00  0.00     0.064 A 
ATOM     59  C   UNL A   1      42.118  20.659  26.955  1.00  0.00     0.173 A 
ATOM     60  C   UNL A   1      43.525  22.079  25.641  1.00  0.00     0.173 A 
ATOM     61  F   UNL A   1      41.219  20.444  27.930  1.00  0.00    -0.203 F 
ATOM     62  C   UNL A   1      42.594  19.540  26.275  1.00  0.00     0.198 A 
ATOM     63  C   UNL A   1      43.955  20.959  24.924  1.00  0.00     0.198 A 
ATOM     64  F   UNL A   1      44.093  23.251  25.332  1.00  0.00    -0.203 F 
ATOM     65  F   UNL A   1      42.200  18.314  26.650  1.00  0.00    -0.200 F 
ATOM     66  C   UNL A   1      43.528  19.690  25.271  1.00  0.00     0.200 A 
ATOM     67  F   UNL A   1      44.859  21.112  23.945  1.00  0.00    -0.200 F 
ATOM     68  F   UNL A   1      44.045  18.613  24.665  1.00  0.00    -0.200 F 
ENDBRANCH  44  58
BRANCH  45  69
ATOM     69  C   UNL A   1      45.816  30.015  32.539  1.00  0.00     0.064 A 
ATOM     70  C   UNL A   1      46.902  30.851  32.252  1.00  0.00     0.173 A 
ATOM     71  C   UNL A   1      45.375  30.100  33.896  1.00  0.00     0.173 A 
ATOM     72  F   UNL A   1      47.517  30.810  31.068  1.00  0.00    -0.203 F 
ATOM     73  C   UNL A   1      47.424  31.759  33.196  1.00  0.00     0.198 A 
ATOM     74  C   UNL A   1      45.867  31.022  34.819  1.00  0.00     0.198 A 
ATOM     75  F   UNL A   1      44.441  29.278  34.390  1.00  0.00    -0.203 F 
ATOM     76  F   UNL A   1      48.459  32.542  32.858  1.00  0.00    -0.200 F 
ATOM     77  C   UNL A   1      46.886  31.867  34.465  1.00  0.00     0.200 A 
ATOM     78  F   UNL A   1      45.328  31.083  36.047  1.00  0.00    -0.200 F 
ATOM     79  F   UNL A   1      47.357  32.764  35.341  1.00  0.00    -0.200 F 
ENDBRANCH  45  69
BRANCH  57  80
ATOM     80  C   UNL A   1      46.096  26.303  27.764  1.00  0.00     0.064 A 
ATOM     81  C   UNL A   1      44.896  26.640  27.118  1.00  0.00     0.173 A 
ATOM     82  C   UNL A   1      47.276  26.591  27.060  1.00  0.00     0.173 A 
ATOM     83  F   UNL A   1      43.723  26.414  27.728  1.00  0.00    -0.203 F 
ATOM     84  C   UNL A   1      44.885  27.203  25.838  1.00  0.00     0.198 A 
ATOM     85  C   UNL A   1      47.270  27.158  25.785  1.00  0.00     0.198 A 
ATOM     86  F   UNL A   1      48.463  26.325  27.597  1.00  0.00    -0.203 F 
ATOM     87  F   UNL A   1      43.718  27.501  25.251  1.00  0.00    -0.200 F 
ATOM     88  C   UNL A   1      46.071  27.457  25.170  1.00  0.00     0.200 A 
ATOM     89  F   UNL A   1      48.430  27.413  25.160  1.00  0.00    -0.200 F 
ATOM     90  F   UNL A   1      46.059  27.998  23.943  1.00  0.00    -0.200 F 
ENDBRANCH  57  80
ENDBRANCH  31  32
ENDBRANCH  24  26
ENDBRANCH  23  24
ENDBRANCH  22  23
ENDBRANCH   1  22
TORSDOF 15
ENDMDL
MODEL 2
REMARK VINA RESULT:     -11.8      4.787      9.567
REMARK SMILES CCn1cccc1C(=O)N(C)c1snc(C)c1C(=O)OCCOC(=O)c1ccc(-c2c3nc(c(-c4c(F)c(F)c(F)c(F)c4F)c4ccc([nH]4)c(-c4c(F)c(F)c(F)c(F)c4F)c4nc(c(-c5c(F)c(F)c(F)c(F)c5F)c5ccc2[nH]5)C=C4)C=C3)cc1
REMARK SMILES IDX 21 1 20 2 18 3 19 4 17 5 12 6 13 7 14 8 15 9 16 10 10 11
REMARK SMILES IDX 11 12 8 13 9 14 7 15 3 16 4 17 5 18 6 19 2 20 1 21 22 22
REMARK SMILES IDX 23 23 24 24 25 25 26 26 27 27 88 28 28 29 87 30 29 31 30 32
REMARK SMILES IDX 31 33 81 34 32 35 86 36 80 37 82 38 33 39 85 40 79 41 78 42
REMARK SMILES IDX 34 44 66 45 46 46 65 47 47 48 50 49 64 50 83 51 48 52 49 53
REMARK SMILES IDX 63 55 84 56 51 57 35 58 36 59 44 60 37 61 38 62 42 63 45 64
REMARK SMILES IDX 39 65 40 66 43 67 41 68 67 69 68 70 76 71 69 72 70 73 74 74
REMARK SMILES IDX 77 75 71 76 72 77 75 78 73 79 52 80 53 81 61 82 54 83 55 84
REMARK SMILES IDX 59 85 62 86 56 87 57 88 60 89 58 90
REMARK H PARENT 82 43 50 54
REMARK Flexibility Score: inf
ROOT
ATOM      1  C   UNL A   1      36.556  23.080  25.312  1.00  0.00     0.275 C 
ENDROOT
BRANCH   1   2
ATOM      2  O   UNL A   1      35.821  21.964  25.841  1.00  0.00    -0.458 OA
BRANCH   2   3
ATOM      3  C   UNL A   1      34.543  22.233  26.263  1.00  0.00     0.343 C 
ATOM      4  O   UNL A   1      34.255  22.429  27.424  1.00  0.00    -0.246 OA
BRANCH   3   5
ATOM      5  C   UNL A   1      33.571  22.320  25.172  1.00  0.00     0.117 A 
ATOM      6  C   UNL A   1      32.796  23.415  24.826  1.00  0.00     0.133 A 
ATOM      7  S   UNL A   1      31.854  23.058  23.457  1.00  0.00    -0.017 S 
ATOM      8  N   UNL A   1      32.293  21.466  23.365  1.00  0.00    -0.195 NA
ATOM      9  C   UNL A   1      33.149  21.194  24.355  1.00  0.00     0.068 A 
ATOM     10  C   UNL A   1      33.492  19.755  24.567  1.00  0.00     0.069 C 
BRANCH   6  11
ATOM     11  N   UNL A   1      32.497  24.590  25.522  1.00  0.00    -0.300 N 
ATOM     12  C   UNL A   1      31.561  24.471  26.633  1.00  0.00     0.154 C 
BRANCH  11  13
ATOM     13  C   UNL A   1      33.305  25.697  25.233  1.00  0.00     0.275 C 
ATOM     14  O   UNL A   1      34.401  25.554  24.687  1.00  0.00    -0.267 OA
BRANCH  13  15
ATOM     15  C   UNL A   1      32.931  27.016  25.745  1.00  0.00     0.107 A 
ATOM     16  N   UNL A   1      31.840  27.841  25.504  1.00  0.00    -0.344 N 
ATOM     17  C   UNL A   1      31.998  29.016  26.223  1.00  0.00     0.086 A 
ATOM     18  C   UNL A   1      33.236  29.017  26.811  1.00  0.00     0.020 A 
ATOM     19  C   UNL A   1      33.816  27.773  26.516  1.00  0.00     0.033 A 
BRANCH  16  20
ATOM     20  C   UNL A   1      30.831  27.766  24.455  1.00  0.00     0.119 C 
ATOM     21  C   UNL A   1      30.506  29.035  23.693  1.00  0.00     0.027 C 
ENDBRANCH  16  20
ENDBRANCH  13  15
ENDBRANCH  11  13
ENDBRANCH   6  11
ENDBRANCH   3   5
ENDBRANCH   2   3
ENDBRANCH   1   2
BRANCH   1  22
ATOM     22  C   UNL A   1      37.938  23.210  25.956  1.00  0.00     0.275 C 
BRANCH  22  23
ATOM     23  O   UNL A   1      38.129  24.386  26.759  1.00  0.00    -0.458 OA
BRANCH  23  24
ATOM     24  C   UNL A   1      39.308  24.424  27.412  1.00  0.00     0.338 C 
ATOM     25  O   UNL A   1      40.053  23.484  27.633  1.00  0.00    -0.246 OA
BRANCH  24  26
ATOM     26  C   UNL A   1      39.573  25.730  28.022  1.00  0.00     0.060 A 
ATOM     27  C   UNL A   1      39.120  25.925  29.332  1.00  0.00     0.016 A 
ATOM     28  C   UNL A   1      40.053  26.796  27.252  1.00  0.00     0.016 A 
ATOM     29  C   UNL A   1      39.123  27.200  29.869  1.00  0.00     0.010 A 
ATOM     30  C   UNL A   1      40.041  28.080  27.785  1.00  0.00     0.010 A 
ATOM     31  C   UNL A   1      39.577  28.275  29.093  1.00  0.00    -0.014 A 
BRANCH  31  32
ATOM     32  C   UNL A   1      39.741  29.571  29.782  1.00  0.00     0.031 A 
ATOM     33  C   UNL A   1      38.547  30.489  29.523  1.00  0.00     0.074 A 
ATOM     34  C   UNL A   1      40.914  29.793  30.445  1.00  0.00     0.049 A 
ATOM     35  N   UNL A   1      38.496  31.784  29.469  1.00  0.00    -0.248 NA
ATOM     36  C   UNL A   1      37.231  29.879  29.189  1.00  0.00     0.031 C 
ATOM     37  C   UNL A   1      41.971  28.781  30.613  1.00  0.00     0.029 A 
ATOM     38  N   UNL A   1      41.468  30.887  31.087  1.00  0.00    -0.354 N 
ATOM     39  C   UNL A   1      37.142  32.136  29.306  1.00  0.00     0.074 A 
ATOM     40  C   UNL A   1      36.440  30.931  28.990  1.00  0.00     0.031 C 
ATOM     41  C   UNL A   1      43.046  29.310  31.233  1.00  0.00     0.029 A 
ATOM     42  C   UNL A   1      42.798  30.705  31.550  1.00  0.00     0.049 A 
ATOM     43  H   UNL A   1      40.976  31.730  31.213  1.00  0.00     0.167 HD
ATOM     44  C   UNL A   1      36.655  33.373  29.612  1.00  0.00     0.037 A 
ATOM     45  C   UNL A   1      43.655  31.612  32.121  1.00  0.00     0.037 A 
ATOM     46  C   UNL A   1      37.716  34.235  30.008  1.00  0.00     0.049 A 
ATOM     47  C   UNL A   1      42.862  32.834  32.330  1.00  0.00     0.074 A 
ATOM     48  C   UNL A   1      38.738  34.834  29.321  1.00  0.00     0.029 A 
ATOM     49  N   UNL A   1      37.971  34.318  31.353  1.00  0.00    -0.354 N 
ATOM     50  N   UNL A   1      41.974  32.983  33.267  1.00  0.00    -0.248 NA
ATOM     51  C   UNL A   1      43.038  33.966  31.409  1.00  0.00     0.031 C 
ATOM     52  C   UNL A   1      39.783  34.914  30.264  1.00  0.00     0.029 A 
ATOM     53  C   UNL A   1      39.322  34.475  31.512  1.00  0.00     0.049 A 
ATOM     54  H   UNL A   1      37.302  34.273  32.074  1.00  0.00     0.167 HD
ATOM     55  C   UNL A   1      41.272  34.082  32.826  1.00  0.00     0.074 A 
ATOM     56  C   UNL A   1      42.148  34.803  31.934  1.00  0.00     0.031 C 
ATOM     57  C   UNL A   1      39.921  34.000  32.739  1.00  0.00     0.037 A 
BRANCH  44  58
ATOM     58  C   UNL A   1      35.251  33.847  29.870  1.00  0.00     0.064 A 
ATOM     59  C   UNL A   1      34.640  34.671  28.892  1.00  0.00     0.173 A 
ATOM     60  C   UNL A   1      34.649  33.842  31.136  1.00  0.00     0.173 A 
ATOM     61  F   UNL A   1      35.113  34.714  27.636  1.00  0.00    -0.203 F 
ATOM     62  C   UNL A   1      33.598  35.541  29.206  1.00  0.00     0.198 A 
ATOM     63  C   UNL A   1      33.566  34.676  31.429  1.00  0.00     0.198 A 
ATOM     64  F   UNL A   1      35.152  33.126  32.148  1.00  0.00    -0.203 F 
ATOM     65  F   UNL A   1      33.159  36.416  28.288  1.00  0.00    -0.200 F 
ATOM     66  C   UNL A   1      33.074  35.556  30.482  1.00  0.00     0.200 A 
ATOM     67  F   UNL A   1      33.057  34.683  32.670  1.00  0.00    -0.200 F 
ATOM     68  F   UNL A   1      32.124  36.442  30.810  1.00  0.00    -0.200 F 
ENDBRANCH  44  58
BRANCH  45  69
ATOM     69  C   UNL A   1      45.113  31.693  32.539  1.00  0.00     0.064 A 
ATOM     70  C   UNL A   1      46.213  31.834  31.683  1.00  0.00     0.173 A 
ATOM     71  C   UNL A   1      45.469  31.668  33.922  1.00  0.00     0.173 A 
ATOM     72  F   UNL A   1      46.076  31.755  30.357  1.00  0.00    -0.203 F 
ATOM     73  C   UNL A   1      47.522  32.037  32.164  1.00  0.00     0.198 A 
ATOM     74  C   UNL A   1      46.758  31.904  34.401  1.00  0.00     0.198 A 
ATOM     75  F   UNL A   1      44.572  31.404  34.880  1.00  0.00    -0.203 F 
ATOM     76  F   UNL A   1      48.532  32.175  31.294  1.00  0.00    -0.200 F 
ATOM     77  C   UNL A   1      47.787  32.105  33.519  1.00  0.00     0.200 A 
ATOM     78  F   UNL A   1      46.977  31.946  35.724  1.00  0.00    -0.200 F 
ATOM     79  F   UNL A   1      49.027  32.345  33.969  1.00  0.00    -0.200 F 
ENDBRANCH  45  69
BRANCH  57  80
ATOM     80  C   UNL A   1      39.319  33.001  33.710  1.00  0.00     0.064 A 
ATOM     81  C   UNL A   1      39.381  33.238  35.092  1.00  0.00     0.173 A 
ATOM     82  C   UNL A   1      38.824  31.747  33.323  1.00  0.00     0.173 A 
ATOM     83  F   UNL A   1      39.827  34.419  35.548  1.00  0.00    -0.203 F 
ATOM     84  C   UNL A   1      38.997  32.267  36.021  1.00  0.00     0.198 A 
ATOM     85  C   UNL A   1      38.433  30.775  34.245  1.00  0.00     0.198 A 
ATOM     86  F   UNL A   1      38.711  31.435  32.034  1.00  0.00    -0.203 F 
ATOM     87  F   UNL A   1      39.081  32.528  37.333  1.00  0.00    -0.200 F 
ATOM     88  C   UNL A   1      38.528  31.034  35.598  1.00  0.00     0.200 A 
ATOM     89  F   UNL A   1      37.966  29.593  33.817  1.00  0.00    -0.200 F 
ATOM     90  F   UNL A   1      38.159  30.103  36.490  1.00  0.00    -0.200 F 
ENDBRANCH  57  80
ENDBRANCH  31  32
ENDBRANCH  24  26
ENDBRANCH  23  24
ENDBRANCH  22  23
ENDBRANCH   1  22
TORSDOF 15
ENDMDL
MODEL 3
REMARK VINA RESULT:     -11.7      0.916      2.099
REMARK SMILES CCn1cccc1C(=O)N(C)c1snc(C)c1C(=O)OCCOC(=O)c1ccc(-c2c3nc(c(-c4c(F)c(F)c(F)c(F)c4F)c4ccc([nH]4)c(-c4c(F)c(F)c(F)c(F)c4F)c4nc(c(-c5c(F)c(F)c(F)c(F)c5F)c5ccc2[nH]5)C=C4)C=C3)cc1
REMARK SMILES IDX 21 1 20 2 18 3 19 4 17 5 12 6 13 7 14 8 15 9 16 10 10 11
REMARK SMILES IDX 11 12 8 13 9 14 7 15 3 16 4 17 5 18 6 19 2 20 1 21 22 22
REMARK SMILES IDX 23 23 24 24 25 25 26 26 27 27 88 28 28 29 87 30 29 31 30 32
REMARK SMILES IDX 31 33 81 34 32 35 86 36 80 37 82 38 33 39 85 40 79 41 78 42
REMARK SMILES IDX 34 44 66 45 46 46 65 47 47 48 50 49 64 50 83 51 48 52 49 53
REMARK SMILES IDX 63 55 84 56 51 57 35 58 36 59 44 60 37 61 38 62 42 63 45 64
REMARK SMILES IDX 39 65 40 66 43 67 41 68 67 69 68 70 76 71 69 72 70 73 74 74
REMARK SMILES IDX 77 75 71 76 72 77 75 78 73 79 52 80 53 81 61 82 54 83 55 84
REMARK SMILES IDX 59 85 62 86 56 87 57 88 60 89 58 90
REMARK H PARENT 82 43 50 54
REMARK Flexibility Score: inf
ROOT
ATOM      1  C   UNL A   1      33.288  29.618  25.829  1.00  0.00     0.275 C 
ENDROOT
BRANCH   1   2
ATOM      2  O   UNL A   1      33.617  28.406  25.129  1.00  0.00    -0.458 OA
BRANCH   2   3
ATOM      3  C   UNL A   1      33.029  28.244  23.900  1.00  0.00     0.343 C 
ATOM      4  O   UNL A   1      33.472  28.731  22.882  1.00  0.00    -0.246 OA
BRANCH   3   5
ATOM      5  C   UNL A   1      31.850  27.376  23.924  1.00  0.00     0.117 A 
ATOM      6  C   UNL A   1      31.828  25.993  23.989  1.00  0.00     0.133 A 
ATOM      7  S   UNL A   1      30.225  25.433  24.046  1.00  0.00    -0.017 S 
ATOM      8  N   UNL A   1      29.524  26.917  23.839  1.00  0.00    -0.195 NA
ATOM      9  C   UNL A   1      30.486  27.839  23.729  1.00  0.00     0.068 A 
ATOM     10  C   UNL A   1      30.054  29.211  23.322  1.00  0.00     0.069 C 
BRANCH   6  11
ATOM     11  N   UNL A   1      32.832  25.044  23.770  1.00  0.00    -0.300 N 
ATOM     12  C   UNL A   1      33.353  24.944  22.414  1.00  0.00     0.154 C 
BRANCH  11  13
ATOM     13  C   UNL A   1      33.391  24.468  24.919  1.00  0.00     0.275 C 
ATOM     14  O   UNL A   1      33.675  25.159  25.899  1.00  0.00    -0.267 OA
BRANCH  13  15
ATOM     15  C   UNL A   1      33.811  23.066  24.890  1.00  0.00     0.107 A 
ATOM     16  N   UNL A   1      35.060  22.463  24.811  1.00  0.00    -0.344 N 
ATOM     17  C   UNL A   1      34.891  21.087  24.775  1.00  0.00     0.086 A 
ATOM     18  C   UNL A   1      33.554  20.802  24.688  1.00  0.00     0.020 A 
ATOM     19  C   UNL A   1      32.880  22.032  24.762  1.00  0.00     0.033 A 
BRANCH  16  20
ATOM     20  C   UNL A   1      36.353  23.041  24.471  1.00  0.00     0.119 C 
ATOM     21  C   UNL A   1      37.100  23.792  25.554  1.00  0.00     0.027 C 
ENDBRANCH  16  20
ENDBRANCH  13  15
ENDBRANCH  11  13
ENDBRANCH   6  11
ENDBRANCH   3   5
ENDBRANCH   2   3
ENDBRANCH   1   2
BRANCH   1  22
ATOM     22  C   UNL A   1      34.053  29.739  27.149  1.00  0.00     0.275 C 
BRANCH  22  23
ATOM     23  O   UNL A   1      35.447  29.398  27.079  1.00  0.00    -0.458 OA
BRANCH  23  24
ATOM     24  C   UNL A   1      36.263  30.276  27.698  1.00  0.00     0.338 C 
ATOM     25  O   UNL A   1      36.090  31.477  27.817  1.00  0.00    -0.246 OA
BRANCH  24  26
ATOM     26  C   UNL A   1      37.537  29.674  28.102  1.00  0.00     0.060 A 
ATOM     27  C   UNL A   1      38.581  29.708  27.171  1.00  0.00     0.016 A 
ATOM     28  C   UNL A   1      37.628  28.908  29.270  1.00  0.00     0.016 A 
ATOM     29  C   UNL A   1      39.717  28.952  27.397  1.00  0.00     0.010 A 
ATOM     30  C   UNL A   1      38.762  28.135  29.490  1.00  0.00     0.010 A 
ATOM     31  C   UNL A   1      39.803  28.162  28.552  1.00  0.00    -0.014 A 
BRANCH  31  32
ATOM     32  C   UNL A   1      41.110  27.536  28.834  1.00  0.00     0.031 A 
ATOM     33  C   UNL A   1      41.158  26.099  28.314  1.00  0.00     0.074 A 
ATOM     34  C   UNL A   1      42.014  28.254  29.562  1.00  0.00     0.049 A 
ATOM     35  N   UNL A   1      41.820  25.079  28.763  1.00  0.00    -0.248 NA
ATOM     36  C   UNL A   1      40.273  25.717  27.180  1.00  0.00     0.031 C 
ATOM     37  C   UNL A   1      41.812  29.653  29.979  1.00  0.00     0.029 A 
ATOM     38  N   UNL A   1      43.253  27.974  30.111  1.00  0.00    -0.354 N 
ATOM     39  C   UNL A   1      41.599  24.016  27.865  1.00  0.00     0.074 A 
ATOM     40  C   UNL A   1      40.529  24.421  27.007  1.00  0.00     0.031 C 
ATOM     41  C   UNL A   1      42.831  30.072  30.758  1.00  0.00     0.029 A 
ATOM     42  C   UNL A   1      43.807  29.008  30.912  1.00  0.00     0.049 A 
ATOM     43  H   UNL A   1      43.718  27.120  29.956  1.00  0.00     0.167 HD
ATOM     44  C   UNL A   1      42.427  22.936  27.774  1.00  0.00     0.037 A 
ATOM     45  C   UNL A   1      44.949  29.006  31.672  1.00  0.00     0.037 A 
ATOM     46  C   UNL A   1      43.447  23.014  28.764  1.00  0.00     0.049 A 
ATOM     47  C   UNL A   1      45.627  27.735  31.372  1.00  0.00     0.074 A 
ATOM     48  C   UNL A   1      43.441  22.864  30.125  1.00  0.00     0.029 A 
ATOM     49  N   UNL A   1      44.630  23.593  28.382  1.00  0.00    -0.354 N 
ATOM     50  N   UNL A   1      46.277  27.490  30.274  1.00  0.00    -0.248 NA
ATOM     51  C   UNL A   1      45.549  26.637  32.345  1.00  0.00     0.031 C 
ATOM     52  C   UNL A   1      44.465  23.725  30.569  1.00  0.00     0.029 A 
ATOM     53  C   UNL A   1      45.130  24.270  29.463  1.00  0.00     0.049 A 
ATOM     54  H   UNL A   1      45.046  23.533  27.492  1.00  0.00     0.167 HD
ATOM     55  C   UNL A   1      46.383  26.118  30.301  1.00  0.00     0.074 A 
ATOM     56  C   UNL A   1      46.248  25.719  31.682  1.00  0.00     0.031 C 
ATOM     57  C   UNL A   1      45.982  25.412  29.214  1.00  0.00     0.037 A 
BRANCH  44  58
ATOM     58  C   UNL A   1      42.602  21.913  26.686  1.00  0.00     0.064 A 
ATOM     59  C   UNL A   1      42.101  20.607  26.918  1.00  0.00     0.173 A 
ATOM     60  C   UNL A   1      43.521  22.043  25.636  1.00  0.00     0.173 A 
ATOM     61  F   UNL A   1      41.183  20.382  27.873  1.00  0.00    -0.203 F 
ATOM     62  C   UNL A   1      42.604  19.494  26.249  1.00  0.00     0.198 A 
ATOM     63  C   UNL A   1      43.980  20.928  24.929  1.00  0.00     0.198 A 
ATOM     64  F   UNL A   1      44.083  23.220  25.340  1.00  0.00    -0.203 F 
ATOM     65  F   UNL A   1      42.215  18.263  26.615  1.00  0.00    -0.200 F 
ATOM     66  C   UNL A   1      43.559  19.654  25.266  1.00  0.00     0.200 A 
ATOM     67  F   UNL A   1      44.903  21.090  23.970  1.00  0.00    -0.200 F 
ATOM     68  F   UNL A   1      44.100  18.582  24.671  1.00  0.00    -0.200 F 
ENDBRANCH  44  58
BRANCH  45  69
ATOM     69  C   UNL A   1      45.638  29.895  32.693  1.00  0.00     0.064 A 
ATOM     70  C   UNL A   1      45.463  29.849  34.082  1.00  0.00     0.173 A 
ATOM     71  C   UNL A   1      46.596  30.868  32.272  1.00  0.00     0.173 A 
ATOM     72  F   UNL A   1      44.521  29.085  34.639  1.00  0.00    -0.203 F 
ATOM     73  C   UNL A   1      46.244  30.620  34.966  1.00  0.00     0.198 A 
ATOM     74  C   UNL A   1      47.394  31.606  33.146  1.00  0.00     0.198 A 
ATOM     75  F   UNL A   1      46.797  31.152  30.979  1.00  0.00    -0.203 F 
ATOM     76  F   UNL A   1      46.037  30.525  36.287  1.00  0.00    -0.200 F 
ATOM     77  C   UNL A   1      47.230  31.471  34.500  1.00  0.00     0.200 A 
ATOM     78  F   UNL A   1      48.328  32.434  32.653  1.00  0.00    -0.200 F 
ATOM     79  F   UNL A   1      48.000  32.167  35.348  1.00  0.00    -0.200 F 
ENDBRANCH  45  69
BRANCH  57  80
ATOM     80  C   UNL A   1      46.085  26.197  27.921  1.00  0.00     0.064 A 
ATOM     81  C   UNL A   1      47.342  26.566  27.419  1.00  0.00     0.173 A 
ATOM     82  C   UNL A   1      44.974  26.728  27.246  1.00  0.00     0.173 A 
ATOM     83  F   UNL A   1      48.457  26.091  27.995  1.00  0.00    -0.203 F 
ATOM     84  C   UNL A   1      47.473  27.434  26.331  1.00  0.00     0.198 A 
ATOM     85  C   UNL A   1      45.098  27.589  26.156  1.00  0.00     0.198 A 
ATOM     86  F   UNL A   1      43.739  26.421  27.636  1.00  0.00    -0.203 F 
ATOM     87  F   UNL A   1      48.692  27.772  25.889  1.00  0.00    -0.200 F 
ATOM     88  C   UNL A   1      46.351  27.950  25.703  1.00  0.00     0.200 A 
ATOM     89  F   UNL A   1      43.999  28.066  25.549  1.00  0.00    -0.200 F 
ATOM     90  F   UNL A   1      46.477  28.781  24.658  1.00  0.00    -0.200 F 
ENDBRANCH  57  80
ENDBRANCH  31  32
ENDBRANCH  24  26
ENDBRANCH  23  24
ENDBRANCH  22  23
ENDBRANCH   1  22
TORSDOF 15
ENDMDL
