MODEL 1
REMARK VINA RESULT:     -10.8      0.000      0.000
REMARK SMILES O=C(OCCOC(=O)[C@H]1C[NH2+]CCN1c1ncc(C(F)(F)F)cc1Cl)c1ccc(-c2c3nc(c(-c4c(F)c(F)c(F)c(F)c4F)c4ccc([nH]4)c(-c4c(F)c(F)c(F)c(F)c4F)c4nc(c(-c5c(F)c(F)c(F)c(F)c5F)c5ccc2[nH]5)C=C4)C=C3)cc1
REMARK SMILES IDX 4 1 3 2 2 3 1 4 26 5 27 6 88 7 28 8 87 9 29 10 30 11 31 12
REMARK SMILES IDX 81 13 32 14 86 15 80 16 82 17 33 18 85 19 79 20 78 21 34 23
REMARK SMILES IDX 66 24 46 25 65 26 47 27 50 28 64 29 83 30 48 31 49 32 63 34
REMARK SMILES IDX 84 35 51 36 35 37 36 38 44 39 37 40 38 41 42 42 45 43 39 44
REMARK SMILES IDX 40 45 43 46 41 47 67 48 68 49 76 50 69 51 70 52 74 53 77 54
REMARK SMILES IDX 71 55 72 56 75 57 73 58 52 59 53 60 61 61 54 62 55 63 59 64
REMARK SMILES IDX 62 65 56 66 57 67 60 68 58 69 5 70 6 71 7 72 8 73 9 74 10 75
REMARK SMILES IDX 14 76 11 77 13 78 12 79 15 82 16 83 24 84 17 85 23 86 25 87
REMARK SMILES IDX 18 88 19 89 20 90 21 91 22 92
REMARK H PARENT 82 22 50 33 11 80 11 81
REMARK Flexibility Score: inf
ROOT
ATOM      1  C   UNL A   1      40.516  21.117  27.011  1.00  0.00     0.275 C 
ENDROOT
BRANCH   1   2
ATOM      2  O   UNL A   1      39.265  21.446  26.379  1.00  0.00    -0.458 OA
BRANCH   2   3
ATOM      3  C   UNL A   1      38.615  22.625  26.239  1.00  0.00     0.338 C 
ATOM      4  O   UNL A   1      37.505  22.617  25.710  1.00  0.00    -0.246 OA
BRANCH   3   5
ATOM      5  C   UNL A   1      39.194  23.970  26.577  1.00  0.00     0.060 A 
ATOM      6  C   UNL A   1      39.985  24.775  25.750  1.00  0.00     0.016 A 
ATOM      7  C   UNL A   1      38.902  24.459  27.866  1.00  0.00     0.016 A 
ATOM      8  C   UNL A   1      40.400  26.056  26.154  1.00  0.00     0.010 A 
ATOM      9  C   UNL A   1      39.318  25.731  28.276  1.00  0.00     0.010 A 
ATOM     10  C   UNL A   1      40.060  26.548  27.415  1.00  0.00    -0.014 A 
BRANCH  10  11
ATOM     11  C   UNL A   1      40.645  27.811  27.927  1.00  0.00     0.031 A 
ATOM     12  C   UNL A   1      42.134  27.882  28.034  1.00  0.00     0.074 A 
ATOM     13  C   UNL A   1      39.895  28.861  28.311  1.00  0.00     0.049 A 
ATOM     14  N   UNL A   1      42.883  28.880  28.415  1.00  0.00    -0.248 NA
ATOM     15  C   UNL A   1      42.880  26.688  27.605  1.00  0.00     0.031 C 
ATOM     16  C   UNL A   1      38.461  28.979  28.128  1.00  0.00     0.029 A 
ATOM     17  N   UNL A   1      40.225  30.021  28.967  1.00  0.00    -0.354 N 
ATOM     18  C   UNL A   1      44.185  28.459  28.210  1.00  0.00     0.074 A 
ATOM     19  C   UNL A   1      44.131  27.087  27.758  1.00  0.00     0.031 C 
ATOM     20  C   UNL A   1      37.995  30.044  28.798  1.00  0.00     0.029 A 
ATOM     21  C   UNL A   1      39.128  30.748  29.375  1.00  0.00     0.049 A 
ATOM     22  H   UNL A   1      41.154  30.304  29.131  1.00  0.00     0.167 HD
ATOM     23  C   UNL A   1      45.320  29.177  28.352  1.00  0.00     0.037 A 
ATOM     24  C   UNL A   1      39.048  31.876  30.105  1.00  0.00     0.037 A 
ATOM     25  C   UNL A   1      45.352  30.514  28.875  1.00  0.00     0.049 A 
ATOM     26  C   UNL A   1      40.329  32.598  30.408  1.00  0.00     0.074 A 
ATOM     27  C   UNL A   1      46.442  31.336  29.084  1.00  0.00     0.029 A 
ATOM     28  N   UNL A   1      44.231  31.212  29.313  1.00  0.00    -0.354 N 
ATOM     29  N   UNL A   1      41.557  32.237  30.122  1.00  0.00    -0.248 NA
ATOM     30  C   UNL A   1      40.220  33.906  31.061  1.00  0.00     0.031 C 
ATOM     31  C   UNL A   1      45.990  32.500  29.717  1.00  0.00     0.029 A 
ATOM     32  C   UNL A   1      44.609  32.434  29.841  1.00  0.00     0.049 A 
ATOM     33  H   UNL A   1      43.304  30.883  29.255  1.00  0.00     0.167 HD
ATOM     34  C   UNL A   1      42.365  33.293  30.508  1.00  0.00     0.074 A 
ATOM     35  C   UNL A   1      41.485  34.306  31.058  1.00  0.00     0.031 C 
ATOM     36  C   UNL A   1      43.710  33.418  30.396  1.00  0.00     0.037 A 
BRANCH  23  37
ATOM     37  C   UNL A   1      46.594  28.481  27.977  1.00  0.00     0.064 A 
ATOM     38  C   UNL A   1      47.111  28.552  26.671  1.00  0.00     0.173 A 
ATOM     39  C   UNL A   1      47.255  27.666  28.904  1.00  0.00     0.173 A 
ATOM     40  F   UNL A   1      46.495  29.294  25.738  1.00  0.00    -0.203 F 
ATOM     41  C   UNL A   1      48.214  27.788  26.298  1.00  0.00     0.198 A 
ATOM     42  C   UNL A   1      48.376  26.929  28.533  1.00  0.00     0.198 A 
ATOM     43  F   UNL A   1      46.796  27.558  30.158  1.00  0.00    -0.203 F 
ATOM     44  F   UNL A   1      48.637  27.805  25.026  1.00  0.00    -0.200 F 
ATOM     45  C   UNL A   1      48.845  26.978  27.228  1.00  0.00     0.200 A 
ATOM     46  F   UNL A   1      48.987  26.146  29.434  1.00  0.00    -0.200 F 
ATOM     47  F   UNL A   1      49.892  26.226  26.863  1.00  0.00    -0.200 F 
ENDBRANCH  23  37
BRANCH  24  48
ATOM     48  C   UNL A   1      37.721  32.410  30.512  1.00  0.00     0.064 A 
ATOM     49  C   UNL A   1      37.169  32.129  31.769  1.00  0.00     0.173 A 
ATOM     50  C   UNL A   1      36.986  33.242  29.652  1.00  0.00     0.173 A 
ATOM     51  F   UNL A   1      37.825  31.333  32.625  1.00  0.00    -0.203 F 
ATOM     52  C   UNL A   1      35.927  32.642  32.143  1.00  0.00     0.198 A 
ATOM     53  C   UNL A   1      35.752  33.769  30.034  1.00  0.00     0.198 A 
ATOM     54  F   UNL A   1      37.467  33.547  28.438  1.00  0.00    -0.203 F 
ATOM     55  F   UNL A   1      35.409  32.329  33.339  1.00  0.00    -0.200 F 
ATOM     56  C   UNL A   1      35.221  33.463  31.278  1.00  0.00     0.200 A 
ATOM     57  F   UNL A   1      35.077  34.570  29.198  1.00  0.00    -0.200 F 
ATOM     58  F   UNL A   1      34.028  33.958  31.640  1.00  0.00    -0.200 F 
ENDBRANCH  24  48
BRANCH  36  59
ATOM     59  C   UNL A   1      44.315  34.705  30.870  1.00  0.00     0.064 A 
ATOM     60  C   UNL A   1      44.793  34.852  32.180  1.00  0.00     0.173 A 
ATOM     61  C   UNL A   1      44.482  35.777  29.981  1.00  0.00     0.173 A 
ATOM     62  F   UNL A   1      44.640  33.860  33.071  1.00  0.00    -0.203 F 
ATOM     63  C   UNL A   1      45.405  36.034  32.586  1.00  0.00     0.198 A 
ATOM     64  C   UNL A   1      45.124  36.944  30.380  1.00  0.00     0.198 A 
ATOM     65  F   UNL A   1      44.044  35.682  28.716  1.00  0.00    -0.203 F 
ATOM     66  F   UNL A   1      45.819  36.169  33.853  1.00  0.00    -0.200 F 
ATOM     67  C   UNL A   1      45.581  37.073  31.684  1.00  0.00     0.200 A 
ATOM     68  F   UNL A   1      45.309  37.939  29.503  1.00  0.00    -0.200 F 
ATOM     69  F   UNL A   1      46.189  38.201  32.072  1.00  0.00    -0.200 F 
ENDBRANCH  36  59
ENDBRANCH  10  11
ENDBRANCH   3   5
ENDBRANCH   2   3
ENDBRANCH   1   2
BRANCH   1  70
ATOM     70  C   UNL A   1      41.127  19.806  26.523  1.00  0.00     0.274 C 
BRANCH  70  71
ATOM     71  O   UNL A   1      42.541  19.787  26.743  1.00  0.00    -0.460 OA
BRANCH  71  72
ATOM     72  C   UNL A   1      43.372  19.839  25.653  1.00  0.00     0.334 C 
ATOM     73  O   UNL A   1      43.188  19.197  24.626  1.00  0.00    -0.250 OA
BRANCH  72  74
ATOM     74  C   UNL A   1      44.503  20.858  25.910  1.00  0.00     0.249 C 
ATOM     75  C   UNL A   1      45.432  20.910  24.680  1.00  0.00     0.298 C 
ATOM     76  N   UNL A   1      44.034  22.224  26.185  1.00  0.00    -0.331 N 
ATOM     77  N   UNL A   1      44.903  21.598  23.480  1.00  0.00    -0.343 N 
ATOM     78  C   UNL A   1      43.471  22.972  25.065  1.00  0.00     0.180 C 
ATOM     79  C   UNL A   1      44.465  22.954  23.875  1.00  0.00     0.282 C 
ATOM     80  H   UNL A   1      44.112  21.076  23.103  1.00  0.00     0.346 HD
ATOM     81  H   UNL A   1      45.627  21.659  22.764  1.00  0.00     0.346 HD
BRANCH  76  82
ATOM     82  C   UNL A   1      44.281  22.884  27.364  1.00  0.00     0.148 A 
ATOM     83  N   UNL A   1      43.290  22.802  28.284  1.00  0.00    -0.237 NA
ATOM     84  C   UNL A   1      45.432  23.645  27.646  1.00  0.00     0.084 A 
ATOM     85  C   UNL A   1      43.445  23.415  29.483  1.00  0.00     0.126 A 
ATOM     86  C   UNL A   1      45.562  24.280  28.886  1.00  0.00     0.039 A 
ATOM     87  Cl  UNL A   1      46.687  23.975  26.512  1.00  0.00    -0.080 Cl
ATOM     88  C   UNL A   1      44.550  24.168  29.833  1.00  0.00     0.075 A 
BRANCH  88  89
ATOM     89  C   UNL A   1      44.618  24.839  31.166  1.00  0.00     0.417 C 
ATOM     90  F   UNL A   1      43.878  25.981  31.212  1.00  0.00    -0.166 F 
ATOM     91  F   UNL A   1      44.157  24.050  32.173  1.00  0.00    -0.166 F 
ATOM     92  F   UNL A   1      45.881  25.202  31.523  1.00  0.00    -0.166 F 
ENDBRANCH  88  89
ENDBRANCH  76  82
ENDBRANCH  72  74
ENDBRANCH  71  72
ENDBRANCH  70  71
ENDBRANCH   1  70
TORSDOF 13
ENDMDL
MODEL 2
REMARK VINA RESULT:     -10.8      4.610     11.354
REMARK SMILES O=C(OCCOC(=O)[C@H]1C[NH2+]CCN1c1ncc(C(F)(F)F)cc1Cl)c1ccc(-c2c3nc(c(-c4c(F)c(F)c(F)c(F)c4F)c4ccc([nH]4)c(-c4c(F)c(F)c(F)c(F)c4F)c4nc(c(-c5c(F)c(F)c(F)c(F)c5F)c5ccc2[nH]5)C=C4)C=C3)cc1
REMARK SMILES IDX 4 1 3 2 2 3 1 4 26 5 27 6 88 7 28 8 87 9 29 10 30 11 31 12
REMARK SMILES IDX 81 13 32 14 86 15 80 16 82 17 33 18 85 19 79 20 78 21 34 23
REMARK SMILES IDX 66 24 46 25 65 26 47 27 50 28 64 29 83 30 48 31 49 32 63 34
REMARK SMILES IDX 84 35 51 36 35 37 36 38 44 39 37 40 38 41 42 42 45 43 39 44
REMARK SMILES IDX 40 45 43 46 41 47 67 48 68 49 76 50 69 51 70 52 74 53 77 54
REMARK SMILES IDX 71 55 72 56 75 57 73 58 52 59 53 60 61 61 54 62 55 63 59 64
REMARK SMILES IDX 62 65 56 66 57 67 60 68 58 69 5 70 6 71 7 72 8 73 9 74 10 75
REMARK SMILES IDX 14 76 11 77 13 78 12 79 15 82 16 83 24 84 17 85 23 86 25 87
REMARK SMILES IDX 18 88 19 89 20 90 21 91 22 92
REMARK H PARENT 82 22 50 33 11 80 11 81
REMARK Flexibility Score: inf
ROOT
ATOM      1  C   UNL A   1      34.551  33.228  28.015  1.00  0.00     0.275 C 
ENDROOT
BRANCH   1   2
ATOM      2  O   UNL A   1      33.941  32.076  27.403  1.00  0.00    -0.458 OA
BRANCH   2   3
ATOM      3  C   UNL A   1      34.350  30.790  27.309  1.00  0.00     0.338 C 
ATOM      4  O   UNL A   1      33.640  29.998  26.693  1.00  0.00    -0.246 OA
BRANCH   3   5
ATOM      5  C   UNL A   1      35.557  30.220  28.001  1.00  0.00     0.060 A 
ATOM      6  C   UNL A   1      35.614  29.703  29.299  1.00  0.00     0.016 A 
ATOM      7  C   UNL A   1      36.750  30.214  27.251  1.00  0.00     0.016 A 
ATOM      8  C   UNL A   1      36.789  29.121  29.805  1.00  0.00     0.010 A 
ATOM      9  C   UNL A   1      37.924  29.641  27.751  1.00  0.00     0.010 A 
ATOM     10  C   UNL A   1      37.950  29.075  29.032  1.00  0.00    -0.014 A 
BRANCH  10  11
ATOM     11  C   UNL A   1      39.242  28.640  29.616  1.00  0.00     0.031 A 
ATOM     12  C   UNL A   1      39.855  29.520  30.656  1.00  0.00     0.074 A 
ATOM     13  C   UNL A   1      39.876  27.517  29.229  1.00  0.00     0.049 A 
ATOM     14  N   UNL A   1      40.952  29.343  31.339  1.00  0.00    -0.248 NA
ATOM     15  C   UNL A   1      39.104  30.735  31.013  1.00  0.00     0.031 C 
ATOM     16  C   UNL A   1      39.331  26.508  28.341  1.00  0.00     0.029 A 
ATOM     17  N   UNL A   1      41.136  27.045  29.506  1.00  0.00    -0.354 N 
ATOM     18  C   UNL A   1      40.990  30.385  32.248  1.00  0.00     0.074 A 
ATOM     19  C   UNL A   1      39.857  31.239  31.975  1.00  0.00     0.031 C 
ATOM     20  C   UNL A   1      40.284  25.629  27.998  1.00  0.00     0.029 A 
ATOM     21  C   UNL A   1      41.492  25.959  28.737  1.00  0.00     0.049 A 
ATOM     22  H   UNL A   1      41.726  27.444  30.185  1.00  0.00     0.167 HD
ATOM     23  C   UNL A   1      41.876  30.581  33.248  1.00  0.00     0.037 A 
ATOM     24  C   UNL A   1      42.654  25.283  28.662  1.00  0.00     0.037 A 
ATOM     25  C   UNL A   1      43.036  29.758  33.452  1.00  0.00     0.049 A 
ATOM     26  C   UNL A   1      43.713  25.610  29.674  1.00  0.00     0.074 A 
ATOM     27  C   UNL A   1      44.016  29.868  34.417  1.00  0.00     0.029 A 
ATOM     28  N   UNL A   1      43.390  28.687  32.637  1.00  0.00    -0.354 N 
ATOM     29  N   UNL A   1      43.698  26.540  30.600  1.00  0.00    -0.248 NA
ATOM     30  C   UNL A   1      44.908  24.761  29.689  1.00  0.00     0.031 C 
ATOM     31  C   UNL A   1      45.002  28.913  34.143  1.00  0.00     0.029 A 
ATOM     32  C   UNL A   1      44.603  28.161  33.046  1.00  0.00     0.049 A 
ATOM     33  H   UNL A   1      42.855  28.353  31.881  1.00  0.00     0.167 HD
ATOM     34  C   UNL A   1      44.852  26.357  31.343  1.00  0.00     0.074 A 
ATOM     35  C   UNL A   1      45.549  25.230  30.752  1.00  0.00     0.031 C 
ATOM     36  C   UNL A   1      45.282  27.046  32.429  1.00  0.00     0.037 A 
BRANCH  23  37
ATOM     37  C   UNL A   1      41.621  31.759  34.137  1.00  0.00     0.064 A 
ATOM     38  C   UNL A   1      40.873  31.637  35.322  1.00  0.00     0.173 A 
ATOM     39  C   UNL A   1      42.049  33.038  33.759  1.00  0.00     0.173 A 
ATOM     40  F   UNL A   1      40.413  30.438  35.711  1.00  0.00    -0.203 F 
ATOM     41  C   UNL A   1      40.522  32.761  36.064  1.00  0.00     0.198 A 
ATOM     42  C   UNL A   1      41.722  34.155  34.522  1.00  0.00     0.198 A 
ATOM     43  F   UNL A   1      42.756  33.208  32.633  1.00  0.00    -0.203 F 
ATOM     44  F   UNL A   1      39.736  32.631  37.142  1.00  0.00    -0.200 F 
ATOM     45  C   UNL A   1      40.946  34.018  35.663  1.00  0.00     0.200 A 
ATOM     46  F   UNL A   1      42.133  35.371  34.134  1.00  0.00    -0.200 F 
ATOM     47  F   UNL A   1      40.588  35.103  36.365  1.00  0.00    -0.200 F 
ENDBRANCH  23  37
BRANCH  24  48
ATOM     48  C   UNL A   1      42.825  24.200  27.657  1.00  0.00     0.064 A 
ATOM     49  C   UNL A   1      43.384  24.448  26.397  1.00  0.00     0.173 A 
ATOM     50  C   UNL A   1      42.452  22.879  27.953  1.00  0.00     0.173 A 
ATOM     51  F   UNL A   1      43.749  25.694  26.060  1.00  0.00    -0.203 F 
ATOM     52  C   UNL A   1      43.547  23.423  25.464  1.00  0.00     0.198 A 
ATOM     53  C   UNL A   1      42.633  21.851  27.027  1.00  0.00     0.198 A 
ATOM     54  F   UNL A   1      41.915  22.583  29.145  1.00  0.00    -0.203 F 
ATOM     55  F   UNL A   1      44.055  23.697  24.254  1.00  0.00    -0.200 F 
ATOM     56  C   UNL A   1      43.175  22.126  25.780  1.00  0.00     0.200 A 
ATOM     57  F   UNL A   1      42.279  20.597  27.340  1.00  0.00    -0.200 F 
ATOM     58  F   UNL A   1      43.335  21.141  24.884  1.00  0.00    -0.200 F 
ENDBRANCH  24  48
BRANCH  36  59
ATOM     59  C   UNL A   1      46.565  26.594  33.057  1.00  0.00     0.064 A 
ATOM     60  C   UNL A   1      46.590  25.586  34.031  1.00  0.00     0.173 A 
ATOM     61  C   UNL A   1      47.788  27.128  32.625  1.00  0.00     0.173 A 
ATOM     62  F   UNL A   1      45.445  25.058  34.487  1.00  0.00    -0.203 F 
ATOM     63  C   UNL A   1      47.797  25.139  34.561  1.00  0.00     0.198 A 
ATOM     64  C   UNL A   1      48.994  26.655  33.132  1.00  0.00     0.198 A 
ATOM     65  F   UNL A   1      47.816  28.093  31.692  1.00  0.00    -0.203 F 
ATOM     66  F   UNL A   1      47.798  24.203  35.520  1.00  0.00    -0.200 F 
ATOM     67  C   UNL A   1      48.997  25.664  34.102  1.00  0.00     0.200 A 
ATOM     68  F   UNL A   1      50.152  27.151  32.676  1.00  0.00    -0.200 F 
ATOM     69  F   UNL A   1      50.157  25.216  34.599  1.00  0.00    -0.200 F 
ENDBRANCH  36  59
ENDBRANCH  10  11
ENDBRANCH   3   5
ENDBRANCH   2   3
ENDBRANCH   1   2
BRANCH   1  70
ATOM     70  C   UNL A   1      33.554  34.305  28.433  1.00  0.00     0.274 C 
BRANCH  70  71
ATOM     71  O   UNL A   1      34.144  35.215  29.367  1.00  0.00    -0.460 OA
BRANCH  71  72
ATOM     72  C   UNL A   1      33.642  35.261  30.642  1.00  0.00     0.334 C 
ATOM     73  O   UNL A   1      32.445  35.307  30.901  1.00  0.00    -0.250 OA
BRANCH  72  74
ATOM     74  C   UNL A   1      34.799  35.181  31.660  1.00  0.00     0.249 C 
ATOM     75  C   UNL A   1      34.219  35.065  33.084  1.00  0.00     0.298 C 
ATOM     76  N   UNL A   1      35.714  34.050  31.448  1.00  0.00    -0.331 N 
ATOM     77  N   UNL A   1      33.627  33.759  33.454  1.00  0.00    -0.343 N 
ATOM     78  C   UNL A   1      35.207  32.717  31.761  1.00  0.00     0.180 C 
ATOM     79  C   UNL A   1      34.631  32.703  33.200  1.00  0.00     0.282 C 
ATOM     80  H   UNL A   1      32.795  33.586  32.891  1.00  0.00     0.346 HD
ATOM     81  H   UNL A   1      33.362  33.761  34.439  1.00  0.00     0.346 HD
BRANCH  76  82
ATOM     82  C   UNL A   1      37.051  34.201  31.172  1.00  0.00     0.148 A 
ATOM     83  N   UNL A   1      37.387  34.048  29.868  1.00  0.00    -0.237 NA
ATOM     84  C   UNL A   1      38.056  34.452  32.125  1.00  0.00     0.084 A 
ATOM     85  C   UNL A   1      38.682  34.186  29.496  1.00  0.00     0.126 A 
ATOM     86  C   UNL A   1      39.389  34.578  31.717  1.00  0.00     0.039 A 
ATOM     87  Cl  UNL A   1      37.798  34.501  33.828  1.00  0.00    -0.080 Cl
ATOM     88  C   UNL A   1      39.719  34.442  30.374  1.00  0.00     0.075 A 
BRANCH  88  89
ATOM     89  C   UNL A   1      41.125  34.543  29.877  1.00  0.00     0.417 C 
ATOM     90  F   UNL A   1      41.905  35.320  30.678  1.00  0.00    -0.166 F 
ATOM     91  F   UNL A   1      41.743  33.334  29.807  1.00  0.00    -0.166 F 
ATOM     92  F   UNL A   1      41.219  35.084  28.631  1.00  0.00    -0.166 F 
ENDBRANCH  88  89
ENDBRANCH  76  82
ENDBRANCH  72  74
ENDBRANCH  71  72
ENDBRANCH  70  71
ENDBRANCH   1  70
TORSDOF 13
ENDMDL
MODEL 3
REMARK VINA RESULT:     -10.8      4.285     11.103
REMARK SMILES O=C(OCCOC(=O)[C@H]1C[NH2+]CCN1c1ncc(C(F)(F)F)cc1Cl)c1ccc(-c2c3nc(c(-c4c(F)c(F)c(F)c(F)c4F)c4ccc([nH]4)c(-c4c(F)c(F)c(F)c(F)c4F)c4nc(c(-c5c(F)c(F)c(F)c(F)c5F)c5ccc2[nH]5)C=C4)C=C3)cc1
REMARK SMILES IDX 4 1 3 2 2 3 1 4 26 5 27 6 88 7 28 8 87 9 29 10 30 11 31 12
REMARK SMILES IDX 81 13 32 14 86 15 80 16 82 17 33 18 85 19 79 20 78 21 34 23
REMARK SMILES IDX 66 24 46 25 65 26 47 27 50 28 64 29 83 30 48 31 49 32 63 34
REMARK SMILES IDX 84 35 51 36 35 37 36 38 44 39 37 40 38 41 42 42 45 43 39 44
REMARK SMILES IDX 40 45 43 46 41 47 67 48 68 49 76 50 69 51 70 52 74 53 77 54
REMARK SMILES IDX 71 55 72 56 75 57 73 58 52 59 53 60 61 61 54 62 55 63 59 64
REMARK SMILES IDX 62 65 56 66 57 67 60 68 58 69 5 70 6 71 7 72 8 73 9 74 10 75
REMARK SMILES IDX 14 76 11 77 13 78 12 79 15 82 16 83 24 84 17 85 23 86 25 87
REMARK SMILES IDX 18 88 19 89 20 90 21 91 22 92
REMARK H PARENT 82 22 50 33 11 80 11 81
REMARK Flexibility Score: inf
ROOT
ATOM      1  C   UNL A   1      34.627  33.134  28.344  1.00  0.00     0.275 C 
ENDROOT
BRANCH   1   2
ATOM      2  O   UNL A   1      34.001  31.877  28.026  1.00  0.00    -0.458 OA
BRANCH   2   3
ATOM      3  C   UNL A   1      34.525  30.664  27.735  1.00  0.00     0.338 C 
ATOM      4  O   UNL A   1      33.856  29.891  27.052  1.00  0.00    -0.246 OA
BRANCH   3   5
ATOM      5  C   UNL A   1      35.823  30.137  28.279  1.00  0.00     0.060 A 
ATOM      6  C   UNL A   1      36.060  29.665  29.574  1.00  0.00     0.016 A 
ATOM      7  C   UNL A   1      36.907  30.123  27.379  1.00  0.00     0.016 A 
ATOM      8  C   UNL A   1      37.303  29.119  29.939  1.00  0.00     0.010 A 
ATOM      9  C   UNL A   1      38.148  29.586  27.738  1.00  0.00     0.010 A 
ATOM     10  C   UNL A   1      38.352  29.064  29.021  1.00  0.00    -0.014 A 
BRANCH  10  11
ATOM     11  C   UNL A   1      39.719  28.668  29.442  1.00  0.00     0.031 A 
ATOM     12  C   UNL A   1      40.507  29.663  30.232  1.00  0.00     0.074 A 
ATOM     13  C   UNL A   1      40.266  27.480  29.124  1.00  0.00     0.049 A 
ATOM     14  N   UNL A   1      41.701  29.544  30.744  1.00  0.00    -0.248 NA
ATOM     15  C   UNL A   1      39.841  30.942  30.527  1.00  0.00     0.031 C 
ATOM     16  C   UNL A   1      39.568  26.377  28.491  1.00  0.00     0.029 A 
ATOM     17  N   UNL A   1      41.548  27.007  29.256  1.00  0.00    -0.354 N 
ATOM     18  C   UNL A   1      41.902  30.701  31.475  1.00  0.00     0.074 A 
ATOM     19  C   UNL A   1      40.750  31.549  31.271  1.00  0.00     0.031 C 
ATOM     20  C   UNL A   1      40.440  25.425  28.128  1.00  0.00     0.029 A 
ATOM     21  C   UNL A   1      41.758  25.812  28.604  1.00  0.00     0.049 A 
ATOM     22  H   UNL A   1      42.248  27.476  29.766  1.00  0.00     0.167 HD
ATOM     23  C   UNL A   1      42.945  31.002  32.279  1.00  0.00     0.037 A 
ATOM     24  C   UNL A   1      42.882  25.090  28.439  1.00  0.00     0.037 A 
ATOM     25  C   UNL A   1      44.112  30.175  32.407  1.00  0.00     0.049 A 
ATOM     26  C   UNL A   1      44.099  25.518  29.207  1.00  0.00     0.074 A 
ATOM     27  C   UNL A   1      45.241  30.384  33.174  1.00  0.00     0.029 A 
ATOM     28  N   UNL A   1      44.312  28.989  31.708  1.00  0.00    -0.354 N 
ATOM     29  N   UNL A   1      44.250  26.567  29.979  1.00  0.00    -0.248 NA
ATOM     30  C   UNL A   1      45.270  24.637  29.148  1.00  0.00     0.031 C 
ATOM     31  C   UNL A   1      46.155  29.365  32.882  1.00  0.00     0.029 A 
ATOM     32  C   UNL A   1      45.570  28.482  31.985  1.00  0.00     0.049 A 
ATOM     33  H   UNL A   1      43.655  28.571  31.105  1.00  0.00     0.167 HD
ATOM     34  C   UNL A   1      45.510  26.449  30.542  1.00  0.00     0.074 A 
ATOM     35  C   UNL A   1      46.084  25.227  30.014  1.00  0.00     0.031 C 
ATOM     36  C   UNL A   1      46.122  27.267  31.432  1.00  0.00     0.037 A 
BRANCH  23  37
ATOM     37  C   UNL A   1      42.855  32.303  33.018  1.00  0.00     0.064 A 
ATOM     38  C   UNL A   1      42.171  32.405  34.242  1.00  0.00     0.173 A 
ATOM     39  C   UNL A   1      43.380  33.474  32.458  1.00  0.00     0.173 A 
ATOM     40  F   UNL A   1      41.623  31.317  34.805  1.00  0.00    -0.203 F 
ATOM     41  C   UNL A   1      41.973  33.643  34.848  1.00  0.00     0.198 A 
ATOM     42  C   UNL A   1      43.206  34.705  33.084  1.00  0.00     0.198 A 
ATOM     43  F   UNL A   1      44.032  33.429  31.287  1.00  0.00    -0.203 F 
ATOM     44  F   UNL A   1      41.244  33.728  35.970  1.00  0.00    -0.200 F 
ATOM     45  C   UNL A   1      42.489  34.791  34.269  1.00  0.00     0.200 A 
ATOM     46  F   UNL A   1      43.707  35.815  32.523  1.00  0.00    -0.200 F 
ATOM     47  F   UNL A   1      42.279  35.985  34.840  1.00  0.00    -0.200 F 
ENDBRANCH  23  37
BRANCH  24  48
ATOM     48  C   UNL A   1      42.870  23.872  27.586  1.00  0.00     0.064 A 
ATOM     49  C   UNL A   1      42.504  22.620  28.096  1.00  0.00     0.173 A 
ATOM     50  C   UNL A   1      43.203  23.946  26.223  1.00  0.00     0.173 A 
ATOM     51  F   UNL A   1      42.186  22.492  29.392  1.00  0.00    -0.203 F 
ATOM     52  C   UNL A   1      42.490  21.485  27.283  1.00  0.00     0.198 A 
ATOM     53  C   UNL A   1      43.171  22.814  25.408  1.00  0.00     0.198 A 
ATOM     54  F   UNL A   1      43.558  25.120  25.680  1.00  0.00    -0.203 F 
ATOM     55  F   UNL A   1      42.167  20.295  27.807  1.00  0.00    -0.200 F 
ATOM     56  C   UNL A   1      42.819  21.583  25.941  1.00  0.00     0.200 A 
ATOM     57  F   UNL A   1      43.481  22.916  24.108  1.00  0.00    -0.200 F 
ATOM     58  F   UNL A   1      42.802  20.493  25.161  1.00  0.00    -0.200 F 
ENDBRANCH  24  48
BRANCH  36  59
ATOM     59  C   UNL A   1      47.487  26.862  31.901  1.00  0.00     0.064 A 
ATOM     60  C   UNL A   1      48.649  27.358  31.293  1.00  0.00     0.173 A 
ATOM     61  C   UNL A   1      47.630  26.024  33.017  1.00  0.00     0.173 A 
ATOM     62  F   UNL A   1      48.562  28.148  30.213  1.00  0.00    -0.203 F 
ATOM     63  C   UNL A   1      49.907  27.017  31.779  1.00  0.00     0.198 A 
ATOM     64  C   UNL A   1      48.888  25.713  33.520  1.00  0.00     0.198 A 
ATOM     65  F   UNL A   1      46.547  25.527  33.635  1.00  0.00    -0.203 F 
ATOM     66  F   UNL A   1      51.006  27.469  31.160  1.00  0.00    -0.200 F 
ATOM     67  C   UNL A   1      50.025  26.205  32.898  1.00  0.00     0.200 A 
ATOM     68  F   UNL A   1      49.000  24.943  34.612  1.00  0.00    -0.200 F 
ATOM     69  F   UNL A   1      51.238  25.896  33.376  1.00  0.00    -0.200 F 
ENDBRANCH  36  59
ENDBRANCH  10  11
ENDBRANCH   3   5
ENDBRANCH   2   3
ENDBRANCH   1   2
BRANCH   1  70
ATOM     70  C   UNL A   1      33.658  34.189  28.871  1.00  0.00     0.274 C 
BRANCH  70  71
ATOM     71  O   UNL A   1      34.309  35.067  29.796  1.00  0.00    -0.460 OA
BRANCH  71  72
ATOM     72  C   UNL A   1      33.982  34.975  31.124  1.00  0.00     0.334 C 
ATOM     73  O   UNL A   1      32.838  34.818  31.534  1.00  0.00    -0.250 OA
BRANCH  72  74
ATOM     74  C   UNL A   1      35.264  35.038  31.982  1.00  0.00     0.249 C 
ATOM     75  C   UNL A   1      34.885  34.945  33.474  1.00  0.00     0.298 C 
ATOM     76  N   UNL A   1      36.237  33.975  31.692  1.00  0.00    -0.331 N 
ATOM     77  N   UNL A   1      34.461  33.614  33.967  1.00  0.00    -0.343 N 
ATOM     78  C   UNL A   1      35.892  32.622  32.119  1.00  0.00     0.180 C 
ATOM     79  C   UNL A   1      35.511  32.632  33.621  1.00  0.00     0.282 C 
ATOM     80  H   UNL A   1      33.580  33.348  33.526  1.00  0.00     0.346 HD
ATOM     81  H   UNL A   1      34.326  33.642  34.978  1.00  0.00     0.346 HD
BRANCH  76  82
ATOM     82  C   UNL A   1      37.509  34.220  31.235  1.00  0.00     0.148 A 
ATOM     83  N   UNL A   1      37.652  34.176  29.888  1.00  0.00    -0.237 NA
ATOM     84  C   UNL A   1      38.634  34.461  32.046  1.00  0.00     0.084 A 
ATOM     85  C   UNL A   1      38.869  34.413  29.342  1.00  0.00     0.126 A 
ATOM     86  C   UNL A   1      39.883  34.689  31.459  1.00  0.00     0.039 A 
ATOM     87  Cl  UNL A   1      38.633  34.377  33.768  1.00  0.00    -0.080 Cl
ATOM     88  C   UNL A   1      40.014  34.666  30.075  1.00  0.00     0.075 A 
BRANCH  88  89
ATOM     89  C   UNL A   1      41.322  34.879  29.387  1.00  0.00     0.417 C 
ATOM     90  F   UNL A   1      41.175  35.400  28.138  1.00  0.00    -0.166 F 
ATOM     91  F   UNL A   1      42.133  35.739  30.060  1.00  0.00    -0.166 F 
ATOM     92  F   UNL A   1      42.042  33.734  29.229  1.00  0.00    -0.166 F 
ENDBRANCH  88  89
ENDBRANCH  76  82
ENDBRANCH  72  74
ENDBRANCH  71  72
ENDBRANCH  70  71
ENDBRANCH   1  70
TORSDOF 13
ENDMDL
