MODEL 1
REMARK VINA RESULT:     -12.0      0.000      0.000
REMARK SMILES Cc1nc(SCc2ccccc2)[nH]c(=O)c1CCC(=O)OCCOC(=O)c1ccc(-c2c3nc(c(-c4c(F)c(F)c(F)c(F)c4F)c4ccc([nH]4)c(-c4c(F)c(F)c(F)c(F)c4F)c4nc(c(-c5c(F)c(F)c(F)c(F)c5F)c5ccc2[nH]5)C=C4)C=C3)cc1
REMARK SMILES IDX 21 1 19 2 20 3 18 4 17 5 16 6 1 7 2 8 3 9 4 10 14 11 13 12
REMARK SMILES IDX 15 13 5 15 6 16 7 17 8 18 12 19 9 20 11 21 10 22 22 23 23 24
REMARK SMILES IDX 24 25 25 26 26 27 27 28 28 29 89 30 29 31 88 32 30 33 31 34
REMARK SMILES IDX 32 35 82 36 33 37 87 38 81 39 83 40 34 41 86 42 80 43 79 44
REMARK SMILES IDX 35 46 67 47 47 48 66 49 48 50 51 51 65 52 84 53 49 54 50 55
REMARK SMILES IDX 64 57 85 58 52 59 36 60 37 61 45 62 38 63 39 64 43 65 46 66
REMARK SMILES IDX 40 67 41 68 44 69 42 70 68 71 69 72 77 73 70 74 71 75 75 76
REMARK SMILES IDX 78 77 72 78 73 79 76 80 74 81 53 82 54 83 62 84 55 85 56 86
REMARK SMILES IDX 60 87 63 88 57 89 58 90 61 91 59 92
REMARK H PARENT 13 14 83 45 51 56
REMARK Flexibility Score: inf
ROOT
ATOM      1  O   UNL A   1      30.484  28.335  24.505  1.00  0.00    -0.462 OA
ENDROOT
BRANCH   1   2
ATOM      2  C   UNL A   1      30.611  27.215  23.757  1.00  0.00     0.306 C 
ATOM      3  O   UNL A   1      30.926  27.183  22.574  1.00  0.00    -0.252 OA
BRANCH   2   4
ATOM      4  C   UNL A   1      30.270  25.975  24.551  1.00  0.00     0.128 C 
BRANCH   4   5
ATOM      5  C   UNL A   1      30.764  26.000  26.006  1.00  0.00     0.055 C 
BRANCH   5   6
ATOM      6  C   UNL A   1      31.852  24.987  26.241  1.00  0.00     0.039 A 
ATOM      7  C   UNL A   1      33.743  26.511  25.627  1.00  0.00     0.067 C 
ATOM      8  C   UNL A   1      33.171  25.178  26.036  1.00  0.00     0.049 A 
ATOM      9  N   UNL A   1      34.084  24.148  26.003  1.00  0.00    -0.229 NA
ATOM     10  C   UNL A   1      33.618  22.947  26.046  1.00  0.00     0.168 A 
ATOM     11  C   UNL A   1      31.461  23.625  26.680  1.00  0.00     0.254 A 
ATOM     12  N   UNL A   1      32.337  22.645  26.355  1.00  0.00    -0.301 N 
ATOM     13  O   UNL A   1      30.423  23.386  27.282  1.00  0.00    -0.269 OA
ATOM     14  H   UNL A   1      32.041  21.707  26.344  1.00  0.00     0.172 HD
BRANCH  10  15
ATOM     15  S   UNL A   1      34.551  21.540  25.670  1.00  0.00    -0.083 SA
BRANCH  15  16
ATOM     16  C   UNL A   1      33.335  20.227  25.922  1.00  0.00     0.113 C 
BRANCH  16  17
ATOM     17  C   UNL A   1      33.197  19.177  24.836  1.00  0.00    -0.038 A 
ATOM     18  C   UNL A   1      34.004  18.029  24.891  1.00  0.00     0.004 A 
ATOM     19  C   UNL A   1      32.406  19.358  23.689  1.00  0.00     0.004 A 
ATOM     20  C   UNL A   1      34.037  17.117  23.830  1.00  0.00     0.000 A 
ATOM     21  C   UNL A   1      32.444  18.454  22.626  1.00  0.00     0.000 A 
ATOM     22  C   UNL A   1      33.266  17.336  22.693  1.00  0.00     0.000 A 
ENDBRANCH  16  17
ENDBRANCH  15  16
ENDBRANCH  10  15
ENDBRANCH   5   6
ENDBRANCH   4   5
ENDBRANCH   2   4
ENDBRANCH   1   2
BRANCH   1  23
ATOM     23  C   UNL A   1      31.588  29.260  24.499  1.00  0.00     0.274 C 
BRANCH  23  24
ATOM     24  C   UNL A   1      31.789  29.907  25.872  1.00  0.00     0.275 C 
BRANCH  24  25
ATOM     25  O   UNL A   1      33.150  30.350  26.014  1.00  0.00    -0.458 OA
BRANCH  25  26
ATOM     26  C   UNL A   1      33.379  31.302  26.942  1.00  0.00     0.338 C 
ATOM     27  O   UNL A   1      32.712  32.275  27.230  1.00  0.00    -0.246 OA
BRANCH  26  28
ATOM     28  C   UNL A   1      34.638  30.986  27.617  1.00  0.00     0.060 A 
ATOM     29  C   UNL A   1      34.886  29.678  28.046  1.00  0.00     0.016 A 
ATOM     30  C   UNL A   1      35.536  32.018  27.883  1.00  0.00     0.016 A 
ATOM     31  C   UNL A   1      36.054  29.398  28.750  1.00  0.00     0.010 A 
ATOM     32  C   UNL A   1      36.711  31.732  28.572  1.00  0.00     0.010 A 
ATOM     33  C   UNL A   1      36.972  30.424  29.015  1.00  0.00    -0.014 A 
BRANCH  33  34
ATOM     34  C   UNL A   1      38.206  30.155  29.781  1.00  0.00     0.031 A 
ATOM     35  C   UNL A   1      39.232  29.216  29.225  1.00  0.00     0.074 A 
ATOM     36  C   UNL A   1      38.365  30.712  30.993  1.00  0.00     0.049 A 
ATOM     37  N   UNL A   1      40.303  28.728  29.795  1.00  0.00    -0.248 NA
ATOM     38  C   UNL A   1      39.018  28.754  27.844  1.00  0.00     0.031 C 
ATOM     39  C   UNL A   1      37.434  31.654  31.617  1.00  0.00     0.029 A 
ATOM     40  N   UNL A   1      39.355  30.548  31.927  1.00  0.00    -0.354 N 
ATOM     41  C   UNL A   1      40.879  27.887  28.854  1.00  0.00     0.074 A 
ATOM     42  C   UNL A   1      40.033  27.919  27.680  1.00  0.00     0.031 C 
ATOM     43  C   UNL A   1      37.892  31.974  32.838  1.00  0.00     0.029 A 
ATOM     44  C   UNL A   1      39.119  31.227  33.095  1.00  0.00     0.049 A 
ATOM     45  H   UNL A   1      40.156  29.997  31.774  1.00  0.00     0.167 HD
ATOM     46  C   UNL A   1      42.014  27.158  28.967  1.00  0.00     0.037 A 
ATOM     47  C   UNL A   1      39.803  31.218  34.255  1.00  0.00     0.037 A 
ATOM     48  C   UNL A   1      42.850  27.143  30.138  1.00  0.00     0.049 A 
ATOM     49  C   UNL A   1      41.040  30.371  34.366  1.00  0.00     0.074 A 
ATOM     50  C   UNL A   1      44.032  26.454  30.349  1.00  0.00     0.029 A 
ATOM     51  N   UNL A   1      42.586  27.851  31.301  1.00  0.00    -0.354 N 
ATOM     52  N   UNL A   1      41.587  29.586  33.470  1.00  0.00    -0.248 NA
ATOM     53  C   UNL A   1      41.751  30.403  35.651  1.00  0.00     0.031 C 
ATOM     54  C   UNL A   1      44.466  26.720  31.652  1.00  0.00     0.029 A 
ATOM     55  C   UNL A   1      43.574  27.605  32.240  1.00  0.00     0.049 A 
ATOM     56  H   UNL A   1      41.810  28.441  31.440  1.00  0.00     0.167 HD
ATOM     57  C   UNL A   1      42.718  29.051  34.070  1.00  0.00     0.074 A 
ATOM     58  C   UNL A   1      42.783  29.606  35.407  1.00  0.00     0.031 C 
ATOM     59  C   UNL A   1      43.622  28.179  33.561  1.00  0.00     0.037 A 
BRANCH  46  60
ATOM     60  C   UNL A   1      42.403  26.298  27.802  1.00  0.00     0.064 A 
ATOM     61  C   UNL A   1      41.835  25.031  27.602  1.00  0.00     0.173 A 
ATOM     62  C   UNL A   1      43.331  26.760  26.857  1.00  0.00     0.173 A 
ATOM     63  F   UNL A   1      40.954  24.539  28.485  1.00  0.00    -0.203 F 
ATOM     64  C   UNL A   1      42.199  24.249  26.508  1.00  0.00     0.198 A 
ATOM     65  C   UNL A   1      43.675  25.985  25.752  1.00  0.00     0.198 A 
ATOM     66  F   UNL A   1      43.901  27.966  27.002  1.00  0.00    -0.203 F 
ATOM     67  F   UNL A   1      41.673  23.026  26.356  1.00  0.00    -0.200 F 
ATOM     68  C   UNL A   1      43.113  24.729  25.581  1.00  0.00     0.200 A 
ATOM     69  F   UNL A   1      44.550  26.454  24.853  1.00  0.00    -0.200 F 
ATOM     70  F   UNL A   1      43.457  23.977  24.526  1.00  0.00    -0.200 F 
ENDBRANCH  46  60
BRANCH  47  71
ATOM     71  C   UNL A   1      39.326  32.037  35.396  1.00  0.00     0.064 A 
ATOM     72  C   UNL A   1      38.501  31.481  36.383  1.00  0.00     0.173 A 
ATOM     73  C   UNL A   1      39.698  33.382  35.535  1.00  0.00     0.173 A 
ATOM     74  F   UNL A   1      38.102  30.205  36.281  1.00  0.00    -0.203 F 
ATOM     75  C   UNL A   1      38.058  32.244  37.462  1.00  0.00     0.198 A 
ATOM     76  C   UNL A   1      39.275  34.136  36.626  1.00  0.00     0.198 A 
ATOM     77  F   UNL A   1      40.488  33.958  34.616  1.00  0.00    -0.203 F 
ATOM     78  F   UNL A   1      37.243  31.698  38.374  1.00  0.00    -0.200 F 
ATOM     79  C   UNL A   1      38.451  33.568  37.586  1.00  0.00     0.200 A 
ATOM     80  F   UNL A   1      39.666  35.413  36.749  1.00  0.00    -0.200 F 
ATOM     81  F   UNL A   1      38.031  34.298  38.628  1.00  0.00    -0.200 F 
ENDBRANCH  47  71
BRANCH  59  82
ATOM     82  C   UNL A   1      44.778  27.803  34.436  1.00  0.00     0.064 A 
ATOM     83  C   UNL A   1      44.732  26.675  35.265  1.00  0.00     0.173 A 
ATOM     84  C   UNL A   1      45.962  28.555  34.407  1.00  0.00     0.173 A 
ATOM     85  F   UNL A   1      43.615  25.935  35.339  1.00  0.00    -0.203 F 
ATOM     86  C   UNL A   1      45.828  26.319  36.047  1.00  0.00     0.198 A 
ATOM     87  C   UNL A   1      47.063  28.184  35.172  1.00  0.00     0.198 A 
ATOM     88  F   UNL A   1      46.054  29.641  33.624  1.00  0.00    -0.203 F 
ATOM     89  F   UNL A   1      45.752  25.256  36.860  1.00  0.00    -0.200 F 
ATOM     90  C   UNL A   1      46.994  27.069  35.994  1.00  0.00     0.200 A 
ATOM     91  F   UNL A   1      48.192  28.904  35.113  1.00  0.00    -0.200 F 
ATOM     92  F   UNL A   1      48.050  26.721  36.742  1.00  0.00    -0.200 F 
ENDBRANCH  59  82
ENDBRANCH  33  34
ENDBRANCH  26  28
ENDBRANCH  25  26
ENDBRANCH  24  25
ENDBRANCH  23  24
ENDBRANCH   1  23
TORSDOF 16
ENDMDL
MODEL 2
REMARK VINA RESULT:     -12.0      0.369      1.635
REMARK SMILES Cc1nc(SCc2ccccc2)[nH]c(=O)c1CCC(=O)OCCOC(=O)c1ccc(-c2c3nc(c(-c4c(F)c(F)c(F)c(F)c4F)c4ccc([nH]4)c(-c4c(F)c(F)c(F)c(F)c4F)c4nc(c(-c5c(F)c(F)c(F)c(F)c5F)c5ccc2[nH]5)C=C4)C=C3)cc1
REMARK SMILES IDX 21 1 19 2 20 3 18 4 17 5 16 6 1 7 2 8 3 9 4 10 14 11 13 12
REMARK SMILES IDX 15 13 5 15 6 16 7 17 8 18 12 19 9 20 11 21 10 22 22 23 23 24
REMARK SMILES IDX 24 25 25 26 26 27 27 28 28 29 89 30 29 31 88 32 30 33 31 34
REMARK SMILES IDX 32 35 82 36 33 37 87 38 81 39 83 40 34 41 86 42 80 43 79 44
REMARK SMILES IDX 35 46 67 47 47 48 66 49 48 50 51 51 65 52 84 53 49 54 50 55
REMARK SMILES IDX 64 57 85 58 52 59 36 60 37 61 45 62 38 63 39 64 43 65 46 66
REMARK SMILES IDX 40 67 41 68 44 69 42 70 68 71 69 72 77 73 70 74 71 75 75 76
REMARK SMILES IDX 78 77 72 78 73 79 76 80 74 81 53 82 54 83 62 84 55 85 56 86
REMARK SMILES IDX 60 87 63 88 57 89 58 90 61 91 59 92
REMARK H PARENT 13 14 83 45 51 56
REMARK Flexibility Score: inf
ROOT
ATOM      1  O   UNL A   1      30.376  28.569  24.377  1.00  0.00    -0.462 OA
ENDROOT
BRANCH   1   2
ATOM      2  C   UNL A   1      30.484  27.379  23.744  1.00  0.00     0.306 C 
ATOM      3  O   UNL A   1      30.921  27.214  22.612  1.00  0.00    -0.252 OA
BRANCH   2   4
ATOM      4  C   UNL A   1      29.952  26.248  24.592  1.00  0.00     0.128 C 
BRANCH   4   5
ATOM      5  C   UNL A   1      30.649  26.095  25.954  1.00  0.00     0.055 C 
BRANCH   5   6
ATOM      6  C   UNL A   1      31.787  25.112  25.888  1.00  0.00     0.039 A 
ATOM      7  C   UNL A   1      33.604  26.836  25.918  1.00  0.00     0.067 C 
ATOM      8  C   UNL A   1      33.098  25.420  25.825  1.00  0.00     0.049 A 
ATOM      9  N   UNL A   1      34.071  24.503  25.493  1.00  0.00    -0.229 NA
ATOM     10  C   UNL A   1      33.675  23.339  25.106  1.00  0.00     0.168 A 
ATOM     11  C   UNL A   1      31.463  23.666  25.822  1.00  0.00     0.254 A 
ATOM     12  N   UNL A   1      32.405  22.894  25.230  1.00  0.00    -0.301 N 
ATOM     13  O   UNL A   1      30.422  23.191  26.256  1.00  0.00    -0.269 OA
ATOM     14  H   UNL A   1      32.165  22.003  24.889  1.00  0.00     0.172 HD
BRANCH  10  15
ATOM     15  S   UNL A   1      34.701  22.186  24.324  1.00  0.00    -0.083 SA
BRANCH  15  16
ATOM     16  C   UNL A   1      34.365  20.697  25.290  1.00  0.00     0.113 C 
BRANCH  16  17
ATOM     17  C   UNL A   1      33.839  19.480  24.551  1.00  0.00    -0.038 A 
ATOM     18  C   UNL A   1      34.626  18.318  24.505  1.00  0.00     0.004 A 
ATOM     19  C   UNL A   1      32.667  19.500  23.777  1.00  0.00     0.004 A 
ATOM     20  C   UNL A   1      34.266  17.233  23.698  1.00  0.00     0.000 A 
ATOM     21  C   UNL A   1      32.311  18.421  22.965  1.00  0.00     0.000 A 
ATOM     22  C   UNL A   1      33.115  17.290  22.918  1.00  0.00     0.000 A 
ENDBRANCH  16  17
ENDBRANCH  15  16
ENDBRANCH  10  15
ENDBRANCH   5   6
ENDBRANCH   4   5
ENDBRANCH   2   4
ENDBRANCH   1   2
BRANCH   1  23
ATOM     23  C   UNL A   1      31.548  29.405  24.415  1.00  0.00     0.274 C 
BRANCH  23  24
ATOM     24  C   UNL A   1      31.661  30.158  25.743  1.00  0.00     0.275 C 
BRANCH  24  25
ATOM     25  O   UNL A   1      33.042  30.421  26.045  1.00  0.00    -0.458 OA
BRANCH  25  26
ATOM     26  C   UNL A   1      33.286  31.382  26.960  1.00  0.00     0.338 C 
ATOM     27  O   UNL A   1      32.628  32.364  27.240  1.00  0.00    -0.246 OA
BRANCH  26  28
ATOM     28  C   UNL A   1      34.545  31.062  27.632  1.00  0.00     0.060 A 
ATOM     29  C   UNL A   1      34.802  29.748  28.038  1.00  0.00     0.016 A 
ATOM     30  C   UNL A   1      35.436  32.095  27.918  1.00  0.00     0.016 A 
ATOM     31  C   UNL A   1      35.971  29.463  28.738  1.00  0.00     0.010 A 
ATOM     32  C   UNL A   1      36.611  31.805  28.604  1.00  0.00     0.010 A 
ATOM     33  C   UNL A   1      36.880  30.491  29.024  1.00  0.00    -0.014 A 
BRANCH  33  34
ATOM     34  C   UNL A   1      38.115  30.216  29.787  1.00  0.00     0.031 A 
ATOM     35  C   UNL A   1      39.137  29.274  29.228  1.00  0.00     0.074 A 
ATOM     36  C   UNL A   1      38.278  30.772  31.000  1.00  0.00     0.049 A 
ATOM     37  N   UNL A   1      40.207  28.782  29.796  1.00  0.00    -0.248 NA
ATOM     38  C   UNL A   1      38.919  28.815  27.847  1.00  0.00     0.031 C 
ATOM     39  C   UNL A   1      37.352  31.716  31.626  1.00  0.00     0.029 A 
ATOM     40  N   UNL A   1      39.269  30.602  31.931  1.00  0.00    -0.354 N 
ATOM     41  C   UNL A   1      40.778  27.940  28.852  1.00  0.00     0.074 A 
ATOM     42  C   UNL A   1      39.930  27.976  27.680  1.00  0.00     0.031 C 
ATOM     43  C   UNL A   1      37.813  32.033  32.847  1.00  0.00     0.029 A 
ATOM     44  C   UNL A   1      39.039  31.281  33.101  1.00  0.00     0.049 A 
ATOM     45  H   UNL A   1      40.069  30.049  31.777  1.00  0.00     0.167 HD
ATOM     46  C   UNL A   1      41.911  27.207  28.962  1.00  0.00     0.037 A 
ATOM     47  C   UNL A   1      39.725  31.268  34.259  1.00  0.00     0.037 A 
ATOM     48  C   UNL A   1      42.749  27.187  30.132  1.00  0.00     0.049 A 
ATOM     49  C   UNL A   1      40.958  30.416  34.367  1.00  0.00     0.074 A 
ATOM     50  C   UNL A   1      43.929  26.494  30.340  1.00  0.00     0.029 A 
ATOM     51  N   UNL A   1      42.489  27.895  31.297  1.00  0.00    -0.354 N 
ATOM     52  N   UNL A   1      41.501  29.631  33.469  1.00  0.00    -0.248 NA
ATOM     53  C   UNL A   1      41.672  30.444  35.650  1.00  0.00     0.031 C 
ATOM     54  C   UNL A   1      44.366  26.757  31.642  1.00  0.00     0.029 A 
ATOM     55  C   UNL A   1      43.479  27.644  32.233  1.00  0.00     0.049 A 
ATOM     56  H   UNL A   1      41.716  28.488  31.437  1.00  0.00     0.167 HD
ATOM     57  C   UNL A   1      42.631  29.091  34.066  1.00  0.00     0.074 A 
ATOM     58  C   UNL A   1      42.700  29.644  35.404  1.00  0.00     0.031 C 
ATOM     59  C   UNL A   1      43.531  28.217  33.554  1.00  0.00     0.037 A 
BRANCH  46  60
ATOM     60  C   UNL A   1      42.294  26.347  27.796  1.00  0.00     0.064 A 
ATOM     61  C   UNL A   1      43.227  26.778  26.841  1.00  0.00     0.173 A 
ATOM     62  C   UNL A   1      41.746  25.065  27.648  1.00  0.00     0.173 A 
ATOM     63  F   UNL A   1      43.769  28.002  26.930  1.00  0.00    -0.203 F 
ATOM     64  C   UNL A   1      43.581  25.963  25.768  1.00  0.00     0.198 A 
ATOM     65  C   UNL A   1      42.120  24.243  26.587  1.00  0.00     0.198 A 
ATOM     66  F   UNL A   1      40.851  24.606  28.535  1.00  0.00    -0.203 F 
ATOM     67  F   UNL A   1      44.446  26.408  24.846  1.00  0.00    -0.200 F 
ATOM     68  C   UNL A   1      43.033  24.694  25.646  1.00  0.00     0.200 A 
ATOM     69  F   UNL A   1      41.596  23.015  26.476  1.00  0.00    -0.200 F 
ATOM     70  F   UNL A   1      43.379  23.909  24.616  1.00  0.00    -0.200 F 
ENDBRANCH  46  60
BRANCH  47  71
ATOM     71  C   UNL A   1      39.252  32.087  35.402  1.00  0.00     0.064 A 
ATOM     72  C   UNL A   1      38.450  31.527  36.405  1.00  0.00     0.173 A 
ATOM     73  C   UNL A   1      39.608  33.439  35.528  1.00  0.00     0.173 A 
ATOM     74  F   UNL A   1      38.067  30.245  36.316  1.00  0.00    -0.203 F 
ATOM     75  C   UNL A   1      38.012  32.290  37.486  1.00  0.00     0.198 A 
ATOM     76  C   UNL A   1      39.190  34.193  36.621  1.00  0.00     0.198 A 
ATOM     77  F   UNL A   1      40.376  34.020  34.594  1.00  0.00    -0.203 F 
ATOM     78  F   UNL A   1      37.218  31.739  38.413  1.00  0.00    -0.200 F 
ATOM     79  C   UNL A   1      38.388  33.620  37.596  1.00  0.00     0.200 A 
ATOM     80  F   UNL A   1      39.565  35.476  36.729  1.00  0.00    -0.200 F 
ATOM     81  F   UNL A   1      37.973  34.351  38.640  1.00  0.00    -0.200 F 
ENDBRANCH  47  71
BRANCH  59  82
ATOM     82  C   UNL A   1      44.687  27.835  34.426  1.00  0.00     0.064 A 
ATOM     83  C   UNL A   1      45.868  28.590  34.450  1.00  0.00     0.173 A 
ATOM     84  C   UNL A   1      44.593  26.729  35.283  1.00  0.00     0.173 A 
ATOM     85  F   UNL A   1      46.010  29.647  33.636  1.00  0.00    -0.203 F 
ATOM     86  C   UNL A   1      46.921  28.241  35.292  1.00  0.00     0.198 A 
ATOM     87  C   UNL A   1      45.638  26.397  36.139  1.00  0.00     0.198 A 
ATOM     88  F   UNL A   1      43.480  25.979  35.298  1.00  0.00    -0.203 F 
ATOM     89  F   UNL A   1      48.055  28.956  35.275  1.00  0.00    -0.200 F 
ATOM     90  C   UNL A   1      46.802  27.150  36.141  1.00  0.00     0.200 A 
ATOM     91  F   UNL A   1      45.518  25.348  36.966  1.00  0.00    -0.200 F 
ATOM     92  F   UNL A   1      47.813  26.821  36.956  1.00  0.00    -0.200 F 
ENDBRANCH  59  82
ENDBRANCH  33  34
ENDBRANCH  26  28
ENDBRANCH  25  26
ENDBRANCH  24  25
ENDBRANCH  23  24
ENDBRANCH   1  23
TORSDOF 16
ENDMDL
MODEL 3
REMARK VINA RESULT:     -11.9      1.347      2.758
REMARK SMILES Cc1nc(SCc2ccccc2)[nH]c(=O)c1CCC(=O)OCCOC(=O)c1ccc(-c2c3nc(c(-c4c(F)c(F)c(F)c(F)c4F)c4ccc([nH]4)c(-c4c(F)c(F)c(F)c(F)c4F)c4nc(c(-c5c(F)c(F)c(F)c(F)c5F)c5ccc2[nH]5)C=C4)C=C3)cc1
REMARK SMILES IDX 21 1 19 2 20 3 18 4 17 5 16 6 1 7 2 8 3 9 4 10 14 11 13 12
REMARK SMILES IDX 15 13 5 15 6 16 7 17 8 18 12 19 9 20 11 21 10 22 22 23 23 24
REMARK SMILES IDX 24 25 25 26 26 27 27 28 28 29 89 30 29 31 88 32 30 33 31 34
REMARK SMILES IDX 32 35 82 36 33 37 87 38 81 39 83 40 34 41 86 42 80 43 79 44
REMARK SMILES IDX 35 46 67 47 47 48 66 49 48 50 51 51 65 52 84 53 49 54 50 55
REMARK SMILES IDX 64 57 85 58 52 59 36 60 37 61 45 62 38 63 39 64 43 65 46 66
REMARK SMILES IDX 40 67 41 68 44 69 42 70 68 71 69 72 77 73 70 74 71 75 75 76
REMARK SMILES IDX 78 77 72 78 73 79 76 80 74 81 53 82 54 83 62 84 55 85 56 86
REMARK SMILES IDX 60 87 63 88 57 89 58 90 61 91 59 92
REMARK H PARENT 13 14 83 45 51 56
REMARK Flexibility Score: inf
ROOT
ATOM      1  O   UNL A   1      30.580  28.376  24.666  1.00  0.00    -0.462 OA
ENDROOT
BRANCH   1   2
ATOM      2  C   UNL A   1      30.491  27.358  23.779  1.00  0.00     0.306 C 
ATOM      3  O   UNL A   1      30.541  27.471  22.562  1.00  0.00    -0.252 OA
BRANCH   2   4
ATOM      4  C   UNL A   1      30.270  26.034  24.473  1.00  0.00     0.128 C 
BRANCH   4   5
ATOM      5  C   UNL A   1      30.651  26.029  25.963  1.00  0.00     0.055 C 
BRANCH   5   6
ATOM      6  C   UNL A   1      31.716  25.007  26.260  1.00  0.00     0.039 A 
ATOM      7  C   UNL A   1      33.651  26.503  25.715  1.00  0.00     0.067 C 
ATOM      8  C   UNL A   1      33.045  25.182  26.114  1.00  0.00     0.049 A 
ATOM      9  N   UNL A   1      33.947  24.142  26.135  1.00  0.00    -0.229 NA
ATOM     10  C   UNL A   1      33.466  22.947  26.171  1.00  0.00     0.168 A 
ATOM     11  C   UNL A   1      31.290  23.655  26.696  1.00  0.00     0.254 A 
ATOM     12  N   UNL A   1      32.169  22.662  26.424  1.00  0.00    -0.301 N 
ATOM     13  O   UNL A   1      30.223  23.435  27.253  1.00  0.00    -0.269 OA
ATOM     14  H   UNL A   1      31.863  21.727  26.411  1.00  0.00     0.172 HD
BRANCH  10  15
ATOM     15  S   UNL A   1      34.399  21.524  25.855  1.00  0.00    -0.083 SA
BRANCH  15  16
ATOM     16  C   UNL A   1      35.652  22.163  24.722  1.00  0.00     0.113 C 
BRANCH  16  17
ATOM     17  C   UNL A   1      37.019  22.488  25.293  1.00  0.00    -0.038 A 
ATOM     18  C   UNL A   1      37.957  21.454  25.447  1.00  0.00     0.004 A 
ATOM     19  C   UNL A   1      37.352  23.747  25.819  1.00  0.00     0.004 A 
ATOM     20  C   UNL A   1      39.163  21.667  26.123  1.00  0.00     0.000 A 
ATOM     21  C   UNL A   1      38.552  23.960  26.501  1.00  0.00     0.000 A 
ATOM     22  C   UNL A   1      39.455  22.917  26.661  1.00  0.00     0.000 A 
ENDBRANCH  16  17
ENDBRANCH  15  16
ENDBRANCH  10  15
ENDBRANCH   5   6
ENDBRANCH   4   5
ENDBRANCH   2   4
ENDBRANCH   1   2
BRANCH   1  23
ATOM     23  C   UNL A   1      31.749  29.214  24.591  1.00  0.00     0.274 C 
BRANCH  23  24
ATOM     24  C   UNL A   1      31.833  30.171  25.783  1.00  0.00     0.275 C 
BRANCH  24  25
ATOM     25  O   UNL A   1      33.191  30.261  26.249  1.00  0.00    -0.458 OA
BRANCH  25  26
ATOM     26  C   UNL A   1      33.481  31.295  27.063  1.00  0.00     0.338 C 
ATOM     27  O   UNL A   1      32.861  32.323  27.256  1.00  0.00    -0.246 OA
BRANCH  26  28
ATOM     28  C   UNL A   1      34.741  30.999  27.746  1.00  0.00     0.060 A 
ATOM     29  C   UNL A   1      35.000  29.698  28.190  1.00  0.00     0.016 A 
ATOM     30  C   UNL A   1      35.628  32.043  28.003  1.00  0.00     0.016 A 
ATOM     31  C   UNL A   1      36.169  29.437  28.900  1.00  0.00     0.010 A 
ATOM     32  C   UNL A   1      36.803  31.776  28.699  1.00  0.00     0.010 A 
ATOM     33  C   UNL A   1      37.075  30.475  29.157  1.00  0.00    -0.014 A 
BRANCH  33  34
ATOM     34  C   UNL A   1      38.310  30.226  29.929  1.00  0.00     0.031 A 
ATOM     35  C   UNL A   1      39.379  29.349  29.354  1.00  0.00     0.074 A 
ATOM     36  C   UNL A   1      38.431  30.745  31.164  1.00  0.00     0.049 A 
ATOM     37  N   UNL A   1      40.461  28.883  29.922  1.00  0.00    -0.248 NA
ATOM     38  C   UNL A   1      39.200  28.930  27.955  1.00  0.00     0.031 C 
ATOM     39  C   UNL A   1      37.457  31.626  31.807  1.00  0.00     0.029 A 
ATOM     40  N   UNL A   1      39.416  30.585  32.104  1.00  0.00    -0.354 N 
ATOM     41  C   UNL A   1      41.081  28.100  28.959  1.00  0.00     0.074 A 
ATOM     42  C   UNL A   1      40.249  28.141  27.775  1.00  0.00     0.031 C 
ATOM     43  C   UNL A   1      37.886  31.919  33.046  1.00  0.00     0.029 A 
ATOM     44  C   UNL A   1      39.139  31.211  33.293  1.00  0.00     0.049 A 
ATOM     45  H   UNL A   1      40.240  30.071  31.943  1.00  0.00     0.167 HD
ATOM     46  C   UNL A   1      42.242  27.411  29.061  1.00  0.00     0.037 A 
ATOM     47  C   UNL A   1      39.809  31.187  34.460  1.00  0.00     0.037 A 
ATOM     48  C   UNL A   1      43.064  27.386  30.242  1.00  0.00     0.049 A 
ATOM     49  C   UNL A   1      41.076  30.384  34.558  1.00  0.00     0.074 A 
ATOM     50  C   UNL A   1      44.269  26.737  30.444  1.00  0.00     0.029 A 
ATOM     51  N   UNL A   1      42.757  28.041  31.426  1.00  0.00    -0.354 N 
ATOM     52  N   UNL A   1      41.665  29.655  33.642  1.00  0.00    -0.248 NA
ATOM     53  C   UNL A   1      41.770  30.397  35.853  1.00  0.00     0.031 C 
ATOM     54  C   UNL A   1      44.676  26.971  31.762  1.00  0.00     0.029 A 
ATOM     55  C   UNL A   1      43.743  27.799  32.369  1.00  0.00     0.049 A 
ATOM     56  H   UNL A   1      41.957  28.595  31.576  1.00  0.00     0.167 HD
ATOM     57  C   UNL A   1      42.809  29.142  34.238  1.00  0.00     0.074 A 
ATOM     58  C   UNL A   1      42.835  29.651  35.595  1.00  0.00     0.031 C 
ATOM     59  C   UNL A   1      43.752  28.326  33.710  1.00  0.00     0.037 A 
BRANCH  46  60
ATOM     60  C   UNL A   1      42.679  26.610  27.871  1.00  0.00     0.064 A 
ATOM     61  C   UNL A   1      43.429  27.185  26.834  1.00  0.00     0.173 A 
ATOM     62  C   UNL A   1      42.370  25.245  27.782  1.00  0.00     0.173 A 
ATOM     63  F   UNL A   1      43.737  28.490  26.866  1.00  0.00    -0.203 F 
ATOM     64  C   UNL A   1      43.836  26.424  25.741  1.00  0.00     0.198 A 
ATOM     65  C   UNL A   1      42.800  24.482  26.699  1.00  0.00     0.198 A 
ATOM     66  F   UNL A   1      41.658  24.649  28.749  1.00  0.00    -0.203 F 
ATOM     67  F   UNL A   1      44.519  27.001  24.742  1.00  0.00    -0.200 F 
ATOM     68  C   UNL A   1      43.527  25.073  25.677  1.00  0.00     0.200 A 
ATOM     69  F   UNL A   1      42.509  23.176  26.644  1.00  0.00    -0.200 F 
ATOM     70  F   UNL A   1      43.926  24.342  24.627  1.00  0.00    -0.200 F 
ENDBRANCH  46  60
BRANCH  47  71
ATOM     71  C   UNL A   1      39.285  31.944  35.624  1.00  0.00     0.064 A 
ATOM     72  C   UNL A   1      39.651  33.280  35.835  1.00  0.00     0.173 A 
ATOM     73  C   UNL A   1      38.395  31.357  36.536  1.00  0.00     0.173 A 
ATOM     74  F   UNL A   1      40.517  33.876  35.002  1.00  0.00    -0.203 F 
ATOM     75  C   UNL A   1      39.154  33.998  36.921  1.00  0.00     0.198 A 
ATOM     76  C   UNL A   1      37.880  32.083  37.606  1.00  0.00     0.198 A 
ATOM     77  F   UNL A   1      38.014  30.081  36.375  1.00  0.00    -0.203 F 
ATOM     78  F   UNL A   1      39.546  35.263  37.120  1.00  0.00    -0.200 F 
ATOM     79  C   UNL A   1      38.264  33.401  37.801  1.00  0.00     0.200 A 
ATOM     80  F   UNL A   1      37.012  31.506  38.449  1.00  0.00    -0.200 F 
ATOM     81  F   UNL A   1      37.781  34.095  38.841  1.00  0.00    -0.200 F 
ENDBRANCH  47  71
BRANCH  59  82
ATOM     82  C   UNL A   1      44.911  27.963  34.587  1.00  0.00     0.064 A 
ATOM     83  C   UNL A   1      46.055  28.770  34.661  1.00  0.00     0.173 A 
ATOM     84  C   UNL A   1      44.855  26.819  35.397  1.00  0.00     0.173 A 
ATOM     85  F   UNL A   1      46.160  29.864  33.892  1.00  0.00    -0.203 F 
ATOM     86  C   UNL A   1      47.109  28.436  35.507  1.00  0.00     0.198 A 
ATOM     87  C   UNL A   1      45.900  26.502  36.257  1.00  0.00     0.198 A 
ATOM     88  F   UNL A   1      43.779  26.019  35.362  1.00  0.00    -0.203 F 
ATOM     89  F   UNL A   1      48.209  29.202  35.538  1.00  0.00    -0.200 F 
ATOM     90  C   UNL A   1      47.028  27.307  36.309  1.00  0.00     0.200 A 
ATOM     91  F   UNL A   1      45.817  25.416  37.039  1.00  0.00    -0.200 F 
ATOM     92  F   UNL A   1      48.041  26.992  37.128  1.00  0.00    -0.200 F 
ENDBRANCH  59  82
ENDBRANCH  33  34
ENDBRANCH  26  28
ENDBRANCH  25  26
ENDBRANCH  24  25
ENDBRANCH  23  24
ENDBRANCH   1  23
TORSDOF 16
ENDMDL
