MODEL 1
REMARK VINA RESULT:     -12.1      0.000      0.000
REMARK SMILES O=C(OCCOC(=O)c1cc(S(=O)(=O)Cc2cccc(O)c2)ccc1F)c1ccc(-c2c3nc(c(-c4c(F)c(F)c(F)c(F)c4F)c4ccc([nH]4)c(-c4c(F)c(F)c(F)c(F)c4F)c4nc(c(-c5c(F)c(F)c(F)c(F)c5F)c5ccc2[nH]5)C=C4)C=C3)cc1
REMARK SMILES IDX 5 1 4 2 3 3 2 4 1 5 27 6 28 7 89 8 29 9 88 10 30 11 31 12
REMARK SMILES IDX 32 13 82 14 33 15 87 16 81 17 83 18 34 19 86 20 80 21 79 22
REMARK SMILES IDX 35 24 67 25 47 26 66 27 48 28 51 29 65 30 84 31 49 32 50 33
REMARK SMILES IDX 64 35 85 36 52 37 36 38 37 39 45 40 38 41 39 42 43 43 46 44
REMARK SMILES IDX 40 45 41 46 44 47 42 48 68 49 69 50 77 51 70 52 71 53 75 54
REMARK SMILES IDX 78 55 72 56 73 57 76 58 74 59 53 60 54 61 62 62 55 63 56 64
REMARK SMILES IDX 60 65 63 66 57 67 58 68 61 69 59 70 6 71 7 72 8 73 9 74
REMARK SMILES IDX 10 75 25 76 11 77 24 78 26 79 23 80 12 81 13 82 14 83 15 84
REMARK SMILES IDX 16 85 17 86 22 87 18 88 20 89 19 90 21 91
REMARK H PARENT 83 23 51 34 21 92
REMARK Flexibility Score: inf
ROOT
ATOM      1  C   UNL A   1      32.714  31.376  26.885  1.00  0.00     0.275 C 
ENDROOT
BRANCH   1   2
ATOM      2  C   UNL A   1      31.777  32.564  27.118  1.00  0.00     0.275 C 
BRANCH   2   3
ATOM      3  O   UNL A   1      32.432  33.827  27.313  1.00  0.00    -0.458 OA
BRANCH   3   4
ATOM      4  C   UNL A   1      33.139  34.295  28.368  1.00  0.00     0.338 C 
ATOM      5  O   UNL A   1      32.800  35.363  28.875  1.00  0.00    -0.246 OA
BRANCH   4   6
ATOM      6  C   UNL A   1      34.395  33.658  28.879  1.00  0.00     0.060 A 
ATOM      7  C   UNL A   1      35.700  33.975  28.502  1.00  0.00     0.016 A 
ATOM      8  C   UNL A   1      34.226  32.642  29.835  1.00  0.00     0.016 A 
ATOM      9  C   UNL A   1      36.801  33.375  29.124  1.00  0.00     0.010 A 
ATOM     10  C   UNL A   1      35.320  32.049  30.473  1.00  0.00     0.010 A 
ATOM     11  C   UNL A   1      36.621  32.421  30.127  1.00  0.00    -0.014 A 
BRANCH  11  12
ATOM     12  C   UNL A   1      37.802  31.750  30.718  1.00  0.00     0.031 A 
ATOM     13  C   UNL A   1      38.251  32.149  32.095  1.00  0.00     0.074 A 
ATOM     14  C   UNL A   1      38.443  30.781  30.035  1.00  0.00     0.049 A 
ATOM     15  N   UNL A   1      39.247  31.686  32.809  1.00  0.00    -0.248 NA
ATOM     16  C   UNL A   1      37.483  33.215  32.760  1.00  0.00     0.031 C 
ATOM     17  C   UNL A   1      38.104  30.329  28.686  1.00  0.00     0.029 A 
ATOM     18  N   UNL A   1      39.528  30.012  30.374  1.00  0.00    -0.354 N 
ATOM     19  C   UNL A   1      39.183  32.367  34.017  1.00  0.00     0.074 A 
ATOM     20  C   UNL A   1      38.128  33.346  33.908  1.00  0.00     0.031 C 
ATOM     21  C   UNL A   1      38.983  29.390  28.297  1.00  0.00     0.029 A 
ATOM     22  C   UNL A   1      39.947  29.170  29.371  1.00  0.00     0.049 A 
ATOM     23  H   UNL A   1      39.967  30.059  31.255  1.00  0.00     0.167 HD
ATOM     24  C   UNL A   1      39.908  32.151  35.138  1.00  0.00     0.037 A 
ATOM     25  C   UNL A   1      40.991  28.321  29.333  1.00  0.00     0.037 A 
ATOM     26  C   UNL A   1      40.950  31.168  35.242  1.00  0.00     0.049 A 
ATOM     27  C   UNL A   1      41.843  28.169  30.567  1.00  0.00     0.074 A 
ATOM     28  C   UNL A   1      41.748  30.868  36.329  1.00  0.00     0.029 A 
ATOM     29  N   UNL A   1      41.328  30.314  34.215  1.00  0.00    -0.354 N 
ATOM     30  N   UNL A   1      41.740  28.778  31.725  1.00  0.00    -0.248 NA
ATOM     31  C   UNL A   1      42.938  27.191  30.502  1.00  0.00     0.031 C 
ATOM     32  C   UNL A   1      42.645  29.868  35.946  1.00  0.00     0.029 A 
ATOM     33  C   UNL A   1      42.375  29.513  34.633  1.00  0.00     0.049 A 
ATOM     34  H   UNL A   1      40.913  30.282  33.324  1.00  0.00     0.167 HD
ATOM     35  C   UNL A   1      42.723  28.227  32.536  1.00  0.00     0.074 A 
ATOM     36  C   UNL A   1      43.411  27.233  31.740  1.00  0.00     0.031 C 
ATOM     37  C   UNL A   1      43.028  28.516  33.824  1.00  0.00     0.037 A 
BRANCH  24  38
ATOM     38  C   UNL A   1      39.573  32.971  36.348  1.00  0.00     0.064 A 
ATOM     39  C   UNL A   1      38.557  32.574  37.227  1.00  0.00     0.173 A 
ATOM     40  C   UNL A   1      40.234  34.182  36.608  1.00  0.00     0.173 A 
ATOM     41  F   UNL A   1      37.896  31.425  37.022  1.00  0.00    -0.203 F 
ATOM     42  C   UNL A   1      38.205  33.367  38.317  1.00  0.00     0.198 A 
ATOM     43  C   UNL A   1      39.898  34.959  37.712  1.00  0.00     0.198 A 
ATOM     44  F   UNL A   1      41.225  34.596  35.803  1.00  0.00    -0.203 F 
ATOM     45  F   UNL A   1      37.212  32.981  39.131  1.00  0.00    -0.200 F 
ATOM     46  C   UNL A   1      38.878  34.556  38.561  1.00  0.00     0.200 A 
ATOM     47  F   UNL A   1      40.565  36.095  37.958  1.00  0.00    -0.200 F 
ATOM     48  F   UNL A   1      38.544  35.313  39.615  1.00  0.00    -0.200 F 
ENDBRANCH  24  38
BRANCH  25  49
ATOM     49  C   UNL A   1      41.268  27.524  28.108  1.00  0.00     0.064 A 
ATOM     50  C   UNL A   1      40.673  26.270  27.903  1.00  0.00     0.173 A 
ATOM     51  C   UNL A   1      42.119  28.010  27.106  1.00  0.00     0.173 A 
ATOM     52  F   UNL A   1      39.855  25.752  28.831  1.00  0.00    -0.203 F 
ATOM     53  C   UNL A   1      40.917  25.537  26.741  1.00  0.00     0.198 A 
ATOM     54  C   UNL A   1      42.344  27.288  25.935  1.00  0.00     0.198 A 
ATOM     55  F   UNL A   1      42.699  29.210  27.246  1.00  0.00    -0.203 F 
ATOM     56  F   UNL A   1      40.345  24.337  26.577  1.00  0.00    -0.200 F 
ATOM     57  C   UNL A   1      41.744  26.051  25.755  1.00  0.00     0.200 A 
ATOM     58  F   UNL A   1      43.124  27.800  24.973  1.00  0.00    -0.200 F 
ATOM     59  F   UNL A   1      41.958  25.357  24.627  1.00  0.00    -0.200 F 
ENDBRANCH  25  49
BRANCH  37  60
ATOM     60  C   UNL A   1      44.132  27.730  34.467  1.00  0.00     0.064 A 
ATOM     61  C   UNL A   1      43.851  26.527  35.131  1.00  0.00     0.173 A 
ATOM     62  C   UNL A   1      45.449  28.208  34.495  1.00  0.00     0.173 A 
ATOM     63  F   UNL A   1      42.603  26.034  35.141  1.00  0.00    -0.203 F 
ATOM     64  C   UNL A   1      44.848  25.837  35.814  1.00  0.00     0.198 A 
ATOM     65  C   UNL A   1      46.450  27.500  35.153  1.00  0.00     0.198 A 
ATOM     66  F   UNL A   1      45.766  29.350  33.867  1.00  0.00    -0.203 F 
ATOM     67  F   UNL A   1      44.550  24.709  36.473  1.00  0.00    -0.200 F 
ATOM     68  C   UNL A   1      46.148  26.322  35.819  1.00  0.00     0.200 A 
ATOM     69  F   UNL A   1      47.710  27.957  35.138  1.00  0.00    -0.200 F 
ATOM     70  F   UNL A   1      47.109  25.652  36.469  1.00  0.00    -0.200 F 
ENDBRANCH  37  60
ENDBRANCH  11  12
ENDBRANCH   4   6
ENDBRANCH   3   4
ENDBRANCH   2   3
ENDBRANCH   1   2
BRANCH   1  71
ATOM     71  O   UNL A   1      32.093  30.095  27.069  1.00  0.00    -0.458 OA
BRANCH  71  72
ATOM     72  C   UNL A   1      31.732  29.460  25.923  1.00  0.00     0.341 C 
ATOM     73  O   UNL A   1      31.127  29.938  24.979  1.00  0.00    -0.246 OA
BRANCH  72  74
ATOM     74  C   UNL A   1      32.264  28.090  25.917  1.00  0.00     0.097 A 
ATOM     75  C   UNL A   1      31.412  27.012  26.189  1.00  0.00     0.039 A 
ATOM     76  C   UNL A   1      33.614  27.860  25.672  1.00  0.00     0.137 A 
ATOM     77  C   UNL A   1      31.918  25.701  26.173  1.00  0.00     0.068 A 
ATOM     78  C   UNL A   1      34.126  26.565  25.721  1.00  0.00     0.041 A 
ATOM     79  F   UNL A   1      34.449  28.871  25.393  1.00  0.00    -0.206 F 
ATOM     80  C   UNL A   1      33.284  25.482  25.989  1.00  0.00     0.023 A 
BRANCH  77  81
ATOM     81  S   UNL A   1      30.740  24.368  26.360  1.00  0.00     0.182 S 
ATOM     82  O   UNL A   1      31.284  23.563  27.440  1.00  0.00    -0.223 OA
ATOM     83  O   UNL A   1      29.437  24.991  26.501  1.00  0.00    -0.223 OA
BRANCH  81  84
ATOM     84  C   UNL A   1      30.729  23.337  24.916  1.00  0.00     0.177 C 
BRANCH  84  85
ATOM     85  C   UNL A   1      31.383  23.895  23.670  1.00  0.00    -0.029 A 
ATOM     86  C   UNL A   1      32.536  23.255  23.173  1.00  0.00     0.005 A 
ATOM     87  C   UNL A   1      31.014  25.099  23.064  1.00  0.00     0.051 A 
ATOM     88  C   UNL A   1      33.283  23.801  22.121  1.00  0.00     0.004 A 
ATOM     89  C   UNL A   1      31.773  25.643  22.027  1.00  0.00     0.115 A 
ATOM     90  C   UNL A   1      32.904  25.009  21.546  1.00  0.00     0.046 A 
BRANCH  89  91
ATOM     91  O   UNL A   1      31.377  26.848  21.541  1.00  0.00    -0.508 OA
ATOM     92  H   UNL A   1      31.381  27.005  20.617  1.00  0.00     0.293 HD
ENDBRANCH  89  91
ENDBRANCH  84  85
ENDBRANCH  81  84
ENDBRANCH  77  81
ENDBRANCH  72  74
ENDBRANCH  71  72
ENDBRANCH   1  71
TORSDOF 15
ENDMDL
MODEL 2
REMARK VINA RESULT:     -12.1      5.663     11.258
REMARK SMILES O=C(OCCOC(=O)c1cc(S(=O)(=O)Cc2cccc(O)c2)ccc1F)c1ccc(-c2c3nc(c(-c4c(F)c(F)c(F)c(F)c4F)c4ccc([nH]4)c(-c4c(F)c(F)c(F)c(F)c4F)c4nc(c(-c5c(F)c(F)c(F)c(F)c5F)c5ccc2[nH]5)C=C4)C=C3)cc1
REMARK SMILES IDX 5 1 4 2 3 3 2 4 1 5 27 6 28 7 89 8 29 9 88 10 30 11 31 12
REMARK SMILES IDX 32 13 82 14 33 15 87 16 81 17 83 18 34 19 86 20 80 21 79 22
REMARK SMILES IDX 35 24 67 25 47 26 66 27 48 28 51 29 65 30 84 31 49 32 50 33
REMARK SMILES IDX 64 35 85 36 52 37 36 38 37 39 45 40 38 41 39 42 43 43 46 44
REMARK SMILES IDX 40 45 41 46 44 47 42 48 68 49 69 50 77 51 70 52 71 53 75 54
REMARK SMILES IDX 78 55 72 56 73 57 76 58 74 59 53 60 54 61 62 62 55 63 56 64
REMARK SMILES IDX 60 65 63 66 57 67 58 68 61 69 59 70 6 71 7 72 8 73 9 74
REMARK SMILES IDX 10 75 25 76 11 77 24 78 26 79 23 80 12 81 13 82 14 83 15 84
REMARK SMILES IDX 16 85 17 86 22 87 18 88 20 89 19 90 21 91
REMARK H PARENT 83 23 51 34 21 92
REMARK Flexibility Score: inf
ROOT
ATOM      1  C   UNL A   1      40.883  19.638  26.454  1.00  0.00     0.275 C 
ENDROOT
BRANCH   1   2
ATOM      2  C   UNL A   1      40.480  21.058  26.859  1.00  0.00     0.275 C 
BRANCH   2   3
ATOM      3  O   UNL A   1      39.554  21.704  25.971  1.00  0.00    -0.458 OA
BRANCH   3   4
ATOM      4  C   UNL A   1      38.811  22.822  26.140  1.00  0.00     0.338 C 
ATOM      5  O   UNL A   1      37.654  22.827  25.725  1.00  0.00    -0.246 OA
BRANCH   4   6
ATOM      6  C   UNL A   1      39.352  24.108  26.688  1.00  0.00     0.060 A 
ATOM      7  C   UNL A   1      40.133  25.039  26.003  1.00  0.00     0.016 A 
ATOM      8  C   UNL A   1      39.030  24.392  28.025  1.00  0.00     0.016 A 
ATOM      9  C   UNL A   1      40.498  26.254  26.594  1.00  0.00     0.010 A 
ATOM     10  C   UNL A   1      39.377  25.610  28.618  1.00  0.00     0.010 A 
ATOM     11  C   UNL A   1      40.107  26.558  27.899  1.00  0.00    -0.014 A 
BRANCH  11  12
ATOM     12  C   UNL A   1      40.568  27.819  28.524  1.00  0.00     0.031 A 
ATOM     13  C   UNL A   1      42.021  27.972  28.869  1.00  0.00     0.074 A 
ATOM     14  C   UNL A   1      39.694  28.820  28.753  1.00  0.00     0.049 A 
ATOM     15  N   UNL A   1      42.644  28.991  29.407  1.00  0.00    -0.248 NA
ATOM     16  C   UNL A   1      42.896  26.823  28.576  1.00  0.00     0.031 C 
ATOM     17  C   UNL A   1      38.259  28.771  28.475  1.00  0.00     0.029 A 
ATOM     18  N   UNL A   1      39.880  30.069  29.292  1.00  0.00    -0.354 N 
ATOM     19  C   UNL A   1      43.981  28.621  29.462  1.00  0.00     0.074 A 
ATOM     20  C   UNL A   1      44.071  27.254  29.008  1.00  0.00     0.031 C 
ATOM     21  C   UNL A   1      37.689  29.920  28.878  1.00  0.00     0.029 A 
ATOM     22  C   UNL A   1      38.719  30.789  29.439  1.00  0.00     0.049 A 
ATOM     23  H   UNL A   1      40.765  30.417  29.549  1.00  0.00     0.167 HD
ATOM     24  C   UNL A   1      45.045  29.380  29.808  1.00  0.00     0.037 A 
ATOM     25  C   UNL A   1      38.519  32.011  29.967  1.00  0.00     0.037 A 
ATOM     26  C   UNL A   1      44.948  30.742  30.250  1.00  0.00     0.049 A 
ATOM     27  C   UNL A   1      39.715  32.800  30.436  1.00  0.00     0.074 A 
ATOM     28  C   UNL A   1      45.962  31.601  30.629  1.00  0.00     0.029 A 
ATOM     29  N   UNL A   1      43.759  31.448  30.360  1.00  0.00    -0.354 N 
ATOM     30  N   UNL A   1      40.983  32.461  30.432  1.00  0.00    -0.248 NA
ATOM     31  C   UNL A   1      39.459  34.150  30.955  1.00  0.00     0.031 C 
ATOM     32  C   UNL A   1      45.384  32.812  31.017  1.00  0.00     0.029 A 
ATOM     33  C   UNL A   1      44.012  32.722  30.838  1.00  0.00     0.049 A 
ATOM     34  H   UNL A   1      42.869  31.097  30.132  1.00  0.00     0.167 HD
ATOM     35  C   UNL A   1      41.677  33.568  30.902  1.00  0.00     0.074 A 
ATOM     36  C   UNL A   1      40.689  34.591  31.180  1.00  0.00     0.031 C 
ATOM     37  C   UNL A   1      43.010  33.727  31.086  1.00  0.00     0.037 A 
BRANCH  24  38
ATOM     38  C   UNL A   1      46.405  28.759  29.690  1.00  0.00     0.064 A 
ATOM     39  C   UNL A   1      47.122  28.822  28.488  1.00  0.00     0.173 A 
ATOM     40  C   UNL A   1      46.978  28.058  30.764  1.00  0.00     0.173 A 
ATOM     41  F   UNL A   1      46.617  29.480  27.434  1.00  0.00    -0.203 F 
ATOM     42  C   UNL A   1      48.359  28.194  28.360  1.00  0.00     0.198 A 
ATOM     43  C   UNL A   1      48.225  27.454  30.640  1.00  0.00     0.198 A 
ATOM     44  F   UNL A   1      46.336  27.985  31.940  1.00  0.00    -0.203 F 
ATOM     45  F   UNL A   1      49.016  28.244  27.193  1.00  0.00    -0.200 F 
ATOM     46  C   UNL A   1      48.911  27.514  29.436  1.00  0.00     0.200 A 
ATOM     47  F   UNL A   1      48.766  26.818  31.689  1.00  0.00    -0.200 F 
ATOM     48  F   UNL A   1      50.105  26.918  29.314  1.00  0.00    -0.200 F 
ENDBRANCH  24  38
BRANCH  25  49
ATOM     49  C   UNL A   1      37.147  32.580  30.048  1.00  0.00     0.064 A 
ATOM     50  C   UNL A   1      36.322  32.341  31.157  1.00  0.00     0.173 A 
ATOM     51  C   UNL A   1      36.640  33.394  29.025  1.00  0.00     0.173 A 
ATOM     52  F   UNL A   1      36.753  31.565  32.163  1.00  0.00    -0.203 F 
ATOM     53  C   UNL A   1      35.045  32.897  31.240  1.00  0.00     0.198 A 
ATOM     54  C   UNL A   1      35.373  33.968  29.119  1.00  0.00     0.198 A 
ATOM     55  F   UNL A   1      37.395  33.667  27.952  1.00  0.00    -0.203 F 
ATOM     56  F   UNL A   1      34.274  32.642  32.305  1.00  0.00    -0.200 F 
ATOM     57  C   UNL A   1      34.576  33.717  30.225  1.00  0.00     0.200 A 
ATOM     58  F   UNL A   1      34.935  34.781  28.148  1.00  0.00    -0.200 F 
ATOM     59  F   UNL A   1      33.359  34.272  30.317  1.00  0.00    -0.200 F 
ENDBRANCH  25  49
BRANCH  37  60
ATOM     60  C   UNL A   1      43.487  35.060  31.582  1.00  0.00     0.064 A 
ATOM     61  C   UNL A   1      43.576  35.312  32.958  1.00  0.00     0.173 A 
ATOM     62  C   UNL A   1      43.775  36.107  30.697  1.00  0.00     0.173 A 
ATOM     63  F   UNL A   1      43.300  34.343  33.844  1.00  0.00    -0.203 F 
ATOM     64  C   UNL A   1      43.925  36.573  33.432  1.00  0.00     0.198 A 
ATOM     65  C   UNL A   1      44.153  37.359  31.174  1.00  0.00     0.198 A 
ATOM     66  F   UNL A   1      43.711  35.910  29.371  1.00  0.00    -0.203 F 
ATOM     67  F   UNL A   1      43.968  36.804  34.751  1.00  0.00    -0.200 F 
ATOM     68  C   UNL A   1      44.218  37.594  32.539  1.00  0.00     0.200 A 
ATOM     69  F   UNL A   1      44.458  38.338  30.311  1.00  0.00    -0.200 F 
ATOM     70  F   UNL A   1      44.561  38.805  32.996  1.00  0.00    -0.200 F 
ENDBRANCH  37  60
ENDBRANCH  11  12
ENDBRANCH   4   6
ENDBRANCH   3   4
ENDBRANCH   2   3
ENDBRANCH   1   2
BRANCH   1  71
ATOM     71  O   UNL A   1      41.799  19.581  25.349  1.00  0.00    -0.458 OA
BRANCH  71  72
ATOM     72  C   UNL A   1      43.035  19.105  25.649  1.00  0.00     0.341 C 
ATOM     73  O   UNL A   1      43.322  17.969  25.984  1.00  0.00    -0.246 OA
BRANCH  72  74
ATOM     74  C   UNL A   1      44.046  20.147  25.420  1.00  0.00     0.097 A 
ATOM     75  C   UNL A   1      43.738  21.486  25.695  1.00  0.00     0.039 A 
ATOM     76  C   UNL A   1      45.293  19.816  24.903  1.00  0.00     0.137 A 
ATOM     77  C   UNL A   1      44.707  22.482  25.486  1.00  0.00     0.068 A 
ATOM     78  C   UNL A   1      46.230  20.813  24.634  1.00  0.00     0.041 A 
ATOM     79  F   UNL A   1      45.620  18.542  24.645  1.00  0.00    -0.206 F 
ATOM     80  C   UNL A   1      45.934  22.151  24.908  1.00  0.00     0.023 A 
BRANCH  77  81
ATOM     81  S   UNL A   1      44.303  24.141  26.019  1.00  0.00     0.182 S 
ATOM     82  O   UNL A   1      43.920  24.823  24.796  1.00  0.00    -0.223 OA
ATOM     83  O   UNL A   1      43.349  24.000  27.104  1.00  0.00    -0.223 OA
BRANCH  81  84
ATOM     84  C   UNL A   1      45.748  24.970  26.630  1.00  0.00     0.177 C 
BRANCH  84  85
ATOM     85  C   UNL A   1      46.529  25.807  25.638  1.00  0.00    -0.029 A 
ATOM     86  C   UNL A   1      47.770  25.320  25.181  1.00  0.00     0.005 A 
ATOM     87  C   UNL A   1      46.179  27.106  25.262  1.00  0.00     0.051 A 
ATOM     88  C   UNL A   1      48.619  26.103  24.387  1.00  0.00     0.004 A 
ATOM     89  C   UNL A   1      47.037  27.884  24.485  1.00  0.00     0.115 A 
ATOM     90  C   UNL A   1      48.254  27.399  24.040  1.00  0.00     0.046 A 
BRANCH  89  91
ATOM     91  O   UNL A   1      46.644  29.158  24.220  1.00  0.00    -0.508 OA
ATOM     92  H   UNL A   1      45.736  29.388  24.271  1.00  0.00     0.293 HD
ENDBRANCH  89  91
ENDBRANCH  84  85
ENDBRANCH  81  84
ENDBRANCH  77  81
ENDBRANCH  72  74
ENDBRANCH  71  72
ENDBRANCH   1  71
TORSDOF 15
ENDMDL
MODEL 3
REMARK VINA RESULT:     -11.9      6.497     11.758
REMARK SMILES O=C(OCCOC(=O)c1cc(S(=O)(=O)Cc2cccc(O)c2)ccc1F)c1ccc(-c2c3nc(c(-c4c(F)c(F)c(F)c(F)c4F)c4ccc([nH]4)c(-c4c(F)c(F)c(F)c(F)c4F)c4nc(c(-c5c(F)c(F)c(F)c(F)c5F)c5ccc2[nH]5)C=C4)C=C3)cc1
REMARK SMILES IDX 5 1 4 2 3 3 2 4 1 5 27 6 28 7 89 8 29 9 88 10 30 11 31 12
REMARK SMILES IDX 32 13 82 14 33 15 87 16 81 17 83 18 34 19 86 20 80 21 79 22
REMARK SMILES IDX 35 24 67 25 47 26 66 27 48 28 51 29 65 30 84 31 49 32 50 33
REMARK SMILES IDX 64 35 85 36 52 37 36 38 37 39 45 40 38 41 39 42 43 43 46 44
REMARK SMILES IDX 40 45 41 46 44 47 42 48 68 49 69 50 77 51 70 52 71 53 75 54
REMARK SMILES IDX 78 55 72 56 73 57 76 58 74 59 53 60 54 61 62 62 55 63 56 64
REMARK SMILES IDX 60 65 63 66 57 67 58 68 61 69 59 70 6 71 7 72 8 73 9 74
REMARK SMILES IDX 10 75 25 76 11 77 24 78 26 79 23 80 12 81 13 82 14 83 15 84
REMARK SMILES IDX 16 85 17 86 22 87 18 88 20 89 19 90 21 91
REMARK H PARENT 83 23 51 34 21 92
REMARK Flexibility Score: inf
ROOT
ATOM      1  C   UNL A   1      41.814  18.992  25.741  1.00  0.00     0.275 C 
ENDROOT
BRANCH   1   2
ATOM      2  C   UNL A   1      43.301  18.637  25.656  1.00  0.00     0.275 C 
BRANCH   2   3
ATOM      3  O   UNL A   1      43.925  18.928  24.396  1.00  0.00    -0.458 OA
BRANCH   3   4
ATOM      4  C   UNL A   1      45.003  19.693  24.107  1.00  0.00     0.338 C 
ATOM      5  O   UNL A   1      45.967  19.164  23.557  1.00  0.00    -0.246 OA
BRANCH   4   6
ATOM      6  C   UNL A   1      45.151  21.121  24.534  1.00  0.00     0.060 A 
ATOM      7  C   UNL A   1      44.890  22.251  23.759  1.00  0.00     0.016 A 
ATOM      8  C   UNL A   1      45.597  21.328  25.850  1.00  0.00     0.016 A 
ATOM      9  C   UNL A   1      44.972  23.538  24.302  1.00  0.00     0.010 A 
ATOM     10  C   UNL A   1      45.667  22.610  26.405  1.00  0.00     0.010 A 
ATOM     11  C   UNL A   1      45.344  23.728  25.633  1.00  0.00    -0.014 A 
BRANCH  11  12
ATOM     12  C   UNL A   1      45.492  25.104  26.162  1.00  0.00     0.031 A 
ATOM     13  C   UNL A   1      46.853  25.739  26.164  1.00  0.00     0.074 A 
ATOM     14  C   UNL A   1      44.414  25.778  26.608  1.00  0.00     0.049 A 
ATOM     15  N   UNL A   1      47.212  26.933  26.565  1.00  0.00    -0.248 NA
ATOM     16  C   UNL A   1      47.967  24.921  25.653  1.00  0.00     0.031 C 
ATOM     17  C   UNL A   1      43.050  25.252  26.668  1.00  0.00     0.029 A 
ATOM     18  N   UNL A   1      44.296  27.049  27.114  1.00  0.00    -0.354 N 
ATOM     19  C   UNL A   1      48.571  27.020  26.302  1.00  0.00     0.074 A 
ATOM     20  C   UNL A   1      49.000  25.732  25.811  1.00  0.00     0.031 C 
ATOM     21  C   UNL A   1      42.241  26.175  27.215  1.00  0.00     0.029 A 
ATOM     22  C   UNL A   1      43.028  27.361  27.541  1.00  0.00     0.049 A 
ATOM     23  H   UNL A   1      45.051  27.679  27.168  1.00  0.00     0.167 HD
ATOM     24  C   UNL A   1      49.377  28.101  26.409  1.00  0.00     0.037 A 
ATOM     25  C   UNL A   1      42.562  28.480  28.127  1.00  0.00     0.037 A 
ATOM     26  C   UNL A   1      48.940  29.381  26.889  1.00  0.00     0.049 A 
ATOM     27  C   UNL A   1      43.506  29.639  28.322  1.00  0.00     0.074 A 
ATOM     28  C   UNL A   1      49.673  30.543  27.041  1.00  0.00     0.029 A 
ATOM     29  N   UNL A   1      47.642  29.669  27.286  1.00  0.00    -0.354 N 
ATOM     30  N   UNL A   1      44.779  29.730  28.018  1.00  0.00    -0.248 NA
ATOM     31  C   UNL A   1      42.944  30.861  28.915  1.00  0.00     0.031 C 
ATOM     32  C   UNL A   1      48.832  31.521  27.577  1.00  0.00     0.029 A 
ATOM     33  C   UNL A   1      47.563  30.981  27.719  1.00  0.00     0.049 A 
ATOM     34  H   UNL A   1      46.889  29.036  27.263  1.00  0.00     0.167 HD
ATOM     35  C   UNL A   1      45.158  31.027  28.339  1.00  0.00     0.074 A 
ATOM     36  C   UNL A   1      43.979  31.688  28.858  1.00  0.00     0.031 C 
ATOM     37  C   UNL A   1      46.370  31.619  28.212  1.00  0.00     0.037 A 
BRANCH  24  38
ATOM     38  C   UNL A   1      50.801  27.949  25.966  1.00  0.00     0.064 A 
ATOM     39  C   UNL A   1      51.147  28.034  24.611  1.00  0.00     0.173 A 
ATOM     40  C   UNL A   1      51.821  27.671  26.891  1.00  0.00     0.173 A 
ATOM     41  F   UNL A   1      50.208  28.298  23.690  1.00  0.00    -0.203 F 
ATOM     42  C   UNL A   1      52.460  27.833  24.194  1.00  0.00     0.198 A 
ATOM     43  C   UNL A   1      53.138  27.496  26.473  1.00  0.00     0.198 A 
ATOM     44  F   UNL A   1      51.543  27.596  28.201  1.00  0.00    -0.203 F 
ATOM     45  F   UNL A   1      52.764  27.892  22.890  1.00  0.00    -0.200 F 
ATOM     46  C   UNL A   1      53.454  27.568  25.125  1.00  0.00     0.200 A 
ATOM     47  F   UNL A   1      54.100  27.264  27.377  1.00  0.00    -0.200 F 
ATOM     48  F   UNL A   1      54.719  27.383  24.723  1.00  0.00    -0.200 F 
ENDBRANCH  24  38
BRANCH  25  49
ATOM     49  C   UNL A   1      41.134  28.578  28.534  1.00  0.00     0.064 A 
ATOM     50  C   UNL A   1      40.720  28.232  29.829  1.00  0.00     0.173 A 
ATOM     51  C   UNL A   1      40.157  29.040  27.641  1.00  0.00     0.173 A 
ATOM     52  F   UNL A   1      41.611  27.778  30.723  1.00  0.00    -0.203 F 
ATOM     53  C   UNL A   1      39.384  28.348  30.214  1.00  0.00     0.198 A 
ATOM     54  C   UNL A   1      38.826  29.178  28.034  1.00  0.00     0.198 A 
ATOM     55  F   UNL A   1      40.504  29.399  26.398  1.00  0.00    -0.203 F 
ATOM     56  F   UNL A   1      39.014  28.000  31.454  1.00  0.00    -0.200 F 
ATOM     57  C   UNL A   1      38.441  28.830  29.319  1.00  0.00     0.200 A 
ATOM     58  F   UNL A   1      37.924  29.668  27.174  1.00  0.00    -0.200 F 
ATOM     59  F   UNL A   1      37.162  28.966  29.698  1.00  0.00    -0.200 F 
ENDBRANCH  25  49
BRANCH  37  60
ATOM     60  C   UNL A   1      46.481  33.060  28.612  1.00  0.00     0.064 A 
ATOM     61  C   UNL A   1      46.757  33.407  29.943  1.00  0.00     0.173 A 
ATOM     62  C   UNL A   1      46.235  34.093  27.698  1.00  0.00     0.173 A 
ATOM     63  F   UNL A   1      46.990  32.452  30.857  1.00  0.00    -0.203 F 
ATOM     64  C   UNL A   1      46.769  34.738  30.348  1.00  0.00     0.198 A 
ATOM     65  C   UNL A   1      46.277  35.426  28.099  1.00  0.00     0.198 A 
ATOM     66  F   UNL A   1      45.975  33.810  26.412  1.00  0.00    -0.203 F 
ATOM     67  F   UNL A   1      46.997  35.045  31.632  1.00  0.00    -0.200 F 
ATOM     68  C   UNL A   1      46.534  35.746  29.424  1.00  0.00     0.200 A 
ATOM     69  F   UNL A   1      46.073  36.399  27.202  1.00  0.00    -0.200 F 
ATOM     70  F   UNL A   1      46.553  37.028  29.812  1.00  0.00    -0.200 F 
ENDBRANCH  37  60
ENDBRANCH  11  12
ENDBRANCH   4   6
ENDBRANCH   3   4
ENDBRANCH   2   3
ENDBRANCH   1   2
BRANCH   1  71
ATOM     71  O   UNL A   1      41.558  20.376  26.024  1.00  0.00    -0.458 OA
BRANCH  71  72
ATOM     72  C   UNL A   1      40.787  20.608  27.118  1.00  0.00     0.341 C 
ATOM     73  O   UNL A   1      40.816  20.003  28.177  1.00  0.00    -0.246 OA
BRANCH  72  74
ATOM     74  C   UNL A   1      39.940  21.789  26.898  1.00  0.00     0.097 A 
ATOM     75  C   UNL A   1      38.837  21.703  26.038  1.00  0.00     0.039 A 
ATOM     76  C   UNL A   1      40.245  22.998  27.514  1.00  0.00     0.137 A 
ATOM     77  C   UNL A   1      38.022  22.829  25.835  1.00  0.00     0.068 A 
ATOM     78  C   UNL A   1      39.474  24.130  27.259  1.00  0.00     0.041 A 
ATOM     79  F   UNL A   1      41.285  23.105  28.353  1.00  0.00    -0.206 F 
ATOM     80  C   UNL A   1      38.369  24.055  26.406  1.00  0.00     0.023 A 
BRANCH  77  81
ATOM     81  S   UNL A   1      36.538  22.599  24.863  1.00  0.00     0.182 S 
ATOM     82  O   UNL A   1      35.947  23.924  24.799  1.00  0.00    -0.223 OA
ATOM     83  O   UNL A   1      36.948  21.925  23.645  1.00  0.00    -0.223 OA
BRANCH  81  84
ATOM     84  C   UNL A   1      35.379  21.569  25.725  1.00  0.00     0.177 C 
BRANCH  84  85
ATOM     85  C   UNL A   1      34.470  20.702  24.879  1.00  0.00    -0.029 A 
ATOM     86  C   UNL A   1      33.369  21.307  24.240  1.00  0.00     0.005 A 
ATOM     87  C   UNL A   1      34.556  19.308  24.813  1.00  0.00     0.051 A 
ATOM     88  C   UNL A   1      32.401  20.547  23.570  1.00  0.00     0.004 A 
ATOM     89  C   UNL A   1      33.578  18.559  24.158  1.00  0.00     0.115 A 
ATOM     90  C   UNL A   1      32.501  19.161  23.533  1.00  0.00     0.046 A 
BRANCH  89  91
ATOM     91  O   UNL A   1      33.708  17.208  24.199  1.00  0.00    -0.508 OA
ATOM     92  H   UNL A   1      33.637  16.706  23.410  1.00  0.00     0.293 HD
ENDBRANCH  89  91
ENDBRANCH  84  85
ENDBRANCH  81  84
ENDBRANCH  77  81
ENDBRANCH  72  74
ENDBRANCH  71  72
ENDBRANCH   1  71
TORSDOF 15
ENDMDL
