MODEL 1
REMARK VINA RESULT:     -12.6      0.000      0.000
REMARK SMILES Cc1c(CC(=O)OCCOC(=O)c2ccc(-c3c4nc(c(-c5c(F)c(F)c(F)c(F)c5F)c5ccc([nH]5)c(-c5c(F)c(F)c(F)c(F)c5F)c5nc(c(-c6c(F)c(F)c(F)c(F)c6F)c6ccc3[nH]6)C=C5)C=C4)cc2)cc(-c2ccc(S(C)(=O)=O)cc2)n1-c1ccccc1
REMARK SMILES IDX 8 1 7 2 5 3 6 4 4 5 3 6 1 7 2 8 88 9 76 10 77 11 89 12 90 13
REMARK SMILES IDX 94 14 91 15 93 16 92 17 78 18 79 19 87 20 80 21 86 22 81 23
REMARK SMILES IDX 82 24 83 25 84 26 85 27 9 28 10 29 11 30 12 31 13 32 14 33
REMARK SMILES IDX 75 34 15 35 74 36 16 37 17 38 18 39 68 40 19 41 73 42 67 43
REMARK SMILES IDX 69 44 20 45 72 46 66 47 65 48 21 50 53 51 33 52 52 53 34 54
REMARK SMILES IDX 37 55 51 56 70 57 35 58 36 59 50 61 71 62 38 63 22 64 23 65
REMARK SMILES IDX 31 66 24 67 25 68 29 69 32 70 26 71 27 72 30 73 28 74 54 75
REMARK SMILES IDX 55 76 63 77 56 78 57 79 61 80 64 81 58 82 59 83 62 84 60 85
REMARK SMILES IDX 39 86 40 87 48 88 41 89 42 90 46 91 49 92 43 93 44 94 47 95
REMARK SMILES IDX 45 96
REMARK H PARENT 69 49 37 60
REMARK Flexibility Score: inf
ROOT
ATOM      1  C   UNL A   1      37.031  22.265  24.344  1.00  0.00     0.274 C 
ENDROOT
BRANCH   1   2
ATOM      2  O   UNL A   1      35.873  21.436  24.497  1.00  0.00    -0.462 OA
BRANCH   2   3
ATOM      3  C   UNL A   1      34.662  21.958  24.167  1.00  0.00     0.310 C 
ATOM      4  O   UNL A   1      33.597  21.588  24.651  1.00  0.00    -0.252 OA
BRANCH   3   5
ATOM      5  C   UNL A   1      34.799  23.150  23.233  1.00  0.00     0.160 C 
BRANCH   5   6
ATOM      6  C   UNL A   1      34.044  24.400  23.614  1.00  0.00    -0.015 A 
ATOM      7  C   UNL A   1      34.620  24.689  26.150  1.00  0.00     0.065 C 
ATOM      8  C   UNL A   1      34.017  25.060  24.836  1.00  0.00     0.024 A 
ATOM      9  N   UNL A   1      33.225  26.189  24.712  1.00  0.00    -0.314 N 
ATOM     10  C   UNL A   1      33.059  25.053  22.810  1.00  0.00     0.033 A 
ATOM     11  C   UNL A   1      32.502  26.097  23.533  1.00  0.00     0.053 A 
BRANCH   9  12
ATOM     12  C   UNL A   1      33.133  27.196  25.702  1.00  0.00     0.046 A 
ATOM     13  C   UNL A   1      34.064  28.236  25.734  1.00  0.00     0.026 A 
ATOM     14  C   UNL A   1      32.055  27.162  26.596  1.00  0.00     0.026 A 
ATOM     15  C   UNL A   1      33.904  29.257  26.669  1.00  0.00     0.002 A 
ATOM     16  C   UNL A   1      31.919  28.174  27.542  1.00  0.00     0.002 A 
ATOM     17  C   UNL A   1      32.838  29.224  27.573  1.00  0.00     0.000 A 
ENDBRANCH   9  12
BRANCH  11  18
ATOM     18  C   UNL A   1      31.396  26.986  23.173  1.00  0.00    -0.001 A 
ATOM     19  C   UNL A   1      31.629  28.227  22.565  1.00  0.00     0.011 A 
ATOM     20  C   UNL A   1      30.085  26.620  23.509  1.00  0.00     0.011 A 
ATOM     21  C   UNL A   1      30.573  29.112  22.337  1.00  0.00     0.021 A 
ATOM     22  C   UNL A   1      29.024  27.501  23.288  1.00  0.00     0.021 A 
ATOM     23  C   UNL A   1      29.280  28.751  22.721  1.00  0.00     0.067 A 
BRANCH  23  24
ATOM     24  S   UNL A   1      27.950  29.904  22.479  1.00  0.00     0.175 S 
ATOM     25  C   UNL A   1      28.477  31.349  23.367  1.00  0.00     0.163 C 
ATOM     26  O   UNL A   1      27.916  30.224  21.065  1.00  0.00    -0.224 OA
ATOM     27  O   UNL A   1      26.780  29.381  23.156  1.00  0.00    -0.224 OA
ENDBRANCH  23  24
ENDBRANCH  11  18
ENDBRANCH   5   6
ENDBRANCH   3   5
ENDBRANCH   2   3
ENDBRANCH   1   2
BRANCH   1  28
ATOM     28  C   UNL A   1      37.700  22.496  25.716  1.00  0.00     0.275 C 
BRANCH  28  29
ATOM     29  O   UNL A   1      39.094  22.102  26.030  1.00  0.00    -0.458 OA
BRANCH  29  30
ATOM     30  C   UNL A   1      39.944  22.588  26.974  1.00  0.00     0.338 C 
ATOM     31  O   UNL A   1      40.713  21.896  27.640  1.00  0.00    -0.246 OA
BRANCH  30  32
ATOM     32  C   UNL A   1      39.890  24.132  27.073  1.00  0.00     0.060 A 
ATOM     33  C   UNL A   1      39.207  24.856  28.076  1.00  0.00     0.016 A 
ATOM     34  C   UNL A   1      40.610  24.937  26.215  1.00  0.00     0.016 A 
ATOM     35  C   UNL A   1      39.435  26.291  28.347  1.00  0.00     0.010 A 
ATOM     36  C   UNL A   1      40.718  26.356  26.448  1.00  0.00     0.010 A 
ATOM     37  C   UNL A   1      40.302  27.099  27.585  1.00  0.00    -0.014 A 
BRANCH  37  38
ATOM     38  C   UNL A   1      41.410  28.175  28.249  1.00  0.00     0.031 A 
ATOM     39  C   UNL A   1      41.839  27.502  29.530  1.00  0.00     0.074 A 
ATOM     40  C   UNL A   1      42.380  29.153  27.895  1.00  0.00     0.049 A 
ATOM     41  N   UNL A   1      42.115  26.231  29.434  1.00  0.00    -0.248 NA
ATOM     42  C   UNL A   1      42.364  28.102  30.750  1.00  0.00     0.031 C 
ATOM     43  C   UNL A   1      42.717  29.769  26.591  1.00  0.00     0.029 A 
ATOM     44  N   UNL A   1      43.434  29.765  28.672  1.00  0.00    -0.354 N 
ATOM     45  C   UNL A   1      43.311  26.130  30.040  1.00  0.00     0.074 A 
ATOM     46  C   UNL A   1      43.323  27.202  31.032  1.00  0.00     0.031 C 
ATOM     47  C   UNL A   1      43.773  30.652  26.683  1.00  0.00     0.029 A 
ATOM     48  C   UNL A   1      44.321  30.696  28.042  1.00  0.00     0.049 A 
ATOM     49  H   UNL A   1      43.541  29.543  29.626  1.00  0.00     0.167 HD
ATOM     50  C   UNL A   1      44.310  25.436  29.436  1.00  0.00     0.037 A 
ATOM     51  C   UNL A   1      45.406  31.349  28.642  1.00  0.00     0.037 A 
ATOM     52  C   UNL A   1      45.599  25.496  30.018  1.00  0.00     0.049 A 
ATOM     53  C   UNL A   1      46.202  30.154  29.074  1.00  0.00     0.074 A 
ATOM     54  C   UNL A   1      46.145  25.642  31.274  1.00  0.00     0.029 A 
ATOM     55  N   UNL A   1      46.674  25.485  29.161  1.00  0.00    -0.354 N 
ATOM     56  N   UNL A   1      47.197  29.660  28.379  1.00  0.00    -0.248 NA
ATOM     57  C   UNL A   1      46.112  29.731  30.471  1.00  0.00     0.031 C 
ATOM     58  C   UNL A   1      47.460  26.172  31.061  1.00  0.00     0.029 A 
ATOM     59  C   UNL A   1      47.564  26.386  29.688  1.00  0.00     0.049 A 
ATOM     60  H   UNL A   1      46.782  24.947  28.345  1.00  0.00     0.167 HD
ATOM     61  C   UNL A   1      47.702  28.691  29.214  1.00  0.00     0.074 A 
ATOM     62  C   UNL A   1      47.255  29.053  30.536  1.00  0.00     0.031 C 
ATOM     63  C   UNL A   1      47.995  27.433  28.789  1.00  0.00     0.037 A 
BRANCH  50  64
ATOM     64  C   UNL A   1      44.137  24.860  28.022  1.00  0.00     0.064 A 
ATOM     65  C   UNL A   1      44.064  25.631  26.838  1.00  0.00     0.173 A 
ATOM     66  C   UNL A   1      44.226  23.483  27.815  1.00  0.00     0.173 A 
ATOM     67  F   UNL A   1      43.981  26.963  26.899  1.00  0.00    -0.203 F 
ATOM     68  C   UNL A   1      43.913  25.068  25.559  1.00  0.00     0.198 A 
ATOM     69  C   UNL A   1      44.147  22.916  26.535  1.00  0.00     0.198 A 
ATOM     70  F   UNL A   1      44.451  22.674  28.859  1.00  0.00    -0.203 F 
ATOM     71  F   UNL A   1      43.666  25.853  24.498  1.00  0.00    -0.200 F 
ATOM     72  C   UNL A   1      43.948  23.703  25.411  1.00  0.00     0.200 A 
ATOM     73  F   UNL A   1      44.292  21.593  26.390  1.00  0.00    -0.200 F 
ATOM     74  F   UNL A   1      43.804  23.147  24.201  1.00  0.00    -0.200 F 
ENDBRANCH  50  64
BRANCH  51  75
ATOM     75  C   UNL A   1      46.508  32.511  28.711  1.00  0.00     0.064 A 
ATOM     76  C   UNL A   1      47.009  33.203  29.815  1.00  0.00     0.173 A 
ATOM     77  C   UNL A   1      47.134  32.966  27.477  1.00  0.00     0.173 A 
ATOM     78  F   UNL A   1      46.637  32.851  31.049  1.00  0.00    -0.203 F 
ATOM     79  C   UNL A   1      47.959  34.272  29.685  1.00  0.00     0.198 A 
ATOM     80  C   UNL A   1      47.973  34.084  27.334  1.00  0.00     0.198 A 
ATOM     81  F   UNL A   1      47.035  32.258  26.345  1.00  0.00    -0.203 F 
ATOM     82  F   UNL A   1      48.478  34.842  30.783  1.00  0.00    -0.200 F 
ATOM     83  C   UNL A   1      48.401  34.740  28.451  1.00  0.00     0.200 A 
ATOM     84  F   UNL A   1      48.398  34.464  26.117  1.00  0.00    -0.200 F 
ATOM     85  F   UNL A   1      49.276  35.752  28.345  1.00  0.00    -0.200 F 
ENDBRANCH  51  75
BRANCH  63  86
ATOM     86  C   UNL A   1      48.040  27.292  27.292  1.00  0.00     0.064 A 
ATOM     87  C   UNL A   1      46.939  27.547  26.483  1.00  0.00     0.173 A 
ATOM     88  C   UNL A   1      49.199  26.805  26.661  1.00  0.00     0.173 A 
ATOM     89  F   UNL A   1      45.807  28.018  27.023  1.00  0.00    -0.203 F 
ATOM     90  C   UNL A   1      46.996  27.306  25.106  1.00  0.00     0.198 A 
ATOM     91  C   UNL A   1      49.270  26.583  25.292  1.00  0.00     0.198 A 
ATOM     92  F   UNL A   1      50.264  26.519  27.413  1.00  0.00    -0.203 F 
ATOM     93  F   UNL A   1      45.915  27.533  24.348  1.00  0.00    -0.200 F 
ATOM     94  C   UNL A   1      48.158  26.825  24.513  1.00  0.00     0.200 A 
ATOM     95  F   UNL A   1      50.406  26.136  24.737  1.00  0.00    -0.200 F 
ATOM     96  F   UNL A   1      48.201  26.592  23.194  1.00  0.00    -0.200 F 
ENDBRANCH  63  86
ENDBRANCH  37  38
ENDBRANCH  30  32
ENDBRANCH  29  30
ENDBRANCH  28  29
ENDBRANCH   1  28
TORSDOF 15
ENDMDL
MODEL 2
REMARK VINA RESULT:     -11.8      4.678      8.674
REMARK SMILES Cc1c(CC(=O)OCCOC(=O)c2ccc(-c3c4nc(c(-c5c(F)c(F)c(F)c(F)c5F)c5ccc([nH]5)c(-c5c(F)c(F)c(F)c(F)c5F)c5nc(c(-c6c(F)c(F)c(F)c(F)c6F)c6ccc3[nH]6)C=C5)C=C4)cc2)cc(-c2ccc(S(C)(=O)=O)cc2)n1-c1ccccc1
REMARK SMILES IDX 8 1 7 2 5 3 6 4 4 5 3 6 1 7 2 8 88 9 76 10 77 11 89 12 90 13
REMARK SMILES IDX 94 14 91 15 93 16 92 17 78 18 79 19 87 20 80 21 86 22 81 23
REMARK SMILES IDX 82 24 83 25 84 26 85 27 9 28 10 29 11 30 12 31 13 32 14 33
REMARK SMILES IDX 75 34 15 35 74 36 16 37 17 38 18 39 68 40 19 41 73 42 67 43
REMARK SMILES IDX 69 44 20 45 72 46 66 47 65 48 21 50 53 51 33 52 52 53 34 54
REMARK SMILES IDX 37 55 51 56 70 57 35 58 36 59 50 61 71 62 38 63 22 64 23 65
REMARK SMILES IDX 31 66 24 67 25 68 29 69 32 70 26 71 27 72 30 73 28 74 54 75
REMARK SMILES IDX 55 76 63 77 56 78 57 79 61 80 64 81 58 82 59 83 62 84 60 85
REMARK SMILES IDX 39 86 40 87 48 88 41 89 42 90 46 91 49 92 43 93 44 94 47 95
REMARK SMILES IDX 45 96
REMARK H PARENT 69 49 37 60
REMARK Flexibility Score: inf
ROOT
ATOM      1  C   UNL A   1      44.051  20.888  25.556  1.00  0.00     0.274 C 
ENDROOT
BRANCH   1   2
ATOM      2  O   UNL A   1      42.867  20.143  25.249  1.00  0.00    -0.462 OA
BRANCH   2   3
ATOM      3  C   UNL A   1      42.556  19.078  26.034  1.00  0.00     0.310 C 
ATOM      4  O   UNL A   1      43.261  18.081  26.154  1.00  0.00    -0.252 OA
BRANCH   3   5
ATOM      5  C   UNL A   1      41.303  19.333  26.857  1.00  0.00     0.160 C 
BRANCH   5   6
ATOM      6  C   UNL A   1      40.595  20.645  26.626  1.00  0.00    -0.015 A 
ATOM      7  C   UNL A   1      41.740  22.247  28.348  1.00  0.00     0.065 C 
ATOM      8  C   UNL A   1      40.823  21.873  27.232  1.00  0.00     0.024 A 
ATOM      9  N   UNL A   1      39.965  22.807  26.676  1.00  0.00    -0.314 N 
ATOM     10  C   UNL A   1      39.412  20.823  25.842  1.00  0.00     0.033 A 
ATOM     11  C   UNL A   1      38.988  22.139  25.954  1.00  0.00     0.053 A 
BRANCH   9  12
ATOM     12  C   UNL A   1      40.057  24.199  26.916  1.00  0.00     0.046 A 
ATOM     13  C   UNL A   1      40.735  25.023  26.017  1.00  0.00     0.026 A 
ATOM     14  C   UNL A   1      39.397  24.733  28.031  1.00  0.00     0.026 A 
ATOM     15  C   UNL A   1      40.742  26.400  26.235  1.00  0.00     0.002 A 
ATOM     16  C   UNL A   1      39.433  26.107  28.253  1.00  0.00     0.002 A 
ATOM     17  C   UNL A   1      40.098  26.939  27.352  1.00  0.00     0.000 A 
ENDBRANCH   9  12
BRANCH  11  18
ATOM     18  C   UNL A   1      37.782  22.772  25.418  1.00  0.00    -0.001 A 
ATOM     19  C   UNL A   1      36.964  23.577  26.222  1.00  0.00     0.011 A 
ATOM     20  C   UNL A   1      37.400  22.508  24.095  1.00  0.00     0.011 A 
ATOM     21  C   UNL A   1      35.757  24.076  25.728  1.00  0.00     0.021 A 
ATOM     22  C   UNL A   1      36.192  22.999  23.595  1.00  0.00     0.021 A 
ATOM     23  C   UNL A   1      35.368  23.763  24.423  1.00  0.00     0.067 A 
BRANCH  23  24
ATOM     24  S   UNL A   1      33.805  24.354  23.820  1.00  0.00     0.175 S 
ATOM     25  C   UNL A   1      33.729  26.027  24.412  1.00  0.00     0.163 C 
ATOM     26  O   UNL A   1      33.891  24.385  22.373  1.00  0.00    -0.224 OA
ATOM     27  O   UNL A   1      32.759  23.608  24.492  1.00  0.00    -0.224 OA
ENDBRANCH  23  24
ENDBRANCH  11  18
ENDBRANCH   5   6
ENDBRANCH   3   5
ENDBRANCH   2   3
ENDBRANCH   1   2
BRANCH   1  28
ATOM     28  C   UNL A   1      43.812  22.390  25.298  1.00  0.00     0.275 C 
BRANCH  28  29
ATOM     29  O   UNL A   1      44.298  23.468  26.194  1.00  0.00    -0.458 OA
BRANCH  29  30
ATOM     30  C   UNL A   1      44.243  24.818  26.039  1.00  0.00     0.338 C 
ATOM     31  O   UNL A   1      44.218  25.393  24.951  1.00  0.00    -0.246 OA
BRANCH  30  32
ATOM     32  C   UNL A   1      44.143  25.560  27.394  1.00  0.00     0.060 A 
ATOM     33  C   UNL A   1      44.500  26.911  27.605  1.00  0.00     0.016 A 
ATOM     34  C   UNL A   1      43.590  24.962  28.507  1.00  0.00     0.016 A 
ATOM     35  C   UNL A   1      44.095  27.686  28.796  1.00  0.00     0.010 A 
ATOM     36  C   UNL A   1      43.311  25.728  29.696  1.00  0.00     0.010 A 
ATOM     37  C   UNL A   1      43.375  27.136  29.876  1.00  0.00    -0.014 A 
BRANCH  37  38
ATOM     38  C   UNL A   1      42.054  27.879  30.601  1.00  0.00     0.031 A 
ATOM     39  C   UNL A   1      42.377  27.826  32.075  1.00  0.00     0.074 A 
ATOM     40  C   UNL A   1      41.063  28.877  30.383  1.00  0.00     0.049 A 
ATOM     41  N   UNL A   1      43.595  28.162  32.397  1.00  0.00    -0.248 NA
ATOM     42  C   UNL A   1      41.467  27.840  33.214  1.00  0.00     0.031 C 
ATOM     43  C   UNL A   1      40.706  29.652  29.172  1.00  0.00     0.029 A 
ATOM     44  N   UNL A   1      40.173  29.545  31.305  1.00  0.00    -0.354 N 
ATOM     45  C   UNL A   1      43.415  29.051  33.390  1.00  0.00     0.074 A 
ATOM     46  C   UNL A   1      42.161  28.657  34.027  1.00  0.00     0.031 C 
ATOM     47  C   UNL A   1      39.702  30.566  29.410  1.00  0.00     0.029 A 
ATOM     48  C   UNL A   1      39.298  30.569  30.820  1.00  0.00     0.049 A 
ATOM     49  H   UNL A   1      40.170  29.298  32.259  1.00  0.00     0.167 HD
ATOM     50  C   UNL A   1      44.095  30.226  33.367  1.00  0.00     0.037 A 
ATOM     51  C   UNL A   1      38.403  31.330  31.583  1.00  0.00     0.037 A 
ATOM     52  C   UNL A   1      43.753  31.204  34.331  1.00  0.00     0.049 A 
ATOM     53  C   UNL A   1      39.370  31.951  32.547  1.00  0.00     0.074 A 
ATOM     54  C   UNL A   1      43.273  31.240  35.621  1.00  0.00     0.029 A 
ATOM     55  N   UNL A   1      43.816  32.520  33.938  1.00  0.00    -0.354 N 
ATOM     56  N   UNL A   1      39.876  33.149  32.390  1.00  0.00    -0.248 NA
ATOM     57  C   UNL A   1      39.490  31.363  33.881  1.00  0.00     0.031 C 
ATOM     58  C   UNL A   1      42.645  32.520  35.762  1.00  0.00     0.029 A 
ATOM     59  C   UNL A   1      42.720  33.119  34.506  1.00  0.00     0.049 A 
ATOM     60  H   UNL A   1      44.501  32.942  33.371  1.00  0.00     0.167 HD
ATOM     61  C   UNL A   1      40.573  33.342  33.560  1.00  0.00     0.074 A 
ATOM     62  C   UNL A   1      39.992  32.424  34.509  1.00  0.00     0.031 C 
ATOM     63  C   UNL A   1      41.847  33.816  33.589  1.00  0.00     0.037 A 
BRANCH  50  64
ATOM     64  C   UNL A   1      44.979  30.611  32.171  1.00  0.00     0.064 A 
ATOM     65  C   UNL A   1      44.499  30.914  30.874  1.00  0.00     0.173 A 
ATOM     66  C   UNL A   1      46.338  30.861  32.360  1.00  0.00     0.173 A 
ATOM     67  F   UNL A   1      43.213  30.724  30.564  1.00  0.00    -0.203 F 
ATOM     68  C   UNL A   1      45.338  31.269  29.804  1.00  0.00     0.198 A 
ATOM     69  C   UNL A   1      47.170  31.285  31.314  1.00  0.00     0.198 A 
ATOM     70  F   UNL A   1      46.861  30.752  33.589  1.00  0.00    -0.203 F 
ATOM     71  F   UNL A   1      44.844  31.366  28.560  1.00  0.00    -0.200 F 
ATOM     72  C   UNL A   1      46.682  31.448  30.028  1.00  0.00     0.200 A 
ATOM     73  F   UNL A   1      48.456  31.562  31.566  1.00  0.00    -0.200 F 
ATOM     74  F   UNL A   1      47.498  31.785  29.020  1.00  0.00    -0.200 F 
ENDBRANCH  50  64
BRANCH  51  75
ATOM     75  C   UNL A   1      37.128  32.287  31.747  1.00  0.00     0.064 A 
ATOM     76  C   UNL A   1      36.277  32.462  32.841  1.00  0.00     0.173 A 
ATOM     77  C   UNL A   1      36.734  33.139  30.634  1.00  0.00     0.173 A 
ATOM     78  F   UNL A   1      36.542  31.848  33.998  1.00  0.00    -0.203 F 
ATOM     79  C   UNL A   1      35.130  33.324  32.792  1.00  0.00     0.198 A 
ATOM     80  C   UNL A   1      35.551  33.893  30.542  1.00  0.00     0.198 A 
ATOM     81  F   UNL A   1      37.559  33.362  29.603  1.00  0.00    -0.203 F 
ATOM     82  F   UNL A   1      34.399  33.528  33.898  1.00  0.00    -0.200 F 
ATOM     83  C   UNL A   1      34.744  33.996  31.636  1.00  0.00     0.200 A 
ATOM     84  F   UNL A   1      35.252  34.553  29.409  1.00  0.00    -0.200 F 
ATOM     85  F   UNL A   1      33.658  34.785  31.600  1.00  0.00    -0.200 F 
ENDBRANCH  51  75
BRANCH  63  86
ATOM     86  C   UNL A   1      42.301  34.418  32.287  1.00  0.00     0.064 A 
ATOM     87  C   UNL A   1      42.323  33.699  31.098  1.00  0.00     0.173 A 
ATOM     88  C   UNL A   1      42.808  35.730  32.252  1.00  0.00     0.173 A 
ATOM     89  F   UNL A   1      41.849  32.447  31.064  1.00  0.00    -0.203 F 
ATOM     90  C   UNL A   1      42.847  34.268  29.932  1.00  0.00     0.198 A 
ATOM     91  C   UNL A   1      43.311  36.309  31.094  1.00  0.00     0.198 A 
ATOM     92  F   UNL A   1      42.831  36.437  33.384  1.00  0.00    -0.203 F 
ATOM     93  F   UNL A   1      42.884  33.549  28.802  1.00  0.00    -0.200 F 
ATOM     94  C   UNL A   1      43.340  35.568  29.931  1.00  0.00     0.200 A 
ATOM     95  F   UNL A   1      43.764  37.570  31.110  1.00  0.00    -0.200 F 
ATOM     96  F   UNL A   1      43.845  36.102  28.810  1.00  0.00    -0.200 F 
ENDBRANCH  63  86
ENDBRANCH  37  38
ENDBRANCH  30  32
ENDBRANCH  29  30
ENDBRANCH  28  29
ENDBRANCH   1  28
TORSDOF 15
ENDMDL
MODEL 3
REMARK VINA RESULT:     -11.7      2.614      4.378
REMARK SMILES Cc1c(CC(=O)OCCOC(=O)c2ccc(-c3c4nc(c(-c5c(F)c(F)c(F)c(F)c5F)c5ccc([nH]5)c(-c5c(F)c(F)c(F)c(F)c5F)c5nc(c(-c6c(F)c(F)c(F)c(F)c6F)c6ccc3[nH]6)C=C5)C=C4)cc2)cc(-c2ccc(S(C)(=O)=O)cc2)n1-c1ccccc1
REMARK SMILES IDX 8 1 7 2 5 3 6 4 4 5 3 6 1 7 2 8 88 9 76 10 77 11 89 12 90 13
REMARK SMILES IDX 94 14 91 15 93 16 92 17 78 18 79 19 87 20 80 21 86 22 81 23
REMARK SMILES IDX 82 24 83 25 84 26 85 27 9 28 10 29 11 30 12 31 13 32 14 33
REMARK SMILES IDX 75 34 15 35 74 36 16 37 17 38 18 39 68 40 19 41 73 42 67 43
REMARK SMILES IDX 69 44 20 45 72 46 66 47 65 48 21 50 53 51 33 52 52 53 34 54
REMARK SMILES IDX 37 55 51 56 70 57 35 58 36 59 50 61 71 62 38 63 22 64 23 65
REMARK SMILES IDX 31 66 24 67 25 68 29 69 32 70 26 71 27 72 30 73 28 74 54 75
REMARK SMILES IDX 55 76 63 77 56 78 57 79 61 80 64 81 58 82 59 83 62 84 60 85
REMARK SMILES IDX 39 86 40 87 48 88 41 89 42 90 46 91 49 92 43 93 44 94 47 95
REMARK SMILES IDX 45 96
REMARK H PARENT 69 49 37 60
REMARK Flexibility Score: inf
ROOT
ATOM      1  C   UNL A   1      36.858  22.217  25.424  1.00  0.00     0.274 C 
ENDROOT
BRANCH   1   2
ATOM      2  O   UNL A   1      36.031  21.823  24.322  1.00  0.00    -0.462 OA
BRANCH   2   3
ATOM      3  C   UNL A   1      35.725  22.756  23.383  1.00  0.00     0.310 C 
ATOM      4  O   UNL A   1      36.556  23.350  22.703  1.00  0.00    -0.252 OA
BRANCH   3   5
ATOM      5  C   UNL A   1      34.223  22.873  23.176  1.00  0.00     0.160 C 
BRANCH   5   6
ATOM      6  C   UNL A   1      33.581  24.178  23.578  1.00  0.00    -0.015 A 
ATOM      7  C   UNL A   1      34.175  24.371  26.119  1.00  0.00     0.065 C 
ATOM      8  C   UNL A   1      33.610  24.816  24.811  1.00  0.00     0.024 A 
ATOM      9  N   UNL A   1      32.921  26.012  24.706  1.00  0.00    -0.314 N 
ATOM     10  C   UNL A   1      32.658  24.928  22.785  1.00  0.00     0.033 A 
ATOM     11  C   UNL A   1      32.195  26.006  23.526  1.00  0.00     0.053 A 
BRANCH   9  12
ATOM     12  C   UNL A   1      32.916  27.007  25.713  1.00  0.00     0.046 A 
ATOM     13  C   UNL A   1      33.924  27.971  25.752  1.00  0.00     0.026 A 
ATOM     14  C   UNL A   1      31.848  27.040  26.619  1.00  0.00     0.026 A 
ATOM     15  C   UNL A   1      33.853  28.986  26.705  1.00  0.00     0.002 A 
ATOM     16  C   UNL A   1      31.800  28.043  27.583  1.00  0.00     0.002 A 
ATOM     17  C   UNL A   1      32.797  29.019  27.620  1.00  0.00     0.000 A 
ENDBRANCH   9  12
BRANCH  11  18
ATOM     18  C   UNL A   1      31.173  26.994  23.181  1.00  0.00    -0.001 A 
ATOM     19  C   UNL A   1      31.516  28.226  22.606  1.00  0.00     0.011 A 
ATOM     20  C   UNL A   1      29.832  26.734  23.498  1.00  0.00     0.011 A 
ATOM     21  C   UNL A   1      30.542  29.204  22.393  1.00  0.00     0.021 A 
ATOM     22  C   UNL A   1      28.852  27.708  23.292  1.00  0.00     0.021 A 
ATOM     23  C   UNL A   1      29.219  28.946  22.760  1.00  0.00     0.067 A 
BRANCH  23  24
ATOM     24  S   UNL A   1      27.995  30.215  22.537  1.00  0.00     0.175 S 
ATOM     25  C   UNL A   1      28.686  31.619  23.377  1.00  0.00     0.163 C 
ATOM     26  O   UNL A   1      27.942  30.511  21.119  1.00  0.00    -0.224 OA
ATOM     27  O   UNL A   1      26.805  29.816  23.264  1.00  0.00    -0.224 OA
ENDBRANCH  23  24
ENDBRANCH  11  18
ENDBRANCH   5   6
ENDBRANCH   3   5
ENDBRANCH   2   3
ENDBRANCH   1   2
BRANCH   1  28
ATOM     28  C   UNL A   1      38.204  21.464  25.370  1.00  0.00     0.275 C 
BRANCH  28  29
ATOM     29  O   UNL A   1      39.250  21.570  26.416  1.00  0.00    -0.458 OA
BRANCH  29  30
ATOM     30  C   UNL A   1      40.484  22.139  26.357  1.00  0.00     0.338 C 
ATOM     31  O   UNL A   1      41.381  21.778  25.596  1.00  0.00    -0.246 OA
BRANCH  30  32
ATOM     32  C   UNL A   1      40.617  23.351  27.311  1.00  0.00     0.060 A 
ATOM     33  C   UNL A   1      41.765  23.657  28.075  1.00  0.00     0.016 A 
ATOM     34  C   UNL A   1      39.625  24.304  27.412  1.00  0.00     0.016 A 
ATOM     35  C   UNL A   1      41.997  24.971  28.712  1.00  0.00     0.010 A 
ATOM     36  C   UNL A   1      39.848  25.530  28.139  1.00  0.00     0.010 A 
ATOM     37  C   UNL A   1      41.063  26.027  28.682  1.00  0.00    -0.014 A 
BRANCH  37  38
ATOM     38  C   UNL A   1      41.461  27.624  28.344  1.00  0.00     0.031 A 
ATOM     39  C   UNL A   1      40.686  28.412  29.372  1.00  0.00     0.074 A 
ATOM     40  C   UNL A   1      42.509  28.440  27.833  1.00  0.00     0.049 A 
ATOM     41  N   UNL A   1      40.739  27.952  30.591  1.00  0.00    -0.248 NA
ATOM     42  C   UNL A   1      40.217  29.791  29.309  1.00  0.00     0.031 C 
ATOM     43  C   UNL A   1      43.792  28.089  27.182  1.00  0.00     0.029 A 
ATOM     44  N   UNL A   1      42.715  29.868  27.902  1.00  0.00    -0.354 N 
ATOM     45  C   UNL A   1      41.055  29.040  31.316  1.00  0.00     0.074 A 
ATOM     46  C   UNL A   1      40.494  30.165  30.571  1.00  0.00     0.031 C 
ATOM     47  C   UNL A   1      44.550  29.200  26.879  1.00  0.00     0.029 A 
ATOM     48  C   UNL A   1      43.907  30.434  27.342  1.00  0.00     0.049 A 
ATOM     49  H   UNL A   1      42.043  30.447  28.330  1.00  0.00     0.167 HD
ATOM     50  C   UNL A   1      42.046  28.963  32.241  1.00  0.00     0.037 A 
ATOM     51  C   UNL A   1      44.271  31.786  27.354  1.00  0.00     0.037 A 
ATOM     52  C   UNL A   1      42.465  30.165  32.859  1.00  0.00     0.049 A 
ATOM     53  C   UNL A   1      44.284  32.023  28.835  1.00  0.00     0.074 A 
ATOM     54  C   UNL A   1      41.912  31.377  33.212  1.00  0.00     0.029 A 
ATOM     55  N   UNL A   1      43.800  30.280  33.166  1.00  0.00    -0.354 N 
ATOM     56  N   UNL A   1      45.372  31.975  29.564  1.00  0.00    -0.248 NA
ATOM     57  C   UNL A   1      43.123  32.674  29.441  1.00  0.00     0.031 C 
ATOM     58  C   UNL A   1      43.010  32.296  33.273  1.00  0.00     0.029 A 
ATOM     59  C   UNL A   1      44.130  31.576  32.860  1.00  0.00     0.049 A 
ATOM     60  H   UNL A   1      44.392  29.582  33.527  1.00  0.00     0.167 HD
ATOM     61  C   UNL A   1      44.931  32.391  30.799  1.00  0.00     0.074 A 
ATOM     62  C   UNL A   1      43.715  33.124  30.545  1.00  0.00     0.031 C 
ATOM     63  C   UNL A   1      45.241  31.737  31.949  1.00  0.00     0.037 A 
BRANCH  50  64
ATOM     64  C   UNL A   1      42.892  27.690  32.397  1.00  0.00     0.064 A 
ATOM     65  C   UNL A   1      43.762  27.170  31.408  1.00  0.00     0.173 A 
ATOM     66  C   UNL A   1      42.979  27.059  33.638  1.00  0.00     0.173 A 
ATOM     67  F   UNL A   1      43.779  27.690  30.178  1.00  0.00    -0.203 F 
ATOM     68  C   UNL A   1      44.527  26.006  31.589  1.00  0.00     0.198 A 
ATOM     69  C   UNL A   1      43.796  25.938  33.847  1.00  0.00     0.198 A 
ATOM     70  F   UNL A   1      42.312  27.568  34.682  1.00  0.00    -0.203 F 
ATOM     71  F   UNL A   1      45.189  25.463  30.555  1.00  0.00    -0.200 F 
ATOM     72  C   UNL A   1      44.536  25.385  32.815  1.00  0.00     0.200 A 
ATOM     73  F   UNL A   1      43.882  25.405  35.073  1.00  0.00    -0.200 F 
ATOM     74  F   UNL A   1      45.258  24.272  33.006  1.00  0.00    -0.200 F 
ENDBRANCH  50  64
BRANCH  51  75
ATOM     75  C   UNL A   1      45.120  33.037  26.822  1.00  0.00     0.064 A 
ATOM     76  C   UNL A   1      46.456  33.105  26.420  1.00  0.00     0.173 A 
ATOM     77  C   UNL A   1      44.470  34.336  26.706  1.00  0.00     0.173 A 
ATOM     78  F   UNL A   1      47.189  31.989  26.350  1.00  0.00    -0.203 F 
ATOM     79  C   UNL A   1      47.079  34.338  26.028  1.00  0.00     0.198 A 
ATOM     80  C   UNL A   1      45.104  35.560  26.436  1.00  0.00     0.198 A 
ATOM     81  F   UNL A   1      43.137  34.452  26.749  1.00  0.00    -0.203 F 
ATOM     82  F   UNL A   1      48.337  34.332  25.562  1.00  0.00    -0.200 F 
ATOM     83  C   UNL A   1      46.421  35.563  26.082  1.00  0.00     0.200 A 
ATOM     84  F   UNL A   1      44.405  36.708  26.465  1.00  0.00    -0.200 F 
ATOM     85  F   UNL A   1      47.023  36.709  25.729  1.00  0.00    -0.200 F 
ENDBRANCH  51  75
BRANCH  63  86
ATOM     86  C   UNL A   1      46.359  30.741  31.801  1.00  0.00     0.064 A 
ATOM     87  C   UNL A   1      47.595  30.907  32.413  1.00  0.00     0.173 A 
ATOM     88  C   UNL A   1      46.209  29.630  30.951  1.00  0.00     0.173 A 
ATOM     89  F   UNL A   1      47.799  31.942  33.239  1.00  0.00    -0.203 F 
ATOM     90  C   UNL A   1      48.638  30.008  32.168  1.00  0.00     0.198 A 
ATOM     91  C   UNL A   1      47.234  28.721  30.718  1.00  0.00     0.198 A 
ATOM     92  F   UNL A   1      45.045  29.458  30.322  1.00  0.00    -0.203 F 
ATOM     93  F   UNL A   1      49.831  30.202  32.747  1.00  0.00    -0.200 F 
ATOM     94  C   UNL A   1      48.458  28.919  31.323  1.00  0.00     0.200 A 
ATOM     95  F   UNL A   1      47.033  27.667  29.915  1.00  0.00    -0.200 F 
ATOM     96  F   UNL A   1      49.465  28.066  31.089  1.00  0.00    -0.200 F 
ENDBRANCH  63  86
ENDBRANCH  37  38
ENDBRANCH  30  32
ENDBRANCH  29  30
ENDBRANCH  28  29
ENDBRANCH   1  28
TORSDOF 15
ENDMDL
