MODEL 1
REMARK VINA RESULT:     -13.9      0.000      0.000
REMARK SMILES Cc1ccc(C2=NN(C(=O)CCC(=O)OCCOC(=O)c3ccc(-c4c5nc(c(-c6c(F)c(F)c(F)c(F)c6F)c6ccc([nH]6)c(-c6c(F)c(F)c(F)c(F)c6F)c6nc(c(-c7c(F)c(F)c(F)c(F)c7F)c7ccc4[nH]7)C=C6)C=C5)cc3)[C@H](C[C@@H]3C=c4cccc(C)c4=NC3=O)C2)cc1
REMARK SMILES IDX 15 1 13 2 14 3 12 4 11 5 9 6 10 7 8 8 6 9 7 10 98 11 84 12
REMARK SMILES IDX 5 13 1 14 2 15 3 16 100 17 4 18 99 19 85 20 86 21 87 22
REMARK SMILES IDX 96 23 88 24 95 25 97 26 89 27 94 28 90 29 92 30 91 31 93 32
REMARK SMILES IDX 16 33 17 34 18 35 19 36 20 37 21 38 22 39 83 40 23 41 82 42
REMARK SMILES IDX 24 43 25 44 26 45 76 46 27 47 81 48 75 49 77 50 28 51 80 52
REMARK SMILES IDX 74 53 73 54 29 56 61 57 41 58 60 59 42 60 45 61 59 62 78 63
REMARK SMILES IDX 43 64 44 65 58 67 79 68 46 69 30 70 31 71 39 72 32 73 33 74
REMARK SMILES IDX 37 75 40 76 34 77 35 78 38 79 36 80 62 81 63 82 71 83 64 84
REMARK SMILES IDX 65 85 69 86 72 87 66 88 67 89 70 90 68 91 47 92 48 93 56 94
REMARK SMILES IDX 49 95 50 96 54 97 57 98 51 99 52 100 55 101 53 102
REMARK H PARENT 77 55 45 66
REMARK Flexibility Score: inf
ROOT
ATOM      1  O   UNL A   1      32.160  28.297  25.721  1.00  0.00    -0.462 OA
ENDROOT
BRANCH   1   2
ATOM      2  C   UNL A   1      32.007  27.185  26.460  1.00  0.00     0.306 C 
ATOM      3  O   UNL A   1      31.083  26.955  27.217  1.00  0.00    -0.252 OA
BRANCH   2   4
ATOM      4  C   UNL A   1      33.010  26.129  26.146  1.00  0.00     0.132 C 
BRANCH   4   5
ATOM      5  C   UNL A   1      32.265  24.811  26.129  1.00  0.00     0.114 C 
BRANCH   5   6
ATOM      6  C   UNL A   1      33.228  23.669  26.361  1.00  0.00     0.243 C 
ATOM      7  O   UNL A   1      33.009  22.947  27.342  1.00  0.00    -0.273 OA
BRANCH   6   8
ATOM      8  N   UNL A   1      34.361  23.514  25.565  1.00  0.00    -0.230 N 
ATOM      9  C   UNL A   1      36.520  23.379  25.593  1.00  0.00     0.070 C 
ATOM     10  N   UNL A   1      35.475  23.235  26.331  1.00  0.00    -0.174 NA
ATOM     11  C   UNL A   1      36.282  23.635  24.151  1.00  0.00     0.086 C 
ATOM     12  C   UNL A   1      34.773  23.915  24.178  1.00  0.00     0.118 C 
BRANCH   9  13
ATOM     13  C   UNL A   1      37.869  23.239  26.119  1.00  0.00    -0.002 A 
ATOM     14  C   UNL A   1      41.787  22.668  27.725  1.00  0.00     0.044 C 
ATOM     15  C   UNL A   1      40.408  22.884  27.176  1.00  0.00    -0.051 A 
ATOM     16  C   UNL A   1      39.778  21.840  26.482  1.00  0.00     0.004 A 
ATOM     17  C   UNL A   1      39.743  24.107  27.347  1.00  0.00     0.004 A 
ATOM     18  C   UNL A   1      38.504  22.014  25.956  1.00  0.00     0.010 A 
ATOM     19  C   UNL A   1      38.464  24.289  26.820  1.00  0.00     0.010 A 
ENDBRANCH   9  13
BRANCH  12  20
ATOM     20  C   UNL A   1      34.138  23.308  22.904  1.00  0.00     0.045 C 
BRANCH  20  21
ATOM     21  C   UNL A   1      32.991  24.102  22.275  1.00  0.00     0.106 C 
ATOM     22  C   UNL A   1      33.298  25.552  22.377  1.00  0.00    -0.003 C 
ATOM     23  C   UNL A   1      31.608  23.755  22.865  1.00  0.00     0.253 C 
ATOM     24  C   UNL A   1      32.376  26.488  22.547  1.00  0.00    -0.003 A 
ATOM     25  N   UNL A   1      30.682  24.762  23.052  1.00  0.00    -0.212 NA
ATOM     26  O   UNL A   1      31.337  22.584  23.130  1.00  0.00    -0.272 OA
ATOM     27  C   UNL A   1      32.675  27.884  22.372  1.00  0.00     0.010 A 
ATOM     28  C   UNL A   1      31.023  26.004  22.923  1.00  0.00     0.077 A 
ATOM     29  C   UNL A   1      31.724  28.796  22.589  1.00  0.00     0.001 A 
ATOM     30  C   UNL A   1      30.060  27.112  23.252  1.00  0.00    -0.025 A 
ATOM     31  C   UNL A   1      30.427  28.397  23.083  1.00  0.00     0.005 A 
ATOM     32  C   UNL A   1      28.765  26.712  23.879  1.00  0.00     0.047 C 
ENDBRANCH  20  21
ENDBRANCH  12  20
ENDBRANCH   6   8
ENDBRANCH   5   6
ENDBRANCH   4   5
ENDBRANCH   2   4
ENDBRANCH   1   2
BRANCH   1  33
ATOM     33  C   UNL A   1      32.966  29.432  26.113  1.00  0.00     0.274 C 
BRANCH  33  34
ATOM     34  C   UNL A   1      32.510  30.719  26.885  1.00  0.00     0.275 C 
BRANCH  34  35
ATOM     35  O   UNL A   1      33.214  31.429  27.952  1.00  0.00    -0.458 OA
BRANCH  35  36
ATOM     36  C   UNL A   1      34.044  32.522  28.008  1.00  0.00     0.338 C 
ATOM     37  O   UNL A   1      33.652  33.650  28.168  1.00  0.00    -0.246 OA
BRANCH  36  38
ATOM     38  C   UNL A   1      35.488  32.221  27.997  1.00  0.00     0.060 A 
ATOM     39  C   UNL A   1      36.447  33.215  28.293  1.00  0.00     0.016 A 
ATOM     40  C   UNL A   1      35.808  30.891  28.021  1.00  0.00     0.016 A 
ATOM     41  C   UNL A   1      37.693  32.847  28.828  1.00  0.00     0.010 A 
ATOM     42  C   UNL A   1      36.911  30.565  28.755  1.00  0.00     0.010 A 
ATOM     43  C   UNL A   1      37.901  31.504  29.123  1.00  0.00    -0.014 A 
BRANCH  43  44
ATOM     44  C   UNL A   1      39.120  30.842  29.607  1.00  0.00     0.031 A 
ATOM     45  C   UNL A   1      39.782  29.637  29.060  1.00  0.00     0.074 A 
ATOM     46  C   UNL A   1      39.782  31.630  30.487  1.00  0.00     0.049 A 
ATOM     47  N   UNL A   1      40.683  28.969  29.702  1.00  0.00    -0.248 NA
ATOM     48  C   UNL A   1      39.547  29.086  27.736  1.00  0.00     0.031 C 
ATOM     49  C   UNL A   1      41.169  31.636  30.904  1.00  0.00     0.029 A 
ATOM     50  N   UNL A   1      39.213  32.680  31.228  1.00  0.00    -0.354 N 
ATOM     51  C   UNL A   1      41.323  28.128  28.812  1.00  0.00     0.074 A 
ATOM     52  C   UNL A   1      40.514  28.162  27.620  1.00  0.00     0.031 C 
ATOM     53  C   UNL A   1      41.274  32.399  32.010  1.00  0.00     0.029 A 
ATOM     54  C   UNL A   1      39.921  32.773  32.414  1.00  0.00     0.049 A 
ATOM     55  H   UNL A   1      38.452  33.242  30.955  1.00  0.00     0.167 HD
ATOM     56  C   UNL A   1      42.550  27.620  29.132  1.00  0.00     0.037 A 
ATOM     57  C   UNL A   1      39.254  32.418  33.550  1.00  0.00     0.037 A 
ATOM     58  C   UNL A   1      42.988  28.151  30.418  1.00  0.00     0.049 A 
ATOM     59  C   UNL A   1      39.920  31.227  34.168  1.00  0.00     0.074 A 
ATOM     60  C   UNL A   1      43.818  29.213  30.739  1.00  0.00     0.029 A 
ATOM     61  N   UNL A   1      42.293  27.823  31.574  1.00  0.00    -0.354 N 
ATOM     62  N   UNL A   1      40.560  30.320  33.485  1.00  0.00    -0.248 NA
ATOM     63  C   UNL A   1      39.990  31.020  35.605  1.00  0.00     0.031 C 
ATOM     64  C   UNL A   1      43.577  29.561  32.091  1.00  0.00     0.029 A 
ATOM     65  C   UNL A   1      42.617  28.697  32.592  1.00  0.00     0.049 A 
ATOM     66  H   UNL A   1      41.659  27.074  31.656  1.00  0.00     0.167 HD
ATOM     67  C   UNL A   1      41.209  29.490  34.353  1.00  0.00     0.074 A 
ATOM     68  C   UNL A   1      40.792  29.944  35.668  1.00  0.00     0.031 C 
ATOM     69  C   UNL A   1      42.069  28.522  33.925  1.00  0.00     0.037 A 
BRANCH  56  70
ATOM     70  C   UNL A   1      43.486  26.869  28.203  1.00  0.00     0.064 A 
ATOM     71  C   UNL A   1      43.883  25.538  28.486  1.00  0.00     0.173 A 
ATOM     72  C   UNL A   1      44.009  27.392  27.007  1.00  0.00     0.173 A 
ATOM     73  F   UNL A   1      43.415  24.876  29.551  1.00  0.00    -0.203 F 
ATOM     74  C   UNL A   1      44.779  24.825  27.685  1.00  0.00     0.198 A 
ATOM     75  C   UNL A   1      44.933  26.688  26.219  1.00  0.00     0.198 A 
ATOM     76  F   UNL A   1      43.605  28.580  26.538  1.00  0.00    -0.203 F 
ATOM     77  F   UNL A   1      45.114  23.569  28.016  1.00  0.00    -0.200 F 
ATOM     78  C   UNL A   1      45.324  25.407  26.563  1.00  0.00     0.200 A 
ATOM     79  F   UNL A   1      45.440  27.258  25.116  1.00  0.00    -0.200 F 
ATOM     80  F   UNL A   1      46.202  24.733  25.807  1.00  0.00    -0.200 F 
ENDBRANCH  56  70
BRANCH  57  81
ATOM     81  C   UNL A   1      37.770  32.661  33.447  1.00  0.00     0.064 A 
ATOM     82  C   UNL A   1      37.291  33.969  33.695  1.00  0.00     0.173 A 
ATOM     83  C   UNL A   1      36.913  31.801  32.742  1.00  0.00     0.173 A 
ATOM     84  F   UNL A   1      38.077  34.860  34.322  1.00  0.00    -0.203 F 
ATOM     85  C   UNL A   1      36.073  34.420  33.181  1.00  0.00     0.198 A 
ATOM     86  C   UNL A   1      35.682  32.253  32.244  1.00  0.00     0.198 A 
ATOM     87  F   UNL A   1      37.300  30.554  32.442  1.00  0.00    -0.203 F 
ATOM     88  F   UNL A   1      35.716  35.703  33.336  1.00  0.00    -0.200 F 
ATOM     89  C   UNL A   1      35.277  33.566  32.440  1.00  0.00     0.200 A 
ATOM     90  F   UNL A   1      34.917  31.434  31.506  1.00  0.00    -0.200 F 
ATOM     91  F   UNL A   1      34.141  34.015  31.887  1.00  0.00    -0.200 F 
ENDBRANCH  57  81
BRANCH  69  92
ATOM     92  C   UNL A   1      42.562  27.364  34.746  1.00  0.00     0.064 A 
ATOM     93  C   UNL A   1      41.774  26.240  35.035  1.00  0.00     0.173 A 
ATOM     94  C   UNL A   1      43.930  27.266  35.100  1.00  0.00     0.173 A 
ATOM     95  F   UNL A   1      40.495  26.163  34.648  1.00  0.00    -0.203 F 
ATOM     96  C   UNL A   1      42.304  25.119  35.674  1.00  0.00     0.198 A 
ATOM     97  C   UNL A   1      44.468  26.117  35.672  1.00  0.00     0.198 A 
ATOM     98  F   UNL A   1      44.797  28.261  34.863  1.00  0.00    -0.203 F 
ATOM     99  F   UNL A   1      41.502  24.086  35.961  1.00  0.00    -0.200 F 
ATOM    100  C   UNL A   1      43.651  25.049  35.974  1.00  0.00     0.200 A 
ATOM    101  F   UNL A   1      45.787  26.045  35.902  1.00  0.00    -0.200 F 
ATOM    102  F   UNL A   1      44.165  23.944  36.527  1.00  0.00    -0.200 F 
ENDBRANCH  69  92
ENDBRANCH  43  44
ENDBRANCH  36  38
ENDBRANCH  35  36
ENDBRANCH  34  35
ENDBRANCH  33  34
ENDBRANCH   1  33
TORSDOF 17
ENDMDL
MODEL 2
REMARK VINA RESULT:     -13.7      2.621      4.511
REMARK SMILES Cc1ccc(C2=NN(C(=O)CCC(=O)OCCOC(=O)c3ccc(-c4c5nc(c(-c6c(F)c(F)c(F)c(F)c6F)c6ccc([nH]6)c(-c6c(F)c(F)c(F)c(F)c6F)c6nc(c(-c7c(F)c(F)c(F)c(F)c7F)c7ccc4[nH]7)C=C6)C=C5)cc3)[C@H](C[C@@H]3C=c4cccc(C)c4=NC3=O)C2)cc1
REMARK SMILES IDX 15 1 13 2 14 3 12 4 11 5 9 6 10 7 8 8 6 9 7 10 98 11 84 12
REMARK SMILES IDX 5 13 1 14 2 15 3 16 100 17 4 18 99 19 85 20 86 21 87 22
REMARK SMILES IDX 96 23 88 24 95 25 97 26 89 27 94 28 90 29 92 30 91 31 93 32
REMARK SMILES IDX 16 33 17 34 18 35 19 36 20 37 21 38 22 39 83 40 23 41 82 42
REMARK SMILES IDX 24 43 25 44 26 45 76 46 27 47 81 48 75 49 77 50 28 51 80 52
REMARK SMILES IDX 74 53 73 54 29 56 61 57 41 58 60 59 42 60 45 61 59 62 78 63
REMARK SMILES IDX 43 64 44 65 58 67 79 68 46 69 30 70 31 71 39 72 32 73 33 74
REMARK SMILES IDX 37 75 40 76 34 77 35 78 38 79 36 80 62 81 63 82 71 83 64 84
REMARK SMILES IDX 65 85 69 86 72 87 66 88 67 89 70 90 68 91 47 92 48 93 56 94
REMARK SMILES IDX 49 95 50 96 54 97 57 98 51 99 52 100 55 101 53 102
REMARK H PARENT 77 55 45 66
REMARK Flexibility Score: inf
ROOT
ATOM      1  O   UNL A   1      32.327  28.794  26.082  1.00  0.00    -0.462 OA
ENDROOT
BRANCH   1   2
ATOM      2  C   UNL A   1      32.794  27.539  26.199  1.00  0.00     0.306 C 
ATOM      3  O   UNL A   1      33.950  27.193  26.052  1.00  0.00    -0.252 OA
BRANCH   2   4
ATOM      4  C   UNL A   1      31.776  26.581  26.715  1.00  0.00     0.132 C 
BRANCH   4   5
ATOM      5  C   UNL A   1      32.473  25.245  26.869  1.00  0.00     0.114 C 
BRANCH   5   6
ATOM      6  C   UNL A   1      31.603  24.141  26.313  1.00  0.00     0.243 C 
ATOM      7  O   UNL A   1      30.673  23.750  27.030  1.00  0.00    -0.273 OA
BRANCH   6   8
ATOM      8  N   UNL A   1      31.909  23.531  25.098  1.00  0.00    -0.230 N 
ATOM      9  C   UNL A   1      32.577  21.690  24.178  1.00  0.00     0.070 C 
ATOM     10  N   UNL A   1      32.028  22.163  25.242  1.00  0.00    -0.174 NA
ATOM     11  C   UNL A   1      32.787  22.644  23.061  1.00  0.00     0.086 C 
ATOM     12  C   UNL A   1      32.491  23.966  23.784  1.00  0.00     0.118 C 
BRANCH   9  13
ATOM     13  C   UNL A   1      32.922  20.284  24.041  1.00  0.00    -0.002 A 
ATOM     14  C   UNL A   1      34.106  16.200  23.618  1.00  0.00     0.044 C 
ATOM     15  C   UNL A   1      33.679  17.632  23.749  1.00  0.00    -0.051 A 
ATOM     16  C   UNL A   1      34.445  18.503  24.538  1.00  0.00     0.004 A 
ATOM     17  C   UNL A   1      32.534  18.110  23.095  1.00  0.00     0.004 A 
ATOM     18  C   UNL A   1      34.070  19.834  24.682  1.00  0.00     0.010 A 
ATOM     19  C   UNL A   1      32.151  19.444  23.236  1.00  0.00     0.010 A 
ENDBRANCH   9  13
BRANCH  12  20
ATOM     20  C   UNL A   1      31.746  24.904  22.805  1.00  0.00     0.045 C 
BRANCH  20  21
ATOM     21  C   UNL A   1      31.252  26.232  23.384  1.00  0.00     0.106 C 
ATOM     22  C   UNL A   1      29.780  26.157  23.572  1.00  0.00    -0.003 C 
ATOM     23  C   UNL A   1      31.673  27.460  22.549  1.00  0.00     0.253 C 
ATOM     24  C   UNL A   1      28.967  27.192  23.428  1.00  0.00    -0.003 A 
ATOM     25  N   UNL A   1      30.788  28.510  22.400  1.00  0.00    -0.212 NA
ATOM     26  O   UNL A   1      32.799  27.502  22.055  1.00  0.00    -0.272 OA
ATOM     27  C   UNL A   1      27.601  27.148  23.875  1.00  0.00     0.010 A 
ATOM     28  C   UNL A   1      29.556  28.393  22.784  1.00  0.00     0.077 A 
ATOM     29  C   UNL A   1      26.807  28.203  23.678  1.00  0.00     0.001 A 
ATOM     30  C   UNL A   1      28.552  29.479  22.508  1.00  0.00    -0.025 A 
ATOM     31  C   UNL A   1      27.283  29.349  22.940  1.00  0.00     0.005 A 
ATOM     32  C   UNL A   1      29.004  30.608  21.640  1.00  0.00     0.047 C 
ENDBRANCH  20  21
ENDBRANCH  12  20
ENDBRANCH   6   8
ENDBRANCH   5   6
ENDBRANCH   4   5
ENDBRANCH   2   4
ENDBRANCH   1   2
BRANCH   1  33
ATOM     33  C   UNL A   1      32.538  29.837  27.061  1.00  0.00     0.274 C 
BRANCH  33  34
ATOM     34  C   UNL A   1      33.817  30.719  27.271  1.00  0.00     0.275 C 
BRANCH  34  35
ATOM     35  O   UNL A   1      34.337  31.273  28.522  1.00  0.00    -0.458 OA
BRANCH  35  36
ATOM     36  C   UNL A   1      35.557  31.268  29.153  1.00  0.00     0.338 C 
ATOM     37  O   UNL A   1      35.859  32.042  30.025  1.00  0.00    -0.246 OA
BRANCH  36  38
ATOM     38  C   UNL A   1      36.450  30.151  28.794  1.00  0.00     0.060 A 
ATOM     39  C   UNL A   1      37.154  30.139  27.569  1.00  0.00     0.016 A 
ATOM     40  C   UNL A   1      36.805  29.330  29.829  1.00  0.00     0.016 A 
ATOM     41  C   UNL A   1      38.367  29.436  27.468  1.00  0.00     0.010 A 
ATOM     42  C   UNL A   1      38.085  28.859  29.794  1.00  0.00     0.010 A 
ATOM     43  C   UNL A   1      38.871  28.842  28.620  1.00  0.00    -0.014 A 
BRANCH  43  44
ATOM     44  C   UNL A   1      40.059  27.993  28.777  1.00  0.00     0.031 A 
ATOM     45  C   UNL A   1      40.193  26.548  28.488  1.00  0.00     0.074 A 
ATOM     46  C   UNL A   1      41.170  28.744  28.966  1.00  0.00     0.049 A 
ATOM     47  N   UNL A   1      41.179  25.828  28.908  1.00  0.00    -0.248 NA
ATOM     48  C   UNL A   1      39.275  25.774  27.668  1.00  0.00     0.031 C 
ATOM     49  C   UNL A   1      42.570  28.442  28.758  1.00  0.00     0.029 A 
ATOM     50  N   UNL A   1      41.187  30.068  29.438  1.00  0.00    -0.354 N 
ATOM     51  C   UNL A   1      41.184  24.637  28.207  1.00  0.00     0.074 A 
ATOM     52  C   UNL A   1      39.919  24.607  27.517  1.00  0.00     0.031 C 
ATOM     53  C   UNL A   1      43.303  29.394  29.370  1.00  0.00     0.029 A 
ATOM     54  C   UNL A   1      42.380  30.244  30.117  1.00  0.00     0.049 A 
ATOM     55  H   UNL A   1      40.481  30.742  29.310  1.00  0.00     0.167 HD
ATOM     56  C   UNL A   1      42.324  23.885  28.168  1.00  0.00     0.037 A 
ATOM     57  C   UNL A   1      42.292  30.404  31.469  1.00  0.00     0.037 A 
ATOM     58  C   UNL A   1      43.397  24.570  28.881  1.00  0.00     0.049 A 
ATOM     59  C   UNL A   1      42.987  29.267  32.153  1.00  0.00     0.074 A 
ATOM     60  C   UNL A   1      44.426  25.381  28.434  1.00  0.00     0.029 A 
ATOM     61  N   UNL A   1      43.298  24.769  30.251  1.00  0.00    -0.354 N 
ATOM     62  N   UNL A   1      43.080  28.068  31.650  1.00  0.00    -0.248 NA
ATOM     63  C   UNL A   1      43.703  29.421  33.408  1.00  0.00     0.031 C 
ATOM     64  C   UNL A   1      44.915  26.116  29.541  1.00  0.00     0.029 A 
ATOM     65  C   UNL A   1      44.194  25.735  30.661  1.00  0.00     0.049 A 
ATOM     66  H   UNL A   1      42.676  24.289  30.846  1.00  0.00     0.167 HD
ATOM     67  C   UNL A   1      43.933  27.331  32.420  1.00  0.00     0.074 A 
ATOM     68  C   UNL A   1      44.267  28.208  33.529  1.00  0.00     0.031 C 
ATOM     69  C   UNL A   1      44.330  26.076  32.066  1.00  0.00     0.037 A 
BRANCH  56  70
ATOM     70  C   UNL A   1      42.580  22.679  27.283  1.00  0.00     0.064 A 
ATOM     71  C   UNL A   1      41.851  21.476  27.459  1.00  0.00     0.173 A 
ATOM     72  C   UNL A   1      43.508  22.649  26.227  1.00  0.00     0.173 A 
ATOM     73  F   UNL A   1      40.883  21.368  28.377  1.00  0.00    -0.203 F 
ATOM     74  C   UNL A   1      42.086  20.326  26.700  1.00  0.00     0.198 A 
ATOM     75  C   UNL A   1      43.766  21.485  25.485  1.00  0.00     0.198 A 
ATOM     76  F   UNL A   1      44.160  23.757  25.849  1.00  0.00    -0.203 F 
ATOM     77  F   UNL A   1      41.361  19.221  26.926  1.00  0.00    -0.200 F 
ATOM     78  C   UNL A   1      43.059  20.322  25.727  1.00  0.00     0.200 A 
ATOM     79  F   UNL A   1      44.701  21.501  24.525  1.00  0.00    -0.200 F 
ATOM     80  F   UNL A   1      43.301  19.213  25.014  1.00  0.00    -0.200 F 
ENDBRANCH  56  70
BRANCH  57  81
ATOM     81  C   UNL A   1      40.994  31.044  31.891  1.00  0.00     0.064 A 
ATOM     82  C   UNL A   1      40.014  30.224  32.500  1.00  0.00     0.173 A 
ATOM     83  C   UNL A   1      40.866  32.428  32.088  1.00  0.00     0.173 A 
ATOM     84  F   UNL A   1      40.103  28.888  32.393  1.00  0.00    -0.203 F 
ATOM     85  C   UNL A   1      39.029  30.748  33.338  1.00  0.00     0.198 A 
ATOM     86  C   UNL A   1      39.862  32.952  32.916  1.00  0.00     0.198 A 
ATOM     87  F   UNL A   1      41.765  33.273  31.569  1.00  0.00    -0.203 F 
ATOM     88  F   UNL A   1      38.198  29.924  33.992  1.00  0.00    -0.200 F 
ATOM     89  C   UNL A   1      38.963  32.112  33.560  1.00  0.00     0.200 A 
ATOM     90  F   UNL A   1      39.809  34.271  33.150  1.00  0.00    -0.200 F 
ATOM     91  F   UNL A   1      38.062  32.612  34.418  1.00  0.00    -0.200 F 
ENDBRANCH  57  81
BRANCH  69  92
ATOM     92  C   UNL A   1      44.976  25.072  32.978  1.00  0.00     0.064 A 
ATOM     93  C   UNL A   1      46.365  24.910  33.078  1.00  0.00     0.173 A 
ATOM     94  C   UNL A   1      44.203  24.374  33.939  1.00  0.00     0.173 A 
ATOM     95  F   UNL A   1      47.208  25.604  32.303  1.00  0.00    -0.203 F 
ATOM     96  C   UNL A   1      46.938  24.076  34.037  1.00  0.00     0.198 A 
ATOM     97  C   UNL A   1      44.784  23.600  34.938  1.00  0.00     0.198 A 
ATOM     98  F   UNL A   1      42.864  24.456  33.968  1.00  0.00    -0.203 F 
ATOM     99  F   UNL A   1      48.269  23.926  34.068  1.00  0.00    -0.200 F 
ATOM    100  C   UNL A   1      46.152  23.438  34.978  1.00  0.00     0.200 A 
ATOM    101  F   UNL A   1      44.010  23.037  35.877  1.00  0.00    -0.200 F 
ATOM    102  F   UNL A   1      46.714  22.691  35.935  1.00  0.00    -0.200 F 
ENDBRANCH  69  92
ENDBRANCH  43  44
ENDBRANCH  36  38
ENDBRANCH  35  36
ENDBRANCH  34  35
ENDBRANCH  33  34
ENDBRANCH   1  33
TORSDOF 17
ENDMDL
MODEL 3
REMARK VINA RESULT:     -13.7      3.503      8.963
REMARK SMILES Cc1ccc(C2=NN(C(=O)CCC(=O)OCCOC(=O)c3ccc(-c4c5nc(c(-c6c(F)c(F)c(F)c(F)c6F)c6ccc([nH]6)c(-c6c(F)c(F)c(F)c(F)c6F)c6nc(c(-c7c(F)c(F)c(F)c(F)c7F)c7ccc4[nH]7)C=C6)C=C5)cc3)[C@H](C[C@@H]3C=c4cccc(C)c4=NC3=O)C2)cc1
REMARK SMILES IDX 15 1 13 2 14 3 12 4 11 5 9 6 10 7 8 8 6 9 7 10 98 11 84 12
REMARK SMILES IDX 5 13 1 14 2 15 3 16 100 17 4 18 99 19 85 20 86 21 87 22
REMARK SMILES IDX 96 23 88 24 95 25 97 26 89 27 94 28 90 29 92 30 91 31 93 32
REMARK SMILES IDX 16 33 17 34 18 35 19 36 20 37 21 38 22 39 83 40 23 41 82 42
REMARK SMILES IDX 24 43 25 44 26 45 76 46 27 47 81 48 75 49 77 50 28 51 80 52
REMARK SMILES IDX 74 53 73 54 29 56 61 57 41 58 60 59 42 60 45 61 59 62 78 63
REMARK SMILES IDX 43 64 44 65 58 67 79 68 46 69 30 70 31 71 39 72 32 73 33 74
REMARK SMILES IDX 37 75 40 76 34 77 35 78 38 79 36 80 62 81 63 82 71 83 64 84
REMARK SMILES IDX 65 85 69 86 72 87 66 88 67 89 70 90 68 91 47 92 48 93 56 94
REMARK SMILES IDX 49 95 50 96 54 97 57 98 51 99 52 100 55 101 53 102
REMARK H PARENT 77 55 45 66
REMARK Flexibility Score: inf
ROOT
ATOM      1  O   UNL A   1      37.368  23.299  24.980  1.00  0.00    -0.462 OA
ENDROOT
BRANCH   1   2
ATOM      2  C   UNL A   1      36.598  23.392  23.883  1.00  0.00     0.306 C 
ATOM      3  O   UNL A   1      36.671  22.680  22.900  1.00  0.00    -0.252 OA
BRANCH   2   4
ATOM      4  C   UNL A   1      35.483  24.369  24.030  1.00  0.00     0.132 C 
BRANCH   4   5
ATOM      5  C   UNL A   1      35.115  24.394  25.499  1.00  0.00     0.114 C 
BRANCH   5   6
ATOM      6  C   UNL A   1      33.630  24.171  25.664  1.00  0.00     0.243 C 
ATOM      7  O   UNL A   1      33.044  24.899  26.476  1.00  0.00    -0.273 OA
BRANCH   6   8
ATOM      8  N   UNL A   1      32.984  23.125  25.007  1.00  0.00    -0.230 N 
ATOM      9  C   UNL A   1      33.079  21.010  24.561  1.00  0.00     0.070 C 
ATOM     10  N   UNL A   1      33.503  21.902  25.386  1.00  0.00    -0.174 NA
ATOM     11  C   UNL A   1      32.073  21.453  23.564  1.00  0.00     0.086 C 
ATOM     12  C   UNL A   1      32.157  22.974  23.764  1.00  0.00     0.118 C 
BRANCH   9  13
ATOM     13  C   UNL A   1      33.508  19.622  24.629  1.00  0.00    -0.002 A 
ATOM     14  C   UNL A   1      34.654  15.519  24.963  1.00  0.00     0.044 C 
ATOM     15  C   UNL A   1      34.271  16.965  24.852  1.00  0.00    -0.051 A 
ATOM     16  C   UNL A   1      32.915  17.319  24.919  1.00  0.00     0.004 A 
ATOM     17  C   UNL A   1      35.244  17.962  24.686  1.00  0.00     0.004 A 
ATOM     18  C   UNL A   1      32.531  18.651  24.813  1.00  0.00     0.010 A 
ATOM     19  C   UNL A   1      34.865  19.300  24.577  1.00  0.00     0.010 A 
ENDBRANCH   9  13
BRANCH  12  20
ATOM     20  C   UNL A   1      30.734  23.566  23.624  1.00  0.00     0.045 C 
BRANCH  20  21
ATOM     21  C   UNL A   1      30.651  25.066  23.333  1.00  0.00     0.106 C 
ATOM     22  C   UNL A   1      31.907  25.497  22.665  1.00  0.00    -0.003 C 
ATOM     23  C   UNL A   1      30.330  25.917  24.579  1.00  0.00     0.253 C 
ATOM     24  C   UNL A   1      32.457  26.689  22.835  1.00  0.00    -0.003 A 
ATOM     25  N   UNL A   1      30.943  27.144  24.734  1.00  0.00    -0.212 NA
ATOM     26  O   UNL A   1      29.509  25.507  25.399  1.00  0.00    -0.272 OA
ATOM     27  C   UNL A   1      33.511  27.164  21.979  1.00  0.00     0.010 A 
ATOM     28  C   UNL A   1      31.917  27.498  23.957  1.00  0.00     0.077 A 
ATOM     29  C   UNL A   1      34.061  28.359  22.209  1.00  0.00     0.001 A 
ATOM     30  C   UNL A   1      32.679  28.772  24.199  1.00  0.00    -0.025 A 
ATOM     31  C   UNL A   1      33.670  29.134  23.362  1.00  0.00     0.005 A 
ATOM     32  C   UNL A   1      32.365  29.515  25.456  1.00  0.00     0.047 C 
ENDBRANCH  20  21
ENDBRANCH  12  20
ENDBRANCH   6   8
ENDBRANCH   5   6
ENDBRANCH   4   5
ENDBRANCH   2   4
ENDBRANCH   1   2
BRANCH   1  33
ATOM     33  C   UNL A   1      37.901  22.059  25.499  1.00  0.00     0.274 C 
BRANCH  33  34
ATOM     34  C   UNL A   1      39.305  21.810  26.153  1.00  0.00     0.275 C 
BRANCH  34  35
ATOM     35  O   UNL A   1      40.109  22.740  26.947  1.00  0.00    -0.458 OA
BRANCH  35  36
ATOM     36  C   UNL A   1      40.744  23.931  26.697  1.00  0.00     0.338 C 
ATOM     37  O   UNL A   1      41.744  24.027  26.031  1.00  0.00    -0.246 OA
BRANCH  36  38
ATOM     38  C   UNL A   1      40.045  25.135  27.184  1.00  0.00     0.060 A 
ATOM     39  C   UNL A   1      39.317  25.121  28.395  1.00  0.00     0.016 A 
ATOM     40  C   UNL A   1      40.420  26.309  26.591  1.00  0.00     0.016 A 
ATOM     41  C   UNL A   1      39.150  26.311  29.124  1.00  0.00     0.010 A 
ATOM     42  C   UNL A   1      40.460  27.397  27.414  1.00  0.00     0.010 A 
ATOM     43  C   UNL A   1      39.788  27.454  28.655  1.00  0.00    -0.014 A 
BRANCH  43  44
ATOM     44  C   UNL A   1      39.719  28.827  29.169  1.00  0.00     0.031 A 
ATOM     45  C   UNL A   1      38.658  29.834  28.943  1.00  0.00     0.074 A 
ATOM     46  C   UNL A   1      40.630  29.024  30.152  1.00  0.00     0.049 A 
ATOM     47  N   UNL A   1      38.806  31.092  29.201  1.00  0.00    -0.248 NA
ATOM     48  C   UNL A   1      37.321  29.540  28.455  1.00  0.00     0.031 C 
ATOM     49  C   UNL A   1      40.684  30.001  31.219  1.00  0.00     0.029 A 
ATOM     50  N   UNL A   1      41.794  28.261  30.347  1.00  0.00    -0.354 N 
ATOM     51  C   UNL A   1      37.559  31.689  29.197  1.00  0.00     0.074 A 
ATOM     52  C   UNL A   1      36.676  30.704  28.627  1.00  0.00     0.031 C 
ATOM     53  C   UNL A   1      41.925  29.982  31.746  1.00  0.00     0.029 A 
ATOM     54  C   UNL A   1      42.739  29.095  30.919  1.00  0.00     0.049 A 
ATOM     55  H   UNL A   1      41.913  27.310  30.119  1.00  0.00     0.167 HD
ATOM     56  C   UNL A   1      37.391  32.894  29.820  1.00  0.00     0.037 A 
ATOM     57  C   UNL A   1      43.812  29.421  30.142  1.00  0.00     0.037 A 
ATOM     58  C   UNL A   1      38.638  33.305  30.454  1.00  0.00     0.049 A 
ATOM     59  C   UNL A   1      43.817  30.897  29.890  1.00  0.00     0.074 A 
ATOM     60  C   UNL A   1      39.092  33.178  31.756  1.00  0.00     0.029 A 
ATOM     61  N   UNL A   1      39.745  33.603  29.671  1.00  0.00    -0.354 N 
ATOM     62  N   UNL A   1      42.737  31.626  29.838  1.00  0.00    -0.248 NA
ATOM     63  C   UNL A   1      45.040  31.672  29.769  1.00  0.00     0.031 C 
ATOM     64  C   UNL A   1      40.499  33.349  31.745  1.00  0.00     0.029 A 
ATOM     65  C   UNL A   1      40.891  33.598  30.440  1.00  0.00     0.049 A 
ATOM     66  H   UNL A   1      39.717  33.791  28.705  1.00  0.00     0.167 HD
ATOM     67  C   UNL A   1      43.095  32.942  29.791  1.00  0.00     0.074 A 
ATOM     68  C   UNL A   1      44.545  32.920  29.712  1.00  0.00     0.031 C 
ATOM     69  C   UNL A   1      42.176  33.947  29.863  1.00  0.00     0.037 A 
BRANCH  56  70
ATOM     70  C   UNL A   1      36.070  33.585  30.103  1.00  0.00     0.064 A 
ATOM     71  C   UNL A   1      35.283  34.117  29.050  1.00  0.00     0.173 A 
ATOM     72  C   UNL A   1      35.508  33.735  31.384  1.00  0.00     0.173 A 
ATOM     73  F   UNL A   1      35.647  33.993  27.768  1.00  0.00    -0.203 F 
ATOM     74  C   UNL A   1      34.086  34.804  29.268  1.00  0.00     0.198 A 
ATOM     75  C   UNL A   1      34.321  34.451  31.605  1.00  0.00     0.198 A 
ATOM     76  F   UNL A   1      36.065  33.153  32.454  1.00  0.00    -0.203 F 
ATOM     77  F   UNL A   1      33.396  35.286  28.223  1.00  0.00    -0.200 F 
ATOM     78  C   UNL A   1      33.614  34.992  30.547  1.00  0.00     0.200 A 
ATOM     79  F   UNL A   1      33.861  34.609  32.855  1.00  0.00    -0.200 F 
ATOM     80  F   UNL A   1      32.478  35.670  30.759  1.00  0.00    -0.200 F 
ENDBRANCH  56  70
BRANCH  57  81
ATOM     81  C   UNL A   1      44.151  28.341  29.145  1.00  0.00     0.064 A 
ATOM     82  C   UNL A   1      43.809  28.556  27.789  1.00  0.00     0.173 A 
ATOM     83  C   UNL A   1      45.119  27.357  29.401  1.00  0.00     0.173 A 
ATOM     84  F   UNL A   1      42.926  29.516  27.467  1.00  0.00    -0.203 F 
ATOM     85  C   UNL A   1      44.470  27.900  26.748  1.00  0.00     0.198 A 
ATOM     86  C   UNL A   1      45.766  26.687  28.353  1.00  0.00     0.198 A 
ATOM     87  F   UNL A   1      45.519  27.109  30.656  1.00  0.00    -0.203 F 
ATOM     88  F   UNL A   1      44.200  28.224  25.475  1.00  0.00    -0.200 F 
ATOM     89  C   UNL A   1      45.461  26.977  27.030  1.00  0.00     0.200 A 
ATOM     90  F   UNL A   1      46.742  25.808  28.622  1.00  0.00    -0.200 F 
ATOM     91  F   UNL A   1      46.143  26.397  26.033  1.00  0.00    -0.200 F 
ENDBRANCH  57  81
BRANCH  69  92
ATOM     92  C   UNL A   1      42.418  35.383  29.491  1.00  0.00     0.064 A 
ATOM     93  C   UNL A   1      43.252  36.236  30.228  1.00  0.00     0.173 A 
ATOM     94  C   UNL A   1      41.966  35.887  28.246  1.00  0.00     0.173 A 
ATOM     95  F   UNL A   1      43.835  35.834  31.364  1.00  0.00    -0.203 F 
ATOM     96  C   UNL A   1      43.572  37.516  29.778  1.00  0.00     0.198 A 
ATOM     97  C   UNL A   1      42.346  37.137  27.770  1.00  0.00     0.198 A 
ATOM     98  F   UNL A   1      41.178  35.167  27.433  1.00  0.00    -0.203 F 
ATOM     99  F   UNL A   1      44.342  38.307  30.537  1.00  0.00    -0.200 F 
ATOM    100  C   UNL A   1      43.137  37.959  28.543  1.00  0.00     0.200 A 
ATOM    101  F   UNL A   1      41.964  37.525  26.544  1.00  0.00    -0.200 F 
ATOM    102  F   UNL A   1      43.502  39.163  28.089  1.00  0.00    -0.200 F 
ENDBRANCH  69  92
ENDBRANCH  43  44
ENDBRANCH  36  38
ENDBRANCH  35  36
ENDBRANCH  34  35
ENDBRANCH  33  34
ENDBRANCH   1  33
TORSDOF 17
ENDMDL
