MODEL 1
REMARK VINA RESULT:     -12.2      0.000      0.000
REMARK SMILES O=C(OCCOC(=O)[C@@H](Cc1ccc(F)cc1F)c1ccccc1Cl)c1ccc(-c2c3nc(c(-c4c(F)c(F)c(F)c(F)c4F)c4ccc([nH]4)c(-c4c(F)c(F)c(F)c(F)c4F)c4nc(c(-c5c(F)c(F)c(F)c(F)c5F)c5ccc2[nH]5)C=C4)C=C3)cc1
REMARK SMILES IDX 4 1 3 2 2 3 1 4 26 5 27 6 88 7 28 8 87 9 29 10 30 11 31 12
REMARK SMILES IDX 81 13 32 14 86 15 80 16 82 17 33 18 85 19 79 20 78 21 34 23
REMARK SMILES IDX 66 24 46 25 65 26 47 27 50 28 64 29 83 30 48 31 49 32 63 34
REMARK SMILES IDX 84 35 51 36 35 37 36 38 44 39 37 40 38 41 42 42 45 43 39 44
REMARK SMILES IDX 40 45 43 46 41 47 67 48 68 49 76 50 69 51 70 52 74 53 77 54
REMARK SMILES IDX 71 55 72 56 75 57 73 58 52 59 53 60 61 61 54 62 55 63 59 64
REMARK SMILES IDX 62 65 56 66 57 67 60 68 58 69 5 70 6 71 7 72 8 73 9 74 10 75
REMARK SMILES IDX 11 76 12 77 17 78 13 79 16 80 18 81 14 82 15 83 19 84 20 85
REMARK SMILES IDX 24 86 21 87 23 88 25 89 22 90
REMARK H PARENT 82 22 50 33
REMARK Flexibility Score: inf
ROOT
ATOM      1  C   UNL A   1      31.431  31.953  26.876  1.00  0.00     0.275 C 
ENDROOT
BRANCH   1   2
ATOM      2  O   UNL A   1      32.191  33.179  27.071  1.00  0.00    -0.458 OA
BRANCH   2   3
ATOM      3  C   UNL A   1      33.063  33.581  28.035  1.00  0.00     0.338 C 
ATOM      4  O   UNL A   1      32.857  34.627  28.645  1.00  0.00    -0.246 OA
BRANCH   3   5
ATOM      5  C   UNL A   1      34.386  32.922  28.254  1.00  0.00     0.060 A 
ATOM      6  C   UNL A   1      35.608  33.538  28.027  1.00  0.00     0.016 A 
ATOM      7  C   UNL A   1      34.410  31.574  28.673  1.00  0.00     0.016 A 
ATOM      8  C   UNL A   1      36.800  32.884  28.419  1.00  0.00     0.010 A 
ATOM      9  C   UNL A   1      35.609  30.928  29.082  1.00  0.00     0.010 A 
ATOM     10  C   UNL A   1      36.828  31.612  29.064  1.00  0.00    -0.014 A 
BRANCH  10  11
ATOM     11  C   UNL A   1      38.137  31.102  29.698  1.00  0.00     0.031 A 
ATOM     12  C   UNL A   1      38.398  31.458  31.123  1.00  0.00     0.074 A 
ATOM     13  C   UNL A   1      38.981  30.153  29.199  1.00  0.00     0.049 A 
ATOM     14  N   UNL A   1      39.188  30.870  31.982  1.00  0.00    -0.248 NA
ATOM     15  C   UNL A   1      37.613  32.573  31.661  1.00  0.00     0.031 C 
ATOM     16  C   UNL A   1      38.871  29.561  27.891  1.00  0.00     0.029 A 
ATOM     17  N   UNL A   1      40.037  29.427  29.747  1.00  0.00    -0.354 N 
ATOM     18  C   UNL A   1      38.942  31.491  33.185  1.00  0.00     0.074 A 
ATOM     19  C   UNL A   1      37.918  32.492  32.946  1.00  0.00     0.031 C 
ATOM     20  C   UNL A   1      39.647  28.476  27.776  1.00  0.00     0.029 A 
ATOM     21  C   UNL A   1      40.497  28.387  28.948  1.00  0.00     0.049 A 
ATOM     22  H   UNL A   1      40.425  29.634  30.628  1.00  0.00     0.167 HD
ATOM     23  C   UNL A   1      39.536  31.285  34.380  1.00  0.00     0.037 A 
ATOM     24  C   UNL A   1      41.494  27.476  29.069  1.00  0.00     0.037 A 
ATOM     25  C   UNL A   1      40.681  30.453  34.624  1.00  0.00     0.049 A 
ATOM     26  C   UNL A   1      42.330  27.473  30.315  1.00  0.00     0.074 A 
ATOM     27  C   UNL A   1      41.428  30.368  35.786  1.00  0.00     0.029 A 
ATOM     28  N   UNL A   1      41.289  29.620  33.699  1.00  0.00    -0.354 N 
ATOM     29  N   UNL A   1      42.099  28.099  31.439  1.00  0.00    -0.248 NA
ATOM     30  C   UNL A   1      43.565  26.669  30.318  1.00  0.00     0.031 C 
ATOM     31  C   UNL A   1      42.544  29.567  35.534  1.00  0.00     0.029 A 
ATOM     32  C   UNL A   1      42.445  29.076  34.245  1.00  0.00     0.049 A 
ATOM     33  H   UNL A   1      40.953  29.441  32.791  1.00  0.00     0.167 HD
ATOM     34  C   UNL A   1      43.142  27.758  32.284  1.00  0.00     0.074 A 
ATOM     35  C   UNL A   1      44.003  26.852  31.558  1.00  0.00     0.031 C 
ATOM     36  C   UNL A   1      43.340  28.181  33.554  1.00  0.00     0.037 A 
BRANCH  23  37
ATOM     37  C   UNL A   1      39.024  32.144  35.484  1.00  0.00     0.064 A 
ATOM     38  C   UNL A   1      38.177  31.588  36.451  1.00  0.00     0.173 A 
ATOM     39  C   UNL A   1      39.451  33.469  35.640  1.00  0.00     0.173 A 
ATOM     40  F   UNL A   1      37.782  30.310  36.348  1.00  0.00    -0.203 F 
ATOM     41  C   UNL A   1      37.771  32.334  37.547  1.00  0.00     0.198 A 
ATOM     42  C   UNL A   1      39.061  34.205  36.752  1.00  0.00     0.198 A 
ATOM     43  F   UNL A   1      40.309  34.012  34.763  1.00  0.00    -0.203 F 
ATOM     44  F   UNL A   1      36.974  31.781  38.470  1.00  0.00    -0.200 F 
ATOM     45  C   UNL A   1      38.221  33.638  37.701  1.00  0.00     0.200 A 
ATOM     46  F   UNL A   1      39.533  35.447  36.930  1.00  0.00    -0.200 F 
ATOM     47  F   UNL A   1      37.865  34.342  38.785  1.00  0.00    -0.200 F 
ENDBRANCH  23  37
BRANCH  24  48
ATOM     48  C   UNL A   1      41.827  26.521  27.957  1.00  0.00     0.064 A 
ATOM     49  C   UNL A   1      41.133  25.308  27.805  1.00  0.00     0.173 A 
ATOM     50  C   UNL A   1      42.801  26.819  26.988  1.00  0.00     0.173 A 
ATOM     51  F   UNL A   1      40.166  24.973  28.672  1.00  0.00    -0.203 F 
ATOM     52  C   UNL A   1      41.427  24.419  26.769  1.00  0.00     0.198 A 
ATOM     53  C   UNL A   1      43.068  25.945  25.930  1.00  0.00     0.198 A 
ATOM     54  F   UNL A   1      43.462  27.984  27.039  1.00  0.00    -0.203 F 
ATOM     55  F   UNL A   1      40.771  23.254  26.684  1.00  0.00    -0.200 F 
ATOM     56  C   UNL A   1      42.390  24.741  25.828  1.00  0.00     0.200 A 
ATOM     57  F   UNL A   1      43.970  26.280  24.996  1.00  0.00    -0.200 F 
ATOM     58  F   UNL A   1      42.653  23.898  24.820  1.00  0.00    -0.200 F 
ENDBRANCH  24  48
BRANCH  36  59
ATOM     59  C   UNL A   1      44.552  27.688  34.288  1.00  0.00     0.064 A 
ATOM     60  C   UNL A   1      44.482  26.522  35.066  1.00  0.00     0.173 A 
ATOM     61  C   UNL A   1      45.745  28.424  34.317  1.00  0.00     0.173 A 
ATOM     62  F   UNL A   1      43.365  25.779  35.072  1.00  0.00    -0.203 F 
ATOM     63  C   UNL A   1      45.548  26.133  35.875  1.00  0.00     0.198 A 
ATOM     64  C   UNL A   1      46.820  28.016  35.105  1.00  0.00     0.198 A 
ATOM     65  F   UNL A   1      45.872  29.537  33.578  1.00  0.00    -0.203 F 
ATOM     66  F   UNL A   1      45.435  25.045  36.649  1.00  0.00    -0.200 F 
ATOM     67  C   UNL A   1      46.714  26.882  35.894  1.00  0.00     0.200 A 
ATOM     68  F   UNL A   1      47.956  28.728  35.105  1.00  0.00    -0.200 F 
ATOM     69  F   UNL A   1      47.735  26.511  36.678  1.00  0.00    -0.200 F 
ENDBRANCH  36  59
ENDBRANCH  10  11
ENDBRANCH   3   5
ENDBRANCH   2   3
ENDBRANCH   1   2
BRANCH   1  70
ATOM     70  C   UNL A   1      32.214  30.899  26.064  1.00  0.00     0.274 C 
BRANCH  70  71
ATOM     71  O   UNL A   1      32.179  29.626  26.716  1.00  0.00    -0.462 OA
BRANCH  71  72
ATOM     72  C   UNL A   1      32.993  28.655  26.226  1.00  0.00     0.313 C 
ATOM     73  O   UNL A   1      33.856  28.066  26.876  1.00  0.00    -0.252 OA
BRANCH  72  74
ATOM     74  C   UNL A   1      32.535  28.237  24.846  1.00  0.00     0.135 C 
BRANCH  74  75
ATOM     75  C   UNL A   1      33.657  27.383  24.177  1.00  0.00     0.058 C 
BRANCH  75  76
ATOM     76  C   UNL A   1      33.647  25.959  23.668  1.00  0.00    -0.011 A 
ATOM     77  C   UNL A   1      34.264  24.974  24.472  1.00  0.00     0.010 A 
ATOM     78  C   UNL A   1      32.985  25.501  22.543  1.00  0.00     0.129 A 
ATOM     79  C   UNL A   1      34.188  23.611  24.216  1.00  0.00     0.040 A 
ATOM     80  C   UNL A   1      32.903  24.135  22.257  1.00  0.00     0.078 A 
ATOM     81  F   UNL A   1      32.381  26.360  21.721  1.00  0.00    -0.207 F 
ATOM     82  C   UNL A   1      33.487  23.202  23.105  1.00  0.00     0.126 A 
ATOM     83  F   UNL A   1      33.367  21.894  22.855  1.00  0.00    -0.207 F 
ENDBRANCH  75  76
ENDBRANCH  74  75
BRANCH  74  84
ATOM     84  C   UNL A   1      31.094  27.839  24.565  1.00  0.00    -0.015 A 
ATOM     85  C   UNL A   1      30.324  28.706  23.753  1.00  0.00     0.006 A 
ATOM     86  C   UNL A   1      30.458  26.673  24.996  1.00  0.00     0.045 A 
ATOM     87  C   UNL A   1      29.112  28.317  23.178  1.00  0.00     0.000 A 
ATOM     88  C   UNL A   1      29.215  26.299  24.457  1.00  0.00     0.021 A 
ATOM     89  Cl  UNL A   1      31.092  25.647  26.227  1.00  0.00    -0.084 Cl
ATOM     90  C   UNL A   1      28.575  27.083  23.500  1.00  0.00     0.002 A 
ENDBRANCH  74  84
ENDBRANCH  72  74
ENDBRANCH  71  72
ENDBRANCH  70  71
ENDBRANCH   1  70
TORSDOF 14
ENDMDL
MODEL 2
REMARK VINA RESULT:     -12.0      1.089      1.677
REMARK SMILES O=C(OCCOC(=O)[C@@H](Cc1ccc(F)cc1F)c1ccccc1Cl)c1ccc(-c2c3nc(c(-c4c(F)c(F)c(F)c(F)c4F)c4ccc([nH]4)c(-c4c(F)c(F)c(F)c(F)c4F)c4nc(c(-c5c(F)c(F)c(F)c(F)c5F)c5ccc2[nH]5)C=C4)C=C3)cc1
REMARK SMILES IDX 4 1 3 2 2 3 1 4 26 5 27 6 88 7 28 8 87 9 29 10 30 11 31 12
REMARK SMILES IDX 81 13 32 14 86 15 80 16 82 17 33 18 85 19 79 20 78 21 34 23
REMARK SMILES IDX 66 24 46 25 65 26 47 27 50 28 64 29 83 30 48 31 49 32 63 34
REMARK SMILES IDX 84 35 51 36 35 37 36 38 44 39 37 40 38 41 42 42 45 43 39 44
REMARK SMILES IDX 40 45 43 46 41 47 67 48 68 49 76 50 69 51 70 52 74 53 77 54
REMARK SMILES IDX 71 55 72 56 75 57 73 58 52 59 53 60 61 61 54 62 55 63 59 64
REMARK SMILES IDX 62 65 56 66 57 67 60 68 58 69 5 70 6 71 7 72 8 73 9 74 10 75
REMARK SMILES IDX 11 76 12 77 17 78 13 79 16 80 18 81 14 82 15 83 19 84 20 85
REMARK SMILES IDX 24 86 21 87 23 88 25 89 22 90
REMARK H PARENT 82 22 50 33
REMARK Flexibility Score: inf
ROOT
ATOM      1  C   UNL A   1      31.341  31.986  27.058  1.00  0.00     0.275 C 
ENDROOT
BRANCH   1   2
ATOM      2  O   UNL A   1      32.364  33.022  27.052  1.00  0.00    -0.458 OA
BRANCH   2   3
ATOM      3  C   UNL A   1      33.237  33.460  27.998  1.00  0.00     0.338 C 
ATOM      4  O   UNL A   1      33.002  34.500  28.610  1.00  0.00    -0.246 OA
BRANCH   3   5
ATOM      5  C   UNL A   1      34.589  32.855  28.193  1.00  0.00     0.060 A 
ATOM      6  C   UNL A   1      35.774  33.575  28.175  1.00  0.00     0.016 A 
ATOM      7  C   UNL A   1      34.686  31.456  28.361  1.00  0.00     0.016 A 
ATOM      8  C   UNL A   1      36.984  32.935  28.530  1.00  0.00     0.010 A 
ATOM      9  C   UNL A   1      35.903  30.820  28.735  1.00  0.00     0.010 A 
ATOM     10  C   UNL A   1      37.066  31.569  28.934  1.00  0.00    -0.014 A 
BRANCH  10  11
ATOM     11  C   UNL A   1      38.367  31.031  29.561  1.00  0.00     0.031 A 
ATOM     12  C   UNL A   1      38.641  31.379  30.986  1.00  0.00     0.074 A 
ATOM     13  C   UNL A   1      39.189  30.066  29.057  1.00  0.00     0.049 A 
ATOM     14  N   UNL A   1      39.422  30.772  31.841  1.00  0.00    -0.248 NA
ATOM     15  C   UNL A   1      37.881  32.508  31.530  1.00  0.00     0.031 C 
ATOM     16  C   UNL A   1      39.062  29.478  27.749  1.00  0.00     0.029 A 
ATOM     17  N   UNL A   1      40.232  29.317  29.599  1.00  0.00    -0.354 N 
ATOM     18  C   UNL A   1      39.193  31.396  33.046  1.00  0.00     0.074 A 
ATOM     19  C   UNL A   1      38.189  32.418  32.813  1.00  0.00     0.031 C 
ATOM     20  C   UNL A   1      39.815  28.378  27.628  1.00  0.00     0.029 A 
ATOM     21  C   UNL A   1      40.668  28.269  28.796  1.00  0.00     0.049 A 
ATOM     22  H   UNL A   1      40.628  29.514  30.479  1.00  0.00     0.167 HD
ATOM     23  C   UNL A   1      39.788  31.175  34.238  1.00  0.00     0.037 A 
ATOM     24  C   UNL A   1      41.646  27.338  28.912  1.00  0.00     0.037 A 
ATOM     25  C   UNL A   1      40.917  30.319  34.476  1.00  0.00     0.049 A 
ATOM     26  C   UNL A   1      42.487  27.315  30.154  1.00  0.00     0.074 A 
ATOM     27  C   UNL A   1      41.667  30.217  35.634  1.00  0.00     0.029 A 
ATOM     28  N   UNL A   1      41.504  29.476  33.546  1.00  0.00    -0.354 N 
ATOM     29  N   UNL A   1      42.273  27.943  31.280  1.00  0.00    -0.248 NA
ATOM     30  C   UNL A   1      43.705  26.486  30.150  1.00  0.00     0.031 C 
ATOM     31  C   UNL A   1      42.765  29.393  35.377  1.00  0.00     0.029 A 
ATOM     32  C   UNL A   1      42.651  28.907  34.086  1.00  0.00     0.049 A 
ATOM     33  H   UNL A   1      41.160  29.305  32.639  1.00  0.00     0.167 HD
ATOM     34  C   UNL A   1      43.312  27.579  32.120  1.00  0.00     0.074 A 
ATOM     35  C   UNL A   1      44.152  26.657  31.389  1.00  0.00     0.031 C 
ATOM     36  C   UNL A   1      43.525  27.995  33.390  1.00  0.00     0.037 A 
BRANCH  23  37
ATOM     37  C   UNL A   1      39.298  32.042  35.346  1.00  0.00     0.064 A 
ATOM     38  C   UNL A   1      38.414  31.512  36.294  1.00  0.00     0.173 A 
ATOM     39  C   UNL A   1      39.781  33.345  35.524  1.00  0.00     0.173 A 
ATOM     40  F   UNL A   1      37.966  30.254  36.170  1.00  0.00    -0.203 F 
ATOM     41  C   UNL A   1      38.026  32.262  37.394  1.00  0.00     0.198 A 
ATOM     42  C   UNL A   1      39.407  34.084  36.640  1.00  0.00     0.198 A 
ATOM     43  F   UNL A   1      40.674  33.861  34.666  1.00  0.00    -0.203 F 
ATOM     44  F   UNL A   1      37.192  31.733  38.299  1.00  0.00    -0.200 F 
ATOM     45  C   UNL A   1      38.530  33.543  37.571  1.00  0.00     0.200 A 
ATOM     46  F   UNL A   1      39.930  35.302  36.841  1.00  0.00    -0.200 F 
ATOM     47  F   UNL A   1      38.189  34.248  38.659  1.00  0.00    -0.200 F 
ENDBRANCH  23  37
BRANCH  24  48
ATOM     48  C   UNL A   1      41.954  26.378  27.796  1.00  0.00     0.064 A 
ATOM     49  C   UNL A   1      42.947  26.663  26.842  1.00  0.00     0.173 A 
ATOM     50  C   UNL A   1      41.309  25.134  27.687  1.00  0.00     0.173 A 
ATOM     51  F   UNL A   1      43.629  27.815  26.905  1.00  0.00    -0.203 F 
ATOM     52  C   UNL A   1      43.248  25.774  25.809  1.00  0.00     0.198 A 
ATOM     53  C   UNL A   1      41.638  24.229  26.673  1.00  0.00     0.198 A 
ATOM     54  F   UNL A   1      40.391  24.773  28.595  1.00  0.00    -0.203 F 
ATOM     55  F   UNL A   1      44.173  26.101  24.896  1.00  0.00    -0.200 F 
ATOM     56  C   UNL A   1      42.598  24.554  25.728  1.00  0.00     0.200 A 
ATOM     57  F   UNL A   1      41.037  23.031  26.624  1.00  0.00    -0.200 F 
ATOM     58  F   UNL A   1      42.906  23.691  24.751  1.00  0.00    -0.200 F 
ENDBRANCH  24  48
BRANCH  36  59
ATOM     59  C   UNL A   1      44.729  27.476  34.119  1.00  0.00     0.064 A 
ATOM     60  C   UNL A   1      44.629  26.334  34.928  1.00  0.00     0.173 A 
ATOM     61  C   UNL A   1      45.949  28.168  34.110  1.00  0.00     0.173 A 
ATOM     62  F   UNL A   1      43.484  25.633  34.970  1.00  0.00    -0.203 F 
ATOM     63  C   UNL A   1      45.691  25.926  35.730  1.00  0.00     0.198 A 
ATOM     64  C   UNL A   1      47.020  27.739  34.892  1.00  0.00     0.198 A 
ATOM     65  F   UNL A   1      46.105  29.256  33.341  1.00  0.00    -0.203 F 
ATOM     66  F   UNL A   1      45.551  24.863  36.534  1.00  0.00    -0.200 F 
ATOM     67  C   UNL A   1      46.885  26.630  35.712  1.00  0.00     0.200 A 
ATOM     68  F   UNL A   1      48.182  28.408  34.856  1.00  0.00    -0.200 F 
ATOM     69  F   UNL A   1      47.905  26.241  36.490  1.00  0.00    -0.200 F 
ENDBRANCH  36  59
ENDBRANCH  10  11
ENDBRANCH   3   5
ENDBRANCH   2   3
ENDBRANCH   1   2
BRANCH   1  70
ATOM     70  C   UNL A   1      31.756  30.746  26.237  1.00  0.00     0.274 C 
BRANCH  70  71
ATOM     71  O   UNL A   1      32.465  29.809  27.053  1.00  0.00    -0.462 OA
BRANCH  71  72
ATOM     72  C   UNL A   1      31.960  28.551  27.136  1.00  0.00     0.313 C 
ATOM     73  O   UNL A   1      31.131  28.178  27.964  1.00  0.00    -0.252 OA
BRANCH  72  74
ATOM     74  C   UNL A   1      32.381  27.740  25.930  1.00  0.00     0.135 C 
BRANCH  74  75
ATOM     75  C   UNL A   1      32.905  26.350  26.411  1.00  0.00     0.058 C 
BRANCH  75  76
ATOM     76  C   UNL A   1      33.356  25.138  25.630  1.00  0.00    -0.011 A 
ATOM     77  C   UNL A   1      34.727  25.047  25.298  1.00  0.00     0.010 A 
ATOM     78  C   UNL A   1      32.577  24.041  25.307  1.00  0.00     0.129 A 
ATOM     79  C   UNL A   1      35.310  23.921  24.732  1.00  0.00     0.040 A 
ATOM     80  C   UNL A   1      33.138  22.899  24.728  1.00  0.00     0.078 A 
ATOM     81  F   UNL A   1      31.271  24.041  25.576  1.00  0.00    -0.207 F 
ATOM     82  C   UNL A   1      34.501  22.841  24.464  1.00  0.00     0.126 A 
ATOM     83  F   UNL A   1      35.044  21.730  23.954  1.00  0.00    -0.207 F 
ENDBRANCH  75  76
ENDBRANCH  74  75
BRANCH  74  84
ATOM     84  C   UNL A   1      31.600  27.777  24.625  1.00  0.00    -0.015 A 
ATOM     85  C   UNL A   1      30.354  27.106  24.591  1.00  0.00     0.006 A 
ATOM     86  C   UNL A   1      31.969  28.449  23.457  1.00  0.00     0.045 A 
ATOM     87  C   UNL A   1      29.416  27.315  23.577  1.00  0.00     0.000 A 
ATOM     88  C   UNL A   1      31.045  28.622  22.413  1.00  0.00     0.021 A 
ATOM     89  Cl  UNL A   1      33.556  29.059  23.178  1.00  0.00    -0.084 Cl
ATOM     90  C   UNL A   1      29.750  28.115  22.500  1.00  0.00     0.002 A 
ENDBRANCH  74  84
ENDBRANCH  72  74
ENDBRANCH  71  72
ENDBRANCH  70  71
ENDBRANCH   1  70
TORSDOF 14
ENDMDL
MODEL 3
REMARK VINA RESULT:     -12.0      4.635      9.953
REMARK SMILES O=C(OCCOC(=O)[C@@H](Cc1ccc(F)cc1F)c1ccccc1Cl)c1ccc(-c2c3nc(c(-c4c(F)c(F)c(F)c(F)c4F)c4ccc([nH]4)c(-c4c(F)c(F)c(F)c(F)c4F)c4nc(c(-c5c(F)c(F)c(F)c(F)c5F)c5ccc2[nH]5)C=C4)C=C3)cc1
REMARK SMILES IDX 4 1 3 2 2 3 1 4 26 5 27 6 88 7 28 8 87 9 29 10 30 11 31 12
REMARK SMILES IDX 81 13 32 14 86 15 80 16 82 17 33 18 85 19 79 20 78 21 34 23
REMARK SMILES IDX 66 24 46 25 65 26 47 27 50 28 64 29 83 30 48 31 49 32 63 34
REMARK SMILES IDX 84 35 51 36 35 37 36 38 44 39 37 40 38 41 42 42 45 43 39 44
REMARK SMILES IDX 40 45 43 46 41 47 67 48 68 49 76 50 69 51 70 52 74 53 77 54
REMARK SMILES IDX 71 55 72 56 75 57 73 58 52 59 53 60 61 61 54 62 55 63 59 64
REMARK SMILES IDX 62 65 56 66 57 67 60 68 58 69 5 70 6 71 7 72 8 73 9 74 10 75
REMARK SMILES IDX 11 76 12 77 17 78 13 79 16 80 18 81 14 82 15 83 19 84 20 85
REMARK SMILES IDX 24 86 21 87 23 88 25 89 22 90
REMARK H PARENT 82 22 50 33
REMARK Flexibility Score: inf
ROOT
ATOM      1  C   UNL A   1      38.187  19.750  24.627  1.00  0.00     0.275 C 
ENDROOT
BRANCH   1   2
ATOM      2  O   UNL A   1      39.079  19.556  25.761  1.00  0.00    -0.458 OA
BRANCH   2   3
ATOM      3  C   UNL A   1      40.313  20.044  26.057  1.00  0.00     0.338 C 
ATOM      4  O   UNL A   1      41.305  19.339  25.887  1.00  0.00    -0.246 OA
BRANCH   3   5
ATOM      5  C   UNL A   1      40.519  21.332  26.786  1.00  0.00     0.060 A 
ATOM      6  C   UNL A   1      41.364  21.483  27.875  1.00  0.00     0.016 A 
ATOM      7  C   UNL A   1      39.780  22.465  26.381  1.00  0.00     0.016 A 
ATOM      8  C   UNL A   1      41.611  22.777  28.392  1.00  0.00     0.010 A 
ATOM      9  C   UNL A   1      40.045  23.766  26.891  1.00  0.00     0.010 A 
ATOM     10  C   UNL A   1      41.051  23.967  27.840  1.00  0.00    -0.014 A 
BRANCH  10  11
ATOM     11  C   UNL A   1      41.583  25.343  28.285  1.00  0.00     0.031 A 
ATOM     12  C   UNL A   1      42.955  25.729  27.843  1.00  0.00     0.074 A 
ATOM     13  C   UNL A   1      40.867  26.368  28.831  1.00  0.00     0.049 A 
ATOM     14  N   UNL A   1      43.479  26.923  27.747  1.00  0.00    -0.248 NA
ATOM     15  C   UNL A   1      43.814  24.634  27.383  1.00  0.00     0.031 C 
ATOM     16  C   UNL A   1      39.487  26.284  29.233  1.00  0.00     0.029 A 
ATOM     17  N   UNL A   1      41.141  27.717  29.051  1.00  0.00    -0.354 N 
ATOM     18  C   UNL A   1      44.702  26.734  27.144  1.00  0.00     0.074 A 
ATOM     19  C   UNL A   1      44.834  25.312  26.884  1.00  0.00     0.031 C 
ATOM     20  C   UNL A   1      38.968  27.496  29.468  1.00  0.00     0.029 A 
ATOM     21  C   UNL A   1      40.040  28.474  29.437  1.00  0.00     0.049 A 
ATOM     22  H   UNL A   1      42.040  28.103  28.942  1.00  0.00     0.167 HD
ATOM     23  C   UNL A   1      45.655  27.648  26.865  1.00  0.00     0.037 A 
ATOM     24  C   UNL A   1      39.862  29.775  29.774  1.00  0.00     0.037 A 
ATOM     25  C   UNL A   1      45.656  29.024  27.276  1.00  0.00     0.049 A 
ATOM     26  C   UNL A   1      41.037  30.707  29.724  1.00  0.00     0.074 A 
ATOM     27  C   UNL A   1      46.696  29.933  27.175  1.00  0.00     0.029 A 
ATOM     28  N   UNL A   1      44.619  29.678  27.919  1.00  0.00    -0.354 N 
ATOM     29  N   UNL A   1      42.206  30.497  29.178  1.00  0.00    -0.248 NA
ATOM     30  C   UNL A   1      40.893  32.035  30.345  1.00  0.00     0.031 C 
ATOM     31  C   UNL A   1      46.327  31.101  27.845  1.00  0.00     0.029 A 
ATOM     32  C   UNL A   1      45.023  30.956  28.285  1.00  0.00     0.049 A 
ATOM     33  H   UNL A   1      43.728  29.295  28.092  1.00  0.00     0.167 HD
ATOM     34  C   UNL A   1      42.929  31.662  29.373  1.00  0.00     0.074 A 
ATOM     35  C   UNL A   1      42.068  32.590  30.071  1.00  0.00     0.031 C 
ATOM     36  C   UNL A   1      44.204  31.909  28.993  1.00  0.00     0.037 A 
BRANCH  23  37
ATOM     37  C   UNL A   1      46.871  27.094  26.206  1.00  0.00     0.064 A 
ATOM     38  C   UNL A   1      47.039  27.255  24.825  1.00  0.00     0.173 A 
ATOM     39  C   UNL A   1      47.903  26.507  26.949  1.00  0.00     0.173 A 
ATOM     40  F   UNL A   1      46.084  27.849  24.093  1.00  0.00    -0.203 F 
ATOM     41  C   UNL A   1      48.208  26.845  24.203  1.00  0.00     0.198 A 
ATOM     42  C   UNL A   1      49.082  26.118  26.325  1.00  0.00     0.198 A 
ATOM     43  F   UNL A   1      47.798  26.391  28.282  1.00  0.00    -0.203 F 
ATOM     44  F   UNL A   1      48.357  27.021  22.884  1.00  0.00    -0.200 F 
ATOM     45  C   UNL A   1      49.232  26.285  24.955  1.00  0.00     0.200 A 
ATOM     46  F   UNL A   1      50.093  25.624  27.055  1.00  0.00    -0.200 F 
ATOM     47  F   UNL A   1      50.380  25.932  24.359  1.00  0.00    -0.200 F 
ENDBRANCH  23  37
BRANCH  24  48
ATOM     48  C   UNL A   1      38.537  30.286  30.266  1.00  0.00     0.064 A 
ATOM     49  C   UNL A   1      38.246  30.355  31.639  1.00  0.00     0.173 A 
ATOM     50  C   UNL A   1      37.554  30.769  29.385  1.00  0.00     0.173 A 
ATOM     51  F   UNL A   1      39.150  29.945  32.540  1.00  0.00    -0.203 F 
ATOM     52  C   UNL A   1      37.022  30.838  32.106  1.00  0.00     0.198 A 
ATOM     53  C   UNL A   1      36.343  31.287  29.856  1.00  0.00     0.198 A 
ATOM     54  F   UNL A   1      37.787  30.785  28.065  1.00  0.00    -0.203 F 
ATOM     55  F   UNL A   1      36.767  30.850  33.422  1.00  0.00    -0.200 F 
ATOM     56  C   UNL A   1      36.073  31.310  31.215  1.00  0.00     0.200 A 
ATOM     57  F   UNL A   1      35.445  31.783  28.992  1.00  0.00    -0.200 F 
ATOM     58  F   UNL A   1      34.909  31.797  31.666  1.00  0.00    -0.200 F 
ENDBRANCH  24  48
BRANCH  36  59
ATOM     59  C   UNL A   1      44.798  33.248  29.317  1.00  0.00     0.064 A 
ATOM     60  C   UNL A   1      45.425  33.462  30.555  1.00  0.00     0.173 A 
ATOM     61  C   UNL A   1      44.651  34.346  28.459  1.00  0.00     0.173 A 
ATOM     62  F   UNL A   1      45.594  32.444  31.413  1.00  0.00    -0.203 F 
ATOM     63  C   UNL A   1      45.846  34.734  30.936  1.00  0.00     0.198 A 
ATOM     64  C   UNL A   1      45.101  35.612  28.831  1.00  0.00     0.198 A 
ATOM     65  F   UNL A   1      44.076  34.193  27.256  1.00  0.00    -0.203 F 
ATOM     66  F   UNL A   1      46.392  34.922  32.145  1.00  0.00    -0.200 F 
ATOM     67  C   UNL A   1      45.682  35.807  30.074  1.00  0.00     0.200 A 
ATOM     68  F   UNL A   1      44.963  36.645  27.987  1.00  0.00    -0.200 F 
ATOM     69  F   UNL A   1      46.081  37.031  30.444  1.00  0.00    -0.200 F 
ENDBRANCH  36  59
ENDBRANCH  10  11
ENDBRANCH   3   5
ENDBRANCH   2   3
ENDBRANCH   1   2
BRANCH   1  70
ATOM     70  C   UNL A   1      36.879  20.469  25.025  1.00  0.00     0.274 C 
BRANCH  70  71
ATOM     71  O   UNL A   1      36.665  21.624  24.208  1.00  0.00    -0.462 OA
BRANCH  71  72
ATOM     72  C   UNL A   1      36.253  22.758  24.832  1.00  0.00     0.313 C 
ATOM     73  O   UNL A   1      36.876  23.819  24.847  1.00  0.00    -0.252 OA
BRANCH  72  74
ATOM     74  C   UNL A   1      34.823  22.605  25.300  1.00  0.00     0.135 C 
BRANCH  74  75
ATOM     75  C   UNL A   1      34.472  23.790  26.254  1.00  0.00     0.058 C 
BRANCH  75  76
ATOM     76  C   UNL A   1      33.460  24.904  26.118  1.00  0.00    -0.011 A 
ATOM     77  C   UNL A   1      33.913  26.138  25.598  1.00  0.00     0.010 A 
ATOM     78  C   UNL A   1      32.099  24.800  26.343  1.00  0.00     0.129 A 
ATOM     79  C   UNL A   1      33.069  27.190  25.264  1.00  0.00     0.040 A 
ATOM     80  C   UNL A   1      31.230  25.848  26.025  1.00  0.00     0.078 A 
ATOM     81  F   UNL A   1      31.583  23.675  26.840  1.00  0.00    -0.207 F 
ATOM     82  C   UNL A   1      31.720  27.025  25.471  1.00  0.00     0.126 A 
ATOM     83  F   UNL A   1      30.881  28.008  25.123  1.00  0.00    -0.207 F 
ENDBRANCH  75  76
ENDBRANCH  74  75
BRANCH  74  84
ATOM     84  C   UNL A   1      33.723  22.107  24.374  1.00  0.00    -0.015 A 
ATOM     85  C   UNL A   1      33.392  22.915  23.260  1.00  0.00     0.006 A 
ATOM     86  C   UNL A   1      33.028  20.900  24.487  1.00  0.00     0.045 A 
ATOM     87  C   UNL A   1      32.635  22.440  22.187  1.00  0.00     0.000 A 
ATOM     88  C   UNL A   1      32.226  20.439  23.430  1.00  0.00     0.021 A 
ATOM     89  Cl  UNL A   1      33.048  19.926  25.909  1.00  0.00    -0.084 Cl
ATOM     90  C   UNL A   1      32.083  21.173  22.255  1.00  0.00     0.002 A 
ENDBRANCH  74  84
ENDBRANCH  72  74
ENDBRANCH  71  72
ENDBRANCH  70  71
ENDBRANCH   1  70
TORSDOF 14
ENDMDL
