MODEL 1
REMARK VINA RESULT:     -12.2      0.000      0.000
REMARK SMILES C[N@@H+]1CCC[C@@H](C(=O)N[C@H](C(=O)OCCOC(=O)c2ccc(-c3c4nc(c(-c5c(F)c(F)c(F)c(F)c5F)c5ccc([nH]5)c(-c5c(F)c(F)c(F)c(F)c5F)c5nc(c(-c6c(F)c(F)c(F)c(F)c6F)c6ccc3[nH]6)C=C5)C=C4)cc2)c2ccccc2)C1
REMARK SMILES IDX 14 1 13 2 11 3 12 4 10 5 9 6 7 7 8 8 6 10 1 11 2 12 3 13
REMARK SMILES IDX 88 14 4 16 5 17 82 18 83 19 87 20 84 21 86 22 85 23 15 24
REMARK SMILES IDX 16 25 17 26 18 27 19 28 20 29 81 30 21 31 80 32 22 33 23 34
REMARK SMILES IDX 24 35 74 36 25 37 79 38 73 39 75 40 26 41 78 42 72 43 71 44
REMARK SMILES IDX 27 46 59 47 39 48 58 49 40 50 43 51 57 52 76 53 41 54 42 55
REMARK SMILES IDX 56 57 77 58 44 59 28 60 29 61 37 62 30 63 31 64 35 65 38 66
REMARK SMILES IDX 32 67 33 68 36 69 34 70 60 71 61 72 69 73 62 74 63 75 67 76
REMARK SMILES IDX 70 77 64 78 65 79 68 80 66 81 45 82 46 83 54 84 47 85 48 86
REMARK SMILES IDX 52 87 55 88 49 89 50 90 53 91 51 92
REMARK H PARENT 9 9 2 15 75 45 43 56
REMARK Flexibility Score: inf
ROOT
ATOM      1  C   UNL A   1      32.884  29.587  24.893  1.00  0.00     0.274 C 
ENDROOT
BRANCH   1   2
ATOM      2  O   UNL A   1      32.556  28.182  24.907  1.00  0.00    -0.460 OA
BRANCH   2   3
ATOM      3  C   UNL A   1      32.261  27.608  23.717  1.00  0.00     0.333 C 
ATOM      4  O   UNL A   1      33.083  27.546  22.802  1.00  0.00    -0.249 OA
BRANCH   3   5
ATOM      5  C   UNL A   1      30.807  27.103  23.547  1.00  0.00     0.223 C 
BRANCH   5   6
ATOM      6  N   UNL A   1      30.462  26.398  24.796  1.00  0.00    -0.339 N 
ATOM      7  C   UNL A   1      30.891  25.260  25.383  1.00  0.00     0.229 C 
ATOM      8  O   UNL A   1      30.427  25.032  26.509  1.00  0.00    -0.275 OA
ATOM      9  H   UNL A   1      29.765  26.859  25.316  1.00  0.00     0.164 HD
BRANCH   7  10
ATOM     10  C   UNL A   1      31.865  24.252  24.777  1.00  0.00     0.133 C 
ATOM     11  C   UNL A   1      34.445  22.965  27.241  1.00  0.00     0.332 C 
ATOM     12  N   UNL A   1      33.197  23.015  26.489  1.00  0.00    -0.337 N 
ATOM     13  C   UNL A   1      32.895  21.734  25.847  1.00  0.00     0.262 C 
ATOM     14  C   UNL A   1      33.196  24.110  25.516  1.00  0.00     0.275 C 
ATOM     15  H   UNL A   1      32.453  23.200  27.162  1.00  0.00     0.347 HD
ATOM     16  C   UNL A   1      31.484  21.756  25.263  1.00  0.00     0.062 C 
ATOM     17  C   UNL A   1      31.240  22.931  24.323  1.00  0.00     0.025 C 
ENDBRANCH   7  10
ENDBRANCH   5   6
BRANCH   5  18
ATOM     18  C   UNL A   1      29.641  28.025  23.173  1.00  0.00    -0.014 A 
ATOM     19  C   UNL A   1      28.286  27.781  23.425  1.00  0.00     0.006 A 
ATOM     20  C   UNL A   1      29.959  29.284  22.608  1.00  0.00     0.006 A 
ATOM     21  C   UNL A   1      27.303  28.730  23.111  1.00  0.00     0.000 A 
ATOM     22  C   UNL A   1      28.984  30.232  22.294  1.00  0.00     0.000 A 
ATOM     23  C   UNL A   1      27.650  29.953  22.547  1.00  0.00     0.000 A 
ENDBRANCH   5  18
ENDBRANCH   3   5
ENDBRANCH   2   3
ENDBRANCH   1   2
BRANCH   1  24
ATOM     24  C   UNL A   1      31.944  30.395  25.789  1.00  0.00     0.275 C 
BRANCH  24  25
ATOM     25  O   UNL A   1      32.478  30.534  27.119  1.00  0.00    -0.458 OA
BRANCH  25  26
ATOM     26  C   UNL A   1      33.203  31.654  27.329  1.00  0.00     0.338 C 
ATOM     27  O   UNL A   1      32.825  32.811  27.251  1.00  0.00    -0.246 OA
BRANCH  26  28
ATOM     28  C   UNL A   1      34.558  31.302  27.769  1.00  0.00     0.060 A 
ATOM     29  C   UNL A   1      34.821  29.972  28.087  1.00  0.00     0.016 A 
ATOM     30  C   UNL A   1      35.498  32.293  28.048  1.00  0.00     0.016 A 
ATOM     31  C   UNL A   1      35.978  29.633  28.775  1.00  0.00     0.010 A 
ATOM     32  C   UNL A   1      36.700  31.938  28.670  1.00  0.00     0.010 A 
ATOM     33  C   UNL A   1      36.931  30.611  29.077  1.00  0.00    -0.014 A 
BRANCH  33  34
ATOM     34  C   UNL A   1      38.113  30.249  29.899  1.00  0.00     0.031 A 
ATOM     35  C   UNL A   1      39.208  29.416  29.297  1.00  0.00     0.074 A 
ATOM     36  C   UNL A   1      38.246  30.720  31.153  1.00  0.00     0.049 A 
ATOM     37  N   UNL A   1      40.230  28.841  29.880  1.00  0.00    -0.248 NA
ATOM     38  C   UNL A   1      39.139  29.190  27.845  1.00  0.00     0.031 C 
ATOM     39  C   UNL A   1      37.311  31.624  31.822  1.00  0.00     0.029 A 
ATOM     40  N   UNL A   1      39.240  30.522  32.078  1.00  0.00    -0.354 N 
ATOM     41  C   UNL A   1      40.885  28.135  28.880  1.00  0.00     0.074 A 
ATOM     42  C   UNL A   1      40.157  28.364  27.650  1.00  0.00     0.031 C 
ATOM     43  C   UNL A   1      37.801  31.945  33.029  1.00  0.00     0.029 A 
ATOM     44  C   UNL A   1      39.039  31.205  33.252  1.00  0.00     0.049 A 
ATOM     45  H   UNL A   1      40.021  29.947  31.916  1.00  0.00     0.167 HD
ATOM     46  C   UNL A   1      41.987  27.356  28.987  1.00  0.00     0.037 A 
ATOM     47  C   UNL A   1      39.758  31.209  34.390  1.00  0.00     0.037 A 
ATOM     48  C   UNL A   1      42.745  27.188  30.199  1.00  0.00     0.049 A 
ATOM     49  C   UNL A   1      40.968  30.325  34.493  1.00  0.00     0.074 A 
ATOM     50  C   UNL A   1      43.854  26.394  30.427  1.00  0.00     0.029 A 
ATOM     51  N   UNL A   1      42.482  27.859  31.384  1.00  0.00    -0.354 N 
ATOM     52  N   UNL A   1      41.506  29.549  33.584  1.00  0.00    -0.248 NA
ATOM     53  C   UNL A   1      41.652  30.293  35.794  1.00  0.00     0.031 C 
ATOM     54  C   UNL A   1      44.256  26.573  31.756  1.00  0.00     0.029 A 
ATOM     55  C   UNL A   1      43.411  27.500  32.348  1.00  0.00     0.049 A 
ATOM     56  H   UNL A   1      41.744  28.496  31.522  1.00  0.00     0.167 HD
ATOM     57  C   UNL A   1      42.587  28.936  34.197  1.00  0.00     0.074 A 
ATOM     58  C   UNL A   1      42.644  29.447  35.553  1.00  0.00     0.031 C 
ATOM     59  C   UNL A   1      43.448  28.023  33.688  1.00  0.00     0.037 A 
BRANCH  46  60
ATOM     60  C   UNL A   1      42.399  26.583  27.771  1.00  0.00     0.064 A 
ATOM     61  C   UNL A   1      43.354  27.069  26.868  1.00  0.00     0.173 A 
ATOM     62  C   UNL A   1      41.820  25.332  27.510  1.00  0.00     0.173 A 
ATOM     63  F   UNL A   1      43.920  28.269  27.064  1.00  0.00    -0.203 F 
ATOM     64  C   UNL A   1      43.696  26.340  25.730  1.00  0.00     0.198 A 
ATOM     65  C   UNL A   1      42.181  24.596  26.385  1.00  0.00     0.198 A 
ATOM     66  F   UNL A   1      40.902  24.824  28.346  1.00  0.00    -0.203 F 
ATOM     67  F   UNL A   1      44.577  26.842  24.854  1.00  0.00    -0.200 F 
ATOM     68  C   UNL A   1      43.113  25.104  25.493  1.00  0.00     0.200 A 
ATOM     69  F   UNL A   1      41.621  23.399  26.160  1.00  0.00    -0.200 F 
ATOM     70  F   UNL A   1      43.440  24.405  24.397  1.00  0.00    -0.200 F 
ENDBRANCH  46  60
BRANCH  47  71
ATOM     71  C   UNL A   1      39.328  32.058  35.528  1.00  0.00     0.064 A 
ATOM     72  C   UNL A   1      38.423  31.574  36.481  1.00  0.00     0.173 A 
ATOM     73  C   UNL A   1      39.830  33.357  35.701  1.00  0.00     0.173 A 
ATOM     74  F   UNL A   1      37.895  30.349  36.342  1.00  0.00    -0.203 F 
ATOM     75  C   UNL A   1      38.038  32.357  37.568  1.00  0.00     0.198 A 
ATOM     76  C   UNL A   1      39.463  34.129  36.800  1.00  0.00     0.198 A 
ATOM     77  F   UNL A   1      40.695  33.867  34.811  1.00  0.00    -0.203 F 
ATOM     78  F   UNL A   1      37.151  31.881  38.453  1.00  0.00    -0.200 F 
ATOM     79  C   UNL A   1      38.565  33.630  37.731  1.00  0.00     0.200 A 
ATOM     80  F   UNL A   1      39.982  35.354  36.959  1.00  0.00    -0.200 F 
ATOM     81  F   UNL A   1      38.205  34.376  38.783  1.00  0.00    -0.200 F 
ENDBRANCH  47  71
BRANCH  59  82
ATOM     82  C   UNL A   1      44.532  27.532  34.597  1.00  0.00     0.064 A 
ATOM     83  C   UNL A   1      44.353  26.391  35.390  1.00  0.00     0.173 A 
ATOM     84  C   UNL A   1      45.768  28.193  34.653  1.00  0.00     0.173 A 
ATOM     85  F   UNL A   1      43.181  25.738  35.381  1.00  0.00    -0.203 F 
ATOM     86  C   UNL A   1      45.371  25.935  36.223  1.00  0.00     0.198 A 
ATOM     87  C   UNL A   1      46.789  27.724  35.473  1.00  0.00     0.198 A 
ATOM     88  F   UNL A   1      45.982  29.289  33.910  1.00  0.00    -0.203 F 
ATOM     89  F   UNL A   1      45.171  24.862  36.999  1.00  0.00    -0.200 F 
ATOM     90  C   UNL A   1      46.590  26.600  36.260  1.00  0.00     0.200 A 
ATOM     91  F   UNL A   1      47.966  28.364  35.506  1.00  0.00    -0.200 F 
ATOM     92  F   UNL A   1      47.569  26.160  37.063  1.00  0.00    -0.200 F 
ENDBRANCH  59  82
ENDBRANCH  33  34
ENDBRANCH  26  28
ENDBRANCH  25  26
ENDBRANCH  24  25
ENDBRANCH   1  24
TORSDOF 14
ENDMDL
MODEL 2
REMARK VINA RESULT:     -12.2      0.238      1.618
REMARK SMILES C[N@@H+]1CCC[C@@H](C(=O)N[C@H](C(=O)OCCOC(=O)c2ccc(-c3c4nc(c(-c5c(F)c(F)c(F)c(F)c5F)c5ccc([nH]5)c(-c5c(F)c(F)c(F)c(F)c5F)c5nc(c(-c6c(F)c(F)c(F)c(F)c6F)c6ccc3[nH]6)C=C5)C=C4)cc2)c2ccccc2)C1
REMARK SMILES IDX 14 1 13 2 11 3 12 4 10 5 9 6 7 7 8 8 6 10 1 11 2 12 3 13
REMARK SMILES IDX 88 14 4 16 5 17 82 18 83 19 87 20 84 21 86 22 85 23 15 24
REMARK SMILES IDX 16 25 17 26 18 27 19 28 20 29 81 30 21 31 80 32 22 33 23 34
REMARK SMILES IDX 24 35 74 36 25 37 79 38 73 39 75 40 26 41 78 42 72 43 71 44
REMARK SMILES IDX 27 46 59 47 39 48 58 49 40 50 43 51 57 52 76 53 41 54 42 55
REMARK SMILES IDX 56 57 77 58 44 59 28 60 29 61 37 62 30 63 31 64 35 65 38 66
REMARK SMILES IDX 32 67 33 68 36 69 34 70 60 71 61 72 69 73 62 74 63 75 67 76
REMARK SMILES IDX 70 77 64 78 65 79 68 80 66 81 45 82 46 83 54 84 47 85 48 86
REMARK SMILES IDX 52 87 55 88 49 89 50 90 53 91 51 92
REMARK H PARENT 9 9 2 15 75 45 43 56
REMARK Flexibility Score: inf
ROOT
ATOM      1  C   UNL A   1      32.929  29.460  24.681  1.00  0.00     0.274 C 
ENDROOT
BRANCH   1   2
ATOM      2  O   UNL A   1      32.806  28.022  24.650  1.00  0.00    -0.460 OA
BRANCH   2   3
ATOM      3  C   UNL A   1      32.354  27.469  23.500  1.00  0.00     0.333 C 
ATOM      4  O   UNL A   1      33.054  27.404  22.488  1.00  0.00    -0.249 OA
BRANCH   3   5
ATOM      5  C   UNL A   1      30.880  26.994  23.507  1.00  0.00     0.223 C 
BRANCH   5   6
ATOM      6  N   UNL A   1      30.627  26.441  24.851  1.00  0.00    -0.339 N 
ATOM      7  C   UNL A   1      31.110  25.384  25.540  1.00  0.00     0.229 C 
ATOM      8  O   UNL A   1      30.723  25.289  26.713  1.00  0.00    -0.275 OA
ATOM      9  H   UNL A   1      29.958  26.955  25.358  1.00  0.00     0.164 HD
BRANCH   7  10
ATOM     10  C   UNL A   1      32.058  24.318  24.994  1.00  0.00     0.133 C 
ATOM     11  C   UNL A   1      34.127  22.611  27.675  1.00  0.00     0.332 C 
ATOM     12  N   UNL A   1      33.008  22.841  26.769  1.00  0.00    -0.337 N 
ATOM     13  C   UNL A   1      32.677  21.642  25.996  1.00  0.00     0.262 C 
ATOM     14  C   UNL A   1      33.251  23.988  25.891  1.00  0.00     0.275 C 
ATOM     15  H   UNL A   1      32.198  23.062  27.348  1.00  0.00     0.347 HD
ATOM     16  C   UNL A   1      31.371  21.851  25.232  1.00  0.00     0.062 C 
ATOM     17  C   UNL A   1      31.378  23.102  24.361  1.00  0.00     0.025 C 
ENDBRANCH   7  10
ENDBRANCH   5   6
BRANCH   5  18
ATOM     18  C   UNL A   1      29.707  27.905  23.130  1.00  0.00    -0.014 A 
ATOM     19  C   UNL A   1      28.366  27.706  23.477  1.00  0.00     0.006 A 
ATOM     20  C   UNL A   1      30.008  29.111  22.451  1.00  0.00     0.006 A 
ATOM     21  C   UNL A   1      27.378  28.645  23.147  1.00  0.00     0.000 A 
ATOM     22  C   UNL A   1      29.029  30.050  22.121  1.00  0.00     0.000 A 
ATOM     23  C   UNL A   1      27.709  29.815  22.470  1.00  0.00     0.000 A 
ENDBRANCH   5  18
ENDBRANCH   3   5
ENDBRANCH   2   3
ENDBRANCH   1   2
BRANCH   1  24
ATOM     24  C   UNL A   1      31.966  30.087  25.691  1.00  0.00     0.275 C 
BRANCH  24  25
ATOM     25  O   UNL A   1      32.564  30.181  26.997  1.00  0.00    -0.458 OA
BRANCH  25  26
ATOM     26  C   UNL A   1      33.237  31.327  27.236  1.00  0.00     0.338 C 
ATOM     27  O   UNL A   1      32.809  32.467  27.178  1.00  0.00    -0.246 OA
BRANCH  26  28
ATOM     28  C   UNL A   1      34.604  31.027  27.678  1.00  0.00     0.060 A 
ATOM     29  C   UNL A   1      34.919  29.706  27.987  1.00  0.00     0.016 A 
ATOM     30  C   UNL A   1      35.501  32.053  27.970  1.00  0.00     0.016 A 
ATOM     31  C   UNL A   1      36.087  29.409  28.677  1.00  0.00     0.010 A 
ATOM     32  C   UNL A   1      36.715  31.741  28.594  1.00  0.00     0.010 A 
ATOM     33  C   UNL A   1      36.998  30.421  28.991  1.00  0.00    -0.014 A 
BRANCH  33  34
ATOM     34  C   UNL A   1      38.190  30.101  29.815  1.00  0.00     0.031 A 
ATOM     35  C   UNL A   1      39.303  29.284  29.224  1.00  0.00     0.074 A 
ATOM     36  C   UNL A   1      38.315  30.595  31.061  1.00  0.00     0.049 A 
ATOM     37  N   UNL A   1      40.340  28.743  29.812  1.00  0.00    -0.248 NA
ATOM     38  C   UNL A   1      39.235  29.033  27.776  1.00  0.00     0.031 C 
ATOM     39  C   UNL A   1      37.361  31.488  31.718  1.00  0.00     0.029 A 
ATOM     40  N   UNL A   1      39.316  30.436  31.986  1.00  0.00    -0.354 N 
ATOM     41  C   UNL A   1      41.008  28.036  28.823  1.00  0.00     0.074 A 
ATOM     42  C   UNL A   1      40.272  28.228  27.591  1.00  0.00     0.031 C 
ATOM     43  C   UNL A   1      37.846  31.840  32.918  1.00  0.00     0.029 A 
ATOM     44  C   UNL A   1      39.102  31.133  33.149  1.00  0.00     0.049 A 
ATOM     45  H   UNL A   1      40.110  29.877  31.832  1.00  0.00     0.167 HD
ATOM     46  C   UNL A   1      42.129  27.285  28.939  1.00  0.00     0.037 A 
ATOM     47  C   UNL A   1      39.824  31.172  34.285  1.00  0.00     0.037 A 
ATOM     48  C   UNL A   1      42.893  27.155  30.151  1.00  0.00     0.049 A 
ATOM     49  C   UNL A   1      41.054  30.319  34.398  1.00  0.00     0.074 A 
ATOM     50  C   UNL A   1      44.021  26.391  30.389  1.00  0.00     0.029 A 
ATOM     51  N   UNL A   1      42.618  27.838  31.326  1.00  0.00    -0.354 N 
ATOM     52  N   UNL A   1      41.608  29.541  33.501  1.00  0.00    -0.248 NA
ATOM     53  C   UNL A   1      41.743  30.324  35.698  1.00  0.00     0.031 C 
ATOM     54  C   UNL A   1      44.422  26.601  31.714  1.00  0.00     0.029 A 
ATOM     55  C   UNL A   1      43.558  27.517  32.292  1.00  0.00     0.049 A 
ATOM     56  H   UNL A   1      41.866  28.461  31.456  1.00  0.00     0.167 HD
ATOM     57  C   UNL A   1      42.705  28.964  34.121  1.00  0.00     0.074 A 
ATOM     58  C   UNL A   1      42.754  29.498  35.467  1.00  0.00     0.031 C 
ATOM     59  C   UNL A   1      43.586  28.063  33.624  1.00  0.00     0.037 A 
BRANCH  46  60
ATOM     60  C   UNL A   1      42.556  26.503  27.735  1.00  0.00     0.064 A 
ATOM     61  C   UNL A   1      43.526  26.978  26.843  1.00  0.00     0.173 A 
ATOM     62  C   UNL A   1      41.975  25.252  27.472  1.00  0.00     0.173 A 
ATOM     63  F   UNL A   1      44.095  28.177  27.039  1.00  0.00    -0.203 F 
ATOM     64  C   UNL A   1      43.882  26.240  25.715  1.00  0.00     0.198 A 
ATOM     65  C   UNL A   1      42.349  24.508  26.358  1.00  0.00     0.198 A 
ATOM     66  F   UNL A   1      41.041  24.753  28.297  1.00  0.00    -0.203 F 
ATOM     67  F   UNL A   1      44.778  26.732  24.849  1.00  0.00    -0.200 F 
ATOM     68  C   UNL A   1      43.297  25.005  25.477  1.00  0.00     0.200 A 
ATOM     69  F   UNL A   1      41.787  23.312  26.132  1.00  0.00    -0.200 F 
ATOM     70  F   UNL A   1      43.638  24.297  24.390  1.00  0.00    -0.200 F 
ENDBRANCH  46  60
BRANCH  47  71
ATOM     71  C   UNL A   1      39.377  32.030  35.410  1.00  0.00     0.064 A 
ATOM     72  C   UNL A   1      39.785  33.367  35.498  1.00  0.00     0.173 A 
ATOM     73  C   UNL A   1      38.514  31.542  36.403  1.00  0.00     0.173 A 
ATOM     74  F   UNL A   1      40.632  33.870  34.587  1.00  0.00    -0.203 F 
ATOM     75  C   UNL A   1      39.345  34.185  36.536  1.00  0.00     0.198 A 
ATOM     76  C   UNL A   1      38.056  32.367  37.426  1.00  0.00     0.198 A 
ATOM     77  F   UNL A   1      38.099  30.266  36.365  1.00  0.00    -0.203 F 
ATOM     78  F   UNL A   1      39.770  35.454  36.613  1.00  0.00    -0.200 F 
ATOM     79  C   UNL A   1      38.473  33.687  37.494  1.00  0.00     0.200 A 
ATOM     80  F   UNL A   1      37.207  31.885  38.344  1.00  0.00    -0.200 F 
ATOM     81  F   UNL A   1      38.041  34.478  38.485  1.00  0.00    -0.200 F 
ENDBRANCH  47  71
BRANCH  59  82
ATOM     82  C   UNL A   1      44.683  27.613  34.538  1.00  0.00     0.064 A 
ATOM     83  C   UNL A   1      45.899  28.305  34.610  1.00  0.00     0.173 A 
ATOM     84  C   UNL A   1      44.504  26.497  35.368  1.00  0.00     0.173 A 
ATOM     85  F   UNL A   1      46.119  29.368  33.822  1.00  0.00    -0.203 F 
ATOM     86  C   UNL A   1      46.908  27.886  35.472  1.00  0.00     0.198 A 
ATOM     87  C   UNL A   1      45.509  26.091  36.241  1.00  0.00     0.198 A 
ATOM     88  F   UNL A   1      43.356  25.805  35.332  1.00  0.00    -0.203 F 
ATOM     89  F   UNL A   1      48.077  28.541  35.503  1.00  0.00    -0.200 F 
ATOM     90  C   UNL A   1      46.710  26.782  36.290  1.00  0.00     0.200 A 
ATOM     91  F   UNL A   1      45.316  25.027  37.033  1.00  0.00    -0.200 F 
ATOM     92  F   UNL A   1      47.683  26.379  37.119  1.00  0.00    -0.200 F 
ENDBRANCH  59  82
ENDBRANCH  33  34
ENDBRANCH  26  28
ENDBRANCH  25  26
ENDBRANCH  24  25
ENDBRANCH   1  24
TORSDOF 14
ENDMDL
MODEL 3
REMARK VINA RESULT:     -12.0      1.205      3.692
REMARK SMILES C[N@@H+]1CCC[C@@H](C(=O)N[C@H](C(=O)OCCOC(=O)c2ccc(-c3c4nc(c(-c5c(F)c(F)c(F)c(F)c5F)c5ccc([nH]5)c(-c5c(F)c(F)c(F)c(F)c5F)c5nc(c(-c6c(F)c(F)c(F)c(F)c6F)c6ccc3[nH]6)C=C5)C=C4)cc2)c2ccccc2)C1
REMARK SMILES IDX 14 1 13 2 11 3 12 4 10 5 9 6 7 7 8 8 6 10 1 11 2 12 3 13
REMARK SMILES IDX 88 14 4 16 5 17 82 18 83 19 87 20 84 21 86 22 85 23 15 24
REMARK SMILES IDX 16 25 17 26 18 27 19 28 20 29 81 30 21 31 80 32 22 33 23 34
REMARK SMILES IDX 24 35 74 36 25 37 79 38 73 39 75 40 26 41 78 42 72 43 71 44
REMARK SMILES IDX 27 46 59 47 39 48 58 49 40 50 43 51 57 52 76 53 41 54 42 55
REMARK SMILES IDX 56 57 77 58 44 59 28 60 29 61 37 62 30 63 31 64 35 65 38 66
REMARK SMILES IDX 32 67 33 68 36 69 34 70 60 71 61 72 69 73 62 74 63 75 67 76
REMARK SMILES IDX 70 77 64 78 65 79 68 80 66 81 45 82 46 83 54 84 47 85 48 86
REMARK SMILES IDX 52 87 55 88 49 89 50 90 53 91 51 92
REMARK H PARENT 9 9 2 15 75 45 43 56
REMARK Flexibility Score: inf
ROOT
ATOM      1  C   UNL A   1      31.759  28.760  27.110  1.00  0.00     0.274 C 
ENDROOT
BRANCH   1   2
ATOM      2  O   UNL A   1      32.003  27.915  25.965  1.00  0.00    -0.460 OA
BRANCH   2   3
ATOM      3  C   UNL A   1      31.101  26.935  25.723  1.00  0.00     0.333 C 
ATOM      4  O   UNL A   1      30.457  26.404  26.628  1.00  0.00    -0.249 OA
BRANCH   3   5
ATOM      5  C   UNL A   1      30.983  26.469  24.251  1.00  0.00     0.223 C 
BRANCH   5   6
ATOM      6  N   UNL A   1      31.462  27.589  23.419  1.00  0.00    -0.339 N 
ATOM      7  C   UNL A   1      30.970  28.808  23.108  1.00  0.00     0.229 C 
ATOM      8  O   UNL A   1      31.721  29.533  22.441  1.00  0.00    -0.275 OA
ATOM      9  H   UNL A   1      32.332  27.407  22.997  1.00  0.00     0.164 HD
BRANCH   7  10
ATOM     10  C   UNL A   1      29.592  29.342  23.494  1.00  0.00     0.133 C 
ATOM     11  C   UNL A   1      29.259  33.100  23.109  1.00  0.00     0.332 C 
ATOM     12  N   UNL A   1      29.198  31.690  22.742  1.00  0.00    -0.337 N 
ATOM     13  C   UNL A   1      27.896  31.328  22.181  1.00  0.00     0.262 C 
ATOM     14  C   UNL A   1      29.550  30.823  23.869  1.00  0.00     0.275 C 
ATOM     15  H   UNL A   1      29.895  31.544  22.012  1.00  0.00     0.347 HD
ATOM     16  C   UNL A   1      27.944  29.915  21.604  1.00  0.00     0.062 C 
ATOM     17  C   UNL A   1      28.438  28.875  22.603  1.00  0.00     0.025 C 
ENDBRANCH   7  10
ENDBRANCH   5   6
BRANCH   5  18
ATOM     18  C   UNL A   1      31.616  25.174  23.732  1.00  0.00    -0.014 A 
ATOM     19  C   UNL A   1      30.937  23.985  23.442  1.00  0.00     0.006 A 
ATOM     20  C   UNL A   1      32.998  25.202  23.420  1.00  0.00     0.006 A 
ATOM     21  C   UNL A   1      31.603  22.878  22.895  1.00  0.00     0.000 A 
ATOM     22  C   UNL A   1      33.664  24.104  22.874  1.00  0.00     0.000 A 
ATOM     23  C   UNL A   1      32.963  22.937  22.611  1.00  0.00     0.000 A 
ENDBRANCH   5  18
ENDBRANCH   3   5
ENDBRANCH   2   3
ENDBRANCH   1   2
BRANCH   1  24
ATOM     24  C   UNL A   1      31.785  30.242  26.733  1.00  0.00     0.275 C 
BRANCH  24  25
ATOM     25  O   UNL A   1      33.121  30.682  26.424  1.00  0.00    -0.458 OA
BRANCH  25  26
ATOM     26  C   UNL A   1      33.616  31.629  27.250  1.00  0.00     0.338 C 
ATOM     27  O   UNL A   1      33.056  32.635  27.650  1.00  0.00    -0.246 OA
BRANCH  26  28
ATOM     28  C   UNL A   1      34.957  31.247  27.707  1.00  0.00     0.060 A 
ATOM     29  C   UNL A   1      35.182  29.916  28.047  1.00  0.00     0.016 A 
ATOM     30  C   UNL A   1      35.921  32.217  27.981  1.00  0.00     0.016 A 
ATOM     31  C   UNL A   1      36.324  29.556  28.749  1.00  0.00     0.010 A 
ATOM     32  C   UNL A   1      37.108  31.839  28.619  1.00  0.00     0.010 A 
ATOM     33  C   UNL A   1      37.300  30.512  29.046  1.00  0.00    -0.014 A 
BRANCH  33  34
ATOM     34  C   UNL A   1      38.464  30.131  29.884  1.00  0.00     0.031 A 
ATOM     35  C   UNL A   1      39.558  29.288  29.294  1.00  0.00     0.074 A 
ATOM     36  C   UNL A   1      38.583  30.592  31.143  1.00  0.00     0.049 A 
ATOM     37  N   UNL A   1      40.564  28.697  29.889  1.00  0.00    -0.248 NA
ATOM     38  C   UNL A   1      39.509  29.072  27.840  1.00  0.00     0.031 C 
ATOM     39  C   UNL A   1      37.650  31.504  31.803  1.00  0.00     0.029 A 
ATOM     40  N   UNL A   1      39.561  30.377  32.082  1.00  0.00    -0.354 N 
ATOM     41  C   UNL A   1      41.225  27.989  28.895  1.00  0.00     0.074 A 
ATOM     42  C   UNL A   1      40.520  28.234  27.655  1.00  0.00     0.031 C 
ATOM     43  C   UNL A   1      38.125  31.812  33.019  1.00  0.00     0.029 A 
ATOM     44  C   UNL A   1      39.350  31.055  33.257  1.00  0.00     0.049 A 
ATOM     45  H   UNL A   1      40.338  29.793  31.929  1.00  0.00     0.167 HD
ATOM     46  C   UNL A   1      42.316  27.195  29.014  1.00  0.00     0.037 A 
ATOM     47  C   UNL A   1      40.052  31.043  34.405  1.00  0.00     0.037 A 
ATOM     48  C   UNL A   1      43.053  27.011  30.236  1.00  0.00     0.049 A 
ATOM     49  C   UNL A   1      41.249  30.144  34.522  1.00  0.00     0.074 A 
ATOM     50  C   UNL A   1      44.149  26.202  30.476  1.00  0.00     0.029 A 
ATOM     51  N   UNL A   1      42.781  27.678  31.421  1.00  0.00    -0.354 N 
ATOM     52  N   UNL A   1      41.791  29.367  33.617  1.00  0.00    -0.248 NA
ATOM     53  C   UNL A   1      41.912  30.096  35.833  1.00  0.00     0.031 C 
ATOM     54  C   UNL A   1      44.532  26.368  31.813  1.00  0.00     0.029 A 
ATOM     55  C   UNL A   1      43.690  27.302  32.397  1.00  0.00     0.049 A 
ATOM     56  H   UNL A   1      42.049  28.324  31.552  1.00  0.00     0.167 HD
ATOM     57  C   UNL A   1      42.855  28.737  34.242  1.00  0.00     0.074 A 
ATOM     58  C   UNL A   1      42.898  29.239  35.601  1.00  0.00     0.031 C 
ATOM     59  C   UNL A   1      43.713  27.817  33.741  1.00  0.00     0.037 A 
BRANCH  46  60
ATOM     60  C   UNL A   1      42.738  26.425  27.800  1.00  0.00     0.064 A 
ATOM     61  C   UNL A   1      42.223  25.156  27.506  1.00  0.00     0.173 A 
ATOM     62  C   UNL A   1      43.681  26.975  26.917  1.00  0.00     0.173 A 
ATOM     63  F   UNL A   1      41.336  24.580  28.331  1.00  0.00    -0.203 F 
ATOM     64  C   UNL A   1      42.657  24.452  26.384  1.00  0.00     0.198 A 
ATOM     65  C   UNL A   1      44.094  26.279  25.786  1.00  0.00     0.198 A 
ATOM     66  F   UNL A   1      44.203  28.188  27.155  1.00  0.00    -0.203 F 
ATOM     67  F   UNL A   1      42.187  23.220  26.145  1.00  0.00    -0.200 F 
ATOM     68  C   UNL A   1      43.587  25.016  25.523  1.00  0.00     0.200 A 
ATOM     69  F   UNL A   1      44.989  26.827  24.952  1.00  0.00    -0.200 F 
ATOM     70  F   UNL A   1      44.005  24.336  24.446  1.00  0.00    -0.200 F 
ENDBRANCH  46  60
BRANCH  47  71
ATOM     71  C   UNL A   1      39.614  31.891  35.542  1.00  0.00     0.064 A 
ATOM     72  C   UNL A   1      40.175  33.158  35.748  1.00  0.00     0.173 A 
ATOM     73  C   UNL A   1      38.612  31.467  36.427  1.00  0.00     0.173 A 
ATOM     74  F   UNL A   1      41.156  33.595  34.944  1.00  0.00    -0.203 F 
ATOM     75  C   UNL A   1      39.747  33.971  36.796  1.00  0.00     0.198 A 
ATOM     76  C   UNL A   1      38.169  32.289  37.459  1.00  0.00     0.198 A 
ATOM     77  F   UNL A   1      38.047  30.259  36.274  1.00  0.00    -0.203 F 
ATOM     78  F   UNL A   1      40.318  35.168  36.988  1.00  0.00    -0.200 F 
ATOM     79  C   UNL A   1      38.738  33.539  37.645  1.00  0.00     0.200 A 
ATOM     80  F   UNL A   1      37.187  31.873  38.271  1.00  0.00    -0.200 F 
ATOM     81  F   UNL A   1      38.319  34.326  38.644  1.00  0.00    -0.200 F 
ENDBRANCH  47  71
BRANCH  59  82
ATOM     82  C   UNL A   1      44.776  27.307  34.664  1.00  0.00     0.064 A 
ATOM     83  C   UNL A   1      44.576  26.156  35.438  1.00  0.00     0.173 A 
ATOM     84  C   UNL A   1      46.015  27.959  34.751  1.00  0.00     0.173 A 
ATOM     85  F   UNL A   1      43.401  25.511  35.397  1.00  0.00    -0.203 F 
ATOM     86  C   UNL A   1      45.576  25.683  36.283  1.00  0.00     0.198 A 
ATOM     87  C   UNL A   1      47.017  27.474  35.584  1.00  0.00     0.198 A 
ATOM     88  F   UNL A   1      46.250  29.063  34.028  1.00  0.00    -0.203 F 
ATOM     89  F   UNL A   1      45.354  24.601  37.041  1.00  0.00    -0.200 F 
ATOM     90  C   UNL A   1      46.797  26.340  36.352  1.00  0.00     0.200 A 
ATOM     91  F   UNL A   1      48.197  28.106  35.648  1.00  0.00    -0.200 F 
ATOM     92  F   UNL A   1      47.758  25.883  37.167  1.00  0.00    -0.200 F 
ENDBRANCH  59  82
ENDBRANCH  33  34
ENDBRANCH  26  28
ENDBRANCH  25  26
ENDBRANCH  24  25
ENDBRANCH   1  24
TORSDOF 14
ENDMDL
