MODEL 1
REMARK VINA RESULT:     -11.6      0.000      0.000
REMARK SMILES CCC(C)(C)NC(=O)[C@@H](C)Oc1ccc(C)nc1C(=O)OCCOC(=O)c1ccc(-c2c3nc(c(-c4c(F)c(F)c(F)c(F)c4F)c4ccc([nH]4)c(-c4c(F)c(F)c(F)c(F)c4F)c4nc(c(-c5c(F)c(F)c(F)c(F)c5F)c5ccc2[nH]5)C=C4)C=C3)cc1
REMARK SMILES IDX 21 1 19 2 20 3 18 4 12 5 13 6 14 7 17 8 15 9 16 10 11 11
REMARK SMILES IDX 9 12 10 13 7 14 6 15 8 17 3 18 4 19 5 20 2 21 1 22 22 23
REMARK SMILES IDX 23 24 24 25 25 26 26 27 27 28 28 29 89 30 29 31 88 32 30 33
REMARK SMILES IDX 31 34 32 35 82 36 33 37 87 38 81 39 83 40 34 41 86 42 80 43
REMARK SMILES IDX 79 44 35 46 67 47 47 48 66 49 48 50 51 51 65 52 84 53 49 54
REMARK SMILES IDX 50 55 64 57 85 58 52 59 36 60 37 61 45 62 38 63 39 64 43 65
REMARK SMILES IDX 46 66 40 67 41 68 44 69 42 70 68 71 69 72 77 73 70 74 71 75
REMARK SMILES IDX 75 76 78 77 72 78 73 79 76 80 74 81 53 82 54 83 62 84 55 85
REMARK SMILES IDX 56 86 60 87 63 88 57 89 58 90 61 91 59 92
REMARK H PARENT 6 16 83 45 51 56
REMARK Flexibility Score: inf
ROOT
ATOM      1  O   UNL A   1      35.531  22.524  25.471  1.00  0.00    -0.457 OA
ENDROOT
BRANCH   1   2
ATOM      2  C   UNL A   1      34.497  21.905  26.100  1.00  0.00     0.360 C 
ATOM      3  O   UNL A   1      34.306  21.909  27.309  1.00  0.00    -0.244 OA
BRANCH   2   4
ATOM      4  C   UNL A   1      33.546  21.254  25.149  1.00  0.00     0.190 A 
ATOM      5  C   UNL A   1      32.804  21.944  24.193  1.00  0.00     0.153 A 
ATOM      6  C   UNL A   1      32.280  21.186  23.151  1.00  0.00     0.051 A 
ATOM      7  C   UNL A   1      32.264  19.793  23.235  1.00  0.00     0.027 A 
ATOM      8  N   UNL A   1      33.519  19.891  25.260  1.00  0.00    -0.243 NA
ATOM      9  C   UNL A   1      32.805  19.191  24.356  1.00  0.00     0.039 A 
ATOM     10  C   UNL A   1      32.528  17.756  24.683  1.00  0.00     0.067 C 
BRANCH   5  11
ATOM     11  O   UNL A   1      32.653  23.290  24.267  1.00  0.00    -0.478 OA
BRANCH  11  12
ATOM     12  C   UNL A   1      31.453  23.823  24.830  1.00  0.00     0.259 C 
ATOM     13  C   UNL A   1      30.609  24.439  23.699  1.00  0.00     0.064 C 
BRANCH  12  14
ATOM     14  C   UNL A   1      31.292  24.640  26.161  1.00  0.00     0.261 C 
ATOM     15  N   UNL A   1      30.969  25.969  26.165  1.00  0.00    -0.348 N 
ATOM     16  H   UNL A   1      30.006  26.166  26.116  1.00  0.00     0.164 HD
ATOM     17  O   UNL A   1      31.276  24.054  27.251  1.00  0.00    -0.271 OA
BRANCH  15  18
ATOM     18  C   UNL A   1      31.858  27.164  26.232  1.00  0.00     0.034 C 
ATOM     19  C   UNL A   1      31.701  27.873  27.599  1.00  0.00     0.034 C 
ATOM     20  C   UNL A   1      31.334  28.153  25.163  1.00  0.00     0.034 C 
BRANCH  18  21
ATOM     21  C   UNL A   1      33.371  26.940  25.976  1.00  0.00     0.024 C 
ATOM     22  C   UNL A   1      33.840  26.757  24.546  1.00  0.00     0.006 C 
ENDBRANCH  18  21
ENDBRANCH  15  18
ENDBRANCH  12  14
ENDBRANCH  11  12
ENDBRANCH   5  11
ENDBRANCH   2   4
ENDBRANCH   1   2
BRANCH   1  23
ATOM     23  C   UNL A   1      36.112  21.777  24.383  1.00  0.00     0.275 C 
BRANCH  23  24
ATOM     24  C   UNL A   1      37.182  20.825  24.914  1.00  0.00     0.275 C 
BRANCH  24  25
ATOM     25  O   UNL A   1      37.776  21.380  26.101  1.00  0.00    -0.458 OA
BRANCH  25  26
ATOM     26  C   UNL A   1      39.116  21.290  26.186  1.00  0.00     0.338 C 
ATOM     27  O   UNL A   1      39.819  20.319  25.925  1.00  0.00    -0.246 OA
BRANCH  26  28
ATOM     28  C   UNL A   1      39.667  22.559  26.679  1.00  0.00     0.060 A 
ATOM     29  C   UNL A   1      39.196  23.772  26.173  1.00  0.00     0.016 A 
ATOM     30  C   UNL A   1      40.738  22.537  27.573  1.00  0.00     0.016 A 
ATOM     31  C   UNL A   1      39.820  24.968  26.535  1.00  0.00     0.010 A 
ATOM     32  C   UNL A   1      41.331  23.739  27.968  1.00  0.00     0.010 A 
ATOM     33  C   UNL A   1      40.900  24.965  27.430  1.00  0.00    -0.014 A 
BRANCH  33  34
ATOM     34  C   UNL A   1      41.626  26.221  27.763  1.00  0.00     0.031 A 
ATOM     35  C   UNL A   1      40.926  27.301  28.547  1.00  0.00     0.074 A 
ATOM     36  C   UNL A   1      42.896  26.412  27.359  1.00  0.00     0.049 A 
ATOM     37  N   UNL A   1      41.309  28.528  28.801  1.00  0.00    -0.248 NA
ATOM     38  C   UNL A   1      39.614  26.955  29.116  1.00  0.00     0.031 C 
ATOM     39  C   UNL A   1      43.707  25.437  26.631  1.00  0.00     0.029 A 
ATOM     40  N   UNL A   1      43.723  27.501  27.494  1.00  0.00    -0.354 N 
ATOM     41  C   UNL A   1      40.270  29.110  29.518  1.00  0.00     0.074 A 
ATOM     42  C   UNL A   1      39.238  28.106  29.657  1.00  0.00     0.031 C 
ATOM     43  C   UNL A   1      44.915  25.970  26.385  1.00  0.00     0.029 A 
ATOM     44  C   UNL A   1      44.943  27.343  26.882  1.00  0.00     0.049 A 
ATOM     45  H   UNL A   1      43.467  28.316  27.982  1.00  0.00     0.167 HD
ATOM     46  C   UNL A   1      40.189  30.367  30.015  1.00  0.00     0.037 A 
ATOM     47  C   UNL A   1      45.955  28.216  26.709  1.00  0.00     0.037 A 
ATOM     48  C   UNL A   1      41.232  31.354  29.915  1.00  0.00     0.049 A 
ATOM     49  C   UNL A   1      45.821  29.619  27.240  1.00  0.00     0.074 A 
ATOM     50  C   UNL A   1      41.248  32.647  30.410  1.00  0.00     0.029 A 
ATOM     51  N   UNL A   1      42.449  31.154  29.282  1.00  0.00    -0.354 N 
ATOM     52  N   UNL A   1      44.832  30.163  27.904  1.00  0.00    -0.248 NA
ATOM     53  C   UNL A   1      46.947  30.532  26.989  1.00  0.00     0.031 C 
ATOM     54  C   UNL A   1      42.460  33.242  30.043  1.00  0.00     0.029 A 
ATOM     55  C   UNL A   1      43.218  32.305  29.362  1.00  0.00     0.049 A 
ATOM     56  H   UNL A   1      42.727  30.318  28.842  1.00  0.00     0.167 HD
ATOM     57  C   UNL A   1      45.223  31.469  28.171  1.00  0.00     0.074 A 
ATOM     58  C   UNL A   1      46.547  31.633  27.611  1.00  0.00     0.031 C 
ATOM     59  C   UNL A   1      44.542  32.446  28.817  1.00  0.00     0.037 A 
BRANCH  46  60
ATOM     60  C   UNL A   1      38.914  30.768  30.700  1.00  0.00     0.064 A 
ATOM     61  C   UNL A   1      38.740  30.628  32.083  1.00  0.00     0.173 A 
ATOM     62  C   UNL A   1      37.875  31.361  29.964  1.00  0.00     0.173 A 
ATOM     63  F   UNL A   1      39.698  30.057  32.830  1.00  0.00    -0.203 F 
ATOM     64  C   UNL A   1      37.567  31.052  32.704  1.00  0.00     0.198 A 
ATOM     65  C   UNL A   1      36.716  31.808  30.591  1.00  0.00     0.198 A 
ATOM     66  F   UNL A   1      37.995  31.525  28.638  1.00  0.00    -0.203 F 
ATOM     67  F   UNL A   1      37.410  30.878  34.024  1.00  0.00    -0.200 F 
ATOM     68  C   UNL A   1      36.561  31.649  31.960  1.00  0.00     0.200 A 
ATOM     69  F   UNL A   1      35.750  32.397  29.872  1.00  0.00    -0.200 F 
ATOM     70  F   UNL A   1      35.440  32.069  32.562  1.00  0.00    -0.200 F 
ENDBRANCH  46  60
BRANCH  47  71
ATOM     71  C   UNL A   1      47.178  27.803  25.970  1.00  0.00     0.064 A 
ATOM     72  C   UNL A   1      47.215  27.816  24.569  1.00  0.00     0.173 A 
ATOM     73  C   UNL A   1      48.323  27.358  26.648  1.00  0.00     0.173 A 
ATOM     74  F   UNL A   1      46.134  28.205  23.876  1.00  0.00    -0.203 F 
ATOM     75  C   UNL A   1      48.341  27.381  23.874  1.00  0.00     0.198 A 
ATOM     76  C   UNL A   1      49.461  26.953  25.952  1.00  0.00     0.198 A 
ATOM     77  F   UNL A   1      48.338  27.319  27.988  1.00  0.00    -0.203 F 
ATOM     78  F   UNL A   1      48.328  27.351  22.535  1.00  0.00    -0.200 F 
ATOM     79  C   UNL A   1      49.465  26.956  24.566  1.00  0.00     0.200 A 
ATOM     80  F   UNL A   1      50.547  26.551  26.625  1.00  0.00    -0.200 F 
ATOM     81  F   UNL A   1      50.547  26.535  23.897  1.00  0.00    -0.200 F 
ENDBRANCH  47  71
BRANCH  59  82
ATOM     82  C   UNL A   1      45.236  33.765  28.998  1.00  0.00     0.064 A 
ATOM     83  C   UNL A   1      46.060  34.019  30.104  1.00  0.00     0.173 A 
ATOM     84  C   UNL A   1      45.102  34.774  28.032  1.00  0.00     0.173 A 
ATOM     85  F   UNL A   1      46.208  33.092  31.062  1.00  0.00    -0.203 F 
ATOM     86  C   UNL A   1      46.705  35.245  30.248  1.00  0.00     0.198 A 
ATOM     87  C   UNL A   1      45.770  35.988  28.165  1.00  0.00     0.198 A 
ATOM     88  F   UNL A   1      44.331  34.578  26.952  1.00  0.00    -0.203 F 
ATOM     89  F   UNL A   1      47.451  35.483  31.335  1.00  0.00    -0.200 F 
ATOM     90  C   UNL A   1      46.565  36.225  29.276  1.00  0.00     0.200 A 
ATOM     91  F   UNL A   1      45.644  36.929  27.219  1.00  0.00    -0.200 F 
ATOM     92  F   UNL A   1      47.191  37.401  29.414  1.00  0.00    -0.200 F 
ENDBRANCH  59  82
ENDBRANCH  33  34
ENDBRANCH  26  28
ENDBRANCH  25  26
ENDBRANCH  24  25
ENDBRANCH  23  24
ENDBRANCH   1  23
TORSDOF 16
ENDMDL
MODEL 2
REMARK VINA RESULT:     -11.3      0.974      2.130
REMARK SMILES CCC(C)(C)NC(=O)[C@@H](C)Oc1ccc(C)nc1C(=O)OCCOC(=O)c1ccc(-c2c3nc(c(-c4c(F)c(F)c(F)c(F)c4F)c4ccc([nH]4)c(-c4c(F)c(F)c(F)c(F)c4F)c4nc(c(-c5c(F)c(F)c(F)c(F)c5F)c5ccc2[nH]5)C=C4)C=C3)cc1
REMARK SMILES IDX 21 1 19 2 20 3 18 4 12 5 13 6 14 7 17 8 15 9 16 10 11 11
REMARK SMILES IDX 9 12 10 13 7 14 6 15 8 17 3 18 4 19 5 20 2 21 1 22 22 23
REMARK SMILES IDX 23 24 24 25 25 26 26 27 27 28 28 29 89 30 29 31 88 32 30 33
REMARK SMILES IDX 31 34 32 35 82 36 33 37 87 38 81 39 83 40 34 41 86 42 80 43
REMARK SMILES IDX 79 44 35 46 67 47 47 48 66 49 48 50 51 51 65 52 84 53 49 54
REMARK SMILES IDX 50 55 64 57 85 58 52 59 36 60 37 61 45 62 38 63 39 64 43 65
REMARK SMILES IDX 46 66 40 67 41 68 44 69 42 70 68 71 69 72 77 73 70 74 71 75
REMARK SMILES IDX 75 76 78 77 72 78 73 79 76 80 74 81 53 82 54 83 62 84 55 85
REMARK SMILES IDX 56 86 60 87 63 88 57 89 58 90 61 91 59 92
REMARK H PARENT 6 16 83 45 51 56
REMARK Flexibility Score: inf
ROOT
ATOM      1  O   UNL A   1      36.177  23.234  24.443  1.00  0.00    -0.457 OA
ENDROOT
BRANCH   1   2
ATOM      2  C   UNL A   1      34.965  23.452  23.868  1.00  0.00     0.360 C 
ATOM      3  O   UNL A   1      34.778  24.096  22.844  1.00  0.00    -0.244 OA
BRANCH   2   4
ATOM      4  C   UNL A   1      33.851  22.759  24.583  1.00  0.00     0.190 A 
ATOM      5  C   UNL A   1      33.059  23.359  25.560  1.00  0.00     0.153 A 
ATOM      6  C   UNL A   1      31.847  22.737  25.841  1.00  0.00     0.051 A 
ATOM      7  C   UNL A   1      31.596  21.446  25.376  1.00  0.00     0.027 A 
ATOM      8  N   UNL A   1      33.633  21.485  24.138  1.00  0.00    -0.243 NA
ATOM      9  C   UNL A   1      32.561  20.818  24.610  1.00  0.00     0.039 A 
ATOM     10  C   UNL A   1      32.525  19.342  24.365  1.00  0.00     0.067 C 
BRANCH   5  11
ATOM     11  O   UNL A   1      33.446  24.513  26.158  1.00  0.00    -0.478 OA
BRANCH  11  12
ATOM     12  C   UNL A   1      32.943  25.754  25.662  1.00  0.00     0.259 C 
ATOM     13  C   UNL A   1      33.957  26.866  25.993  1.00  0.00     0.064 C 
BRANCH  12  14
ATOM     14  C   UNL A   1      31.471  26.297  25.733  1.00  0.00     0.261 C 
ATOM     15  N   UNL A   1      30.643  26.302  24.644  1.00  0.00    -0.348 N 
ATOM     16  H   UNL A   1      30.156  25.462  24.485  1.00  0.00     0.164 HD
ATOM     17  O   UNL A   1      30.962  26.567  26.828  1.00  0.00    -0.271 OA
BRANCH  15  18
ATOM     18  C   UNL A   1      30.370  27.389  23.662  1.00  0.00     0.034 C 
ATOM     19  C   UNL A   1      30.803  28.757  24.244  1.00  0.00     0.034 C 
ATOM     20  C   UNL A   1      28.832  27.450  23.502  1.00  0.00     0.034 C 
BRANCH  18  21
ATOM     21  C   UNL A   1      30.993  27.246  22.250  1.00  0.00     0.024 C 
ATOM     22  C   UNL A   1      32.442  26.818  22.142  1.00  0.00     0.006 C 
ENDBRANCH  18  21
ENDBRANCH  15  18
ENDBRANCH  12  14
ENDBRANCH  11  12
ENDBRANCH   5  11
ENDBRANCH   2   4
ENDBRANCH   1   2
BRANCH   1  23
ATOM     23  C   UNL A   1      37.028  22.314  23.730  1.00  0.00     0.275 C 
BRANCH  23  24
ATOM     24  C   UNL A   1      37.384  21.129  24.626  1.00  0.00     0.275 C 
BRANCH  24  25
ATOM     25  O   UNL A   1      37.809  21.608  25.914  1.00  0.00    -0.458 OA
BRANCH  25  26
ATOM     26  C   UNL A   1      39.111  21.431  26.208  1.00  0.00     0.338 C 
ATOM     27  O   UNL A   1      39.762  20.395  26.126  1.00  0.00    -0.246 OA
BRANCH  26  28
ATOM     28  C   UNL A   1      39.686  22.695  26.688  1.00  0.00     0.060 A 
ATOM     29  C   UNL A   1      39.256  23.910  26.152  1.00  0.00     0.016 A 
ATOM     30  C   UNL A   1      40.738  22.662  27.603  1.00  0.00     0.016 A 
ATOM     31  C   UNL A   1      39.904  25.096  26.502  1.00  0.00     0.010 A 
ATOM     32  C   UNL A   1      41.355  23.855  27.987  1.00  0.00     0.010 A 
ATOM     33  C   UNL A   1      40.967  25.082  27.419  1.00  0.00    -0.014 A 
BRANCH  33  34
ATOM     34  C   UNL A   1      41.718  26.325  27.742  1.00  0.00     0.031 A 
ATOM     35  C   UNL A   1      41.052  27.411  28.545  1.00  0.00     0.074 A 
ATOM     36  C   UNL A   1      42.983  26.498  27.312  1.00  0.00     0.049 A 
ATOM     37  N   UNL A   1      41.459  28.631  28.798  1.00  0.00    -0.248 NA
ATOM     38  C   UNL A   1      39.747  27.083  29.140  1.00  0.00     0.031 C 
ATOM     39  C   UNL A   1      43.764  25.515  26.562  1.00  0.00     0.029 A 
ATOM     40  N   UNL A   1      43.830  27.573  27.435  1.00  0.00    -0.354 N 
ATOM     41  C   UNL A   1      40.446  29.225  29.539  1.00  0.00     0.074 A 
ATOM     42  C   UNL A   1      39.400  28.237  29.694  1.00  0.00     0.031 C 
ATOM     43  C   UNL A   1      44.974  26.030  26.294  1.00  0.00     0.029 A 
ATOM     44  C   UNL A   1      45.034  27.399  26.797  1.00  0.00     0.049 A 
ATOM     45  H   UNL A   1      43.596  28.390  27.932  1.00  0.00     0.167 HD
ATOM     46  C   UNL A   1      40.394  30.481  30.044  1.00  0.00     0.037 A 
ATOM     47  C   UNL A   1      46.055  28.258  26.606  1.00  0.00     0.037 A 
ATOM     48  C   UNL A   1      41.450  31.452  29.926  1.00  0.00     0.049 A 
ATOM     49  C   UNL A   1      45.955  29.660  27.147  1.00  0.00     0.074 A 
ATOM     50  C   UNL A   1      41.497  32.742  30.427  1.00  0.00     0.029 A 
ATOM     51  N   UNL A   1      42.651  31.237  29.267  1.00  0.00    -0.354 N 
ATOM     52  N   UNL A   1      44.988  30.216  27.834  1.00  0.00    -0.248 NA
ATOM     53  C   UNL A   1      47.089  30.557  26.876  1.00  0.00     0.031 C 
ATOM     54  C   UNL A   1      42.710  33.321  30.038  1.00  0.00     0.029 A 
ATOM     55  C   UNL A   1      43.439  32.375  29.336  1.00  0.00     0.049 A 
ATOM     56  H   UNL A   1      42.906  30.399  28.817  1.00  0.00     0.167 HD
ATOM     57  C   UNL A   1      45.405  31.514  28.099  1.00  0.00     0.074 A 
ATOM     58  C   UNL A   1      46.720  31.660  27.512  1.00  0.00     0.031 C 
ATOM     59  C   UNL A   1      44.753  32.499  28.764  1.00  0.00     0.037 A 
BRANCH  46  60
ATOM     60  C   UNL A   1      39.140  30.898  30.757  1.00  0.00     0.064 A 
ATOM     61  C   UNL A   1      38.043  31.438  30.072  1.00  0.00     0.173 A 
ATOM     62  C   UNL A   1      39.014  30.691  32.140  1.00  0.00     0.173 A 
ATOM     63  F   UNL A   1      38.117  31.666  28.751  1.00  0.00    -0.203 F 
ATOM     64  C   UNL A   1      36.871  31.772  30.747  1.00  0.00     0.198 A 
ATOM     65  C   UNL A   1      37.832  31.001  32.807  1.00  0.00     0.198 A 
ATOM     66  F   UNL A   1      40.032  30.170  32.841  1.00  0.00    -0.203 F 
ATOM     67  F   UNL A   1      35.847  32.318  30.077  1.00  0.00    -0.200 F 
ATOM     68  C   UNL A   1      36.763  31.545  32.111  1.00  0.00     0.200 A 
ATOM     69  F   UNL A   1      37.725  30.768  34.123  1.00  0.00    -0.200 F 
ATOM     70  F   UNL A   1      35.630  31.853  32.755  1.00  0.00    -0.200 F 
ENDBRANCH  46  60
BRANCH  47  71
ATOM     71  C   UNL A   1      47.256  27.830  25.840  1.00  0.00     0.064 A 
ATOM     72  C   UNL A   1      47.255  27.826  24.439  1.00  0.00     0.173 A 
ATOM     73  C   UNL A   1      48.417  27.388  26.492  1.00  0.00     0.173 A 
ATOM     74  F   UNL A   1      46.157  28.211  23.770  1.00  0.00    -0.203 F 
ATOM     75  C   UNL A   1      48.360  27.376  23.719  1.00  0.00     0.198 A 
ATOM     76  C   UNL A   1      49.533  26.968  25.771  1.00  0.00     0.198 A 
ATOM     77  F   UNL A   1      48.468  27.364  27.832  1.00  0.00    -0.203 F 
ATOM     78  F   UNL A   1      48.311  27.331  22.381  1.00  0.00    -0.200 F 
ATOM     79  C   UNL A   1      49.500  26.954  24.385  1.00  0.00     0.200 A 
ATOM     80  F   UNL A   1      50.635  26.569  26.419  1.00  0.00    -0.200 F 
ATOM     81  F   UNL A   1      50.561  26.520  23.692  1.00  0.00    -0.200 F 
ENDBRANCH  47  71
BRANCH  59  82
ATOM     82  C   UNL A   1      45.471  33.805  28.936  1.00  0.00     0.064 A 
ATOM     83  C   UNL A   1      45.326  34.853  28.016  1.00  0.00     0.173 A 
ATOM     84  C   UNL A   1      46.286  34.023  30.058  1.00  0.00     0.173 A 
ATOM     85  F   UNL A   1      44.570  34.690  26.920  1.00  0.00    -0.203 F 
ATOM     86  C   UNL A   1      45.992  36.063  28.199  1.00  0.00     0.198 A 
ATOM     87  C   UNL A   1      46.928  35.243  30.252  1.00  0.00     0.198 A 
ATOM     88  F   UNL A   1      46.452  33.055  30.971  1.00  0.00    -0.203 F 
ATOM     89  F   UNL A   1      45.875  37.035  27.284  1.00  0.00    -0.200 F 
ATOM     90  C   UNL A   1      46.786  36.259  29.320  1.00  0.00     0.200 A 
ATOM     91  F   UNL A   1      47.684  35.435  31.342  1.00  0.00    -0.200 F 
ATOM     92  F   UNL A   1      47.420  37.426  29.497  1.00  0.00    -0.200 F 
ENDBRANCH  59  82
ENDBRANCH  33  34
ENDBRANCH  26  28
ENDBRANCH  25  26
ENDBRANCH  24  25
ENDBRANCH  23  24
ENDBRANCH   1  23
TORSDOF 16
ENDMDL
MODEL 3
REMARK VINA RESULT:     -11.3      4.516      9.929
REMARK SMILES CCC(C)(C)NC(=O)[C@@H](C)Oc1ccc(C)nc1C(=O)OCCOC(=O)c1ccc(-c2c3nc(c(-c4c(F)c(F)c(F)c(F)c4F)c4ccc([nH]4)c(-c4c(F)c(F)c(F)c(F)c4F)c4nc(c(-c5c(F)c(F)c(F)c(F)c5F)c5ccc2[nH]5)C=C4)C=C3)cc1
REMARK SMILES IDX 21 1 19 2 20 3 18 4 12 5 13 6 14 7 17 8 15 9 16 10 11 11
REMARK SMILES IDX 9 12 10 13 7 14 6 15 8 17 3 18 4 19 5 20 2 21 1 22 22 23
REMARK SMILES IDX 23 24 24 25 25 26 26 27 27 28 28 29 89 30 29 31 88 32 30 33
REMARK SMILES IDX 31 34 32 35 82 36 33 37 87 38 81 39 83 40 34 41 86 42 80 43
REMARK SMILES IDX 79 44 35 46 67 47 47 48 66 49 48 50 51 51 65 52 84 53 49 54
REMARK SMILES IDX 50 55 64 57 85 58 52 59 36 60 37 61 45 62 38 63 39 64 43 65
REMARK SMILES IDX 46 66 40 67 41 68 44 69 42 70 68 71 69 72 77 73 70 74 71 75
REMARK SMILES IDX 75 76 78 77 72 78 73 79 76 80 74 81 53 82 54 83 62 84 55 85
REMARK SMILES IDX 56 86 60 87 63 88 57 89 58 90 61 91 59 92
REMARK H PARENT 6 16 83 45 51 56
REMARK Flexibility Score: inf
ROOT
ATOM      1  O   UNL A   1      32.703  29.254  24.533  1.00  0.00    -0.457 OA
ENDROOT
BRANCH   1   2
ATOM      2  C   UNL A   1      32.482  28.405  23.495  1.00  0.00     0.360 C 
ATOM      3  O   UNL A   1      33.354  27.912  22.791  1.00  0.00    -0.244 OA
BRANCH   2   4
ATOM      4  C   UNL A   1      31.038  28.062  23.323  1.00  0.00     0.190 A 
ATOM      5  C   UNL A   1      30.466  26.864  23.748  1.00  0.00     0.153 A 
ATOM      6  C   UNL A   1      29.080  26.853  23.875  1.00  0.00     0.051 A 
ATOM      7  C   UNL A   1      28.316  27.885  23.330  1.00  0.00     0.027 A 
ATOM      8  N   UNL A   1      30.305  29.072  22.763  1.00  0.00    -0.243 NA
ATOM      9  C   UNL A   1      28.967  28.927  22.695  1.00  0.00     0.039 A 
ATOM     10  C   UNL A   1      28.232  29.878  21.802  1.00  0.00     0.067 C 
BRANCH   5  11
ATOM     11  O   UNL A   1      31.239  25.795  24.060  1.00  0.00    -0.478 OA
BRANCH  11  12
ATOM     12  C   UNL A   1      31.497  24.810  23.058  1.00  0.00     0.259 C 
ATOM     13  C   UNL A   1      30.649  23.561  23.363  1.00  0.00     0.064 C 
BRANCH  12  14
ATOM     14  C   UNL A   1      32.881  24.411  22.432  1.00  0.00     0.261 C 
ATOM     15  N   UNL A   1      33.503  23.230  22.735  1.00  0.00    -0.348 N 
ATOM     16  H   UNL A   1      33.218  22.457  22.197  1.00  0.00     0.164 HD
ATOM     17  O   UNL A   1      33.359  25.077  21.506  1.00  0.00    -0.271 OA
BRANCH  15  18
ATOM     18  C   UNL A   1      34.548  22.940  23.757  1.00  0.00     0.034 C 
ATOM     19  C   UNL A   1      34.139  21.713  24.608  1.00  0.00     0.034 C 
ATOM     20  C   UNL A   1      34.560  24.153  24.719  1.00  0.00     0.034 C 
BRANCH  18  21
ATOM     21  C   UNL A   1      35.997  22.716  23.252  1.00  0.00     0.024 C 
ATOM     22  C   UNL A   1      37.129  22.792  24.256  1.00  0.00     0.006 C 
ENDBRANCH  18  21
ENDBRANCH  15  18
ENDBRANCH  12  14
ENDBRANCH  11  12
ENDBRANCH   5  11
ENDBRANCH   2   4
ENDBRANCH   1   2
BRANCH   1  23
ATOM     23  C   UNL A   1      31.767  29.136  25.622  1.00  0.00     0.275 C 
BRANCH  23  24
ATOM     24  C   UNL A   1      31.830  30.381  26.505  1.00  0.00     0.275 C 
BRANCH  24  25
ATOM     25  O   UNL A   1      33.077  31.064  26.288  1.00  0.00    -0.458 OA
BRANCH  25  26
ATOM     26  C   UNL A   1      33.452  31.925  27.252  1.00  0.00     0.338 C 
ATOM     27  O   UNL A   1      32.875  32.947  27.609  1.00  0.00    -0.246 OA
BRANCH  26  28
ATOM     28  C   UNL A   1      34.723  31.484  27.843  1.00  0.00     0.060 A 
ATOM     29  C   UNL A   1      34.860  30.176  28.312  1.00  0.00     0.016 A 
ATOM     30  C   UNL A   1      35.747  32.411  28.030  1.00  0.00     0.016 A 
ATOM     31  C   UNL A   1      36.014  29.801  29.004  1.00  0.00     0.010 A 
ATOM     32  C   UNL A   1      36.919  32.021  28.683  1.00  0.00     0.010 A 
ATOM     33  C   UNL A   1      37.054  30.721  29.204  1.00  0.00    -0.014 A 
BRANCH  33  34
ATOM     34  C   UNL A   1      38.254  30.361  30.008  1.00  0.00     0.031 A 
ATOM     35  C   UNL A   1      39.278  29.416  29.435  1.00  0.00     0.074 A 
ATOM     36  C   UNL A   1      38.429  30.857  31.247  1.00  0.00     0.049 A 
ATOM     37  N   UNL A   1      40.303  28.844  30.018  1.00  0.00    -0.248 NA
ATOM     38  C   UNL A   1      39.125  29.062  28.015  1.00  0.00     0.031 C 
ATOM     39  C   UNL A   1      37.541  31.811  31.910  1.00  0.00     0.029 A 
ATOM     40  N   UNL A   1      39.411  30.614  32.177  1.00  0.00    -0.354 N 
ATOM     41  C   UNL A   1      40.886  28.033  29.052  1.00  0.00     0.074 A 
ATOM     42  C   UNL A   1      40.102  28.181  27.845  1.00  0.00     0.031 C 
ATOM     43  C   UNL A   1      38.018  32.075  33.137  1.00  0.00     0.029 A 
ATOM     44  C   UNL A   1      39.209  31.263  33.372  1.00  0.00     0.049 A 
ATOM     45  H   UNL A   1      40.184  30.030  32.006  1.00  0.00     0.167 HD
ATOM     46  C   UNL A   1      41.977  27.238  29.164  1.00  0.00     0.037 A 
ATOM     47  C   UNL A   1      39.884  31.185  34.535  1.00  0.00     0.037 A 
ATOM     48  C   UNL A   1      42.784  27.121  30.350  1.00  0.00     0.049 A 
ATOM     49  C   UNL A   1      41.072  30.265  34.642  1.00  0.00     0.074 A 
ATOM     50  C   UNL A   1      43.922  26.359  30.549  1.00  0.00     0.029 A 
ATOM     51  N   UNL A   1      42.541  27.792  31.539  1.00  0.00    -0.354 N 
ATOM     52  N   UNL A   1      41.607  29.492  33.729  1.00  0.00    -0.248 NA
ATOM     53  C   UNL A   1      41.744  30.200  35.948  1.00  0.00     0.031 C 
ATOM     54  C   UNL A   1      44.347  26.539  31.870  1.00  0.00     0.029 A 
ATOM     55  C   UNL A   1      43.500  27.450  32.480  1.00  0.00     0.049 A 
ATOM     56  H   UNL A   1      41.797  28.419  31.693  1.00  0.00     0.167 HD
ATOM     57  C   UNL A   1      42.689  28.872  34.339  1.00  0.00     0.074 A 
ATOM     58  C   UNL A   1      42.746  29.368  35.697  1.00  0.00     0.031 C 
ATOM     59  C   UNL A   1      43.555  27.968  33.821  1.00  0.00     0.037 A 
BRANCH  46  60
ATOM     60  C   UNL A   1      42.361  26.405  27.976  1.00  0.00     0.064 A 
ATOM     61  C   UNL A   1      41.769  25.160  27.722  1.00  0.00     0.173 A 
ATOM     62  C   UNL A   1      43.289  26.893  27.042  1.00  0.00     0.173 A 
ATOM     63  F   UNL A   1      40.884  24.643  28.589  1.00  0.00    -0.203 F 
ATOM     64  C   UNL A   1      42.104  24.426  26.586  1.00  0.00     0.198 A 
ATOM     65  C   UNL A   1      43.602  26.169  25.895  1.00  0.00     0.198 A 
ATOM     66  F   UNL A   1      43.879  28.082  27.234  1.00  0.00    -0.203 F 
ATOM     67  F   UNL A   1      41.550  23.222  26.381  1.00  0.00    -0.200 F 
ATOM     68  C   UNL A   1      43.012  24.934  25.670  1.00  0.00     0.200 A 
ATOM     69  F   UNL A   1      44.470  26.669  25.004  1.00  0.00    -0.200 F 
ATOM     70  F   UNL A   1      43.322  24.233  24.571  1.00  0.00    -0.200 F 
ENDBRANCH  46  60
BRANCH  47  71
ATOM     71  C   UNL A   1      39.438  31.978  35.712  1.00  0.00     0.064 A 
ATOM     72  C   UNL A   1      38.457  31.486  36.584  1.00  0.00     0.173 A 
ATOM     73  C   UNL A   1      39.958  33.255  35.970  1.00  0.00     0.173 A 
ATOM     74  F   UNL A   1      37.907  30.283  36.362  1.00  0.00    -0.203 F 
ATOM     75  C   UNL A   1      38.000  32.249  37.656  1.00  0.00     0.198 A 
ATOM     76  C   UNL A   1      39.523  34.003  37.061  1.00  0.00     0.198 A 
ATOM     77  F   UNL A   1      40.894  33.775  35.161  1.00  0.00    -0.203 F 
ATOM     78  F   UNL A   1      37.022  31.777  38.442  1.00  0.00    -0.200 F 
ATOM     79  C   UNL A   1      38.538  33.503  37.898  1.00  0.00     0.200 A 
ATOM     80  F   UNL A   1      40.052  35.212  37.295  1.00  0.00    -0.200 F 
ATOM     81  F   UNL A   1      38.095  34.237  38.928  1.00  0.00    -0.200 F 
ENDBRANCH  47  71
BRANCH  59  82
ATOM     82  C   UNL A   1      44.668  27.492  34.709  1.00  0.00     0.064 A 
ATOM     83  C   UNL A   1      45.888  28.178  34.794  1.00  0.00     0.173 A 
ATOM     84  C   UNL A   1      44.496  26.355  35.513  1.00  0.00     0.173 A 
ATOM     85  F   UNL A   1      46.107  29.262  34.034  1.00  0.00    -0.203 F 
ATOM     86  C   UNL A   1      46.904  27.728  35.633  1.00  0.00     0.198 A 
ATOM     87  C   UNL A   1      45.504  25.924  36.371  1.00  0.00     0.198 A 
ATOM     88  F   UNL A   1      43.345  25.667  35.474  1.00  0.00    -0.203 F 
ATOM     89  F   UNL A   1      48.078  28.373  35.664  1.00  0.00    -0.200 F 
ATOM     90  C   UNL A   1      46.709  26.607  36.425  1.00  0.00     0.200 A 
ATOM     91  F   UNL A   1      45.309  24.847  37.145  1.00  0.00    -0.200 F 
ATOM     92  F   UNL A   1      47.687  26.179  37.236  1.00  0.00    -0.200 F 
ENDBRANCH  59  82
ENDBRANCH  33  34
ENDBRANCH  26  28
ENDBRANCH  25  26
ENDBRANCH  24  25
ENDBRANCH  23  24
ENDBRANCH   1  23
TORSDOF 16
ENDMDL
