MODEL 1
REMARK VINA RESULT:     -13.7      0.000      0.000
REMARK SMILES Cc1nn(C(C)C)c(C)c1S(=O)(=O)Nc1cccc(C(=O)OCCOC(=O)c2ccc(-c3c4nc(c(-c5c(F)c(F)c(F)c(F)c5F)c5ccc([nH]5)c(-c5c(F)c(F)c(F)c(F)c5F)c5nc(c(-c6c(F)c(F)c(F)c(F)c6F)c6ccc3[nH]6)C=C5)C=C4)cc2)c1C
REMARK SMILES IDX 23 1 22 2 20 3 21 4 19 5 15 6 16 7 91 8 17 9 92 10 18 11
REMARK SMILES IDX 14 12 11 14 12 15 13 16 10 17 1 18 2 19 3 20 4 21 8 22 9 23
REMARK SMILES IDX 5 24 6 25 7 26 24 27 25 28 26 29 27 30 28 31 29 32 90 33
REMARK SMILES IDX 30 34 89 35 31 36 32 37 33 38 83 39 34 40 88 41 82 42 84 43
REMARK SMILES IDX 35 44 87 45 81 46 80 47 36 49 68 50 48 51 67 52 49 53 52 54
REMARK SMILES IDX 66 55 85 56 50 57 51 58 65 60 86 61 53 62 37 63 38 64 46 65
REMARK SMILES IDX 39 66 40 67 44 68 47 69 41 70 42 71 45 72 43 73 69 74 70 75
REMARK SMILES IDX 78 76 71 77 72 78 76 79 79 80 73 81 74 82 77 83 75 84 54 85
REMARK SMILES IDX 55 86 63 87 56 88 57 89 61 90 64 91 58 92 59 93 62 94 60 95
REMARK H PARENT 14 13 84 48 52 59
REMARK Flexibility Score: inf
ROOT
ATOM      1  C   UNL A   1      41.678  19.597  26.252  1.00  0.00     0.275 C 
ENDROOT
BRANCH   1   2
ATOM      2  O   UNL A   1      40.479  20.216  26.748  1.00  0.00    -0.458 OA
BRANCH   2   3
ATOM      3  C   UNL A   1      39.254  20.153  25.880  1.00  0.00     0.338 C 
ATOM      4  O   UNL A   1      39.441  18.998  25.376  1.00  0.00    -0.246 OA
BRANCH   3   5
ATOM      5  C   UNL A   1      37.703  21.629  25.643  1.00  0.00     0.065 A 
ATOM      6  C   UNL A   1      35.180  22.670  25.036  1.00  0.00     0.053 A 
ATOM      7  C   UNL A   1      35.527  23.963  25.356  1.00  0.00     0.027 A 
ATOM      8  C   UNL A   1      36.120  21.528  25.184  1.00  0.00    -0.012 A 
ATOM      9  C   UNL A   1      36.810  24.212  25.744  1.00  0.00     0.003 A 
ATOM     10  C   UNL A   1      35.260  20.265  24.806  1.00  0.00     0.047 C 
ATOM     11  C   UNL A   1      37.773  23.168  25.846  1.00  0.00     0.016 A 
BRANCH   6  12
ATOM     12  N   UNL A   1      33.821  22.575  24.574  1.00  0.00    -0.279 N 
ATOM     13  H   UNL A   1      33.173  22.116  25.155  1.00  0.00     0.180 HD
BRANCH  12  14
ATOM     14  S   UNL A   1      33.252  23.195  23.102  1.00  0.00     0.265 S 
ATOM     15  O   UNL A   1      32.152  22.313  22.761  1.00  0.00    -0.201 OA
ATOM     16  O   UNL A   1      34.369  23.328  22.195  1.00  0.00    -0.201 OA
BRANCH  14  17
ATOM     17  C   UNL A   1      32.539  24.765  23.086  1.00  0.00     0.131 A 
ATOM     18  C   UNL A   1      32.528  25.451  20.541  1.00  0.00     0.070 C 
ATOM     19  C   UNL A   1      32.350  25.632  21.989  1.00  0.00     0.080 A 
ATOM     20  N   UNL A   1      31.818  26.796  22.372  1.00  0.00    -0.176 NA
ATOM     21  N   UNL A   1      31.389  26.568  23.621  1.00  0.00    -0.266 N 
ATOM     22  C   UNL A   1      31.731  25.321  24.082  1.00  0.00     0.056 A 
ATOM     23  C   UNL A   1      31.180  24.751  25.341  1.00  0.00     0.068 C 
BRANCH  21  24
ATOM     24  C   UNL A   1      30.545  27.586  24.246  1.00  0.00     0.101 C 
ATOM     25  C   UNL A   1      31.404  28.667  24.900  1.00  0.00     0.033 C 
ATOM     26  C   UNL A   1      29.573  28.194  23.229  1.00  0.00     0.033 C 
ENDBRANCH  21  24
ENDBRANCH  14  17
ENDBRANCH  12  14
ENDBRANCH   6  12
ENDBRANCH   3   5
ENDBRANCH   2   3
ENDBRANCH   1   2
BRANCH   1  27
ATOM     27  C   UNL A   1      42.680  20.693  25.862  1.00  0.00     0.275 C 
BRANCH  27  28
ATOM     28  O   UNL A   1      42.108  22.015  25.664  1.00  0.00    -0.458 OA
BRANCH  28  29
ATOM     29  C   UNL A   1      42.354  22.995  26.582  1.00  0.00     0.338 C 
ATOM     30  O   UNL A   1      43.134  22.924  27.512  1.00  0.00    -0.246 OA
BRANCH  29  31
ATOM     31  C   UNL A   1      41.333  24.059  26.479  1.00  0.00     0.060 A 
ATOM     32  C   UNL A   1      41.856  25.507  25.539  1.00  0.00     0.016 A 
ATOM     33  C   UNL A   1      40.336  24.261  27.951  1.00  0.00     0.016 A 
ATOM     34  C   UNL A   1      41.397  27.215  26.129  1.00  0.00     0.010 A 
ATOM     35  C   UNL A   1      39.929  25.944  28.559  1.00  0.00     0.010 A 
ATOM     36  C   UNL A   1      40.477  27.407  27.659  1.00  0.00    -0.014 A 
BRANCH  36  37
ATOM     37  C   UNL A   1      40.718  28.512  28.597  1.00  0.00     0.031 A 
ATOM     38  C   UNL A   1      39.639  29.509  28.715  1.00  0.00     0.074 A 
ATOM     39  C   UNL A   1      41.724  28.413  29.507  1.00  0.00     0.049 A 
ATOM     40  N   UNL A   1      39.723  30.578  29.412  1.00  0.00    -0.248 NA
ATOM     41  C   UNL A   1      38.367  29.416  28.003  1.00  0.00     0.031 C 
ATOM     42  C   UNL A   1      41.885  29.085  30.800  1.00  0.00     0.029 A 
ATOM     43  N   UNL A   1      42.929  27.715  29.368  1.00  0.00    -0.354 N 
ATOM     44  C   UNL A   1      38.485  31.184  29.440  1.00  0.00     0.074 A 
ATOM     45  C   UNL A   1      37.695  30.463  28.487  1.00  0.00     0.031 C 
ATOM     46  C   UNL A   1      43.170  29.004  31.195  1.00  0.00     0.029 A 
ATOM     47  C   UNL A   1      43.916  28.365  30.128  1.00  0.00     0.049 A 
ATOM     48  H   UNL A   1      43.063  26.904  28.828  1.00  0.00     0.167 HD
ATOM     49  C   UNL A   1      38.298  32.166  30.362  1.00  0.00     0.037 A 
ATOM     50  C   UNL A   1      44.992  28.913  29.489  1.00  0.00     0.037 A 
ATOM     51  C   UNL A   1      39.599  32.519  30.929  1.00  0.00     0.049 A 
ATOM     52  C   UNL A   1      44.881  30.424  29.440  1.00  0.00     0.074 A 
ATOM     53  C   UNL A   1      40.267  32.110  32.068  1.00  0.00     0.029 A 
ATOM     54  N   UNL A   1      40.560  33.044  30.069  1.00  0.00    -0.354 N 
ATOM     55  N   UNL A   1      43.760  31.068  29.645  1.00  0.00    -0.248 NA
ATOM     56  C   UNL A   1      46.006  31.328  29.221  1.00  0.00     0.031 C 
ATOM     57  C   UNL A   1      41.660  32.301  31.837  1.00  0.00     0.029 A 
ATOM     58  C   UNL A   1      41.831  32.867  30.582  1.00  0.00     0.049 A 
ATOM     59  H   UNL A   1      40.361  33.481  29.211  1.00  0.00     0.167 HD
ATOM     60  C   UNL A   1      43.987  32.414  29.626  1.00  0.00     0.074 A 
ATOM     61  C   UNL A   1      45.411  32.526  29.359  1.00  0.00     0.031 C 
ATOM     62  C   UNL A   1      42.997  33.333  29.840  1.00  0.00     0.037 A 
BRANCH  49  63
ATOM     63  C   UNL A   1      36.984  32.687  30.904  1.00  0.00     0.064 A 
ATOM     64  C   UNL A   1      36.163  33.481  30.070  1.00  0.00     0.173 A 
ATOM     65  C   UNL A   1      36.511  32.551  32.225  1.00  0.00     0.173 A 
ATOM     66  F   UNL A   1      36.471  33.689  28.782  1.00  0.00    -0.203 F 
ATOM     67  C   UNL A   1      35.004  34.114  30.528  1.00  0.00     0.198 A 
ATOM     68  C   UNL A   1      35.341  33.173  32.679  1.00  0.00     0.198 A 
ATOM     69  F   UNL A   1      37.152  31.831  33.146  1.00  0.00    -0.203 F 
ATOM     70  F   UNL A   1      34.296  34.888  29.693  1.00  0.00    -0.200 F 
ATOM     71  C   UNL A   1      34.593  33.962  31.835  1.00  0.00     0.200 A 
ATOM     72  F   UNL A   1      34.957  33.010  33.954  1.00  0.00    -0.200 F 
ATOM     73  F   UNL A   1      33.488  34.575  32.278  1.00  0.00    -0.200 F 
ENDBRANCH  49  63
BRANCH  50  74
ATOM     74  C   UNL A   1      45.512  27.992  28.432  1.00  0.00     0.064 A 
ATOM     75  C   UNL A   1      45.956  26.724  28.878  1.00  0.00     0.173 A 
ATOM     76  C   UNL A   1      45.155  28.104  27.086  1.00  0.00     0.173 A 
ATOM     77  F   UNL A   1      46.371  26.572  30.147  1.00  0.00    -0.203 F 
ATOM     78  C   UNL A   1      45.820  25.585  28.090  1.00  0.00     0.198 A 
ATOM     79  C   UNL A   1      45.111  26.967  26.268  1.00  0.00     0.198 A 
ATOM     80  F   UNL A   1      44.687  29.263  26.599  1.00  0.00    -0.203 F 
ATOM     81  F   UNL A   1      46.029  24.372  28.622  1.00  0.00    -0.200 F 
ATOM     82  C   UNL A   1      45.368  25.705  26.790  1.00  0.00     0.200 A 
ATOM     83  F   UNL A   1      44.639  27.072  25.016  1.00  0.00    -0.200 F 
ATOM     84  F   UNL A   1      45.108  24.608  26.063  1.00  0.00    -0.200 F 
ENDBRANCH  50  74
BRANCH  62  85
ATOM     85  C   UNL A   1      43.092  34.793  29.460  1.00  0.00     0.064 A 
ATOM     86  C   UNL A   1      43.348  35.818  30.383  1.00  0.00     0.173 A 
ATOM     87  C   UNL A   1      43.058  35.199  28.102  1.00  0.00     0.173 A 
ATOM     88  F   UNL A   1      43.607  35.558  31.671  1.00  0.00    -0.203 F 
ATOM     89  C   UNL A   1      43.411  37.159  30.001  1.00  0.00     0.198 A 
ATOM     90  C   UNL A   1      43.229  36.525  27.715  1.00  0.00     0.198 A 
ATOM     91  F   UNL A   1      42.889  34.326  27.100  1.00  0.00    -0.203 F 
ATOM     92  F   UNL A   1      43.548  38.106  30.938  1.00  0.00    -0.200 F 
ATOM     93  C   UNL A   1      43.359  37.511  28.667  1.00  0.00     0.200 A 
ATOM     94  F   UNL A   1      43.280  36.833  26.412  1.00  0.00    -0.200 F 
ATOM     95  F   UNL A   1      43.459  38.794  28.300  1.00  0.00    -0.200 F 
ENDBRANCH  62  85
ENDBRANCH  36  37
ENDBRANCH  29  31
ENDBRANCH  28  29
ENDBRANCH  27  28
ENDBRANCH   1  27
TORSDOF 15
ENDMDL
MODEL 2
REMARK VINA RESULT:     -13.6      2.207      3.038
REMARK SMILES Cc1nn(C(C)C)c(C)c1S(=O)(=O)Nc1cccc(C(=O)OCCOC(=O)c2ccc(-c3c4nc(c(-c5c(F)c(F)c(F)c(F)c5F)c5ccc([nH]5)c(-c5c(F)c(F)c(F)c(F)c5F)c5nc(c(-c6c(F)c(F)c(F)c(F)c6F)c6ccc3[nH]6)C=C5)C=C4)cc2)c1C
REMARK SMILES IDX 23 1 22 2 20 3 21 4 19 5 15 6 16 7 91 8 17 9 92 10 18 11
REMARK SMILES IDX 14 12 11 14 12 15 13 16 10 17 1 18 2 19 3 20 4 21 8 22 9 23
REMARK SMILES IDX 5 24 6 25 7 26 24 27 25 28 26 29 27 30 28 31 29 32 90 33
REMARK SMILES IDX 30 34 89 35 31 36 32 37 33 38 83 39 34 40 88 41 82 42 84 43
REMARK SMILES IDX 35 44 87 45 81 46 80 47 36 49 68 50 48 51 67 52 49 53 52 54
REMARK SMILES IDX 66 55 85 56 50 57 51 58 65 60 86 61 53 62 37 63 38 64 46 65
REMARK SMILES IDX 39 66 40 67 44 68 47 69 41 70 42 71 45 72 43 73 69 74 70 75
REMARK SMILES IDX 78 76 71 77 72 78 76 79 79 80 73 81 74 82 77 83 75 84 54 85
REMARK SMILES IDX 55 86 63 87 56 88 57 89 61 90 64 91 58 92 59 93 62 94 60 95
REMARK H PARENT 14 13 84 48 52 59
REMARK Flexibility Score: inf
ROOT
ATOM      1  C   UNL A   1      43.369  18.681  25.838  1.00  0.00     0.275 C 
ENDROOT
BRANCH   1   2
ATOM      2  O   UNL A   1      42.185  19.347  25.365  1.00  0.00    -0.458 OA
BRANCH   2   3
ATOM      3  C   UNL A   1      41.283  19.974  26.390  1.00  0.00     0.338 C 
ATOM      4  O   UNL A   1      41.802  19.460  27.435  1.00  0.00    -0.246 OA
BRANCH   3   5
ATOM      5  C   UNL A   1      39.640  21.332  26.078  1.00  0.00     0.065 A 
ATOM      6  C   UNL A   1      37.144  22.226  25.192  1.00  0.00     0.053 A 
ATOM      7  C   UNL A   1      37.300  23.489  25.716  1.00  0.00     0.027 A 
ATOM      8  C   UNL A   1      38.165  21.159  25.356  1.00  0.00    -0.012 A 
ATOM      9  C   UNL A   1      38.475  23.792  26.337  1.00  0.00     0.003 A 
ATOM     10  C   UNL A   1      37.511  19.890  24.693  1.00  0.00     0.047 C 
ATOM     11  C   UNL A   1      39.515  22.829  26.472  1.00  0.00     0.016 A 
BRANCH   6  12
ATOM     12  N   UNL A   1      35.889  22.079  24.504  1.00  0.00    -0.279 N 
ATOM     13  H   UNL A   1      35.916  21.955  23.528  1.00  0.00     0.180 HD
BRANCH  12  14
ATOM     14  S   UNL A   1      34.366  22.106  25.248  1.00  0.00     0.265 S 
ATOM     15  O   UNL A   1      34.661  21.845  26.644  1.00  0.00    -0.201 OA
ATOM     16  O   UNL A   1      33.484  21.217  24.525  1.00  0.00    -0.201 OA
BRANCH  14  17
ATOM     17  C   UNL A   1      33.490  23.591  25.285  1.00  0.00     0.131 A 
ATOM     18  C   UNL A   1      34.142  24.789  23.030  1.00  0.00     0.070 C 
ATOM     19  C   UNL A   1      33.522  24.652  24.355  1.00  0.00     0.080 A 
ATOM     20  N   UNL A   1      32.752  25.670  24.749  1.00  0.00    -0.176 NA
ATOM     21  N   UNL A   1      32.007  25.158  25.739  1.00  0.00    -0.266 N 
ATOM     22  C   UNL A   1      32.358  23.869  26.057  1.00  0.00     0.056 A 
ATOM     23  C   UNL A   1      31.539  23.012  26.956  1.00  0.00     0.068 C 
BRANCH  21  24
ATOM     24  C   UNL A   1      30.889  25.961  26.234  1.00  0.00     0.101 C 
ATOM     25  C   UNL A   1      31.370  27.353  26.640  1.00  0.00     0.033 C 
ATOM     26  C   UNL A   1      29.770  26.047  25.191  1.00  0.00     0.033 C 
ENDBRANCH  21  24
ENDBRANCH  14  17
ENDBRANCH  12  14
ENDBRANCH   6  12
ENDBRANCH   3   5
ENDBRANCH   2   3
ENDBRANCH   1   2
BRANCH   1  27
ATOM     27  C   UNL A   1      44.602  19.378  25.247  1.00  0.00     0.275 C 
BRANCH  27  28
ATOM     28  O   UNL A   1      44.370  20.717  24.728  1.00  0.00    -0.458 OA
BRANCH  28  29
ATOM     29  C   UNL A   1      44.719  21.798  25.485  1.00  0.00     0.338 C 
ATOM     30  O   UNL A   1      45.769  21.945  26.081  1.00  0.00    -0.246 OA
BRANCH  29  31
ATOM     31  C   UNL A   1      43.538  22.650  25.734  1.00  0.00     0.060 A 
ATOM     32  C   UNL A   1      43.466  24.141  24.721  1.00  0.00     0.016 A 
ATOM     33  C   UNL A   1      43.026  22.708  27.447  1.00  0.00     0.016 A 
ATOM     34  C   UNL A   1      42.903  25.751  25.472  1.00  0.00     0.010 A 
ATOM     35  C   UNL A   1      42.521  24.305  28.200  1.00  0.00     0.010 A 
ATOM     36  C   UNL A   1      42.482  25.816  27.217  1.00  0.00    -0.014 A 
BRANCH  36  37
ATOM     37  C   UNL A   1      42.791  26.975  28.066  1.00  0.00     0.031 A 
ATOM     38  C   UNL A   1      41.643  27.798  28.483  1.00  0.00     0.074 A 
ATOM     39  C   UNL A   1      44.009  27.061  28.666  1.00  0.00     0.049 A 
ATOM     40  N   UNL A   1      41.744  28.889  29.142  1.00  0.00    -0.248 NA
ATOM     41  C   UNL A   1      40.257  27.488  28.142  1.00  0.00     0.031 C 
ATOM     42  C   UNL A   1      44.405  27.791  29.874  1.00  0.00     0.029 A 
ATOM     43  N   UNL A   1      45.225  26.551  28.198  1.00  0.00    -0.354 N 
ATOM     44  C   UNL A   1      40.480  29.299  29.512  1.00  0.00     0.074 A 
ATOM     45  C   UNL A   1      39.584  28.434  28.802  1.00  0.00     0.031 C 
ATOM     46  C   UNL A   1      45.746  27.921  29.904  1.00  0.00     0.029 A 
ATOM     47  C   UNL A   1      46.267  27.369  28.668  1.00  0.00     0.049 A 
ATOM     48  H   UNL A   1      45.333  25.753  27.633  1.00  0.00     0.167 HD
ATOM     49  C   UNL A   1      40.398  30.270  30.460  1.00  0.00     0.037 A 
ATOM     50  C   UNL A   1      47.031  28.055  27.766  1.00  0.00     0.037 A 
ATOM     51  C   UNL A   1      41.732  30.837  30.655  1.00  0.00     0.049 A 
ATOM     52  C   UNL A   1      46.675  29.528  27.765  1.00  0.00     0.074 A 
ATOM     53  C   UNL A   1      42.739  30.572  31.566  1.00  0.00     0.029 A 
ATOM     54  N   UNL A   1      42.331  31.474  29.572  1.00  0.00    -0.354 N 
ATOM     55  N   UNL A   1      45.565  30.000  28.274  1.00  0.00    -0.248 NA
ATOM     56  C   UNL A   1      47.544  30.587  27.258  1.00  0.00     0.031 C 
ATOM     57  C   UNL A   1      43.969  30.967  30.967  1.00  0.00     0.029 A 
ATOM     58  C   UNL A   1      43.704  31.511  29.719  1.00  0.00     0.049 A 
ATOM     59  H   UNL A   1      41.842  31.848  28.805  1.00  0.00     0.167 HD
ATOM     60  C   UNL A   1      45.565  31.363  28.208  1.00  0.00     0.074 A 
ATOM     61  C   UNL A   1      46.828  31.683  27.565  1.00  0.00     0.031 C 
ATOM     62  C   UNL A   1      44.539  32.126  28.693  1.00  0.00     0.037 A 
BRANCH  49  63
ATOM     63  C   UNL A   1      39.215  30.600  31.344  1.00  0.00     0.064 A 
ATOM     64  C   UNL A   1      38.130  31.324  30.797  1.00  0.00     0.173 A 
ATOM     65  C   UNL A   1      39.107  30.348  32.727  1.00  0.00     0.173 A 
ATOM     66  F   UNL A   1      38.079  31.627  29.493  1.00  0.00    -0.203 F 
ATOM     67  C   UNL A   1      37.062  31.789  31.571  1.00  0.00     0.198 A 
ATOM     68  C   UNL A   1      38.029  30.801  33.498  1.00  0.00     0.198 A 
ATOM     69  F   UNL A   1      40.033  29.672  33.407  1.00  0.00    -0.203 F 
ATOM     70  F   UNL A   1      36.088  32.507  30.995  1.00  0.00    -0.200 F 
ATOM     71  C   UNL A   1      37.012  31.530  32.924  1.00  0.00     0.200 A 
ATOM     72  F   UNL A   1      37.999  30.536  34.813  1.00  0.00    -0.200 F 
ATOM     73  F   UNL A   1      35.995  31.981  33.669  1.00  0.00    -0.200 F 
ENDBRANCH  49  63
BRANCH  50  74
ATOM     74  C   UNL A   1      47.383  27.191  26.598  1.00  0.00     0.064 A 
ATOM     75  C   UNL A   1      46.770  27.530  25.368  1.00  0.00     0.173 A 
ATOM     76  C   UNL A   1      48.560  26.440  26.538  1.00  0.00     0.173 A 
ATOM     77  F   UNL A   1      45.604  28.197  25.367  1.00  0.00    -0.203 F 
ATOM     78  C   UNL A   1      47.421  27.341  24.152  1.00  0.00     0.198 A 
ATOM     79  C   UNL A   1      49.164  26.168  25.303  1.00  0.00     0.198 A 
ATOM     80  F   UNL A   1      49.218  26.114  27.659  1.00  0.00    -0.203 F 
ATOM     81  F   UNL A   1      46.921  27.882  23.032  1.00  0.00    -0.200 F 
ATOM     82  C   UNL A   1      48.635  26.683  24.124  1.00  0.00     0.200 A 
ATOM     83  F   UNL A   1      50.360  25.562  25.271  1.00  0.00    -0.200 F 
ATOM     84  F   UNL A   1      49.335  26.609  22.982  1.00  0.00    -0.200 F 
ENDBRANCH  50  74
BRANCH  62  85
ATOM     85  C   UNL A   1      44.298  33.570  28.317  1.00  0.00     0.064 A 
ATOM     86  C   UNL A   1      44.584  34.650  29.166  1.00  0.00     0.173 A 
ATOM     87  C   UNL A   1      43.886  33.926  27.008  1.00  0.00     0.173 A 
ATOM     88  F   UNL A   1      45.172  34.472  30.356  1.00  0.00    -0.203 F 
ATOM     89  C   UNL A   1      44.333  35.971  28.794  1.00  0.00     0.198 A 
ATOM     90  C   UNL A   1      43.739  35.251  26.606  1.00  0.00     0.198 A 
ATOM     91  F   UNL A   1      43.640  33.009  26.063  1.00  0.00    -0.203 F 
ATOM     92  F   UNL A   1      44.521  36.954  29.684  1.00  0.00    -0.200 F 
ATOM     93  C   UNL A   1      43.917  36.271  27.513  1.00  0.00     0.200 A 
ATOM     94  F   UNL A   1      43.437  35.526  25.329  1.00  0.00    -0.200 F 
ATOM     95  F   UNL A   1      43.714  37.542  27.146  1.00  0.00    -0.200 F 
ENDBRANCH  62  85
ENDBRANCH  36  37
ENDBRANCH  29  31
ENDBRANCH  28  29
ENDBRANCH  27  28
ENDBRANCH   1  27
TORSDOF 15
ENDMDL
MODEL 3
REMARK VINA RESULT:     -13.6      3.869     10.192
REMARK SMILES Cc1nn(C(C)C)c(C)c1S(=O)(=O)Nc1cccc(C(=O)OCCOC(=O)c2ccc(-c3c4nc(c(-c5c(F)c(F)c(F)c(F)c5F)c5ccc([nH]5)c(-c5c(F)c(F)c(F)c(F)c5F)c5nc(c(-c6c(F)c(F)c(F)c(F)c6F)c6ccc3[nH]6)C=C5)C=C4)cc2)c1C
REMARK SMILES IDX 23 1 22 2 20 3 21 4 19 5 15 6 16 7 91 8 17 9 92 10 18 11
REMARK SMILES IDX 14 12 11 14 12 15 13 16 10 17 1 18 2 19 3 20 4 21 8 22 9 23
REMARK SMILES IDX 5 24 6 25 7 26 24 27 25 28 26 29 27 30 28 31 29 32 90 33
REMARK SMILES IDX 30 34 89 35 31 36 32 37 33 38 83 39 34 40 88 41 82 42 84 43
REMARK SMILES IDX 35 44 87 45 81 46 80 47 36 49 68 50 48 51 67 52 49 53 52 54
REMARK SMILES IDX 66 55 85 56 50 57 51 58 65 60 86 61 53 62 37 63 38 64 46 65
REMARK SMILES IDX 39 66 40 67 44 68 47 69 41 70 42 71 45 72 43 73 69 74 70 75
REMARK SMILES IDX 78 76 71 77 72 78 76 79 79 80 73 81 74 82 77 83 75 84 54 85
REMARK SMILES IDX 55 86 63 87 56 88 57 89 61 90 64 91 58 92 59 93 62 94 60 95
REMARK H PARENT 14 13 84 48 52 59
REMARK Flexibility Score: inf
ROOT
ATOM      1  C   UNL A   1      33.574  33.833  27.957  1.00  0.00     0.275 C 
ENDROOT
BRANCH   1   2
ATOM      2  O   UNL A   1      32.177  33.528  27.800  1.00  0.00    -0.458 OA
BRANCH   2   3
ATOM      3  C   UNL A   1      31.791  32.589  26.692  1.00  0.00     0.338 C 
ATOM      4  O   UNL A   1      31.026  33.373  26.041  1.00  0.00    -0.246 OA
BRANCH   3   5
ATOM      5  C   UNL A   1      32.411  30.548  26.388  1.00  0.00     0.065 A 
ATOM      6  C   UNL A   1      32.399  27.962  25.326  1.00  0.00     0.053 A 
ATOM      7  C   UNL A   1      33.481  27.546  26.068  1.00  0.00     0.027 A 
ATOM      8  C   UNL A   1      31.872  29.351  25.388  1.00  0.00    -0.012 A 
ATOM      9  C   UNL A   1      34.035  28.422  26.954  1.00  0.00     0.003 A 
ATOM     10  C   UNL A   1      30.725  29.378  24.310  1.00  0.00     0.047 C 
ATOM     11  C   UNL A   1      33.535  29.748  27.101  1.00  0.00     0.016 A 
BRANCH   6  12
ATOM     12  N   UNL A   1      31.879  26.910  24.495  1.00  0.00    -0.279 N 
ATOM     13  H   UNL A   1      32.130  26.914  23.544  1.00  0.00     0.180 HD
BRANCH  12  14
ATOM     14  S   UNL A   1      30.864  25.662  25.032  1.00  0.00     0.265 S 
ATOM     15  O   UNL A   1      29.882  25.538  23.972  1.00  0.00    -0.201 OA
ATOM     16  O   UNL A   1      30.430  25.967  26.376  1.00  0.00    -0.201 OA
BRANCH  14  17
ATOM     17  C   UNL A   1      31.515  24.071  25.176  1.00  0.00     0.131 A 
ATOM     18  C   UNL A   1      29.905  22.860  26.876  1.00  0.00     0.070 C 
ATOM     19  C   UNL A   1      31.084  23.019  26.012  1.00  0.00     0.080 A 
ATOM     20  N   UNL A   1      31.873  21.948  25.895  1.00  0.00    -0.176 NA
ATOM     21  N   UNL A   1      32.598  22.189  24.794  1.00  0.00    -0.266 N 
ATOM     22  C   UNL A   1      32.366  23.436  24.267  1.00  0.00     0.056 A 
ATOM     23  C   UNL A   1      32.873  23.851  22.932  1.00  0.00     0.068 C 
BRANCH  21  24
ATOM     24  C   UNL A   1      33.404  21.094  24.257  1.00  0.00     0.101 C 
ATOM     25  C   UNL A   1      34.498  20.699  25.248  1.00  0.00     0.033 C 
ATOM     26  C   UNL A   1      32.526  19.890  23.897  1.00  0.00     0.033 C 
ENDBRANCH  21  24
ENDBRANCH  14  17
ENDBRANCH  12  14
ENDBRANCH   6  12
ENDBRANCH   3   5
ENDBRANCH   2   3
ENDBRANCH   1   2
BRANCH   1  27
ATOM     27  C   UNL A   1      33.866  34.077  29.444  1.00  0.00     0.275 C 
BRANCH  27  28
ATOM     28  O   UNL A   1      34.415  32.940  30.165  1.00  0.00    -0.458 OA
BRANCH  28  29
ATOM     29  C   UNL A   1      35.755  32.690  30.100  1.00  0.00     0.338 C 
ATOM     30  O   UNL A   1      36.639  33.526  30.094  1.00  0.00    -0.246 OA
BRANCH  29  31
ATOM     31  C   UNL A   1      35.995  31.277  29.742  1.00  0.00     0.060 A 
ATOM     32  C   UNL A   1      36.273  30.186  31.152  1.00  0.00     0.016 A 
ATOM     33  C   UNL A   1      36.939  31.053  28.239  1.00  0.00     0.016 A 
ATOM     34  C   UNL A   1      37.577  28.858  31.058  1.00  0.00     0.010 A 
ATOM     35  C   UNL A   1      38.258  29.779  28.165  1.00  0.00     0.010 A 
ATOM     36  C   UNL A   1      38.583  28.705  29.577  1.00  0.00    -0.014 A 
BRANCH  36  37
ATOM     37  C   UNL A   1      40.007  28.348  29.618  1.00  0.00     0.031 A 
ATOM     38  C   UNL A   1      40.355  27.012  29.103  1.00  0.00     0.074 A 
ATOM     39  C   UNL A   1      40.938  29.319  29.818  1.00  0.00     0.049 A 
ATOM     40  N   UNL A   1      41.529  26.508  29.150  1.00  0.00    -0.248 NA
ATOM     41  C   UNL A   1      39.383  26.087  28.526  1.00  0.00     0.031 C 
ATOM     42  C   UNL A   1      42.355  29.346  29.445  1.00  0.00     0.029 A 
ATOM     43  N   UNL A   1      40.786  30.505  30.546  1.00  0.00    -0.354 N 
ATOM     44  C   UNL A   1      41.534  25.333  28.428  1.00  0.00     0.074 A 
ATOM     45  C   UNL A   1      40.157  25.077  28.123  1.00  0.00     0.031 C 
ATOM     46  C   UNL A   1      42.991  30.302  30.149  1.00  0.00     0.029 A 
ATOM     47  C   UNL A   1      42.034  30.868  31.081  1.00  0.00     0.049 A 
ATOM     48  H   UNL A   1      39.946  31.002  30.663  1.00  0.00     0.167 HD
ATOM     49  C   UNL A   1      42.747  24.804  28.115  1.00  0.00     0.037 A 
ATOM     50  C   UNL A   1      42.190  30.900  32.438  1.00  0.00     0.037 A 
ATOM     51  C   UNL A   1      43.769  25.509  28.889  1.00  0.00     0.049 A 
ATOM     52  C   UNL A   1      42.997  29.711  32.919  1.00  0.00     0.074 A 
ATOM     53  C   UNL A   1      44.593  26.580  28.596  1.00  0.00     0.029 A 
ATOM     54  N   UNL A   1      43.710  25.418  30.277  1.00  0.00    -0.354 N 
ATOM     55  N   UNL A   1      43.194  28.637  32.198  1.00  0.00    -0.248 NA
ATOM     56  C   UNL A   1      43.693  29.651  34.202  1.00  0.00     0.031 C 
ATOM     57  C   UNL A   1      44.944  27.197  29.832  1.00  0.00     0.029 A 
ATOM     58  C   UNL A   1      44.374  26.475  30.870  1.00  0.00     0.049 A 
ATOM     59  H   UNL A   1      43.255  24.698  30.769  1.00  0.00     0.167 HD
ATOM     60  C   UNL A   1      44.029  27.781  32.855  1.00  0.00     0.074 A 
ATOM     61  C   UNL A   1      44.316  28.463  34.105  1.00  0.00     0.031 C 
ATOM     62  C   UNL A   1      44.431  26.587  32.323  1.00  0.00     0.037 A 
BRANCH  49  63
ATOM     63  C   UNL A   1      43.069  23.815  27.016  1.00  0.00     0.064 A 
ATOM     64  C   UNL A   1      42.661  22.469  27.162  1.00  0.00     0.173 A 
ATOM     65  C   UNL A   1      43.843  24.066  25.865  1.00  0.00     0.173 A 
ATOM     66  F   UNL A   1      41.906  22.077  28.197  1.00  0.00    -0.203 F 
ATOM     67  C   UNL A   1      43.032  21.463  26.264  1.00  0.00     0.198 A 
ATOM     68  C   UNL A   1      44.200  23.060  24.958  1.00  0.00     0.198 A 
ATOM     69  F   UNL A   1      44.305  25.280  25.562  1.00  0.00    -0.203 F 
ATOM     70  F   UNL A   1      42.646  20.199  26.488  1.00  0.00    -0.200 F 
ATOM     71  C   UNL A   1      43.805  21.758  25.162  1.00  0.00     0.200 A 
ATOM     72  F   UNL A   1      44.951  23.370  23.889  1.00  0.00    -0.200 F 
ATOM     73  F   UNL A   1      44.168  20.795  24.306  1.00  0.00    -0.200 F 
ENDBRANCH  49  63
BRANCH  50  74
ATOM     74  C   UNL A   1      41.008  31.539  33.096  1.00  0.00     0.064 A 
ATOM     75  C   UNL A   1      40.750  32.884  32.736  1.00  0.00     0.173 A 
ATOM     76  C   UNL A   1      39.941  30.804  33.618  1.00  0.00     0.173 A 
ATOM     77  F   UNL A   1      41.753  33.657  32.287  1.00  0.00    -0.203 F 
ATOM     78  C   UNL A   1      39.454  33.386  32.674  1.00  0.00     0.198 A 
ATOM     79  C   UNL A   1      38.650  31.349  33.643  1.00  0.00     0.198 A 
ATOM     80  F   UNL A   1      40.098  29.513  33.945  1.00  0.00    -0.203 F 
ATOM     81  F   UNL A   1      39.223  34.580  32.110  1.00  0.00    -0.200 F 
ATOM     82  C   UNL A   1      38.398  32.605  33.102  1.00  0.00     0.200 A 
ATOM     83  F   UNL A   1      37.616  30.583  34.024  1.00  0.00    -0.200 F 
ATOM     84  F   UNL A   1      37.136  33.024  32.928  1.00  0.00    -0.200 F 
ENDBRANCH  50  74
BRANCH  62  85
ATOM     85  C   UNL A   1      45.020  25.451  33.126  1.00  0.00     0.064 A 
ATOM     86  C   UNL A   1      46.399  25.217  33.241  1.00  0.00     0.173 A 
ATOM     87  C   UNL A   1      44.200  24.623  33.934  1.00  0.00     0.173 A 
ATOM     88  F   UNL A   1      47.301  26.045  32.699  1.00  0.00    -0.203 F 
ATOM     89  C   UNL A   1      46.909  24.147  33.977  1.00  0.00     0.198 A 
ATOM     90  C   UNL A   1      44.721  23.624  34.751  1.00  0.00     0.198 A 
ATOM     91  F   UNL A   1      42.869  24.768  33.984  1.00  0.00    -0.203 F 
ATOM     92  F   UNL A   1      48.227  23.904  33.961  1.00  0.00    -0.200 F 
ATOM     93  C   UNL A   1      46.072  23.355  34.736  1.00  0.00     0.200 A 
ATOM     94  F   UNL A   1      43.904  22.936  35.561  1.00  0.00    -0.200 F 
ATOM     95  F   UNL A   1      46.568  22.354  35.473  1.00  0.00    -0.200 F 
ENDBRANCH  62  85
ENDBRANCH  36  37
ENDBRANCH  29  31
ENDBRANCH  28  29
ENDBRANCH  27  28
ENDBRANCH   1  27
TORSDOF 15
ENDMDL
