MODEL 1
REMARK VINA RESULT:     -10.9      0.000      0.000
REMARK SMILES Cn1ccnc1NCCOCC(=O)OCCOC(=O)c1ccc(-c2c3nc(c(-c4c(F)c(F)c(F)c(F)c4F)c4ccc([nH]4)c(-c4c(F)c(F)c(F)c(F)c4F)c4nc(c(-c5c(F)c(F)c(F)c(F)c5F)c5ccc2[nH]5)C=C4)C=C3)cc1
REMARK SMILES IDX 14 1 12 2 13 3 11 4 10 5 9 6 8 7 7 8 6 10 1 11 2 12 3 13
REMARK SMILES IDX 4 14 5 15 15 16 16 17 17 18 18 19 19 20 20 21 21 22 82 23
REMARK SMILES IDX 22 24 81 25 23 26 24 27 25 28 75 29 26 30 80 31 74 32 76 33
REMARK SMILES IDX 27 34 79 35 73 36 72 37 28 39 60 40 40 41 59 42 41 43 44 44
REMARK SMILES IDX 58 45 77 46 42 47 43 48 57 50 78 51 45 52 29 53 30 54 38 55
REMARK SMILES IDX 31 56 32 57 36 58 39 59 33 60 34 61 37 62 35 63 61 64 62 65
REMARK SMILES IDX 70 66 63 67 64 68 68 69 71 70 65 71 66 72 69 73 67 74 46 75
REMARK SMILES IDX 47 76 55 77 48 78 49 79 53 80 56 81 50 82 51 83 54 84 52 85
REMARK H PARENT 7 9 76 38 44 49
REMARK Flexibility Score: inf
ROOT
ATOM      1  O   UNL A   1      46.358  20.282  25.390  1.00  0.00    -0.460 OA
ENDROOT
BRANCH   1   2
ATOM      2  C   UNL A   1      45.779  19.068  25.166  1.00  0.00     0.332 C 
ATOM      3  O   UNL A   1      46.372  18.003  25.352  1.00  0.00    -0.250 OA
BRANCH   2   4
ATOM      4  C   UNL A   1      44.293  19.075  24.631  1.00  0.00     0.282 C 
BRANCH   4   5
ATOM      5  O   UNL A   1      42.956  19.006  25.063  1.00  0.00    -0.368 OA
BRANCH   5   6
ATOM      6  C   UNL A   1      42.517  19.243  26.401  1.00  0.00     0.182 C 
BRANCH   6   7
ATOM      7  C   UNL A   1      41.100  19.853  26.749  1.00  0.00     0.144 C 
BRANCH   7   8
ATOM      8  N   UNL A   1      40.686  20.998  25.956  1.00  0.00    -0.353 N 
ATOM      9  H   UNL A   1      41.418  21.543  25.586  1.00  0.00     0.163 HD
BRANCH   8  10
ATOM     10  C   UNL A   1      39.353  21.448  25.637  1.00  0.00     0.202 A 
ATOM     11  C   UNL A   1      38.332  24.447  26.792  1.00  0.00     0.153 C 
ATOM     12  N   UNL A   1      38.256  23.082  26.126  1.00  0.00    -0.321 N 
ATOM     13  C   UNL A   1      36.461  22.695  25.760  1.00  0.00     0.109 A 
ATOM     14  C   UNL A   1      36.394  21.088  25.131  1.00  0.00     0.133 A 
ATOM     15  N   UNL A   1      38.149  20.341  25.067  1.00  0.00    -0.222 NA
ENDBRANCH   8  10
ENDBRANCH   7   8
ENDBRANCH   6   7
ENDBRANCH   5   6
ENDBRANCH   4   5
ENDBRANCH   2   4
ENDBRANCH   1   2
BRANCH   1  16
ATOM     16  C   UNL A   1      46.052  21.327  24.407  1.00  0.00     0.274 C 
BRANCH  16  17
ATOM     17  C   UNL A   1      45.963  22.719  25.050  1.00  0.00     0.275 C 
BRANCH  17  18
ATOM     18  O   UNL A   1      45.099  23.538  24.247  1.00  0.00    -0.458 OA
BRANCH  18  19
ATOM     19  C   UNL A   1      43.828  23.406  24.664  1.00  0.00     0.338 C 
ATOM     20  O   UNL A   1      43.028  22.580  24.262  1.00  0.00    -0.246 OA
BRANCH  19  21
ATOM     21  C   UNL A   1      43.384  24.529  25.449  1.00  0.00     0.060 A 
ATOM     22  C   UNL A   1      44.157  26.111  25.611  1.00  0.00     0.016 A 
ATOM     23  C   UNL A   1      42.228  23.885  26.441  1.00  0.00     0.016 A 
ATOM     24  C   UNL A   1      43.833  27.217  26.937  1.00  0.00     0.010 A 
ATOM     25  C   UNL A   1      41.784  24.810  27.782  1.00  0.00     0.010 A 
ATOM     26  C   UNL A   1      42.629  26.691  28.155  1.00  0.00    -0.014 A 
BRANCH  26  27
ATOM     27  C   UNL A   1      42.434  27.948  29.241  1.00  0.00     0.031 A 
ATOM     28  C   UNL A   1      43.166  28.011  30.583  1.00  0.00     0.074 A 
ATOM     29  C   UNL A   1      41.358  28.761  29.091  1.00  0.00     0.049 A 
ATOM     30  N   UNL A   1      42.707  28.410  31.752  1.00  0.00    -0.248 NA
ATOM     31  C   UNL A   1      44.520  27.455  30.648  1.00  0.00     0.031 C 
ATOM     32  C   UNL A   1      40.545  28.880  27.889  1.00  0.00     0.029 A 
ATOM     33  N   UNL A   1      40.693  29.567  29.997  1.00  0.00    -0.354 N 
ATOM     34  C   UNL A   1      43.665  28.022  32.689  1.00  0.00     0.074 A 
ATOM     35  C   UNL A   1      44.680  27.299  31.956  1.00  0.00     0.031 C 
ATOM     36  C   UNL A   1      39.461  29.623  28.132  1.00  0.00     0.029 A 
ATOM     37  C   UNL A   1      39.478  30.026  29.528  1.00  0.00     0.049 A 
ATOM     38  H   UNL A   1      41.048  29.789  30.887  1.00  0.00     0.167 HD
ATOM     39  C   UNL A   1      43.712  28.265  34.025  1.00  0.00     0.037 A 
ATOM     40  C   UNL A   1      38.457  30.666  30.130  1.00  0.00     0.037 A 
ATOM     41  C   UNL A   1      42.775  29.118  34.718  1.00  0.00     0.049 A 
ATOM     42  C   UNL A   1      38.558  31.006  31.584  1.00  0.00     0.074 A 
ATOM     43  C   UNL A   1      42.826  29.574  36.026  1.00  0.00     0.029 A 
ATOM     44  N   UNL A   1      41.639  29.675  34.148  1.00  0.00    -0.354 N 
ATOM     45  N   UNL A   1      39.475  30.647  32.446  1.00  0.00    -0.248 NA
ATOM     46  C   UNL A   1      37.501  31.857  32.146  1.00  0.00     0.031 C 
ATOM     47  C   UNL A   1      41.702  30.371  36.259  1.00  0.00     0.029 A 
ATOM     48  C   UNL A   1      40.986  30.468  35.078  1.00  0.00     0.049 A 
ATOM     49  H   UNL A   1      41.342  29.528  33.222  1.00  0.00     0.167 HD
ATOM     50  C   UNL A   1      39.140  31.275  33.636  1.00  0.00     0.074 A 
ATOM     51  C   UNL A   1      37.928  32.027  33.390  1.00  0.00     0.031 C 
ATOM     52  C   UNL A   1      39.795  31.238  34.820  1.00  0.00     0.037 A 
BRANCH  39  53
ATOM     53  C   UNL A   1      44.834  27.655  34.835  1.00  0.00     0.064 A 
ATOM     54  C   UNL A   1      44.722  26.392  35.437  1.00  0.00     0.173 A 
ATOM     55  C   UNL A   1      46.070  28.316  34.961  1.00  0.00     0.173 A 
ATOM     56  F   UNL A   1      43.583  25.691  35.331  1.00  0.00    -0.203 F 
ATOM     57  C   UNL A   1      45.766  25.848  36.183  1.00  0.00     0.198 A 
ATOM     58  C   UNL A   1      47.131  27.745  35.662  1.00  0.00     0.198 A 
ATOM     59  F   UNL A   1      46.264  29.511  34.380  1.00  0.00    -0.203 F 
ATOM     60  F   UNL A   1      45.598  24.672  36.806  1.00  0.00    -0.200 F 
ATOM     61  C   UNL A   1      46.972  26.519  36.289  1.00  0.00     0.200 A 
ATOM     62  F   UNL A   1      48.311  28.379  35.728  1.00  0.00    -0.200 F 
ATOM     63  F   UNL A   1      47.981  25.985  36.990  1.00  0.00    -0.200 F 
ENDBRANCH  39  53
BRANCH  40  64
ATOM     64  C   UNL A   1      37.269  31.078  29.329  1.00  0.00     0.064 A 
ATOM     65  C   UNL A   1      36.267  30.148  29.021  1.00  0.00     0.173 A 
ATOM     66  C   UNL A   1      37.083  32.401  28.900  1.00  0.00     0.173 A 
ATOM     67  F   UNL A   1      36.403  28.869  29.402  1.00  0.00    -0.203 F 
ATOM     68  C   UNL A   1      35.135  30.516  28.298  1.00  0.00     0.198 A 
ATOM     69  C   UNL A   1      35.933  32.776  28.203  1.00  0.00     0.198 A 
ATOM     70  F   UNL A   1      37.998  33.338  29.188  1.00  0.00    -0.203 F 
ATOM     71  F   UNL A   1      34.213  29.596  27.988  1.00  0.00    -0.200 F 
ATOM     72  C   UNL A   1      34.965  31.832  27.897  1.00  0.00     0.200 A 
ATOM     73  F   UNL A   1      35.758  34.055  27.841  1.00  0.00    -0.200 F 
ATOM     74  F   UNL A   1      33.867  32.191  27.217  1.00  0.00    -0.200 F 
ENDBRANCH  40  64
BRANCH  52  75
ATOM     75  C   UNL A   1      39.276  32.108  35.925  1.00  0.00     0.064 A 
ATOM     76  C   UNL A   1      38.329  31.652  36.851  1.00  0.00     0.173 A 
ATOM     77  C   UNL A   1      39.786  33.407  36.087  1.00  0.00     0.173 A 
ATOM     78  F   UNL A   1      37.795  30.427  36.725  1.00  0.00    -0.203 F 
ATOM     79  C   UNL A   1      37.902  32.469  37.894  1.00  0.00     0.198 A 
ATOM     80  C   UNL A   1      39.381  34.207  37.150  1.00  0.00     0.198 A 
ATOM     81  F   UNL A   1      40.691  33.890  35.224  1.00  0.00    -0.203 F 
ATOM     82  F   UNL A   1      36.964  32.029  38.745  1.00  0.00    -0.200 F 
ATOM     83  C   UNL A   1      38.436  33.739  38.050  1.00  0.00     0.200 A 
ATOM     84  F   UNL A   1      39.911  35.428  37.305  1.00  0.00    -0.200 F 
ATOM     85  F   UNL A   1      38.037  34.516  39.065  1.00  0.00    -0.200 F 
ENDBRANCH  52  75
ENDBRANCH  26  27
ENDBRANCH  19  21
ENDBRANCH  18  19
ENDBRANCH  17  18
ENDBRANCH  16  17
ENDBRANCH   1  16
TORSDOF 16
ENDMDL
MODEL 2
REMARK VINA RESULT:     -10.6      0.276      2.050
REMARK SMILES Cn1ccnc1NCCOCC(=O)OCCOC(=O)c1ccc(-c2c3nc(c(-c4c(F)c(F)c(F)c(F)c4F)c4ccc([nH]4)c(-c4c(F)c(F)c(F)c(F)c4F)c4nc(c(-c5c(F)c(F)c(F)c(F)c5F)c5ccc2[nH]5)C=C4)C=C3)cc1
REMARK SMILES IDX 14 1 12 2 13 3 11 4 10 5 9 6 8 7 7 8 6 10 1 11 2 12 3 13
REMARK SMILES IDX 4 14 5 15 15 16 16 17 17 18 18 19 19 20 20 21 21 22 82 23
REMARK SMILES IDX 22 24 81 25 23 26 24 27 25 28 75 29 26 30 80 31 74 32 76 33
REMARK SMILES IDX 27 34 79 35 73 36 72 37 28 39 60 40 40 41 59 42 41 43 44 44
REMARK SMILES IDX 58 45 77 46 42 47 43 48 57 50 78 51 45 52 29 53 30 54 38 55
REMARK SMILES IDX 31 56 32 57 36 58 39 59 33 60 34 61 37 62 35 63 61 64 62 65
REMARK SMILES IDX 70 66 63 67 64 68 68 69 71 70 65 71 66 72 69 73 67 74 46 75
REMARK SMILES IDX 47 76 55 77 48 78 49 79 53 80 56 81 50 82 51 83 54 84 52 85
REMARK H PARENT 7 9 76 38 44 49
REMARK Flexibility Score: inf
ROOT
ATOM      1  O   UNL A   1      46.364  20.215  25.274  1.00  0.00    -0.460 OA
ENDROOT
BRANCH   1   2
ATOM      2  C   UNL A   1      45.789  18.982  25.197  1.00  0.00     0.332 C 
ATOM      3  O   UNL A   1      46.418  17.940  25.392  1.00  0.00    -0.250 OA
BRANCH   2   4
ATOM      4  C   UNL A   1      44.255  18.934  24.822  1.00  0.00     0.282 C 
BRANCH   4   5
ATOM      5  O   UNL A   1      42.993  18.600  25.347  1.00  0.00    -0.368 OA
BRANCH   5   6
ATOM      6  C   UNL A   1      42.603  18.772  26.710  1.00  0.00     0.182 C 
BRANCH   6   7
ATOM      7  C   UNL A   1      41.531  19.838  27.173  1.00  0.00     0.144 C 
BRANCH   7   8
ATOM      8  N   UNL A   1      41.076  20.769  26.154  1.00  0.00    -0.353 N 
ATOM      9  H   UNL A   1      41.786  21.266  25.687  1.00  0.00     0.163 HD
BRANCH   8  10
ATOM     10  C   UNL A   1      39.728  21.066  25.733  1.00  0.00     0.202 A 
ATOM     11  C   UNL A   1      38.367  24.021  26.617  1.00  0.00     0.153 C 
ATOM     12  N   UNL A   1      38.458  22.615  26.046  1.00  0.00    -0.321 N 
ATOM     13  C   UNL A   1      36.731  22.034  25.612  1.00  0.00     0.109 A 
ATOM     14  C   UNL A   1      36.851  20.390  25.096  1.00  0.00     0.133 A 
ATOM     15  N   UNL A   1      38.669  19.813  25.179  1.00  0.00    -0.222 NA
ENDBRANCH   8  10
ENDBRANCH   7   8
ENDBRANCH   6   7
ENDBRANCH   5   6
ENDBRANCH   4   5
ENDBRANCH   2   4
ENDBRANCH   1   2
BRANCH   1  16
ATOM     16  C   UNL A   1      45.848  21.221  24.338  1.00  0.00     0.274 C 
BRANCH  16  17
ATOM     17  C   UNL A   1      46.041  22.652  24.862  1.00  0.00     0.275 C 
BRANCH  17  18
ATOM     18  O   UNL A   1      45.144  23.521  24.154  1.00  0.00    -0.458 OA
BRANCH  18  19
ATOM     19  C   UNL A   1      43.894  23.366  24.623  1.00  0.00     0.338 C 
ATOM     20  O   UNL A   1      43.102  22.508  24.274  1.00  0.00    -0.246 OA
BRANCH  19  21
ATOM     21  C   UNL A   1      43.448  24.498  25.396  1.00  0.00     0.060 A 
ATOM     22  C   UNL A   1      44.227  26.077  25.552  1.00  0.00     0.016 A 
ATOM     23  C   UNL A   1      42.282  23.867  26.384  1.00  0.00     0.016 A 
ATOM     24  C   UNL A   1      43.897  27.195  26.866  1.00  0.00     0.010 A 
ATOM     25  C   UNL A   1      41.831  24.804  27.714  1.00  0.00     0.010 A 
ATOM     26  C   UNL A   1      42.682  26.684  28.079  1.00  0.00    -0.014 A 
BRANCH  26  27
ATOM     27  C   UNL A   1      42.484  27.950  29.153  1.00  0.00     0.031 A 
ATOM     28  C   UNL A   1      43.250  28.050  30.474  1.00  0.00     0.074 A 
ATOM     29  C   UNL A   1      41.384  28.734  29.022  1.00  0.00     0.049 A 
ATOM     30  N   UNL A   1      42.813  28.454  31.649  1.00  0.00    -0.248 NA
ATOM     31  C   UNL A   1      44.619  27.529  30.509  1.00  0.00     0.031 C 
ATOM     32  C   UNL A   1      40.536  28.815  27.841  1.00  0.00     0.029 A 
ATOM     33  N   UNL A   1      40.723  29.535  29.935  1.00  0.00    -0.354 N 
ATOM     34  C   UNL A   1      43.805  28.102  32.565  1.00  0.00     0.074 A 
ATOM     35  C   UNL A   1      44.818  27.396  31.815  1.00  0.00     0.031 C 
ATOM     36  C   UNL A   1      39.440  29.535  28.104  1.00  0.00     0.029 A 
ATOM     37  C   UNL A   1      39.484  29.957  29.493  1.00  0.00     0.049 A 
ATOM     38  H   UNL A   1      41.096  29.778  30.813  1.00  0.00     0.167 HD
ATOM     39  C   UNL A   1      43.881  28.365  33.897  1.00  0.00     0.037 A 
ATOM     40  C   UNL A   1      38.464  30.579  30.114  1.00  0.00     0.037 A 
ATOM     41  C   UNL A   1      42.942  29.204  34.604  1.00  0.00     0.049 A 
ATOM     42  C   UNL A   1      38.596  30.942  31.561  1.00  0.00     0.074 A 
ATOM     43  C   UNL A   1      43.016  29.678  35.903  1.00  0.00     0.029 A 
ATOM     44  N   UNL A   1      41.777  29.724  34.057  1.00  0.00    -0.354 N 
ATOM     45  N   UNL A   1      39.544  30.618  32.402  1.00  0.00    -0.248 NA
ATOM     46  C   UNL A   1      37.532  31.773  32.140  1.00  0.00     0.031 C 
ATOM     47  C   UNL A   1      41.879  30.450  36.156  1.00  0.00     0.029 A 
ATOM     48  C   UNL A   1      41.129  30.513  34.994  1.00  0.00     0.049 A 
ATOM     49  H   UNL A   1      41.459  29.557  33.141  1.00  0.00     0.167 HD
ATOM     50  C   UNL A   1      39.225  31.253  33.593  1.00  0.00     0.074 A 
ATOM     51  C   UNL A   1      37.988  31.970  33.370  1.00  0.00     0.031 C 
ATOM     52  C   UNL A   1      39.912  31.249  34.758  1.00  0.00     0.037 A 
BRANCH  39  53
ATOM     53  C   UNL A   1      45.040  27.795  34.683  1.00  0.00     0.064 A 
ATOM     54  C   UNL A   1      46.251  28.488  34.837  1.00  0.00     0.173 A 
ATOM     55  C   UNL A   1      44.919  26.562  35.350  1.00  0.00     0.173 A 
ATOM     56  F   UNL A   1      46.426  29.684  34.256  1.00  0.00    -0.203 F 
ATOM     57  C   UNL A   1      47.311  27.945  35.562  1.00  0.00     0.198 A 
ATOM     58  C   UNL A   1      45.962  26.047  36.120  1.00  0.00     0.198 A 
ATOM     59  F   UNL A   1      43.777  25.860  35.279  1.00  0.00    -0.203 F 
ATOM     60  F   UNL A   1      48.479  28.600  35.627  1.00  0.00    -0.200 F 
ATOM     61  C   UNL A   1      47.164  26.730  36.210  1.00  0.00     0.200 A 
ATOM     62  F   UNL A   1      45.801  24.890  36.778  1.00  0.00    -0.200 F 
ATOM     63  F   UNL A   1      48.177  26.220  36.923  1.00  0.00    -0.200 F 
ENDBRANCH  39  53
BRANCH  40  64
ATOM     64  C   UNL A   1      37.245  30.950  29.340  1.00  0.00     0.064 A 
ATOM     65  C   UNL A   1      37.098  32.249  28.834  1.00  0.00     0.173 A 
ATOM     66  C   UNL A   1      36.236  30.020  29.048  1.00  0.00     0.173 A 
ATOM     67  F   UNL A   1      38.031  33.177  29.094  1.00  0.00    -0.203 F 
ATOM     68  C   UNL A   1      35.982  32.612  28.084  1.00  0.00     0.198 A 
ATOM     69  C   UNL A   1      35.134  30.376  28.270  1.00  0.00     0.198 A 
ATOM     70  F   UNL A   1      36.338  28.756  29.485  1.00  0.00    -0.203 F 
ATOM     71  F   UNL A   1      35.852  33.870  27.647  1.00  0.00    -0.200 F 
ATOM     72  C   UNL A   1      35.004  31.672  27.795  1.00  0.00     0.200 A 
ATOM     73  F   UNL A   1      34.205  29.458  27.968  1.00  0.00    -0.200 F 
ATOM     74  F   UNL A   1      33.939  32.016  27.059  1.00  0.00    -0.200 F 
ENDBRANCH  40  64
BRANCH  52  75
ATOM     75  C   UNL A   1      39.401  32.121  35.866  1.00  0.00     0.064 A 
ATOM     76  C   UNL A   1      39.826  33.445  36.028  1.00  0.00     0.173 A 
ATOM     77  C   UNL A   1      38.423  31.628  36.745  1.00  0.00     0.173 A 
ATOM     78  F   UNL A   1      40.775  33.955  35.228  1.00  0.00    -0.203 F 
ATOM     79  C   UNL A   1      39.297  34.244  37.039  1.00  0.00     0.198 A 
ATOM     80  C   UNL A   1      37.873  32.440  37.732  1.00  0.00     0.198 A 
ATOM     81  F   UNL A   1      37.986  30.365  36.632  1.00  0.00    -0.203 F 
ATOM     82  F   UNL A   1      39.747  35.496  37.204  1.00  0.00    -0.200 F 
ATOM     83  C   UNL A   1      38.314  33.746  37.880  1.00  0.00     0.200 A 
ATOM     84  F   UNL A   1      36.913  31.959  38.532  1.00  0.00    -0.200 F 
ATOM     85  F   UNL A   1      37.794  34.522  38.839  1.00  0.00    -0.200 F 
ENDBRANCH  52  75
ENDBRANCH  26  27
ENDBRANCH  19  21
ENDBRANCH  18  19
ENDBRANCH  17  18
ENDBRANCH  16  17
ENDBRANCH   1  16
TORSDOF 16
ENDMDL
MODEL 3
REMARK VINA RESULT:     -10.6      1.618      2.390
REMARK SMILES Cn1ccnc1NCCOCC(=O)OCCOC(=O)c1ccc(-c2c3nc(c(-c4c(F)c(F)c(F)c(F)c4F)c4ccc([nH]4)c(-c4c(F)c(F)c(F)c(F)c4F)c4nc(c(-c5c(F)c(F)c(F)c(F)c5F)c5ccc2[nH]5)C=C4)C=C3)cc1
REMARK SMILES IDX 14 1 12 2 13 3 11 4 10 5 9 6 8 7 7 8 6 10 1 11 2 12 3 13
REMARK SMILES IDX 4 14 5 15 15 16 16 17 17 18 18 19 19 20 20 21 21 22 82 23
REMARK SMILES IDX 22 24 81 25 23 26 24 27 25 28 75 29 26 30 80 31 74 32 76 33
REMARK SMILES IDX 27 34 79 35 73 36 72 37 28 39 60 40 40 41 59 42 41 43 44 44
REMARK SMILES IDX 58 45 77 46 42 47 43 48 57 50 78 51 45 52 29 53 30 54 38 55
REMARK SMILES IDX 31 56 32 57 36 58 39 59 33 60 34 61 37 62 35 63 61 64 62 65
REMARK SMILES IDX 70 66 63 67 64 68 68 69 71 70 65 71 66 72 69 73 67 74 46 75
REMARK SMILES IDX 47 76 55 77 48 78 49 79 53 80 56 81 50 82 51 83 54 84 52 85
REMARK H PARENT 7 9 76 38 44 49
REMARK Flexibility Score: inf
ROOT
ATOM      1  O   UNL A   1      41.559  19.210  25.754  1.00  0.00    -0.460 OA
ENDROOT
BRANCH   1   2
ATOM      2  C   UNL A   1      40.675  19.952  26.478  1.00  0.00     0.332 C 
ATOM      3  O   UNL A   1      40.776  20.106  27.697  1.00  0.00    -0.250 OA
BRANCH   2   4
ATOM      4  C   UNL A   1      39.479  20.609  25.683  1.00  0.00     0.282 C 
BRANCH   4   5
ATOM      5  O   UNL A   1      38.315  21.380  25.863  1.00  0.00    -0.368 OA
BRANCH   5   6
ATOM      6  C   UNL A   1      38.272  22.808  25.859  1.00  0.00     0.182 C 
BRANCH   6   7
ATOM      7  C   UNL A   1      36.924  23.630  25.790  1.00  0.00     0.144 C 
BRANCH   7   8
ATOM      8  N   UNL A   1      35.787  23.052  26.486  1.00  0.00    -0.353 N 
ATOM      9  H   UNL A   1      36.007  22.367  27.159  1.00  0.00     0.163 HD
BRANCH   8  10
ATOM     10  C   UNL A   1      34.383  23.341  26.329  1.00  0.00     0.202 A 
ATOM     11  C   UNL A   1      33.425  26.546  25.903  1.00  0.00     0.153 C 
ATOM     12  N   UNL A   1      33.304  25.046  26.122  1.00  0.00    -0.321 N 
ATOM     13  C   UNL A   1      31.515  24.638  26.494  1.00  0.00     0.109 A 
ATOM     14  C   UNL A   1      31.434  22.955  26.871  1.00  0.00     0.133 A 
ATOM     15  N   UNL A   1      33.176  22.181  26.773  1.00  0.00    -0.222 NA
ENDBRANCH   8  10
ENDBRANCH   7   8
ENDBRANCH   6   7
ENDBRANCH   5   6
ENDBRANCH   4   5
ENDBRANCH   2   4
ENDBRANCH   1   2
BRANCH   1  16
ATOM     16  C   UNL A   1      42.972  19.361  26.121  1.00  0.00     0.274 C 
BRANCH  16  17
ATOM     17  C   UNL A   1      43.726  20.288  25.157  1.00  0.00     0.275 C 
BRANCH  17  18
ATOM     18  O   UNL A   1      43.931  21.552  25.807  1.00  0.00    -0.458 OA
BRANCH  18  19
ATOM     19  C   UNL A   1      43.588  22.552  24.978  1.00  0.00     0.338 C 
ATOM     20  O   UNL A   1      43.777  22.578  23.775  1.00  0.00    -0.246 OA
BRANCH  19  21
ATOM     21  C   UNL A   1      43.217  23.753  25.683  1.00  0.00     0.060 A 
ATOM     22  C   UNL A   1      44.191  25.208  25.931  1.00  0.00     0.016 A 
ATOM     23  C   UNL A   1      41.856  23.318  26.517  1.00  0.00     0.016 A 
ATOM     24  C   UNL A   1      43.864  26.391  27.188  1.00  0.00     0.010 A 
ATOM     25  C   UNL A   1      41.383  24.340  27.774  1.00  0.00     0.010 A 
ATOM     26  C   UNL A   1      42.444  26.086  28.238  1.00  0.00    -0.014 A 
BRANCH  26  27
ATOM     27  C   UNL A   1      42.298  27.392  29.273  1.00  0.00     0.031 A 
ATOM     28  C   UNL A   1      43.019  27.472  30.619  1.00  0.00     0.074 A 
ATOM     29  C   UNL A   1      41.264  28.248  29.079  1.00  0.00     0.049 A 
ATOM     30  N   UNL A   1      42.569  27.938  31.767  1.00  0.00    -0.248 NA
ATOM     31  C   UNL A   1      44.345  26.856  30.721  1.00  0.00     0.031 C 
ATOM     32  C   UNL A   1      40.469  28.359  27.864  1.00  0.00     0.029 A 
ATOM     33  N   UNL A   1      40.629  29.119  29.946  1.00  0.00    -0.354 N 
ATOM     34  C   UNL A   1      43.498  27.541  32.729  1.00  0.00     0.074 A 
ATOM     35  C   UNL A   1      44.485  26.744  32.036  1.00  0.00     0.031 C 
ATOM     36  C   UNL A   1      39.419  29.161  28.066  1.00  0.00     0.029 A 
ATOM     37  C   UNL A   1      39.441  29.617  29.446  1.00  0.00     0.049 A 
ATOM     38  H   UNL A   1      40.985  29.358  30.832  1.00  0.00     0.167 HD
ATOM     39  C   UNL A   1      43.543  27.832  34.056  1.00  0.00     0.037 A 
ATOM     40  C   UNL A   1      38.446  30.326  30.011  1.00  0.00     0.037 A 
ATOM     41  C   UNL A   1      42.641  28.755  34.705  1.00  0.00     0.049 A 
ATOM     42  C   UNL A   1      38.550  30.717  31.452  1.00  0.00     0.074 A 
ATOM     43  C   UNL A   1      42.701  29.258  35.994  1.00  0.00     0.029 A 
ATOM     44  N   UNL A   1      41.539  29.342  34.101  1.00  0.00    -0.354 N 
ATOM     45  N   UNL A   1      39.439  30.349  32.338  1.00  0.00    -0.248 NA
ATOM     46  C   UNL A   1      37.528  31.638  31.969  1.00  0.00     0.031 C 
ATOM     47  C   UNL A   1      41.614  30.115  36.184  1.00  0.00     0.029 A 
ATOM     48  C   UNL A   1      40.914  30.201  34.992  1.00  0.00     0.049 A 
ATOM     49  H   UNL A   1      41.244  29.174  33.177  1.00  0.00     0.167 HD
ATOM     50  C   UNL A   1      39.123  31.037  33.500  1.00  0.00     0.074 A 
ATOM     51  C   UNL A   1      37.950  31.835  33.211  1.00  0.00     0.031 C 
ATOM     52  C   UNL A   1      39.764  31.015  34.691  1.00  0.00     0.037 A 
BRANCH  39  53
ATOM     53  C   UNL A   1      44.627  27.203  34.901  1.00  0.00     0.064 A 
ATOM     54  C   UNL A   1      44.451  25.968  35.546  1.00  0.00     0.173 A 
ATOM     55  C   UNL A   1      45.891  27.811  35.019  1.00  0.00     0.173 A 
ATOM     56  F   UNL A   1      43.283  25.315  35.450  1.00  0.00    -0.203 F 
ATOM     57  C   UNL A   1      45.460  25.405  36.325  1.00  0.00     0.198 A 
ATOM     58  C   UNL A   1      46.917  27.218  35.754  1.00  0.00     0.198 A 
ATOM     59  F   UNL A   1      46.145  28.974  34.399  1.00  0.00    -0.203 F 
ATOM     60  F   UNL A   1      45.232  24.261  36.986  1.00  0.00    -0.200 F 
ATOM     61  C   UNL A   1      46.694  26.024  36.421  1.00  0.00     0.200 A 
ATOM     62  F   UNL A   1      48.123  27.801  35.812  1.00  0.00    -0.200 F 
ATOM     63  F   UNL A   1      47.670  25.471  37.154  1.00  0.00    -0.200 F 
ENDBRANCH  39  53
BRANCH  40  64
ATOM     64  C   UNL A   1      37.287  30.763  29.181  1.00  0.00     0.064 A 
ATOM     65  C   UNL A   1      36.261  29.860  28.869  1.00  0.00     0.173 A 
ATOM     66  C   UNL A   1      37.151  32.084  28.728  1.00  0.00     0.173 A 
ATOM     67  F   UNL A   1      36.350  28.584  29.273  1.00  0.00    -0.203 F 
ATOM     68  C   UNL A   1      35.155  30.252  28.120  1.00  0.00     0.198 A 
ATOM     69  C   UNL A   1      36.027  32.483  28.004  1.00  0.00     0.198 A 
ATOM     70  F   UNL A   1      38.090  32.996  29.020  1.00  0.00    -0.203 F 
ATOM     71  F   UNL A   1      34.210  29.356  27.806  1.00  0.00    -0.200 F 
ATOM     72  C   UNL A   1      35.035  31.566  27.694  1.00  0.00     0.200 A 
ATOM     73  F   UNL A   1      35.899  33.761  27.619  1.00  0.00    -0.200 F 
ATOM     74  F   UNL A   1      33.962  31.947  26.989  1.00  0.00    -0.200 F 
ENDBRANCH  40  64
BRANCH  52  75
ATOM     75  C   UNL A   1      39.276  31.950  35.756  1.00  0.00     0.064 A 
ATOM     76  C   UNL A   1      38.336  31.559  36.718  1.00  0.00     0.173 A 
ATOM     77  C   UNL A   1      39.810  33.247  35.843  1.00  0.00     0.173 A 
ATOM     78  F   UNL A   1      37.779  30.339  36.664  1.00  0.00    -0.203 F 
ATOM     79  C   UNL A   1      37.937  32.437  37.723  1.00  0.00     0.198 A 
ATOM     80  C   UNL A   1      39.434  34.108  36.869  1.00  0.00     0.198 A 
ATOM     81  F   UNL A   1      40.710  33.669  34.944  1.00  0.00    -0.203 F 
ATOM     82  F   UNL A   1      37.005  32.059  38.609  1.00  0.00    -0.200 F 
ATOM     83  C   UNL A   1      38.495  33.704  37.805  1.00  0.00     0.200 A 
ATOM     84  F   UNL A   1      39.987  35.326  36.952  1.00  0.00    -0.200 F 
ATOM     85  F   UNL A   1      38.124  34.540  38.784  1.00  0.00    -0.200 F 
ENDBRANCH  52  75
ENDBRANCH  26  27
ENDBRANCH  19  21
ENDBRANCH  18  19
ENDBRANCH  17  18
ENDBRANCH  16  17
ENDBRANCH   1  16
TORSDOF 16
ENDMDL
