MODEL 1
REMARK VINA RESULT:     -11.2      0.000      0.000
REMARK SMILES CNC(=O)NC(=O)CCSc1csc(C(=O)OCCOC(=O)c2ccc(-c3c4nc(c(-c5c(F)c(F)c(F)c(F)c5F)c5ccc([nH]5)c(-c5c(F)c(F)c(F)c(F)c5F)c5nc(c(-c6c(F)c(F)c(F)c(F)c6F)c6ccc3[nH]6)C=C5)C=C4)cc2)c1
REMARK SMILES IDX 18 1 17 2 15 3 16 4 14 5 11 6 12 7 86 8 13 9 10 10 9 11 8 12
REMARK SMILES IDX 6 13 1 14 2 15 3 16 4 18 5 19 7 21 19 22 20 23 21 24 22 25
REMARK SMILES IDX 23 26 24 27 85 28 25 29 84 30 26 31 27 32 28 33 78 34 29 35
REMARK SMILES IDX 83 36 77 37 79 38 30 39 82 40 76 41 75 42 31 44 63 45 43 46
REMARK SMILES IDX 62 47 44 48 47 49 61 50 80 51 45 52 46 53 60 55 81 56 48 57
REMARK SMILES IDX 32 58 33 59 41 60 34 61 35 62 39 63 42 64 36 65 37 66 40 67
REMARK SMILES IDX 38 68 64 69 65 70 73 71 66 72 67 73 71 74 74 75 68 76 69 77
REMARK SMILES IDX 72 78 70 79 49 80 50 81 58 82 51 83 52 84 56 85 59 86 53 87
REMARK SMILES IDX 54 88 57 89 55 90
REMARK H PARENT 2 17 5 20 79 43 47 54
REMARK Flexibility Score: inf
ROOT
ATOM      1  C   UNL A   1      31.555  29.683  24.704  1.00  0.00     0.275 C 
ENDROOT
BRANCH   1   2
ATOM      2  O   UNL A   1      30.275  29.434  24.086  1.00  0.00    -0.458 OA
BRANCH   2   3
ATOM      3  C   UNL A   1      30.335  28.879  22.838  1.00  0.00     0.348 C 
ATOM      4  O   UNL A   1      30.318  29.529  21.801  1.00  0.00    -0.245 OA
BRANCH   3   5
ATOM      5  C   UNL A   1      30.568  27.451  22.933  1.00  0.00     0.113 A 
ATOM      6  C   UNL A   1      31.407  25.281  22.835  1.00  0.00     0.019 A 
ATOM      7  C   UNL A   1      30.184  25.066  23.418  1.00  0.00     0.080 A 
ATOM      8  C   UNL A   1      31.569  26.642  22.422  1.00  0.00     0.042 A 
ATOM      9  S   UNL A   1      29.476  26.530  23.879  1.00  0.00    -0.136 S 
BRANCH   6  10
ATOM     10  S   UNL A   1      32.643  24.055  22.638  1.00  0.00    -0.125 SA
BRANCH  10  11
ATOM     11  C   UNL A   1      34.134  24.894  23.291  1.00  0.00     0.085 C 
BRANCH  11  12
ATOM     12  C   UNL A   1      34.756  24.389  24.590  1.00  0.00     0.112 C 
BRANCH  12  13
ATOM     13  C   UNL A   1      33.924  23.500  25.477  1.00  0.00     0.228 C 
ATOM     14  C   UNL A   1      33.613  27.003  26.126  1.00  0.00     0.144 C 
ATOM     15  N   UNL A   1      32.383  26.262  26.191  1.00  0.00    -0.341 N 
ATOM     16  C   UNL A   1      32.126  24.986  26.504  1.00  0.00     0.321 C 
ATOM     17  H   UNL A   1      31.582  26.790  25.967  1.00  0.00     0.165 HD
ATOM     18  O   UNL A   1      30.983  24.708  26.876  1.00  0.00    -0.248 OA
ATOM     19  N   UNL A   1      33.051  23.987  26.430  1.00  0.00    -0.278 N 
ATOM     20  H   UNL A   1      33.111  23.482  27.273  1.00  0.00     0.174 HD
ATOM     21  O   UNL A   1      34.037  22.272  25.375  1.00  0.00    -0.275 OA
ENDBRANCH  12  13
ENDBRANCH  11  12
ENDBRANCH  10  11
ENDBRANCH   6  10
ENDBRANCH   3   5
ENDBRANCH   2   3
ENDBRANCH   1   2
BRANCH   1  22
ATOM     22  C   UNL A   1      31.455  30.803  25.743  1.00  0.00     0.275 C 
BRANCH  22  23
ATOM     23  O   UNL A   1      32.393  30.590  26.818  1.00  0.00    -0.458 OA
BRANCH  23  24
ATOM     24  C   UNL A   1      33.072  31.685  27.230  1.00  0.00     0.338 C 
ATOM     25  O   UNL A   1      32.646  32.824  27.329  1.00  0.00    -0.246 OA
BRANCH  24  26
ATOM     26  C   UNL A   1      34.446  31.332  27.633  1.00  0.00     0.060 A 
ATOM     27  C   UNL A   1      34.739  29.999  27.873  1.00  0.00     0.016 A 
ATOM     28  C   UNL A   1      35.362  32.313  28.002  1.00  0.00     0.016 A 
ATOM     29  C   UNL A   1      35.832  29.656  28.663  1.00  0.00     0.010 A 
ATOM     30  C   UNL A   1      36.560  31.942  28.636  1.00  0.00     0.010 A 
ATOM     31  C   UNL A   1      36.784  30.613  29.039  1.00  0.00    -0.014 A 
BRANCH  31  32
ATOM     32  C   UNL A   1      37.971  30.205  29.857  1.00  0.00     0.031 A 
ATOM     33  C   UNL A   1      39.053  29.323  29.277  1.00  0.00     0.074 A 
ATOM     34  C   UNL A   1      38.112  30.659  31.122  1.00  0.00     0.049 A 
ATOM     35  N   UNL A   1      40.086  28.774  29.873  1.00  0.00    -0.248 NA
ATOM     36  C   UNL A   1      38.959  29.001  27.844  1.00  0.00     0.031 C 
ATOM     37  C   UNL A   1      37.173  31.543  31.814  1.00  0.00     0.029 A 
ATOM     38  N   UNL A   1      39.109  30.460  32.047  1.00  0.00    -0.354 N 
ATOM     39  C   UNL A   1      40.722  28.001  28.907  1.00  0.00     0.074 A 
ATOM     40  C   UNL A   1      39.954  28.139  27.689  1.00  0.00     0.031 C 
ATOM     41  C   UNL A   1      37.668  31.868  33.016  1.00  0.00     0.029 A 
ATOM     42  C   UNL A   1      38.902  31.125  33.232  1.00  0.00     0.049 A 
ATOM     43  H   UNL A   1      39.898  29.895  31.877  1.00  0.00     0.167 HD
ATOM     44  C   UNL A   1      41.846  27.248  29.024  1.00  0.00     0.037 A 
ATOM     45  C   UNL A   1      39.594  31.113  34.387  1.00  0.00     0.037 A 
ATOM     46  C   UNL A   1      42.647  27.157  30.220  1.00  0.00     0.049 A 
ATOM     47  C   UNL A   1      40.817  30.250  34.498  1.00  0.00     0.074 A 
ATOM     48  C   UNL A   1      43.813  26.438  30.426  1.00  0.00     0.029 A 
ATOM     49  N   UNL A   1      42.374  27.818  31.408  1.00  0.00    -0.354 N 
ATOM     50  N   UNL A   1      41.379  29.491  33.591  1.00  0.00    -0.248 NA
ATOM     51  C   UNL A   1      41.493  30.230  35.803  1.00  0.00     0.031 C 
ATOM     52  C   UNL A   1      44.218  26.625  31.751  1.00  0.00     0.029 A 
ATOM     53  C   UNL A   1      43.338  27.508  32.357  1.00  0.00     0.049 A 
ATOM     54  H   UNL A   1      41.609  28.420  31.558  1.00  0.00     0.167 HD
ATOM     55  C   UNL A   1      42.482  28.916  34.207  1.00  0.00     0.074 A 
ATOM     56  C   UNL A   1      42.524  29.435  35.558  1.00  0.00     0.031 C 
ATOM     57  C   UNL A   1      43.373  28.031  33.699  1.00  0.00     0.037 A 
BRANCH  44  58
ATOM     58  C   UNL A   1      42.266  26.429  27.834  1.00  0.00     0.064 A 
ATOM     59  C   UNL A   1      43.267  26.854  26.948  1.00  0.00     0.173 A 
ATOM     60  C   UNL A   1      41.684  25.171  27.605  1.00  0.00     0.173 A 
ATOM     61  F   UNL A   1      43.853  28.050  27.115  1.00  0.00    -0.203 F 
ATOM     62  C   UNL A   1      43.646  26.067  25.862  1.00  0.00     0.198 A 
ATOM     63  C   UNL A   1      42.088  24.373  26.537  1.00  0.00     0.198 A 
ATOM     64  F   UNL A   1      40.730  24.707  28.426  1.00  0.00    -0.203 F 
ATOM     65  F   UNL A   1      44.570  26.517  25.000  1.00  0.00    -0.200 F 
ATOM     66  C   UNL A   1      43.062  24.826  25.661  1.00  0.00     0.200 A 
ATOM     67  F   UNL A   1      41.534  23.166  26.357  1.00  0.00    -0.200 F 
ATOM     68  F   UNL A   1      43.434  24.067  24.621  1.00  0.00    -0.200 F 
ENDBRANCH  44  58
BRANCH  45  69
ATOM     69  C   UNL A   1      39.117  31.916  35.547  1.00  0.00     0.064 A 
ATOM     70  C   UNL A   1      39.494  33.257  35.703  1.00  0.00     0.173 A 
ATOM     71  C   UNL A   1      38.273  31.360  36.520  1.00  0.00     0.173 A 
ATOM     72  F   UNL A   1      40.322  33.828  34.814  1.00  0.00    -0.203 F 
ATOM     73  C   UNL A   1      39.056  34.005  36.793  1.00  0.00     0.198 A 
ATOM     74  C   UNL A   1      37.806  32.119  37.590  1.00  0.00     0.198 A 
ATOM     75  F   UNL A   1      37.883  30.080  36.422  1.00  0.00    -0.203 F 
ATOM     76  F   UNL A   1      39.473  35.270  36.946  1.00  0.00    -0.200 F 
ATOM     77  C   UNL A   1      38.206  33.439  37.731  1.00  0.00     0.200 A 
ATOM     78  F   UNL A   1      36.971  31.572  38.484  1.00  0.00    -0.200 F 
ATOM     79  F   UNL A   1      37.778  34.162  38.775  1.00  0.00    -0.200 F 
ENDBRANCH  45  69
BRANCH  57  80
ATOM     80  C   UNL A   1      44.492  27.598  34.601  1.00  0.00     0.064 A 
ATOM     81  C   UNL A   1      45.698  28.313  34.677  1.00  0.00     0.173 A 
ATOM     82  C   UNL A   1      44.356  26.455  35.403  1.00  0.00     0.173 A 
ATOM     83  F   UNL A   1      45.885  29.402  33.917  1.00  0.00    -0.203 F 
ATOM     84  C   UNL A   1      46.738  27.879  35.495  1.00  0.00     0.198 A 
ATOM     85  C   UNL A   1      45.385  26.043  36.245  1.00  0.00     0.198 A 
ATOM     86  F   UNL A   1      43.222  25.738  35.373  1.00  0.00    -0.203 F 
ATOM     87  F   UNL A   1      47.902  28.542  35.505  1.00  0.00    -0.200 F 
ATOM     88  C   UNL A   1      46.578  26.748  36.283  1.00  0.00     0.200 A 
ATOM     89  F   UNL A   1      45.225  24.957  37.014  1.00  0.00    -0.200 F 
ATOM     90  F   UNL A   1      47.579  26.331  37.068  1.00  0.00    -0.200 F 
ENDBRANCH  57  80
ENDBRANCH  31  32
ENDBRANCH  24  26
ENDBRANCH  23  24
ENDBRANCH  22  23
ENDBRANCH   1  22
TORSDOF 15
ENDMDL
MODEL 2
REMARK VINA RESULT:     -11.1      4.251      9.789
REMARK SMILES CNC(=O)NC(=O)CCSc1csc(C(=O)OCCOC(=O)c2ccc(-c3c4nc(c(-c5c(F)c(F)c(F)c(F)c5F)c5ccc([nH]5)c(-c5c(F)c(F)c(F)c(F)c5F)c5nc(c(-c6c(F)c(F)c(F)c(F)c6F)c6ccc3[nH]6)C=C5)C=C4)cc2)c1
REMARK SMILES IDX 18 1 17 2 15 3 16 4 14 5 11 6 12 7 86 8 13 9 10 10 9 11 8 12
REMARK SMILES IDX 6 13 1 14 2 15 3 16 4 18 5 19 7 21 19 22 20 23 21 24 22 25
REMARK SMILES IDX 23 26 24 27 85 28 25 29 84 30 26 31 27 32 28 33 78 34 29 35
REMARK SMILES IDX 83 36 77 37 79 38 30 39 82 40 76 41 75 42 31 44 63 45 43 46
REMARK SMILES IDX 62 47 44 48 47 49 61 50 80 51 45 52 46 53 60 55 81 56 48 57
REMARK SMILES IDX 32 58 33 59 41 60 34 61 35 62 39 63 42 64 36 65 37 66 40 67
REMARK SMILES IDX 38 68 64 69 65 70 73 71 66 72 67 73 71 74 74 75 68 76 69 77
REMARK SMILES IDX 72 78 70 79 49 80 50 81 58 82 51 83 52 84 56 85 59 86 53 87
REMARK SMILES IDX 54 88 57 89 55 90
REMARK H PARENT 2 17 5 20 79 43 47 54
REMARK Flexibility Score: inf
ROOT
ATOM      1  C   UNL A   1      35.185  20.670  25.056  1.00  0.00     0.275 C 
ENDROOT
BRANCH   1   2
ATOM      2  O   UNL A   1      33.900  20.623  25.711  1.00  0.00    -0.458 OA
BRANCH   2   3
ATOM      3  C   UNL A   1      32.831  20.473  24.873  1.00  0.00     0.348 C 
ATOM      4  O   UNL A   1      32.451  19.393  24.439  1.00  0.00    -0.245 OA
BRANCH   3   5
ATOM      5  C   UNL A   1      32.144  21.738  24.701  1.00  0.00     0.113 A 
ATOM      6  C   UNL A   1      31.021  23.761  24.969  1.00  0.00     0.019 A 
ATOM      7  C   UNL A   1      31.076  23.667  23.601  1.00  0.00     0.080 A 
ATOM      8  C   UNL A   1      31.510  22.575  25.604  1.00  0.00     0.042 A 
ATOM      9  S   UNL A   1      32.112  22.418  23.129  1.00  0.00    -0.136 S 
BRANCH   6  10
ATOM     10  S   UNL A   1      30.452  25.166  25.847  1.00  0.00    -0.125 SA
BRANCH  10  11
ATOM     11  C   UNL A   1      29.853  26.253  24.501  1.00  0.00     0.085 C 
BRANCH  11  12
ATOM     12  C   UNL A   1      30.679  27.479  24.119  1.00  0.00     0.112 C 
BRANCH  12  13
ATOM     13  C   UNL A   1      30.898  27.760  22.655  1.00  0.00     0.228 C 
ATOM     14  C   UNL A   1      33.738  26.449  24.387  1.00  0.00     0.144 C 
ATOM     15  N   UNL A   1      33.536  25.919  23.067  1.00  0.00    -0.341 N 
ATOM     16  C   UNL A   1      32.971  26.444  21.972  1.00  0.00     0.321 C 
ATOM     17  H   UNL A   1      33.876  25.003  22.944  1.00  0.00     0.165 HD
ATOM     18  O   UNL A   1      33.280  25.958  20.881  1.00  0.00    -0.248 OA
ATOM     19  N   UNL A   1      32.080  27.476  22.000  1.00  0.00    -0.278 N 
ATOM     20  H   UNL A   1      32.348  28.205  21.397  1.00  0.00     0.174 HD
ATOM     21  O   UNL A   1      29.993  28.292  22.002  1.00  0.00    -0.275 OA
ENDBRANCH  12  13
ENDBRANCH  11  12
ENDBRANCH  10  11
ENDBRANCH   6  10
ENDBRANCH   3   5
ENDBRANCH   2   3
ENDBRANCH   1   2
BRANCH   1  22
ATOM     22  C   UNL A   1      36.164  21.560  25.827  1.00  0.00     0.275 C 
BRANCH  22  23
ATOM     23  O   UNL A   1      37.392  21.730  25.088  1.00  0.00    -0.458 OA
BRANCH  23  24
ATOM     24  C   UNL A   1      38.524  21.402  25.752  1.00  0.00     0.338 C 
ATOM     25  O   UNL A   1      39.097  20.324  25.747  1.00  0.00    -0.246 OA
BRANCH  24  26
ATOM     26  C   UNL A   1      39.065  22.566  26.477  1.00  0.00     0.060 A 
ATOM     27  C   UNL A   1      38.563  23.821  26.173  1.00  0.00     0.016 A 
ATOM     28  C   UNL A   1      40.209  22.457  27.262  1.00  0.00     0.016 A 
ATOM     29  C   UNL A   1      39.307  24.961  26.465  1.00  0.00     0.010 A 
ATOM     30  C   UNL A   1      40.855  23.619  27.715  1.00  0.00     0.010 A 
ATOM     31  C   UNL A   1      40.454  24.891  27.267  1.00  0.00    -0.014 A 
BRANCH  31  32
ATOM     32  C   UNL A   1      41.212  26.141  27.597  1.00  0.00     0.031 A 
ATOM     33  C   UNL A   1      40.593  27.230  28.442  1.00  0.00     0.074 A 
ATOM     34  C   UNL A   1      42.487  26.293  27.175  1.00  0.00     0.049 A 
ATOM     35  N   UNL A   1      41.053  28.426  28.726  1.00  0.00    -0.248 NA
ATOM     36  C   UNL A   1      39.276  26.950  29.037  1.00  0.00     0.031 C 
ATOM     37  C   UNL A   1      43.238  25.320  26.379  1.00  0.00     0.029 A 
ATOM     38  N   UNL A   1      43.388  27.313  27.372  1.00  0.00    -0.354 N 
ATOM     39  C   UNL A   1      40.063  29.054  29.475  1.00  0.00     0.074 A 
ATOM     40  C   UNL A   1      38.970  28.114  29.592  1.00  0.00     0.031 C 
ATOM     41  C   UNL A   1      44.496  25.750  26.219  1.00  0.00     0.029 A 
ATOM     42  C   UNL A   1      44.615  27.082  26.797  1.00  0.00     0.049 A 
ATOM     43  H   UNL A   1      43.175  28.131  27.877  1.00  0.00     0.167 HD
ATOM     44  C   UNL A   1      40.067  30.298  30.018  1.00  0.00     0.037 A 
ATOM     45  C   UNL A   1      45.708  27.862  26.698  1.00  0.00     0.037 A 
ATOM     46  C   UNL A   1      41.180  31.213  29.955  1.00  0.00     0.049 A 
ATOM     47  C   UNL A   1      45.675  29.244  27.284  1.00  0.00     0.074 A 
ATOM     48  C   UNL A   1      41.284  32.484  30.494  1.00  0.00     0.029 A 
ATOM     49  N   UNL A   1      42.388  30.949  29.326  1.00  0.00    -0.354 N 
ATOM     50  N   UNL A   1      44.716  29.838  27.949  1.00  0.00    -0.248 NA
ATOM     51  C   UNL A   1      46.874  30.071  27.089  1.00  0.00     0.031 C 
ATOM     52  C   UNL A   1      42.534  33.008  30.150  1.00  0.00     0.029 A 
ATOM     53  C   UNL A   1      43.235  32.041  29.447  1.00  0.00     0.049 A 
ATOM     54  H   UNL A   1      42.612  30.110  28.862  1.00  0.00     0.167 HD
ATOM     55  C   UNL A   1      45.199  31.100  28.266  1.00  0.00     0.074 A 
ATOM     56  C   UNL A   1      46.547  31.175  27.744  1.00  0.00     0.031 C 
ATOM     57  C   UNL A   1      44.576  32.107  28.925  1.00  0.00     0.037 A 
BRANCH  44  58
ATOM     58  C   UNL A   1      38.814  30.764  30.707  1.00  0.00     0.064 A 
ATOM     59  C   UNL A   1      37.728  31.306  30.001  1.00  0.00     0.173 A 
ATOM     60  C   UNL A   1      38.682  30.625  32.098  1.00  0.00     0.173 A 
ATOM     61  F   UNL A   1      37.802  31.469  28.671  1.00  0.00    -0.203 F 
ATOM     62  C   UNL A   1      36.574  31.717  30.665  1.00  0.00     0.198 A 
ATOM     63  C   UNL A   1      37.514  31.007  32.754  1.00  0.00     0.198 A 
ATOM     64  F   UNL A   1      39.683  30.103  32.824  1.00  0.00    -0.203 F 
ATOM     65  F   UNL A   1      35.569  32.277  29.975  1.00  0.00    -0.200 F 
ATOM     66  C   UNL A   1      36.465  31.561  32.039  1.00  0.00     0.200 A 
ATOM     67  F   UNL A   1      37.405  30.838  34.080  1.00  0.00    -0.200 F 
ATOM     68  F   UNL A   1      35.350  31.949  32.673  1.00  0.00    -0.200 F 
ENDBRANCH  44  58
BRANCH  45  69
ATOM     69  C   UNL A   1      46.912  27.366  25.977  1.00  0.00     0.064 A 
ATOM     70  C   UNL A   1      47.935  26.689  26.656  1.00  0.00     0.173 A 
ATOM     71  C   UNL A   1      47.064  27.556  24.595  1.00  0.00     0.173 A 
ATOM     72  F   UNL A   1      47.851  26.505  27.983  1.00  0.00    -0.203 F 
ATOM     73  C   UNL A   1      49.066  26.234  25.983  1.00  0.00     0.198 A 
ATOM     74  C   UNL A   1      48.177  27.069  23.917  1.00  0.00     0.198 A 
ATOM     75  F   UNL A   1      46.117  28.200  23.896  1.00  0.00    -0.203 F 
ATOM     76  F   UNL A   1      50.053  25.634  26.664  1.00  0.00    -0.200 F 
ATOM     77  C   UNL A   1      49.183  26.416  24.613  1.00  0.00     0.200 A 
ATOM     78  F   UNL A   1      48.277  27.232  22.590  1.00  0.00    -0.200 F 
ATOM     79  F   UNL A   1      50.268  25.970  23.965  1.00  0.00    -0.200 F 
ENDBRANCH  45  69
BRANCH  57  80
ATOM     80  C   UNL A   1      45.365  33.364  29.149  1.00  0.00     0.064 A 
ATOM     81  C   UNL A   1      46.170  33.539  30.285  1.00  0.00     0.173 A 
ATOM     82  C   UNL A   1      45.318  34.407  28.211  1.00  0.00     0.173 A 
ATOM     83  F   UNL A   1      46.234  32.578  31.220  1.00  0.00    -0.203 F 
ATOM     84  C   UNL A   1      46.869  34.725  30.492  1.00  0.00     0.198 A 
ATOM     85  C   UNL A   1      46.046  35.578  28.405  1.00  0.00     0.198 A 
ATOM     86  F   UNL A   1      44.569  34.290  27.104  1.00  0.00    -0.203 F 
ATOM     87  F   UNL A   1      47.581  34.893  31.614  1.00  0.00    -0.200 F 
ATOM     88  C   UNL A   1      46.811  35.741  29.549  1.00  0.00     0.200 A 
ATOM     89  F   UNL A   1      45.998  36.554  27.488  1.00  0.00    -0.200 F 
ATOM     90  F   UNL A   1      47.484  36.882  29.750  1.00  0.00    -0.200 F 
ENDBRANCH  57  80
ENDBRANCH  31  32
ENDBRANCH  24  26
ENDBRANCH  23  24
ENDBRANCH  22  23
ENDBRANCH   1  22
TORSDOF 15
ENDMDL
MODEL 3
REMARK VINA RESULT:     -11.1      1.098      2.362
REMARK SMILES CNC(=O)NC(=O)CCSc1csc(C(=O)OCCOC(=O)c2ccc(-c3c4nc(c(-c5c(F)c(F)c(F)c(F)c5F)c5ccc([nH]5)c(-c5c(F)c(F)c(F)c(F)c5F)c5nc(c(-c6c(F)c(F)c(F)c(F)c6F)c6ccc3[nH]6)C=C5)C=C4)cc2)c1
REMARK SMILES IDX 18 1 17 2 15 3 16 4 14 5 11 6 12 7 86 8 13 9 10 10 9 11 8 12
REMARK SMILES IDX 6 13 1 14 2 15 3 16 4 18 5 19 7 21 19 22 20 23 21 24 22 25
REMARK SMILES IDX 23 26 24 27 85 28 25 29 84 30 26 31 27 32 28 33 78 34 29 35
REMARK SMILES IDX 83 36 77 37 79 38 30 39 82 40 76 41 75 42 31 44 63 45 43 46
REMARK SMILES IDX 62 47 44 48 47 49 61 50 80 51 45 52 46 53 60 55 81 56 48 57
REMARK SMILES IDX 32 58 33 59 41 60 34 61 35 62 39 63 42 64 36 65 37 66 40 67
REMARK SMILES IDX 38 68 64 69 65 70 73 71 66 72 67 73 71 74 74 75 68 76 69 77
REMARK SMILES IDX 72 78 70 79 49 80 50 81 58 82 51 83 52 84 56 85 59 86 53 87
REMARK SMILES IDX 54 88 57 89 55 90
REMARK H PARENT 2 17 5 20 79 43 47 54
REMARK Flexibility Score: inf
ROOT
ATOM      1  C   UNL A   1      32.172  28.705  25.473  1.00  0.00     0.275 C 
ENDROOT
BRANCH   1   2
ATOM      2  O   UNL A   1      31.491  28.321  24.259  1.00  0.00    -0.458 OA
BRANCH   2   3
ATOM      3  C   UNL A   1      32.267  28.334  23.134  1.00  0.00     0.348 C 
ATOM      4  O   UNL A   1      32.665  29.357  22.591  1.00  0.00    -0.245 OA
BRANCH   3   5
ATOM      5  C   UNL A   1      32.660  26.984  22.778  1.00  0.00     0.113 A 
ATOM      6  C   UNL A   1      33.602  24.858  22.651  1.00  0.00     0.019 A 
ATOM      7  C   UNL A   1      32.822  24.871  21.522  1.00  0.00     0.080 A 
ATOM      8  C   UNL A   1      33.620  26.134  23.300  1.00  0.00     0.042 A 
ATOM      9  S   UNL A   1      31.788  26.207  21.525  1.00  0.00    -0.136 S 
BRANCH   6  10
ATOM     10  S   UNL A   1      34.454  23.451  23.254  1.00  0.00    -0.125 SA
BRANCH  10  11
ATOM     11  C   UNL A   1      33.117  22.208  23.381  1.00  0.00     0.085 C 
BRANCH  11  12
ATOM     12  C   UNL A   1      31.888  22.528  24.228  1.00  0.00     0.112 C 
BRANCH  12  13
ATOM     13  C   UNL A   1      31.595  21.649  25.415  1.00  0.00     0.228 C 
ATOM     14  C   UNL A   1      30.980  25.134  25.924  1.00  0.00     0.144 C 
ATOM     15  N   UNL A   1      29.997  24.256  26.496  1.00  0.00    -0.341 N 
ATOM     16  C   UNL A   1      30.083  23.002  26.957  1.00  0.00     0.321 C 
ATOM     17  H   UNL A   1      29.096  24.648  26.561  1.00  0.00     0.165 HD
ATOM     18  O   UNL A   1      29.217  22.626  27.752  1.00  0.00    -0.248 OA
ATOM     19  N   UNL A   1      31.065  22.127  26.598  1.00  0.00    -0.278 N 
ATOM     20  H   UNL A   1      31.511  21.736  27.383  1.00  0.00     0.174 HD
ATOM     21  O   UNL A   1      31.860  20.442  25.352  1.00  0.00    -0.275 OA
ENDBRANCH  12  13
ENDBRANCH  11  12
ENDBRANCH  10  11
ENDBRANCH   6  10
ENDBRANCH   3   5
ENDBRANCH   2   3
ENDBRANCH   1   2
BRANCH   1  22
ATOM     22  C   UNL A   1      31.990  30.199  25.756  1.00  0.00     0.275 C 
BRANCH  22  23
ATOM     23  O   UNL A   1      32.358  30.511  27.115  1.00  0.00    -0.458 OA
BRANCH  23  24
ATOM     24  C   UNL A   1      33.104  31.628  27.279  1.00  0.00     0.338 C 
ATOM     25  O   UNL A   1      32.729  32.786  27.189  1.00  0.00    -0.246 OA
BRANCH  24  26
ATOM     26  C   UNL A   1      34.486  31.287  27.661  1.00  0.00     0.060 A 
ATOM     27  C   UNL A   1      34.781  29.964  27.950  1.00  0.00     0.016 A 
ATOM     28  C   UNL A   1      35.415  32.278  27.963  1.00  0.00     0.016 A 
ATOM     29  C   UNL A   1      35.893  29.650  28.726  1.00  0.00     0.010 A 
ATOM     30  C   UNL A   1      36.627  31.930  28.583  1.00  0.00     0.010 A 
ATOM     31  C   UNL A   1      36.857  30.618  29.036  1.00  0.00    -0.014 A 
BRANCH  31  32
ATOM     32  C   UNL A   1      38.064  30.241  29.840  1.00  0.00     0.031 A 
ATOM     33  C   UNL A   1      39.148  29.363  29.257  1.00  0.00     0.074 A 
ATOM     34  C   UNL A   1      38.221  30.720  31.094  1.00  0.00     0.049 A 
ATOM     35  N   UNL A   1      40.198  28.839  29.844  1.00  0.00    -0.248 NA
ATOM     36  C   UNL A   1      39.033  29.014  27.832  1.00  0.00     0.031 C 
ATOM     37  C   UNL A   1      37.282  31.604  31.787  1.00  0.00     0.029 A 
ATOM     38  N   UNL A   1      39.237  30.550  32.005  1.00  0.00    -0.354 N 
ATOM     39  C   UNL A   1      40.828  28.057  28.881  1.00  0.00     0.074 A 
ATOM     40  C   UNL A   1      40.037  28.163  27.675  1.00  0.00     0.031 C 
ATOM     41  C   UNL A   1      37.794  31.956  32.974  1.00  0.00     0.029 A 
ATOM     42  C   UNL A   1      39.041  31.233  33.182  1.00  0.00     0.049 A 
ATOM     43  H   UNL A   1      40.030  29.992  31.832  1.00  0.00     0.167 HD
ATOM     44  C   UNL A   1      41.963  27.321  28.992  1.00  0.00     0.037 A 
ATOM     45  C   UNL A   1      39.753  31.251  34.325  1.00  0.00     0.037 A 
ATOM     46  C   UNL A   1      42.786  27.262  30.175  1.00  0.00     0.049 A 
ATOM     47  C   UNL A   1      40.989  30.407  34.429  1.00  0.00     0.074 A 
ATOM     48  C   UNL A   1      43.965  26.563  30.373  1.00  0.00     0.029 A 
ATOM     49  N   UNL A   1      42.525  27.941  31.356  1.00  0.00    -0.354 N 
ATOM     50  N   UNL A   1      41.546  29.639  33.526  1.00  0.00    -0.248 NA
ATOM     51  C   UNL A   1      41.688  30.419  35.722  1.00  0.00     0.031 C 
ATOM     52  C   UNL A   1      44.390  26.779  31.687  1.00  0.00     0.029 A 
ATOM     53  C   UNL A   1      43.510  27.660  32.293  1.00  0.00     0.049 A 
ATOM     54  H   UNL A   1      41.755  28.535  31.508  1.00  0.00     0.167 HD
ATOM     55  C   UNL A   1      42.667  29.090  34.132  1.00  0.00     0.074 A 
ATOM     56  C   UNL A   1      42.725  29.633  35.473  1.00  0.00     0.031 C 
ATOM     57  C   UNL A   1      43.561  28.207  33.624  1.00  0.00     0.037 A 
BRANCH  44  58
ATOM     58  C   UNL A   1      42.374  26.486  27.810  1.00  0.00     0.064 A 
ATOM     59  C   UNL A   1      41.841  25.210  27.572  1.00  0.00     0.173 A 
ATOM     60  C   UNL A   1      43.289  26.995  26.873  1.00  0.00     0.173 A 
ATOM     61  F   UNL A   1      40.969  24.671  28.438  1.00  0.00    -0.203 F 
ATOM     62  C   UNL A   1      42.231  24.465  26.461  1.00  0.00     0.198 A 
ATOM     63  C   UNL A   1      43.651  26.262  25.746  1.00  0.00     0.198 A 
ATOM     64  F   UNL A   1      43.823  28.215  27.042  1.00  0.00    -0.203 F 
ATOM     65  F   UNL A   1      41.745  23.228  26.281  1.00  0.00    -0.200 F 
ATOM     66  C   UNL A   1      43.129  24.993  25.545  1.00  0.00     0.200 A 
ATOM     67  F   UNL A   1      44.506  26.782  24.854  1.00  0.00    -0.200 F 
ATOM     68  F   UNL A   1      43.495  24.278  24.473  1.00  0.00    -0.200 F 
ENDBRANCH  44  58
BRANCH  45  69
ATOM     69  C   UNL A   1      39.285  32.069  35.478  1.00  0.00     0.064 A 
ATOM     70  C   UNL A   1      38.463  31.516  36.470  1.00  0.00     0.173 A 
ATOM     71  C   UNL A   1      39.650  33.416  35.611  1.00  0.00     0.173 A 
ATOM     72  F   UNL A   1      38.061  30.240  36.374  1.00  0.00    -0.203 F 
ATOM     73  C   UNL A   1      38.015  32.285  37.543  1.00  0.00     0.198 A 
ATOM     74  C   UNL A   1      39.234  34.173  36.703  1.00  0.00     0.198 A 
ATOM     75  F   UNL A   1      40.433  33.996  34.689  1.00  0.00    -0.203 F 
ATOM     76  F   UNL A   1      37.189  31.746  38.451  1.00  0.00    -0.200 F 
ATOM     77  C   UNL A   1      38.408  33.609  37.664  1.00  0.00     0.200 A 
ATOM     78  F   UNL A   1      39.630  35.448  36.824  1.00  0.00    -0.200 F 
ATOM     79  F   UNL A   1      37.985  34.345  38.701  1.00  0.00    -0.200 F 
ENDBRANCH  45  69
BRANCH  57  80
ATOM     80  C   UNL A   1      44.701  27.806  34.514  1.00  0.00     0.064 A 
ATOM     81  C   UNL A   1      44.626  26.681  35.350  1.00  0.00     0.173 A 
ATOM     82  C   UNL A   1      45.888  28.554  34.527  1.00  0.00     0.173 A 
ATOM     83  F   UNL A   1      43.506  25.944  35.388  1.00  0.00    -0.203 F 
ATOM     84  C   UNL A   1      45.682  26.343  36.192  1.00  0.00     0.198 A 
ATOM     85  C   UNL A   1      46.955  28.193  35.345  1.00  0.00     0.198 A 
ATOM     86  F   UNL A   1      46.016  29.635  33.743  1.00  0.00    -0.203 F 
ATOM     87  F   UNL A   1      45.562  25.302  37.028  1.00  0.00    -0.200 F 
ATOM     88  C   UNL A   1      46.847  27.095  36.185  1.00  0.00     0.200 A 
ATOM     89  F   UNL A   1      48.085  28.913  35.329  1.00  0.00    -0.200 F 
ATOM     90  F   UNL A   1      47.861  26.769  36.997  1.00  0.00    -0.200 F 
ENDBRANCH  57  80
ENDBRANCH  31  32
ENDBRANCH  24  26
ENDBRANCH  23  24
ENDBRANCH  22  23
ENDBRANCH   1  22
TORSDOF 15
ENDMDL
