MODEL 1
REMARK VINA RESULT:     -11.9      0.000      0.000
REMARK SMILES N#C/C(=C/c1cc(Br)ccc1OCC(=O)OCCOC(=O)c1ccc(-c2c3nc(c(-c4c(F)c(F)c(F)c(F)c4F)c4ccc([nH]4)c(-c4c(F)c(F)c(F)c(F)c4F)c4nc(c(-c5c(F)c(F)c(F)c(F)c5F)c5ccc2[nH]5)C=C4)C=C3)cc1)c1ccc(F)cc1
REMARK SMILES IDX 17 1 16 2 14 3 15 4 13 5 12 6 11 7 5 8 6 9 7 10 10 11 8 12
REMARK SMILES IDX 9 13 4 14 3 15 2 16 1 17 85 18 86 19 91 20 87 21 90 22 88 23
REMARK SMILES IDX 89 24 18 25 19 26 20 27 21 28 22 29 23 30 84 31 24 32 83 33
REMARK SMILES IDX 25 34 26 35 27 36 77 37 28 38 82 39 76 40 78 41 29 42 81 43
REMARK SMILES IDX 75 44 74 45 30 47 62 48 42 49 61 50 43 51 46 52 60 53 79 54
REMARK SMILES IDX 44 55 45 56 59 58 80 59 47 60 31 61 32 62 40 63 33 64 34 65
REMARK SMILES IDX 38 66 41 67 35 68 36 69 39 70 37 71 63 72 64 73 72 74 65 75
REMARK SMILES IDX 66 76 70 77 73 78 67 79 68 80 71 81 69 82 48 83 49 84 57 85
REMARK SMILES IDX 50 86 51 87 55 88 58 89 52 90 53 91 56 92 54 93
REMARK H PARENT 78 46 46 57
REMARK Flexibility Score: inf
ROOT
ATOM      1  C   UNL A   1      39.886  20.267  26.113  1.00  0.00     0.274 C 
ENDROOT
BRANCH   1   2
ATOM      2  O   UNL A   1      39.147  21.505  26.105  1.00  0.00    -0.460 OA
BRANCH   2   3
ATOM      3  C   UNL A   1      38.005  21.453  25.379  1.00  0.00     0.344 C 
ATOM      4  O   UNL A   1      37.664  20.501  24.683  1.00  0.00    -0.248 OA
BRANCH   3   5
ATOM      5  C   UNL A   1      37.138  22.708  25.464  1.00  0.00     0.352 C 
BRANCH   5   6
ATOM      6  O   UNL A   1      36.094  23.104  24.624  1.00  0.00    -0.481 OA
BRANCH   6   7
ATOM      7  C   UNL A   1      34.786  23.152  24.983  1.00  0.00     0.127 A 
ATOM      8  C   UNL A   1      33.623  23.424  24.235  1.00  0.00     0.019 A 
ATOM      9  C   UNL A   1      32.396  23.166  24.898  1.00  0.00     0.027 A 
ATOM     10  C   UNL A   1      32.317  22.928  26.278  1.00  0.00     0.018 A 
ATOM     11  C   UNL A   1      34.688  22.903  26.375  1.00  0.00     0.048 A 
ATOM     12  Br  UNL A   1      30.632  22.810  27.128  1.00  0.00    -0.051 Br
ATOM     13  C   UNL A   1      33.468  22.832  27.034  1.00  0.00     0.019 A 
BRANCH   8  14
ATOM     14  C   UNL A   1      33.558  24.005  22.834  1.00  0.00     0.032 C 
ATOM     15  C   UNL A   1      33.104  25.230  22.390  1.00  0.00     0.060 C 
BRANCH  15  16
ATOM     16  C   UNL A   1      32.993  25.406  20.884  1.00  0.00     0.100 C 
ATOM     17  N   UNL A   1      32.901  25.553  19.635  1.00  0.00    -0.192 NA
ENDBRANCH  15  16
BRANCH  15  18
ATOM     18  C   UNL A   1      32.681  26.171  23.451  1.00  0.00    -0.008 A 
ATOM     19  C   UNL A   1      31.305  26.528  23.518  1.00  0.00     0.012 A 
ATOM     20  C   UNL A   1      33.597  26.920  24.199  1.00  0.00     0.012 A 
ATOM     21  C   UNL A   1      30.865  27.610  24.283  1.00  0.00     0.040 A 
ATOM     22  C   UNL A   1      33.149  28.008  24.969  1.00  0.00     0.040 A 
ATOM     23  C   UNL A   1      31.796  28.344  24.998  1.00  0.00     0.123 A 
ATOM     24  F   UNL A   1      31.383  29.382  25.738  1.00  0.00    -0.207 F 
ENDBRANCH  15  18
ENDBRANCH   8  14
ENDBRANCH   6   7
ENDBRANCH   5   6
ENDBRANCH   3   5
ENDBRANCH   2   3
ENDBRANCH   1   2
BRANCH   1  25
ATOM     25  C   UNL A   1      41.378  20.480  26.449  1.00  0.00     0.275 C 
BRANCH  25  26
ATOM     26  O   UNL A   1      42.157  21.170  25.380  1.00  0.00    -0.458 OA
BRANCH  26  27
ATOM     27  C   UNL A   1      42.881  22.277  25.750  1.00  0.00     0.338 C 
ATOM     28  O   UNL A   1      44.016  22.139  26.210  1.00  0.00    -0.246 OA
BRANCH  27  29
ATOM     29  C   UNL A   1      42.247  23.826  25.537  1.00  0.00     0.060 A 
ATOM     30  C   UNL A   1      43.466  25.201  25.294  1.00  0.00     0.016 A 
ATOM     31  C   UNL A   1      40.973  23.972  26.878  1.00  0.00     0.016 A 
ATOM     32  C   UNL A   1      43.522  26.650  26.581  1.00  0.00     0.010 A 
ATOM     33  C   UNL A   1      41.035  25.362  28.121  1.00  0.00     0.010 A 
ATOM     34  C   UNL A   1      42.375  26.617  28.044  1.00  0.00    -0.014 A 
BRANCH  34  35
ATOM     35  C   UNL A   1      42.577  27.536  29.313  1.00  0.00     0.031 A 
ATOM     36  C   UNL A   1      43.205  27.495  30.779  1.00  0.00     0.074 A 
ATOM     37  C   UNL A   1      41.628  28.441  29.143  1.00  0.00     0.049 A 
ATOM     38  N   UNL A   1      42.711  27.851  31.968  1.00  0.00    -0.248 NA
ATOM     39  C   UNL A   1      44.627  27.189  30.924  1.00  0.00     0.031 C 
ATOM     40  C   UNL A   1      40.906  28.582  27.885  1.00  0.00     0.029 A 
ATOM     41  N   UNL A   1      41.009  29.266  30.022  1.00  0.00    -0.354 N 
ATOM     42  C   UNL A   1      43.703  27.618  32.968  1.00  0.00     0.074 A 
ATOM     43  C   UNL A   1      44.849  27.131  32.241  1.00  0.00     0.031 C 
ATOM     44  C   UNL A   1      39.848  29.335  28.087  1.00  0.00     0.029 A 
ATOM     45  C   UNL A   1      39.846  29.731  29.483  1.00  0.00     0.049 A 
ATOM     46  H   UNL A   1      41.349  29.496  30.917  1.00  0.00     0.167 HD
ATOM     47  C   UNL A   1      43.719  27.889  34.320  1.00  0.00     0.037 A 
ATOM     48  C   UNL A   1      38.827  30.384  30.039  1.00  0.00     0.037 A 
ATOM     49  C   UNL A   1      42.776  28.803  34.948  1.00  0.00     0.049 A 
ATOM     50  C   UNL A   1      38.956  30.840  31.435  1.00  0.00     0.074 A 
ATOM     51  C   UNL A   1      42.766  29.316  36.242  1.00  0.00     0.029 A 
ATOM     52  N   UNL A   1      41.744  29.433  34.275  1.00  0.00    -0.354 N 
ATOM     53  N   UNL A   1      39.789  30.453  32.366  1.00  0.00    -0.248 NA
ATOM     54  C   UNL A   1      38.040  31.908  31.821  1.00  0.00     0.031 C 
ATOM     55  C   UNL A   1      41.740  30.265  36.340  1.00  0.00     0.029 A 
ATOM     56  C   UNL A   1      41.130  30.360  35.101  1.00  0.00     0.049 A 
ATOM     57  H   UNL A   1      41.484  29.249  33.343  1.00  0.00     0.167 HD
ATOM     58  C   UNL A   1      39.510  31.255  33.458  1.00  0.00     0.074 A 
ATOM     59  C   UNL A   1      38.452  32.159  33.052  1.00  0.00     0.031 C 
ATOM     60  C   UNL A   1      40.078  31.244  34.687  1.00  0.00     0.037 A 
BRANCH  47  61
ATOM     61  C   UNL A   1      44.789  27.329  35.286  1.00  0.00     0.064 A 
ATOM     62  C   UNL A   1      44.707  26.077  35.917  1.00  0.00     0.173 A 
ATOM     63  C   UNL A   1      46.044  27.985  35.392  1.00  0.00     0.173 A 
ATOM     64  F   UNL A   1      43.592  25.341  35.812  1.00  0.00    -0.203 F 
ATOM     65  C   UNL A   1      45.787  25.536  36.638  1.00  0.00     0.198 A 
ATOM     66  C   UNL A   1      47.133  27.424  36.076  1.00  0.00     0.198 A 
ATOM     67  F   UNL A   1      46.249  29.152  34.762  1.00  0.00    -0.203 F 
ATOM     68  F   UNL A   1      45.658  24.345  37.243  1.00  0.00    -0.200 F 
ATOM     69  C   UNL A   1      46.999  26.204  36.709  1.00  0.00     0.200 A 
ATOM     70  F   UNL A   1      48.320  28.050  36.087  1.00  0.00    -0.200 F 
ATOM     71  F   UNL A   1      48.039  25.661  37.362  1.00  0.00    -0.200 F 
ENDBRANCH  47  61
BRANCH  48  72
ATOM     72  C   UNL A   1      37.752  30.762  29.111  1.00  0.00     0.064 A 
ATOM     73  C   UNL A   1      36.722  29.842  28.879  1.00  0.00     0.173 A 
ATOM     74  C   UNL A   1      37.556  32.105  28.757  1.00  0.00     0.173 A 
ATOM     75  F   UNL A   1      36.854  28.572  29.293  1.00  0.00    -0.203 F 
ATOM     76  C   UNL A   1      35.527  30.253  28.307  1.00  0.00     0.198 A 
ATOM     77  C   UNL A   1      36.348  32.515  28.207  1.00  0.00     0.198 A 
ATOM     78  F   UNL A   1      38.475  33.028  29.082  1.00  0.00    -0.203 F 
ATOM     79  F   UNL A   1      34.542  29.365  28.123  1.00  0.00    -0.200 F 
ATOM     80  C   UNL A   1      35.338  31.589  27.982  1.00  0.00     0.200 A 
ATOM     81  F   UNL A   1      36.134  33.815  27.959  1.00  0.00    -0.200 F 
ATOM     82  F   UNL A   1      34.163  31.991  27.480  1.00  0.00    -0.200 F 
ENDBRANCH  48  72
BRANCH  60  83
ATOM     83  C   UNL A   1      39.562  32.259  35.658  1.00  0.00     0.064 A 
ATOM     84  C   UNL A   1      40.160  33.522  35.765  1.00  0.00     0.173 A 
ATOM     85  C   UNL A   1      38.503  31.948  36.523  1.00  0.00     0.173 A 
ATOM     86  F   UNL A   1      41.191  33.850  34.972  1.00  0.00    -0.203 F 
ATOM     87  C   UNL A   1      39.748  34.424  36.740  1.00  0.00     0.198 A 
ATOM     88  C   UNL A   1      38.076  32.864  37.479  1.00  0.00     0.198 A 
ATOM     89  F   UNL A   1      37.901  30.752  36.456  1.00  0.00    -0.203 F 
ATOM     90  F   UNL A   1      40.384  35.596  36.876  1.00  0.00    -0.200 F 
ATOM     91  C   UNL A   1      38.707  34.094  37.595  1.00  0.00     0.200 A 
ATOM     92  F   UNL A   1      37.068  32.548  38.303  1.00  0.00    -0.200 F 
ATOM     93  F   UNL A   1      38.324  34.957  38.546  1.00  0.00    -0.200 F 
ENDBRANCH  60  83
ENDBRANCH  34  35
ENDBRANCH  27  29
ENDBRANCH  26  27
ENDBRANCH  25  26
ENDBRANCH   1  25
TORSDOF 16
ENDMDL
MODEL 2
REMARK VINA RESULT:     -11.8      4.178      8.367
REMARK SMILES N#C/C(=C/c1cc(Br)ccc1OCC(=O)OCCOC(=O)c1ccc(-c2c3nc(c(-c4c(F)c(F)c(F)c(F)c4F)c4ccc([nH]4)c(-c4c(F)c(F)c(F)c(F)c4F)c4nc(c(-c5c(F)c(F)c(F)c(F)c5F)c5ccc2[nH]5)C=C4)C=C3)cc1)c1ccc(F)cc1
REMARK SMILES IDX 17 1 16 2 14 3 15 4 13 5 12 6 11 7 5 8 6 9 7 10 10 11 8 12
REMARK SMILES IDX 9 13 4 14 3 15 2 16 1 17 85 18 86 19 91 20 87 21 90 22 88 23
REMARK SMILES IDX 89 24 18 25 19 26 20 27 21 28 22 29 23 30 84 31 24 32 83 33
REMARK SMILES IDX 25 34 26 35 27 36 77 37 28 38 82 39 76 40 78 41 29 42 81 43
REMARK SMILES IDX 75 44 74 45 30 47 62 48 42 49 61 50 43 51 46 52 60 53 79 54
REMARK SMILES IDX 44 55 45 56 59 58 80 59 47 60 31 61 32 62 40 63 33 64 34 65
REMARK SMILES IDX 38 66 41 67 35 68 36 69 39 70 37 71 63 72 64 73 72 74 65 75
REMARK SMILES IDX 66 76 70 77 73 78 67 79 68 80 71 81 69 82 48 83 49 84 57 85
REMARK SMILES IDX 50 86 51 87 55 88 58 89 52 90 53 91 56 92 54 93
REMARK H PARENT 78 46 46 57
REMARK Flexibility Score: inf
ROOT
ATOM      1  C   UNL A   1      33.570  22.560  25.847  1.00  0.00     0.274 C 
ENDROOT
BRANCH   1   2
ATOM      2  O   UNL A   1      32.696  23.617  25.399  1.00  0.00    -0.460 OA
BRANCH   2   3
ATOM      3  C   UNL A   1      31.734  23.945  26.294  1.00  0.00     0.344 C 
ATOM      4  O   UNL A   1      31.740  23.613  27.477  1.00  0.00    -0.248 OA
BRANCH   3   5
ATOM      5  C   UNL A   1      30.584  24.770  25.721  1.00  0.00     0.352 C 
BRANCH   5   6
ATOM      6  O   UNL A   1      30.334  26.137  25.870  1.00  0.00    -0.481 OA
BRANCH   6   7
ATOM      7  C   UNL A   1      31.290  27.092  25.996  1.00  0.00     0.127 A 
ATOM      8  C   UNL A   1      32.232  27.597  25.077  1.00  0.00     0.019 A 
ATOM      9  C   UNL A   1      32.932  28.757  25.495  1.00  0.00     0.027 A 
ATOM     10  C   UNL A   1      32.909  29.218  26.819  1.00  0.00     0.018 A 
ATOM     11  C   UNL A   1      31.274  27.576  27.329  1.00  0.00     0.048 A 
ATOM     12  Br  UNL A   1      34.038  30.640  27.350  1.00  0.00    -0.051 Br
ATOM     13  C   UNL A   1      32.104  28.603  27.757  1.00  0.00     0.019 A 
BRANCH   8  14
ATOM     14  C   UNL A   1      32.600  26.998  23.731  1.00  0.00     0.032 C 
ATOM     15  C   UNL A   1      31.920  26.999  22.531  1.00  0.00     0.060 C 
BRANCH  15  16
ATOM     16  C   UNL A   1      32.489  26.122  21.428  1.00  0.00     0.100 C 
ATOM     17  N   UNL A   1      32.961  25.394  20.513  1.00  0.00    -0.192 NA
ENDBRANCH  15  16
BRANCH  15  18
ATOM     18  C   UNL A   1      30.660  27.775  22.519  1.00  0.00    -0.008 A 
ATOM     19  C   UNL A   1      30.741  29.179  22.297  1.00  0.00     0.012 A 
ATOM     20  C   UNL A   1      29.448  27.247  22.980  1.00  0.00     0.012 A 
ATOM     21  C   UNL A   1      29.661  30.026  22.551  1.00  0.00     0.040 A 
ATOM     22  C   UNL A   1      28.362  28.103  23.234  1.00  0.00     0.040 A 
ATOM     23  C   UNL A   1      28.480  29.477  23.024  1.00  0.00     0.123 A 
ATOM     24  F   UNL A   1      27.436  30.280  23.267  1.00  0.00    -0.207 F 
ENDBRANCH  15  18
ENDBRANCH   8  14
ENDBRANCH   6   7
ENDBRANCH   5   6
ENDBRANCH   3   5
ENDBRANCH   2   3
ENDBRANCH   1   2
BRANCH   1  25
ATOM     25  C   UNL A   1      34.997  23.069  26.142  1.00  0.00     0.275 C 
BRANCH  25  26
ATOM     26  O   UNL A   1      35.928  22.024  26.657  1.00  0.00    -0.458 OA
BRANCH  26  27
ATOM     27  C   UNL A   1      36.710  21.373  25.734  1.00  0.00     0.338 C 
ATOM     28  O   UNL A   1      36.235  20.446  25.076  1.00  0.00    -0.246 OA
BRANCH  27  29
ATOM     29  C   UNL A   1      38.301  21.863  25.460  1.00  0.00     0.060 A 
ATOM     30  C   UNL A   1      39.555  21.378  26.736  1.00  0.00     0.016 A 
ATOM     31  C   UNL A   1      38.139  23.649  24.983  1.00  0.00     0.016 A 
ATOM     32  C   UNL A   1      40.509  22.766  27.697  1.00  0.00     0.010 A 
ATOM     33  C   UNL A   1      39.050  24.984  25.916  1.00  0.00     0.010 A 
ATOM     34  C   UNL A   1      40.126  24.551  27.341  1.00  0.00    -0.014 A 
BRANCH  34  35
ATOM     35  C   UNL A   1      40.571  25.730  28.293  1.00  0.00     0.031 A 
ATOM     36  C   UNL A   1      39.980  27.023  29.014  1.00  0.00     0.074 A 
ATOM     37  C   UNL A   1      41.879  25.756  28.095  1.00  0.00     0.049 A 
ATOM     38  N   UNL A   1      40.413  28.286  29.072  1.00  0.00    -0.248 NA
ATOM     39  C   UNL A   1      38.860  26.859  29.941  1.00  0.00     0.031 C 
ATOM     40  C   UNL A   1      42.581  24.684  27.401  1.00  0.00     0.029 A 
ATOM     41  N   UNL A   1      42.795  26.735  28.290  1.00  0.00    -0.354 N 
ATOM     42  C   UNL A   1      39.507  29.049  29.869  1.00  0.00     0.074 A 
ATOM     43  C   UNL A   1      38.519  28.097  30.313  1.00  0.00     0.031 C 
ATOM     44  C   UNL A   1      43.789  25.100  27.093  1.00  0.00     0.029 A 
ATOM     45  C   UNL A   1      43.930  26.457  27.590  1.00  0.00     0.049 A 
ATOM     46  H   UNL A   1      42.660  27.531  28.855  1.00  0.00     0.167 HD
ATOM     47  C   UNL A   1      39.545  30.360  30.295  1.00  0.00     0.037 A 
ATOM     48  C   UNL A   1      44.993  27.211  27.314  1.00  0.00     0.037 A 
ATOM     49  C   UNL A   1      40.757  31.164  30.252  1.00  0.00     0.049 A 
ATOM     50  C   UNL A   1      45.103  28.538  27.948  1.00  0.00     0.074 A 
ATOM     51  C   UNL A   1      41.008  32.420  30.796  1.00  0.00     0.029 A 
ATOM     52  N   UNL A   1      41.960  30.722  29.729  1.00  0.00    -0.354 N 
ATOM     53  N   UNL A   1      44.180  29.270  28.516  1.00  0.00    -0.248 NA
ATOM     54  C   UNL A   1      46.450  29.096  27.977  1.00  0.00     0.031 C 
ATOM     55  C   UNL A   1      42.364  32.724  30.614  1.00  0.00     0.029 A 
ATOM     56  C   UNL A   1      42.960  31.648  29.981  1.00  0.00     0.049 A 
ATOM     57  H   UNL A   1      42.087  29.872  29.247  1.00  0.00     0.167 HD
ATOM     58  C   UNL A   1      44.846  30.384  28.996  1.00  0.00     0.074 A 
ATOM     59  C   UNL A   1      46.247  30.204  28.671  1.00  0.00     0.031 C 
ATOM     60  C   UNL A   1      44.343  31.459  29.647  1.00  0.00     0.037 A 
BRANCH  47  61
ATOM     61  C   UNL A   1      38.338  31.077  30.944  1.00  0.00     0.064 A 
ATOM     62  C   UNL A   1      37.209  31.523  30.236  1.00  0.00     0.173 A 
ATOM     63  C   UNL A   1      38.223  31.107  32.359  1.00  0.00     0.173 A 
ATOM     64  F   UNL A   1      37.186  31.464  28.897  1.00  0.00    -0.203 F 
ATOM     65  C   UNL A   1      36.062  32.002  30.894  1.00  0.00     0.198 A 
ATOM     66  C   UNL A   1      37.061  31.546  33.011  1.00  0.00     0.198 A 
ATOM     67  F   UNL A   1      39.218  30.633  33.125  1.00  0.00    -0.203 F 
ATOM     68  F   UNL A   1      35.013  32.437  30.178  1.00  0.00    -0.200 F 
ATOM     69  C   UNL A   1      35.984  32.005  32.277  1.00  0.00     0.200 A 
ATOM     70  F   UNL A   1      36.974  31.487  34.349  1.00  0.00    -0.200 F 
ATOM     71  F   UNL A   1      34.870  32.422  32.897  1.00  0.00    -0.200 F 
ENDBRANCH  47  61
BRANCH  48  72
ATOM     72  C   UNL A   1      46.054  26.534  26.556  1.00  0.00     0.064 A 
ATOM     73  C   UNL A   1      46.312  26.963  25.248  1.00  0.00     0.173 A 
ATOM     74  C   UNL A   1      47.014  25.753  27.217  1.00  0.00     0.173 A 
ATOM     75  F   UNL A   1      45.449  27.784  24.632  1.00  0.00    -0.203 F 
ATOM     76  C   UNL A   1      47.497  26.619  24.615  1.00  0.00     0.198 A 
ATOM     77  C   UNL A   1      48.210  25.433  26.587  1.00  0.00     0.198 A 
ATOM     78  F   UNL A   1      46.849  25.436  28.511  1.00  0.00    -0.203 F 
ATOM     79  F   UNL A   1      47.740  27.064  23.376  1.00  0.00    -0.200 F 
ATOM     80  C   UNL A   1      48.449  25.864  25.289  1.00  0.00     0.200 A 
ATOM     81  F   UNL A   1      49.161  24.768  27.258  1.00  0.00    -0.200 F 
ATOM     82  F   UNL A   1      49.614  25.581  24.694  1.00  0.00    -0.200 F 
ENDBRANCH  48  72
BRANCH  60  83
ATOM     83  C   UNL A   1      45.335  32.502  30.055  1.00  0.00     0.064 A 
ATOM     84  C   UNL A   1      45.667  33.556  29.192  1.00  0.00     0.173 A 
ATOM     85  C   UNL A   1      45.995  32.419  31.288  1.00  0.00     0.173 A 
ATOM     86  F   UNL A   1      45.075  33.658  27.993  1.00  0.00    -0.203 F 
ATOM     87  C   UNL A   1      46.665  34.463  29.529  1.00  0.00     0.198 A 
ATOM     88  C   UNL A   1      46.974  33.345  31.633  1.00  0.00     0.198 A 
ATOM     89  F   UNL A   1      45.708  31.428  32.146  1.00  0.00    -0.203 F 
ATOM     90  F   UNL A   1      47.022  35.417  28.658  1.00  0.00    -0.200 F 
ATOM     91  C   UNL A   1      47.317  34.357  30.749  1.00  0.00     0.200 A 
ATOM     92  F   UNL A   1      47.601  33.245  32.813  1.00  0.00    -0.200 F 
ATOM     93  F   UNL A   1      48.292  35.221  31.064  1.00  0.00    -0.200 F 
ENDBRANCH  60  83
ENDBRANCH  34  35
ENDBRANCH  27  29
ENDBRANCH  26  27
ENDBRANCH  25  26
ENDBRANCH   1  25
TORSDOF 16
ENDMDL
MODEL 3
REMARK VINA RESULT:     -11.7      5.593     10.274
REMARK SMILES N#C/C(=C/c1cc(Br)ccc1OCC(=O)OCCOC(=O)c1ccc(-c2c3nc(c(-c4c(F)c(F)c(F)c(F)c4F)c4ccc([nH]4)c(-c4c(F)c(F)c(F)c(F)c4F)c4nc(c(-c5c(F)c(F)c(F)c(F)c5F)c5ccc2[nH]5)C=C4)C=C3)cc1)c1ccc(F)cc1
REMARK SMILES IDX 17 1 16 2 14 3 15 4 13 5 12 6 11 7 5 8 6 9 7 10 10 11 8 12
REMARK SMILES IDX 9 13 4 14 3 15 2 16 1 17 85 18 86 19 91 20 87 21 90 22 88 23
REMARK SMILES IDX 89 24 18 25 19 26 20 27 21 28 22 29 23 30 84 31 24 32 83 33
REMARK SMILES IDX 25 34 26 35 27 36 77 37 28 38 82 39 76 40 78 41 29 42 81 43
REMARK SMILES IDX 75 44 74 45 30 47 62 48 42 49 61 50 43 51 46 52 60 53 79 54
REMARK SMILES IDX 44 55 45 56 59 58 80 59 47 60 31 61 32 62 40 63 33 64 34 65
REMARK SMILES IDX 38 66 41 67 35 68 36 69 39 70 37 71 63 72 64 73 72 74 65 75
REMARK SMILES IDX 66 76 70 77 73 78 67 79 68 80 71 81 69 82 48 83 49 84 57 85
REMARK SMILES IDX 50 86 51 87 55 88 58 89 52 90 53 91 56 92 54 93
REMARK H PARENT 78 46 46 57
REMARK Flexibility Score: inf
ROOT
ATOM      1  C   UNL A   1      34.251  32.177  27.626  1.00  0.00     0.274 C 
ENDROOT
BRANCH   1   2
ATOM      2  O   UNL A   1      33.447  31.006  27.873  1.00  0.00    -0.460 OA
BRANCH   2   3
ATOM      3  C   UNL A   1      32.557  30.738  26.889  1.00  0.00     0.344 C 
ATOM      4  O   UNL A   1      31.674  31.507  26.519  1.00  0.00    -0.248 OA
BRANCH   3   5
ATOM      5  C   UNL A   1      32.707  29.359  26.251  1.00  0.00     0.352 C 
BRANCH   5   6
ATOM      6  O   UNL A   1      31.707  28.490  25.806  1.00  0.00    -0.481 OA
BRANCH   6   7
ATOM      7  C   UNL A   1      31.815  27.667  24.732  1.00  0.00     0.127 A 
ATOM      8  C   UNL A   1      31.315  26.371  24.496  1.00  0.00     0.019 A 
ATOM      9  C   UNL A   1      31.439  25.902  23.163  1.00  0.00     0.027 A 
ATOM     10  C   UNL A   1      32.239  26.543  22.207  1.00  0.00     0.018 A 
ATOM     11  C   UNL A   1      32.615  28.306  23.751  1.00  0.00     0.048 A 
ATOM     12  Br  UNL A   1      32.528  25.742  20.519  1.00  0.00    -0.051 Br
ATOM     13  C   UNL A   1      32.865  27.736  22.510  1.00  0.00     0.019 A 
BRANCH   8  14
ATOM     14  C   UNL A   1      30.718  25.426  25.523  1.00  0.00     0.032 C 
ATOM     15  C   UNL A   1      31.184  24.226  26.018  1.00  0.00     0.060 C 
BRANCH  15  16
ATOM     16  C   UNL A   1      30.226  23.434  26.893  1.00  0.00     0.100 C 
ATOM     17  N   UNL A   1      29.431  22.778  27.620  1.00  0.00    -0.192 NA
ENDBRANCH  15  16
BRANCH  15  18
ATOM     18  C   UNL A   1      32.523  23.819  25.534  1.00  0.00    -0.008 A 
ATOM     19  C   UNL A   1      33.647  24.583  25.958  1.00  0.00     0.012 A 
ATOM     20  C   UNL A   1      32.698  22.909  24.484  1.00  0.00     0.012 A 
ATOM     21  C   UNL A   1      34.892  24.461  25.337  1.00  0.00     0.040 A 
ATOM     22  C   UNL A   1      33.953  22.790  23.863  1.00  0.00     0.040 A 
ATOM     23  C   UNL A   1      35.030  23.566  24.290  1.00  0.00     0.123 A 
ATOM     24  F   UNL A   1      36.222  23.439  23.691  1.00  0.00    -0.207 F 
ENDBRANCH  15  18
ENDBRANCH   8  14
ENDBRANCH   6   7
ENDBRANCH   5   6
ENDBRANCH   3   5
ENDBRANCH   2   3
ENDBRANCH   1   2
BRANCH   1  25
ATOM     25  C   UNL A   1      34.097  33.236  28.740  1.00  0.00     0.275 C 
BRANCH  25  26
ATOM     26  O   UNL A   1      35.164  33.193  29.780  1.00  0.00    -0.458 OA
BRANCH  26  27
ATOM     27  C   UNL A   1      34.860  32.562  30.962  1.00  0.00     0.338 C 
ATOM     28  O   UNL A   1      34.029  33.059  31.724  1.00  0.00    -0.246 OA
BRANCH  27  29
ATOM     29  C   UNL A   1      35.582  31.089  31.357  1.00  0.00     0.060 A 
ATOM     30  C   UNL A   1      36.707  31.078  32.829  1.00  0.00     0.016 A 
ATOM     31  C   UNL A   1      36.212  30.454  29.730  1.00  0.00     0.016 A 
ATOM     32  C   UNL A   1      38.574  30.614  32.586  1.00  0.00     0.010 A 
ATOM     33  C   UNL A   1      38.011  30.018  29.496  1.00  0.00     0.010 A 
ATOM     34  C   UNL A   1      39.203  30.218  30.881  1.00  0.00    -0.014 A 
BRANCH  34  35
ATOM     35  C   UNL A   1      40.740  30.179  30.522  1.00  0.00     0.031 A 
ATOM     36  C   UNL A   1      41.932  31.149  30.094  1.00  0.00     0.074 A 
ATOM     37  C   UNL A   1      40.901  28.916  30.166  1.00  0.00     0.049 A 
ATOM     38  N   UNL A   1      42.828  31.075  29.106  1.00  0.00    -0.248 NA
ATOM     39  C   UNL A   1      42.292  32.251  30.985  1.00  0.00     0.031 C 
ATOM     40  C   UNL A   1      39.887  27.901  30.425  1.00  0.00     0.029 A 
ATOM     41  N   UNL A   1      41.844  28.313  29.403  1.00  0.00    -0.354 N 
ATOM     42  C   UNL A   1      43.690  32.210  29.179  1.00  0.00     0.074 A 
ATOM     43  C   UNL A   1      43.240  32.939  30.339  1.00  0.00     0.031 C 
ATOM     44  C   UNL A   1      40.173  26.828  29.722  1.00  0.00     0.029 A 
ATOM     45  C   UNL A   1      41.397  27.093  28.988  1.00  0.00     0.049 A 
ATOM     46  H   UNL A   1      42.723  28.698  29.180  1.00  0.00     0.167 HD
ATOM     47  C   UNL A   1      44.808  32.558  28.450  1.00  0.00     0.037 A 
ATOM     48  C   UNL A   1      41.877  26.254  28.072  1.00  0.00     0.037 A 
ATOM     49  C   UNL A   1      45.531  31.605  27.621  1.00  0.00     0.049 A 
ATOM     50  C   UNL A   1      43.181  26.552  27.452  1.00  0.00     0.074 A 
ATOM     51  C   UNL A   1      46.756  31.742  26.975  1.00  0.00     0.029 A 
ATOM     52  N   UNL A   1      45.139  30.292  27.431  1.00  0.00    -0.354 N 
ATOM     53  N   UNL A   1      43.845  27.677  27.405  1.00  0.00    -0.248 NA
ATOM     54  C   UNL A   1      43.843  25.409  26.832  1.00  0.00     0.031 C 
ATOM     55  C   UNL A   1      47.106  30.507  26.412  1.00  0.00     0.029 A 
ATOM     56  C   UNL A   1      46.112  29.598  26.730  1.00  0.00     0.049 A 
ATOM     57  H   UNL A   1      44.290  29.905  27.748  1.00  0.00     0.167 HD
ATOM     58  C   UNL A   1      45.030  27.372  26.760  1.00  0.00     0.074 A 
ATOM     59  C   UNL A   1      44.992  25.954  26.466  1.00  0.00     0.031 C 
ATOM     60  C   UNL A   1      46.058  28.193  26.440  1.00  0.00     0.037 A 
BRANCH  47  61
ATOM     61  C   UNL A   1      45.461  33.958  28.512  1.00  0.00     0.064 A 
ATOM     62  C   UNL A   1      46.585  34.273  29.294  1.00  0.00     0.173 A 
ATOM     63  C   UNL A   1      45.074  34.950  27.572  1.00  0.00     0.173 A 
ATOM     64  F   UNL A   1      47.079  33.375  30.157  1.00  0.00    -0.203 F 
ATOM     65  C   UNL A   1      47.250  35.507  29.176  1.00  0.00     0.198 A 
ATOM     66  C   UNL A   1      45.765  36.162  27.427  1.00  0.00     0.198 A 
ATOM     67  F   UNL A   1      44.058  34.716  26.726  1.00  0.00    -0.203 F 
ATOM     68  F   UNL A   1      48.308  35.775  29.958  1.00  0.00    -0.200 F 
ATOM     69  C   UNL A   1      46.847  36.445  28.239  1.00  0.00     0.200 A 
ATOM     70  F   UNL A   1      45.404  37.036  26.475  1.00  0.00    -0.200 F 
ATOM     71  F   UNL A   1      47.514  37.601  28.101  1.00  0.00    -0.200 F 
ENDBRANCH  47  61
BRANCH  48  72
ATOM     72  C   UNL A   1      41.131  24.995  27.934  1.00  0.00     0.064 A 
ATOM     73  C   UNL A   1      40.066  24.950  27.026  1.00  0.00     0.173 A 
ATOM     74  C   UNL A   1      41.676  23.790  28.402  1.00  0.00     0.173 A 
ATOM     75  F   UNL A   1      39.591  26.088  26.498  1.00  0.00    -0.203 F 
ATOM     76  C   UNL A   1      39.557  23.734  26.597  1.00  0.00     0.198 A 
ATOM     77  C   UNL A   1      41.178  22.574  27.950  1.00  0.00     0.198 A 
ATOM     78  F   UNL A   1      42.775  23.802  29.172  1.00  0.00    -0.203 F 
ATOM     79  F   UNL A   1      38.559  23.712  25.705  1.00  0.00    -0.200 F 
ATOM     80  C   UNL A   1      40.120  22.548  27.051  1.00  0.00     0.200 A 
ATOM     81  F   UNL A   1      41.765  21.429  28.328  1.00  0.00    -0.200 F 
ATOM     82  F   UNL A   1      39.661  21.377  26.592  1.00  0.00    -0.200 F 
ENDBRANCH  48  72
BRANCH  60  83
ATOM     83  C   UNL A   1      47.220  27.552  25.750  1.00  0.00     0.064 A 
ATOM     84  C   UNL A   1      48.234  26.921  26.484  1.00  0.00     0.173 A 
ATOM     85  C   UNL A   1      47.349  27.615  24.356  1.00  0.00     0.173 A 
ATOM     86  F   UNL A   1      48.160  26.860  27.822  1.00  0.00    -0.203 F 
ATOM     87  C   UNL A   1      49.365  26.420  25.850  1.00  0.00     0.198 A 
ATOM     88  C   UNL A   1      48.470  27.088  23.722  1.00  0.00     0.198 A 
ATOM     89  F   UNL A   1      46.403  28.208  23.613  1.00  0.00    -0.203 F 
ATOM     90  F   UNL A   1      50.359  25.890  26.577  1.00  0.00    -0.200 F 
ATOM     91  C   UNL A   1      49.481  26.504  24.470  1.00  0.00     0.200 A 
ATOM     92  F   UNL A   1      48.581  27.164  22.389  1.00  0.00    -0.200 F 
ATOM     93  F   UNL A   1      50.580  26.036  23.862  1.00  0.00    -0.200 F 
ENDBRANCH  60  83
ENDBRANCH  34  35
ENDBRANCH  27  29
ENDBRANCH  26  27
ENDBRANCH  25  26
ENDBRANCH   1  25
TORSDOF 16
ENDMDL
