MODEL 1
REMARK VINA RESULT:     -12.0      0.000      0.000
REMARK SMILES COc1cc(OC(F)(F)F)cc2c1O[C@@H](C(F)(F)F)C(C(=O)OCCOC(=O)c1ccc(-c3c4nc(c(-c5c(F)c(F)c(F)c(F)c5F)c5ccc([nH]5)c(-c5c(F)c(F)c(F)c(F)c5F)c5nc(c(-c6c(F)c(F)c(F)c(F)c6F)c6ccc3[nH]6)C=C5)C=C4)cc1)=C2
REMARK SMILES IDX 24 1 23 2 21 3 22 4 20 5 3 6 4 7 13 8 5 9 12 10 14 11 11 12
REMARK SMILES IDX 92 13 15 14 2 15 1 16 6 17 7 18 8 19 9 20 10 21 16 22 17 23
REMARK SMILES IDX 18 24 19 25 25 26 26 27 27 28 28 29 29 30 30 31 91 32 31 33
REMARK SMILES IDX 90 34 32 35 33 36 34 37 84 38 35 39 89 40 83 41 85 42 36 43
REMARK SMILES IDX 88 44 82 45 81 46 37 48 69 49 49 50 68 51 50 52 53 53 67 54
REMARK SMILES IDX 86 55 51 56 52 57 66 59 87 60 54 61 38 62 39 63 47 64 40 65
REMARK SMILES IDX 41 66 45 67 48 68 42 69 43 70 46 71 44 72 70 73 71 74 79 75
REMARK SMILES IDX 72 76 73 77 77 78 80 79 74 80 75 81 78 82 76 83 55 84 56 85
REMARK SMILES IDX 64 86 57 87 58 88 62 89 65 90 59 91 60 92 63 93 61 94
REMARK H PARENT 85 47 53 58
REMARK Flexibility Score: inf
ROOT
ATOM      1  C   UNL A   1      31.362  29.347  25.086  1.00  0.00     0.275 C 
ENDROOT
BRANCH   1   2
ATOM      2  O   UNL A   1      32.253  28.234  25.313  1.00  0.00    -0.459 OA
BRANCH   2   3
ATOM      3  C   UNL A   1      32.870  27.731  24.211  1.00  0.00     0.338 C 
ATOM      4  O   UNL A   1      33.287  28.384  23.279  1.00  0.00    -0.246 OA
BRANCH   3   5
ATOM      5  C   UNL A   1      33.040  26.260  24.302  1.00  0.00     0.087 C 
ATOM      6  C   UNL A   1      33.240  22.092  24.544  1.00  0.00     0.165 A 
ATOM      7  C   UNL A   1      34.404  21.465  24.992  1.00  0.00     0.097 A 
ATOM      8  C   UNL A   1      33.148  23.486  24.558  1.00  0.00     0.170 A 
ATOM      9  C   UNL A   1      35.488  22.229  25.422  1.00  0.00     0.134 A 
ATOM     10  C   UNL A   1      34.248  24.268  24.922  1.00  0.00     0.025 A 
ATOM     11  O   UNL A   1      31.929  24.058  24.322  1.00  0.00    -0.471 OA
ATOM     12  C   UNL A   1      35.419  23.630  25.351  1.00  0.00     0.059 A 
ATOM     13  C   UNL A   1      34.129  25.728  24.889  1.00  0.00     0.027 C 
ATOM     14  C   UNL A   1      31.972  25.367  23.700  1.00  0.00     0.316 C 
BRANCH   6  15
ATOM     15  O   UNL A   1      32.210  21.268  24.168  1.00  0.00    -0.493 OA
ATOM     16  C   UNL A   1      32.471  19.897  24.475  1.00  0.00     0.278 C 
ENDBRANCH   6  15
BRANCH   9  17
ATOM     17  O   UNL A   1      36.661  21.738  25.925  1.00  0.00    -0.406 OA
BRANCH  17  18
ATOM     18  C   UNL A   1      37.622  21.266  24.989  1.00  0.00     0.573 C 
ATOM     19  F   UNL A   1      38.870  21.662  25.319  1.00  0.00    -0.132 F 
ATOM     20  F   UNL A   1      37.583  19.921  24.899  1.00  0.00    -0.132 F 
ATOM     21  F   UNL A   1      37.330  21.779  23.773  1.00  0.00    -0.132 F 
ENDBRANCH  17  18
ENDBRANCH   9  17
BRANCH  14  22
ATOM     22  C   UNL A   1      30.517  25.869  23.620  1.00  0.00     0.430 C 
ATOM     23  F   UNL A   1      30.365  26.850  22.702  1.00  0.00    -0.167 F 
ATOM     24  F   UNL A   1      29.702  24.860  23.201  1.00  0.00    -0.167 F 
ATOM     25  F   UNL A   1      30.037  26.295  24.806  1.00  0.00    -0.167 F 
ENDBRANCH  14  22
ENDBRANCH   3   5
ENDBRANCH   2   3
ENDBRANCH   1   2
BRANCH   1  26
ATOM     26  C   UNL A   1      31.673  30.520  26.022  1.00  0.00     0.275 C 
BRANCH  26  27
ATOM     27  O   UNL A   1      33.044  30.501  26.463  1.00  0.00    -0.458 OA
BRANCH  27  28
ATOM     28  C   UNL A   1      33.449  31.612  27.121  1.00  0.00     0.338 C 
ATOM     29  O   UNL A   1      32.825  32.652  27.262  1.00  0.00    -0.246 OA
BRANCH  28  30
ATOM     30  C   UNL A   1      34.713  31.343  27.832  1.00  0.00     0.060 A 
ATOM     31  C   UNL A   1      34.862  30.070  28.389  1.00  0.00     0.016 A 
ATOM     32  C   UNL A   1      35.726  32.293  27.972  1.00  0.00     0.016 A 
ATOM     33  C   UNL A   1      36.049  29.704  29.014  1.00  0.00     0.010 A 
ATOM     34  C   UNL A   1      36.900  31.947  28.653  1.00  0.00     0.010 A 
ATOM     35  C   UNL A   1      37.071  30.647  29.164  1.00  0.00    -0.014 A 
BRANCH  35  36
ATOM     36  C   UNL A   1      38.280  30.293  29.939  1.00  0.00     0.031 A 
ATOM     37  C   UNL A   1      39.260  29.319  29.362  1.00  0.00     0.074 A 
ATOM     38  C   UNL A   1      38.505  30.852  31.139  1.00  0.00     0.049 A 
ATOM     39  N   UNL A   1      40.339  28.808  29.899  1.00  0.00    -0.248 NA
ATOM     40  C   UNL A   1      38.993  28.867  27.989  1.00  0.00     0.031 C 
ATOM     41  C   UNL A   1      37.666  31.872  31.764  1.00  0.00     0.029 A 
ATOM     42  N   UNL A   1      39.505  30.627  32.054  1.00  0.00    -0.354 N 
ATOM     43  C   UNL A   1      40.874  27.968  28.933  1.00  0.00     0.074 A 
ATOM     44  C   UNL A   1      40.001  28.033  27.780  1.00  0.00     0.031 C 
ATOM     45  C   UNL A   1      38.163  32.156  32.980  1.00  0.00     0.029 A 
ATOM     46  C   UNL A   1      39.332  31.312  33.230  1.00  0.00     0.049 A 
ATOM     47  H   UNL A   1      40.269  30.031  31.882  1.00  0.00     0.167 HD
ATOM     48  C   UNL A   1      41.988  27.201  29.012  1.00  0.00     0.037 A 
ATOM     49  C   UNL A   1      40.014  31.232  34.389  1.00  0.00     0.037 A 
ATOM     50  C   UNL A   1      42.835  27.119  30.173  1.00  0.00     0.049 A 
ATOM     51  C   UNL A   1      41.192  30.299  34.488  1.00  0.00     0.074 A 
ATOM     52  C   UNL A   1      43.984  26.370  30.354  1.00  0.00     0.029 A 
ATOM     53  N   UNL A   1      42.608  27.798  31.363  1.00  0.00    -0.354 N 
ATOM     54  N   UNL A   1      41.703  29.509  33.574  1.00  0.00    -0.248 NA
ATOM     55  C   UNL A   1      41.890  30.245  35.780  1.00  0.00     0.031 C 
ATOM     56  C   UNL A   1      44.418  26.548  31.672  1.00  0.00     0.029 A 
ATOM     57  C   UNL A   1      43.576  27.456  32.294  1.00  0.00     0.049 A 
ATOM     58  H   UNL A   1      41.868  28.428  31.522  1.00  0.00     0.167 HD
ATOM     59  C   UNL A   1      42.790  28.883  34.169  1.00  0.00     0.074 A 
ATOM     60  C   UNL A   1      42.873  29.392  35.523  1.00  0.00     0.031 C 
ATOM     61  C   UNL A   1      43.646  27.972  33.639  1.00  0.00     0.037 A 
BRANCH  48  62
ATOM     62  C   UNL A   1      42.305  26.337  27.828  1.00  0.00     0.064 A 
ATOM     63  C   UNL A   1      41.704  25.083  27.640  1.00  0.00     0.173 A 
ATOM     64  C   UNL A   1      43.241  26.766  26.875  1.00  0.00     0.173 A 
ATOM     65  F   UNL A   1      40.817  24.618  28.533  1.00  0.00    -0.203 F 
ATOM     66  C   UNL A   1      42.055  24.277  26.559  1.00  0.00     0.198 A 
ATOM     67  C   UNL A   1      43.568  25.971  25.781  1.00  0.00     0.198 A 
ATOM     68  F   UNL A   1      43.845  27.957  27.008  1.00  0.00    -0.203 F 
ATOM     69  F   UNL A   1      41.513  23.058  26.432  1.00  0.00    -0.200 F 
ATOM     70  C   UNL A   1      42.983  24.723  25.629  1.00  0.00     0.200 A 
ATOM     71  F   UNL A   1      44.459  26.406  24.880  1.00  0.00    -0.200 F 
ATOM     72  F   UNL A   1      43.326  23.942  24.595  1.00  0.00    -0.200 F 
ENDBRANCH  48  62
BRANCH  49  73
ATOM     73  C   UNL A   1      39.565  32.027  35.560  1.00  0.00     0.064 A 
ATOM     74  C   UNL A   1      38.597  31.538  36.447  1.00  0.00     0.173 A 
ATOM     75  C   UNL A   1      40.100  33.300  35.816  1.00  0.00     0.173 A 
ATOM     76  F   UNL A   1      38.032  30.341  36.228  1.00  0.00    -0.203 F 
ATOM     77  C   UNL A   1      38.177  32.292  37.541  1.00  0.00     0.198 A 
ATOM     78  C   UNL A   1      39.700  34.041  36.924  1.00  0.00     0.198 A 
ATOM     79  F   UNL A   1      41.022  33.818  34.992  1.00  0.00    -0.203 F 
ATOM     80  F   UNL A   1      37.222  31.819  38.352  1.00  0.00    -0.200 F 
ATOM     81  C   UNL A   1      38.735  33.540  37.784  1.00  0.00     0.200 A 
ATOM     82  F   UNL A   1      40.248  35.242  37.158  1.00  0.00    -0.200 F 
ATOM     83  F   UNL A   1      38.335  34.261  38.840  1.00  0.00    -0.200 F 
ENDBRANCH  49  73
BRANCH  61  84
ATOM     84  C   UNL A   1      44.769  27.487  34.510  1.00  0.00     0.064 A 
ATOM     85  C   UNL A   1      44.657  26.322  35.282  1.00  0.00     0.173 A 
ATOM     86  C   UNL A   1      45.998  28.168  34.525  1.00  0.00     0.173 A 
ATOM     87  F   UNL A   1      43.500  25.642  35.315  1.00  0.00    -0.203 F 
ATOM     88  C   UNL A   1      45.726  25.866  36.049  1.00  0.00     0.198 A 
ATOM     89  C   UNL A   1      47.074  27.693  35.269  1.00  0.00     0.198 A 
ATOM     90  F   UNL A   1      46.160  29.284  33.798  1.00  0.00    -0.203 F 
ATOM     91  F   UNL A   1      45.585  24.770  36.809  1.00  0.00    -0.200 F 
ATOM     92  C   UNL A   1      46.936  26.545  36.034  1.00  0.00     0.200 A 
ATOM     93  F   UNL A   1      48.245  28.342  35.241  1.00  0.00    -0.200 F 
ATOM     94  F   UNL A   1      47.968  26.096  36.762  1.00  0.00    -0.200 F 
ENDBRANCH  61  84
ENDBRANCH  35  36
ENDBRANCH  28  30
ENDBRANCH  27  28
ENDBRANCH  26  27
ENDBRANCH   1  26
TORSDOF 15
ENDMDL
MODEL 2
REMARK VINA RESULT:     -11.9      4.243      9.607
REMARK SMILES COc1cc(OC(F)(F)F)cc2c1O[C@@H](C(F)(F)F)C(C(=O)OCCOC(=O)c1ccc(-c3c4nc(c(-c5c(F)c(F)c(F)c(F)c5F)c5ccc([nH]5)c(-c5c(F)c(F)c(F)c(F)c5F)c5nc(c(-c6c(F)c(F)c(F)c(F)c6F)c6ccc3[nH]6)C=C5)C=C4)cc1)=C2
REMARK SMILES IDX 24 1 23 2 21 3 22 4 20 5 3 6 4 7 13 8 5 9 12 10 14 11 11 12
REMARK SMILES IDX 92 13 15 14 2 15 1 16 6 17 7 18 8 19 9 20 10 21 16 22 17 23
REMARK SMILES IDX 18 24 19 25 25 26 26 27 27 28 28 29 29 30 30 31 91 32 31 33
REMARK SMILES IDX 90 34 32 35 33 36 34 37 84 38 35 39 89 40 83 41 85 42 36 43
REMARK SMILES IDX 88 44 82 45 81 46 37 48 69 49 49 50 68 51 50 52 53 53 67 54
REMARK SMILES IDX 86 55 51 56 52 57 66 59 87 60 54 61 38 62 39 63 47 64 40 65
REMARK SMILES IDX 41 66 45 67 48 68 42 69 43 70 46 71 44 72 70 73 71 74 79 75
REMARK SMILES IDX 72 76 73 77 77 78 80 79 74 80 75 81 78 82 76 83 55 84 56 85
REMARK SMILES IDX 64 86 57 87 58 88 62 89 65 90 59 91 60 92 63 93 61 94
REMARK H PARENT 85 47 53 58
REMARK Flexibility Score: inf
ROOT
ATOM      1  C   UNL A   1      35.096  21.168  25.130  1.00  0.00     0.275 C 
ENDROOT
BRANCH   1   2
ATOM      2  O   UNL A   1      34.633  22.343  25.829  1.00  0.00    -0.459 OA
BRANCH   2   3
ATOM      3  C   UNL A   1      33.359  22.734  25.560  1.00  0.00     0.338 C 
ATOM      4  O   UNL A   1      32.377  22.028  25.638  1.00  0.00    -0.246 OA
BRANCH   3   5
ATOM      5  C   UNL A   1      33.290  24.173  25.211  1.00  0.00     0.087 C 
ATOM      6  C   UNL A   1      33.137  28.159  23.959  1.00  0.00     0.165 A 
ATOM      7  C   UNL A   1      33.270  29.196  24.883  1.00  0.00     0.097 A 
ATOM      8  C   UNL A   1      33.286  26.832  24.370  1.00  0.00     0.170 A 
ATOM      9  C   UNL A   1      33.518  28.907  26.225  1.00  0.00     0.134 A 
ATOM     10  C   UNL A   1      33.467  26.522  25.722  1.00  0.00     0.025 A 
ATOM     11  O   UNL A   1      33.367  25.860  23.412  1.00  0.00    -0.471 OA
ATOM     12  C   UNL A   1      33.579  27.569  26.646  1.00  0.00     0.059 A 
ATOM     13  C   UNL A   1      33.582  25.118  26.124  1.00  0.00     0.027 C 
ATOM     14  C   UNL A   1      32.860  24.560  23.808  1.00  0.00     0.316 C 
BRANCH   6  15
ATOM     15  O   UNL A   1      32.926  28.528  22.655  1.00  0.00    -0.493 OA
ATOM     16  C   UNL A   1      31.548  28.792  22.381  1.00  0.00     0.278 C 
ENDBRANCH   6  15
BRANCH   9  17
ATOM     17  O   UNL A   1      33.713  29.830  27.216  1.00  0.00    -0.406 OA
BRANCH  17  18
ATOM     18  C   UNL A   1      35.057  30.126  27.573  1.00  0.00     0.573 C 
ATOM     19  F   UNL A   1      35.290  31.456  27.565  1.00  0.00    -0.132 F 
ATOM     20  F   UNL A   1      35.351  29.622  28.790  1.00  0.00    -0.132 F 
ATOM     21  F   UNL A   1      35.882  29.552  26.668  1.00  0.00    -0.132 F 
ENDBRANCH  17  18
ENDBRANCH   9  17
BRANCH  14  22
ATOM     22  C   UNL A   1      33.139  23.599  22.635  1.00  0.00     0.430 C 
ATOM     23  F   UNL A   1      32.296  22.542  22.631  1.00  0.00    -0.167 F 
ATOM     24  F   UNL A   1      32.914  24.237  21.452  1.00  0.00    -0.167 F 
ATOM     25  F   UNL A   1      34.410  23.152  22.606  1.00  0.00    -0.167 F 
ENDBRANCH  14  22
ENDBRANCH   3   5
ENDBRANCH   2   3
ENDBRANCH   1   2
BRANCH   1  26
ATOM     26  C   UNL A   1      36.605  21.224  24.867  1.00  0.00     0.275 C 
BRANCH  26  27
ATOM     27  O   UNL A   1      37.297  21.958  25.894  1.00  0.00    -0.458 OA
BRANCH  27  28
ATOM     28  C   UNL A   1      38.582  21.585  26.097  1.00  0.00     0.338 C 
ATOM     29  O   UNL A   1      39.091  20.514  25.809  1.00  0.00    -0.246 OA
BRANCH  28  30
ATOM     30  C   UNL A   1      39.374  22.740  26.562  1.00  0.00     0.060 A 
ATOM     31  C   UNL A   1      39.036  23.988  26.031  1.00  0.00     0.016 A 
ATOM     32  C   UNL A   1      40.423  22.626  27.475  1.00  0.00     0.016 A 
ATOM     33  C   UNL A   1      39.681  25.141  26.466  1.00  0.00     0.010 A 
ATOM     34  C   UNL A   1      41.114  23.779  27.871  1.00  0.00     0.010 A 
ATOM     35  C   UNL A   1      40.736  25.041  27.379  1.00  0.00    -0.014 A 
BRANCH  35  36
ATOM     36  C   UNL A   1      41.500  26.254  27.742  1.00  0.00     0.031 A 
ATOM     37  C   UNL A   1      40.824  27.340  28.520  1.00  0.00     0.074 A 
ATOM     38  C   UNL A   1      42.792  26.372  27.394  1.00  0.00     0.049 A 
ATOM     39  N   UNL A   1      41.277  28.516  28.874  1.00  0.00    -0.248 NA
ATOM     40  C   UNL A   1      39.452  27.058  28.968  1.00  0.00     0.031 C 
ATOM     41  C   UNL A   1      43.577  25.348  26.709  1.00  0.00     0.029 A 
ATOM     42  N   UNL A   1      43.666  27.419  27.558  1.00  0.00    -0.354 N 
ATOM     43  C   UNL A   1      40.244  29.117  29.578  1.00  0.00     0.074 A 
ATOM     44  C   UNL A   1      39.140  28.181  29.599  1.00  0.00     0.031 C 
ATOM     45  C   UNL A   1      44.809  25.832  26.474  1.00  0.00     0.029 A 
ATOM     46  C   UNL A   1      44.884  27.210  26.960  1.00  0.00     0.049 A 
ATOM     47  H   UNL A   1      43.441  28.238  28.054  1.00  0.00     0.167 HD
ATOM     48  C   UNL A   1      40.219  30.347  30.144  1.00  0.00     0.037 A 
ATOM     49  C   UNL A   1      45.921  28.052  26.787  1.00  0.00     0.037 A 
ATOM     50  C   UNL A   1      41.311  31.285  30.094  1.00  0.00     0.049 A 
ATOM     51  C   UNL A   1      45.835  29.451  27.339  1.00  0.00     0.074 A 
ATOM     52  C   UNL A   1      41.383  32.556  30.633  1.00  0.00     0.029 A 
ATOM     53  N   UNL A   1      42.517  31.056  29.445  1.00  0.00    -0.354 N 
ATOM     54  N   UNL A   1      44.862  30.019  28.010  1.00  0.00    -0.248 NA
ATOM     55  C   UNL A   1      46.992  30.328  27.109  1.00  0.00     0.031 C 
ATOM     56  C   UNL A   1      42.608  33.120  30.259  1.00  0.00     0.029 A 
ATOM     57  C   UNL A   1      43.325  32.177  29.540  1.00  0.00     0.049 A 
ATOM     58  H   UNL A   1      42.761  30.220  28.985  1.00  0.00     0.167 HD
ATOM     59  C   UNL A   1      45.294  31.306  28.302  1.00  0.00     0.074 A 
ATOM     60  C   UNL A   1      46.624  31.434  27.742  1.00  0.00     0.031 C 
ATOM     61  C   UNL A   1      44.648  32.290  28.977  1.00  0.00     0.037 A 
BRANCH  48  62
ATOM     62  C   UNL A   1      38.938  30.769  30.801  1.00  0.00     0.064 A 
ATOM     63  C   UNL A   1      37.907  31.397  30.086  1.00  0.00     0.173 A 
ATOM     64  C   UNL A   1      38.750  30.555  32.175  1.00  0.00     0.173 A 
ATOM     65  F   UNL A   1      38.046  31.642  28.775  1.00  0.00    -0.203 F 
ATOM     66  C   UNL A   1      36.749  31.826  30.731  1.00  0.00     0.198 A 
ATOM     67  C   UNL A   1      37.580  30.960  32.811  1.00  0.00     0.198 A 
ATOM     68  F   UNL A   1      39.705  29.959  32.904  1.00  0.00    -0.203 F 
ATOM     69  F   UNL A   1      35.803  32.478  30.041  1.00  0.00    -0.200 F 
ATOM     70  C   UNL A   1      36.585  31.604  32.090  1.00  0.00     0.200 A 
ATOM     71  F   UNL A   1      37.420  30.738  34.122  1.00  0.00    -0.200 F 
ATOM     72  F   UNL A   1      35.474  32.026  32.711  1.00  0.00    -0.200 F 
ENDBRANCH  48  62
BRANCH  49  73
ATOM     73  C   UNL A   1      47.109  27.603  26.015  1.00  0.00     0.064 A 
ATOM     74  C   UNL A   1      47.155  27.709  24.619  1.00  0.00     0.173 A 
ATOM     75  C   UNL A   1      48.227  27.059  26.666  1.00  0.00     0.173 A 
ATOM     76  F   UNL A   1      46.099  28.193  23.949  1.00  0.00    -0.203 F 
ATOM     77  C   UNL A   1      48.271  27.281  23.902  1.00  0.00     0.198 A 
ATOM     78  C   UNL A   1      49.352  26.657  25.951  1.00  0.00     0.198 A 
ATOM     79  F   UNL A   1      48.230  26.927  28.000  1.00  0.00    -0.203 F 
ATOM     80  F   UNL A   1      48.274  27.356  22.565  1.00  0.00    -0.200 F 
ATOM     81  C   UNL A   1      49.372  26.763  24.569  1.00  0.00     0.200 A 
ATOM     82  F   UNL A   1      50.416  26.165  26.601  1.00  0.00    -0.200 F 
ATOM     83  F   UNL A   1      50.447  26.358  23.879  1.00  0.00    -0.200 F 
ENDBRANCH  49  73
BRANCH  61  84
ATOM     84  C   UNL A   1      45.380  33.586  29.181  1.00  0.00     0.064 A 
ATOM     85  C   UNL A   1      45.275  34.646  28.268  1.00  0.00     0.173 A 
ATOM     86  C   UNL A   1      46.148  33.790  30.339  1.00  0.00     0.173 A 
ATOM     87  F   UNL A   1      44.566  34.497  27.139  1.00  0.00    -0.203 F 
ATOM     88  C   UNL A   1      45.927  35.855  28.498  1.00  0.00     0.198 A 
ATOM     89  C   UNL A   1      46.774  35.010  30.580  1.00  0.00     0.198 A 
ATOM     90  F   UNL A   1      46.275  32.811  31.247  1.00  0.00    -0.203 F 
ATOM     91  F   UNL A   1      45.844  36.841  27.594  1.00  0.00    -0.200 F 
ATOM     92  C   UNL A   1      46.667  36.040  29.657  1.00  0.00     0.200 A 
ATOM     93  F   UNL A   1      47.474  35.191  31.707  1.00  0.00    -0.200 F 
ATOM     94  F   UNL A   1      47.281  37.210  29.883  1.00  0.00    -0.200 F 
ENDBRANCH  61  84
ENDBRANCH  35  36
ENDBRANCH  28  30
ENDBRANCH  27  28
ENDBRANCH  26  27
ENDBRANCH   1  26
TORSDOF 15
ENDMDL
MODEL 3
REMARK VINA RESULT:     -11.9      0.552      2.089
REMARK SMILES COc1cc(OC(F)(F)F)cc2c1O[C@@H](C(F)(F)F)C(C(=O)OCCOC(=O)c1ccc(-c3c4nc(c(-c5c(F)c(F)c(F)c(F)c5F)c5ccc([nH]5)c(-c5c(F)c(F)c(F)c(F)c5F)c5nc(c(-c6c(F)c(F)c(F)c(F)c6F)c6ccc3[nH]6)C=C5)C=C4)cc1)=C2
REMARK SMILES IDX 24 1 23 2 21 3 22 4 20 5 3 6 4 7 13 8 5 9 12 10 14 11 11 12
REMARK SMILES IDX 92 13 15 14 2 15 1 16 6 17 7 18 8 19 9 20 10 21 16 22 17 23
REMARK SMILES IDX 18 24 19 25 25 26 26 27 27 28 28 29 29 30 30 31 91 32 31 33
REMARK SMILES IDX 90 34 32 35 33 36 34 37 84 38 35 39 89 40 83 41 85 42 36 43
REMARK SMILES IDX 88 44 82 45 81 46 37 48 69 49 49 50 68 51 50 52 53 53 67 54
REMARK SMILES IDX 86 55 51 56 52 57 66 59 87 60 54 61 38 62 39 63 47 64 40 65
REMARK SMILES IDX 41 66 45 67 48 68 42 69 43 70 46 71 44 72 70 73 71 74 79 75
REMARK SMILES IDX 72 76 73 77 77 78 80 79 74 80 75 81 78 82 76 83 55 84 56 85
REMARK SMILES IDX 64 86 57 87 58 88 62 89 65 90 59 91 60 92 63 93 61 94
REMARK H PARENT 85 47 53 58
REMARK Flexibility Score: inf
ROOT
ATOM      1  C   UNL A   1      31.490  29.380  25.177  1.00  0.00     0.275 C 
ENDROOT
BRANCH   1   2
ATOM      2  O   UNL A   1      32.412  28.294  25.409  1.00  0.00    -0.459 OA
BRANCH   2   3
ATOM      3  C   UNL A   1      31.958  27.286  26.201  1.00  0.00     0.338 C 
ATOM      4  O   UNL A   1      31.265  27.425  27.185  1.00  0.00    -0.246 OA
BRANCH   3   5
ATOM      5  C   UNL A   1      32.363  25.957  25.683  1.00  0.00     0.087 C 
ATOM      6  C   UNL A   1      33.237  22.174  24.134  1.00  0.00     0.165 A 
ATOM      7  C   UNL A   1      34.402  21.506  24.515  1.00  0.00     0.097 A 
ATOM      8  C   UNL A   1      32.904  23.393  24.729  1.00  0.00     0.170 A 
ATOM      9  C   UNL A   1      35.252  22.071  25.466  1.00  0.00     0.134 A 
ATOM     10  C   UNL A   1      33.778  24.006  25.633  1.00  0.00     0.025 A 
ATOM     11  O   UNL A   1      31.660  23.911  24.497  1.00  0.00    -0.471 OA
ATOM     12  C   UNL A   1      34.955  23.338  25.994  1.00  0.00     0.059 A 
ATOM     13  C   UNL A   1      33.415  25.304  26.209  1.00  0.00     0.027 C 
ATOM     14  C   UNL A   1      31.578  25.358  24.530  1.00  0.00     0.316 C 
BRANCH   6  15
ATOM     15  O   UNL A   1      32.440  21.536  23.218  1.00  0.00    -0.493 OA
ATOM     16  C   UNL A   1      32.423  20.119  23.406  1.00  0.00     0.278 C 
ENDBRANCH   6  15
BRANCH   9  17
ATOM     17  O   UNL A   1      36.393  21.499  25.955  1.00  0.00    -0.406 OA
BRANCH  17  18
ATOM     18  C   UNL A   1      37.527  21.474  25.098  1.00  0.00     0.573 C 
ATOM     19  F   UNL A   1      37.443  22.420  24.138  1.00  0.00    -0.132 F 
ATOM     20  F   UNL A   1      38.665  21.644  25.803  1.00  0.00    -0.132 F 
ATOM     21  F   UNL A   1      37.584  20.267  24.490  1.00  0.00    -0.132 F 
ENDBRANCH  17  18
ENDBRANCH   9  17
BRANCH  14  22
ATOM     22  C   UNL A   1      30.091  25.723  24.351  1.00  0.00     0.430 C 
ATOM     23  F   UNL A   1      29.460  24.887  23.496  1.00  0.00    -0.167 F 
ATOM     24  F   UNL A   1      29.435  25.581  25.537  1.00  0.00    -0.167 F 
ATOM     25  F   UNL A   1      29.902  26.995  23.947  1.00  0.00    -0.167 F 
ENDBRANCH  14  22
ENDBRANCH   3   5
ENDBRANCH   2   3
ENDBRANCH   1   2
BRANCH   1  26
ATOM     26  C   UNL A   1      31.824  30.599  26.043  1.00  0.00     0.275 C 
BRANCH  26  27
ATOM     27  O   UNL A   1      33.153  30.516  26.590  1.00  0.00    -0.458 OA
BRANCH  27  28
ATOM     28  C   UNL A   1      33.574  31.625  27.243  1.00  0.00     0.338 C 
ATOM     29  O   UNL A   1      32.962  32.671  27.386  1.00  0.00    -0.246 OA
BRANCH  28  30
ATOM     30  C   UNL A   1      34.840  31.344  27.946  1.00  0.00     0.060 A 
ATOM     31  C   UNL A   1      34.965  30.085  28.538  1.00  0.00     0.016 A 
ATOM     32  C   UNL A   1      35.879  32.272  28.045  1.00  0.00     0.016 A 
ATOM     33  C   UNL A   1      36.150  29.708  29.160  1.00  0.00     0.010 A 
ATOM     34  C   UNL A   1      37.052  31.916  28.722  1.00  0.00     0.010 A 
ATOM     35  C   UNL A   1      37.197  30.628  29.269  1.00  0.00    -0.014 A 
BRANCH  35  36
ATOM     36  C   UNL A   1      38.406  30.266  30.039  1.00  0.00     0.031 A 
ATOM     37  C   UNL A   1      39.379  29.287  29.458  1.00  0.00     0.074 A 
ATOM     38  C   UNL A   1      38.640  30.824  31.239  1.00  0.00     0.049 A 
ATOM     39  N   UNL A   1      40.457  28.769  29.991  1.00  0.00    -0.248 NA
ATOM     40  C   UNL A   1      39.103  28.836  28.086  1.00  0.00     0.031 C 
ATOM     41  C   UNL A   1      37.809  31.848  31.868  1.00  0.00     0.029 A 
ATOM     42  N   UNL A   1      39.641  30.592  32.149  1.00  0.00    -0.354 N 
ATOM     43  C   UNL A   1      40.983  27.926  29.023  1.00  0.00     0.074 A 
ATOM     44  C   UNL A   1      40.106  27.997  27.873  1.00  0.00     0.031 C 
ATOM     45  C   UNL A   1      38.313  32.129  33.081  1.00  0.00     0.029 A 
ATOM     46  C   UNL A   1      39.477  31.278  33.326  1.00  0.00     0.049 A 
ATOM     47  H   UNL A   1      40.402  29.991  31.975  1.00  0.00     0.167 HD
ATOM     48  C   UNL A   1      42.092  27.153  29.097  1.00  0.00     0.037 A 
ATOM     49  C   UNL A   1      40.164  31.193  34.483  1.00  0.00     0.037 A 
ATOM     50  C   UNL A   1      42.943  27.065  30.255  1.00  0.00     0.049 A 
ATOM     51  C   UNL A   1      41.336  30.253  34.577  1.00  0.00     0.074 A 
ATOM     52  C   UNL A   1      44.088  26.309  30.431  1.00  0.00     0.029 A 
ATOM     53  N   UNL A   1      42.725  27.744  31.446  1.00  0.00    -0.354 N 
ATOM     54  N   UNL A   1      41.838  29.460  33.661  1.00  0.00    -0.248 NA
ATOM     55  C   UNL A   1      42.039  30.194  35.867  1.00  0.00     0.031 C 
ATOM     56  C   UNL A   1      44.528  26.484  31.747  1.00  0.00     0.029 A 
ATOM     57  C   UNL A   1      43.694  27.397  32.373  1.00  0.00     0.049 A 
ATOM     58  H   UNL A   1      41.990  28.379  31.608  1.00  0.00     0.167 HD
ATOM     59  C   UNL A   1      42.924  28.827  34.252  1.00  0.00     0.074 A 
ATOM     60  C   UNL A   1      43.015  29.335  35.605  1.00  0.00     0.031 C 
ATOM     61  C   UNL A   1      43.772  27.912  33.718  1.00  0.00     0.037 A 
BRANCH  48  62
ATOM     62  C   UNL A   1      42.399  26.287  27.911  1.00  0.00     0.064 A 
ATOM     63  C   UNL A   1      43.327  26.669  26.931  1.00  0.00     0.173 A 
ATOM     64  C   UNL A   1      41.738  25.060  27.746  1.00  0.00     0.173 A 
ATOM     65  F   UNL A   1      43.971  27.842  27.032  1.00  0.00    -0.203 F 
ATOM     66  C   UNL A   1      43.556  25.871  25.812  1.00  0.00     0.198 A 
ATOM     67  C   UNL A   1      41.990  24.251  26.642  1.00  0.00     0.198 A 
ATOM     68  F   UNL A   1      40.841  24.648  28.655  1.00  0.00    -0.203 F 
ATOM     69  F   UNL A   1      44.402  26.285  24.859  1.00  0.00    -0.200 F 
ATOM     70  C   UNL A   1      42.891  24.662  25.671  1.00  0.00     0.200 A 
ATOM     71  F   UNL A   1      41.352  23.081  26.511  1.00  0.00    -0.200 F 
ATOM     72  F   UNL A   1      43.105  23.900  24.590  1.00  0.00    -0.200 F 
ENDBRANCH  48  62
BRANCH  49  73
ATOM     73  C   UNL A   1      39.723  31.991  35.656  1.00  0.00     0.064 A 
ATOM     74  C   UNL A   1      40.302  33.232  35.954  1.00  0.00     0.173 A 
ATOM     75  C   UNL A   1      38.707  31.524  36.505  1.00  0.00     0.173 A 
ATOM     76  F   UNL A   1      41.298  33.707  35.191  1.00  0.00    -0.203 F 
ATOM     77  C   UNL A   1      39.887  33.972  37.060  1.00  0.00     0.198 A 
ATOM     78  C   UNL A   1      38.274  32.277  37.593  1.00  0.00     0.198 A 
ATOM     79  F   UNL A   1      38.128  30.338  36.269  1.00  0.00    -0.203 F 
ATOM     80  F   UNL A   1      40.483  35.137  37.346  1.00  0.00    -0.200 F 
ATOM     81  C   UNL A   1      38.867  33.498  37.873  1.00  0.00     0.200 A 
ATOM     82  F   UNL A   1      37.285  31.817  38.371  1.00  0.00    -0.200 F 
ATOM     83  F   UNL A   1      38.464  34.214  38.932  1.00  0.00    -0.200 F 
ENDBRANCH  49  73
BRANCH  61  84
ATOM     84  C   UNL A   1      44.896  27.420  34.585  1.00  0.00     0.064 A 
ATOM     85  C   UNL A   1      46.120  28.099  34.666  1.00  0.00     0.173 A 
ATOM     86  C   UNL A   1      44.721  26.283  35.392  1.00  0.00     0.173 A 
ATOM     87  F   UNL A   1      46.343  29.182  33.905  1.00  0.00    -0.203 F 
ATOM     88  C   UNL A   1      47.133  27.651  35.510  1.00  0.00     0.198 A 
ATOM     89  C   UNL A   1      45.725  25.855  36.256  1.00  0.00     0.198 A 
ATOM     90  F   UNL A   1      43.567  25.601  35.358  1.00  0.00    -0.203 F 
ATOM     91  F   UNL A   1      48.309  28.294  35.544  1.00  0.00    -0.200 F 
ATOM     92  C   UNL A   1      46.932  26.536  36.310  1.00  0.00     0.200 A 
ATOM     93  F   UNL A   1      45.523  24.788  37.040  1.00  0.00    -0.200 F 
ATOM     94  F   UNL A   1      47.903  26.115  37.133  1.00  0.00    -0.200 F 
ENDBRANCH  61  84
ENDBRANCH  35  36
ENDBRANCH  28  30
ENDBRANCH  27  28
ENDBRANCH  26  27
ENDBRANCH   1  26
TORSDOF 15
ENDMDL
