MODEL 1
REMARK VINA RESULT:      -9.9      0.000      0.000
REMARK SMILES Nc1nc(N)nc(N/C=C/C(=O)OCCOC(=O)c2ccc(-c3c4nc(c(-c5c(F)c(F)c(F)c(F)c5F)c5ccc([nH]5)c(-c5c(F)c(F)c(F)c(F)c5F)c5nc(c(-c6c(F)c(F)c(F)c(F)c6F)c6ccc3[nH]6)C=C5)C=C4)cc2)n1
REMARK SMILES IDX 14 1 13 2 11 3 12 4 10 5 9 6 8 7 7 9 2 10 3 11 82 12 4 13
REMARK SMILES IDX 6 14 1 15 5 18 15 21 16 22 17 23 18 24 19 25 20 26 81 27
REMARK SMILES IDX 21 28 80 29 22 30 23 31 24 32 74 33 25 34 79 35 73 36 75 37
REMARK SMILES IDX 26 38 78 39 72 40 71 41 27 43 59 44 39 45 58 46 40 47 43 48
REMARK SMILES IDX 57 49 76 50 41 51 42 52 56 54 77 55 44 56 28 57 29 58 37 59
REMARK SMILES IDX 30 60 31 61 35 62 38 63 32 64 33 65 36 66 34 67 60 68 61 69
REMARK SMILES IDX 69 70 62 71 63 72 67 73 70 74 64 75 65 76 68 77 66 78 45 79
REMARK SMILES IDX 46 80 54 81 47 82 48 83 52 84 55 85 49 86 50 87 53 88 51 89
REMARK H PARENT 8 8 1 16 1 17 5 19 5 20 75 42 43 53
REMARK Flexibility Score: inf
ROOT
ATOM      1  C   UNL A   1      43.797  18.854  25.041  1.00  0.00     0.275 C 
ENDROOT
BRANCH   1   2
ATOM      2  O   UNL A   1      45.198  18.530  24.955  1.00  0.00    -0.459 OA
BRANCH   2   3
ATOM      3  C   UNL A   1      46.043  19.585  24.896  1.00  0.00     0.332 C 
ATOM      4  O   UNL A   1      47.265  19.532  24.865  1.00  0.00    -0.247 OA
BRANCH   3   5
ATOM      5  C   UNL A   1      45.336  20.872  24.769  1.00  0.00     0.111 C 
ATOM      6  C   UNL A   1      45.913  22.079  24.711  1.00  0.00     0.093 C 
BRANCH   6   7
ATOM      7  N   UNL A   1      45.249  23.273  24.624  1.00  0.00    -0.330 N 
ATOM      8  H   UNL A   1      44.272  23.216  24.511  1.00  0.00     0.169 HD
BRANCH   7   9
ATOM      9  C   UNL A   1      45.786  24.558  24.673  1.00  0.00     0.233 A 
ATOM     10  C   UNL A   1      47.620  25.843  24.659  1.00  0.00     0.226 A 
ATOM     11  N   UNL A   1      46.929  26.938  24.918  1.00  0.00    -0.177 NA
ATOM     12  N   UNL A   1      47.105  24.631  24.533  1.00  0.00    -0.177 NA
ATOM     13  C   UNL A   1      45.624  26.760  25.034  1.00  0.00     0.226 A 
ATOM     14  N   UNL A   1      45.002  25.601  24.915  1.00  0.00    -0.177 NA
BRANCH  10  15
ATOM     15  N   UNL A   1      48.974  25.968  24.530  1.00  0.00    -0.368 N 
ATOM     16  H   UNL A   1      49.555  25.184  24.660  1.00  0.00     0.159 HD
ATOM     17  H   UNL A   1      49.368  26.842  24.306  1.00  0.00     0.159 HD
ENDBRANCH  10  15
BRANCH  13  18
ATOM     18  N   UNL A   1      44.860  27.853  25.329  1.00  0.00    -0.368 N 
ATOM     19  H   UNL A   1      44.858  28.221  26.243  1.00  0.00     0.159 HD
ATOM     20  H   UNL A   1      44.311  28.274  24.628  1.00  0.00     0.159 HD
ENDBRANCH  13  18
ENDBRANCH   7   9
ENDBRANCH   6   7
ENDBRANCH   3   5
ENDBRANCH   2   3
ENDBRANCH   1   2
BRANCH   1  21
ATOM     21  C   UNL A   1      43.084  18.003  26.098  1.00  0.00     0.275 C 
BRANCH  21  22
ATOM     22  O   UNL A   1      42.316  18.810  27.012  1.00  0.00    -0.458 OA
BRANCH  22  23
ATOM     23  C   UNL A   1      41.480  19.702  26.429  1.00  0.00     0.338 C 
ATOM     24  O   UNL A   1      40.546  19.459  25.683  1.00  0.00    -0.246 OA
BRANCH  23  25
ATOM     25  C   UNL A   1      41.763  21.060  26.929  1.00  0.00     0.060 A 
ATOM     26  C   UNL A   1      41.993  22.066  25.983  1.00  0.00     0.016 A 
ATOM     27  C   UNL A   1      41.869  21.337  28.293  1.00  0.00     0.016 A 
ATOM     28  C   UNL A   1      42.323  23.354  26.398  1.00  0.00     0.010 A 
ATOM     29  C   UNL A   1      42.212  22.628  28.709  1.00  0.00     0.010 A 
ATOM     30  C   UNL A   1      42.448  23.641  27.764  1.00  0.00    -0.014 A 
BRANCH  30  31
ATOM     31  C   UNL A   1      42.878  24.995  28.189  1.00  0.00     0.031 A 
ATOM     32  C   UNL A   1      41.852  26.059  28.448  1.00  0.00     0.074 A 
ATOM     33  C   UNL A   1      44.185  25.257  28.368  1.00  0.00     0.049 A 
ATOM     34  N   UNL A   1      42.023  27.307  28.801  1.00  0.00    -0.248 NA
ATOM     35  C   UNL A   1      40.444  25.664  28.293  1.00  0.00     0.031 C 
ATOM     36  C   UNL A   1      45.270  24.295  28.181  1.00  0.00     0.029 A 
ATOM     37  N   UNL A   1      44.820  26.412  28.750  1.00  0.00    -0.354 N 
ATOM     38  C   UNL A   1      40.750  27.850  28.903  1.00  0.00     0.074 A 
ATOM     39  C   UNL A   1      39.814  26.801  28.554  1.00  0.00     0.031 C 
ATOM     40  C   UNL A   1      46.440  24.901  28.445  1.00  0.00     0.029 A 
ATOM     41  C   UNL A   1      46.188  26.299  28.789  1.00  0.00     0.049 A 
ATOM     42  H   UNL A   1      44.341  27.242  28.975  1.00  0.00     0.167 HD
ATOM     43  C   UNL A   1      40.396  29.107  29.260  1.00  0.00     0.037 A 
ATOM     44  C   UNL A   1      47.130  27.226  29.051  1.00  0.00     0.037 A 
ATOM     45  C   UNL A   1      41.327  30.147  29.613  1.00  0.00     0.049 A 
ATOM     46  C   UNL A   1      46.709  28.629  29.392  1.00  0.00     0.074 A 
ATOM     47  C   UNL A   1      41.062  31.447  30.005  1.00  0.00     0.029 A 
ATOM     48  N   UNL A   1      42.706  30.003  29.614  1.00  0.00    -0.354 N 
ATOM     49  N   UNL A   1      45.502  29.129  29.503  1.00  0.00    -0.248 NA
ATOM     50  C   UNL A   1      47.783  29.600  29.645  1.00  0.00     0.031 C 
ATOM     51  C   UNL A   1      42.282  32.103  30.204  1.00  0.00     0.029 A 
ATOM     52  C   UNL A   1      43.306  31.198  29.978  1.00  0.00     0.049 A 
ATOM     53  H   UNL A   1      43.188  29.175  29.388  1.00  0.00     0.167 HD
ATOM     54  C   UNL A   1      45.670  30.460  29.860  1.00  0.00     0.074 A 
ATOM     55  C   UNL A   1      47.096  30.690  29.961  1.00  0.00     0.031 C 
ATOM     56  C   UNL A   1      44.727  31.407  30.082  1.00  0.00     0.037 A 
BRANCH  43  57
ATOM     57  C   UNL A   1      38.934  29.439  29.269  1.00  0.00     0.064 A 
ATOM     58  C   UNL A   1      38.204  29.517  30.463  1.00  0.00     0.173 A 
ATOM     59  C   UNL A   1      38.267  29.733  28.069  1.00  0.00     0.173 A 
ATOM     60  F   UNL A   1      38.794  29.233  31.634  1.00  0.00    -0.203 F 
ATOM     61  C   UNL A   1      36.854  29.860  30.456  1.00  0.00     0.198 A 
ATOM     62  C   UNL A   1      36.924  30.098  28.068  1.00  0.00     0.198 A 
ATOM     63  F   UNL A   1      38.923  29.678  26.900  1.00  0.00    -0.203 F 
ATOM     64  F   UNL A   1      36.168  29.895  31.606  1.00  0.00    -0.200 F 
ATOM     65  C   UNL A   1      36.218  30.158  29.259  1.00  0.00     0.200 A 
ATOM     66  F   UNL A   1      36.313  30.396  26.912  1.00  0.00    -0.200 F 
ATOM     67  F   UNL A   1      34.921  30.496  29.256  1.00  0.00    -0.200 F 
ENDBRANCH  43  57
BRANCH  44  68
ATOM     68  C   UNL A   1      48.568  26.859  28.988  1.00  0.00     0.064 A 
ATOM     69  C   UNL A   1      49.164  26.095  30.000  1.00  0.00     0.173 A 
ATOM     70  C   UNL A   1      49.378  27.280  27.923  1.00  0.00     0.173 A 
ATOM     71  F   UNL A   1      48.436  25.693  31.053  1.00  0.00    -0.203 F 
ATOM     72  C   UNL A   1      50.521  25.780  29.959  1.00  0.00     0.198 A 
ATOM     73  C   UNL A   1      50.728  26.942  27.869  1.00  0.00     0.198 A 
ATOM     74  F   UNL A   1      48.854  28.017  26.932  1.00  0.00    -0.203 F 
ATOM     75  F   UNL A   1      51.077  25.089  30.962  1.00  0.00    -0.200 F 
ATOM     76  C   UNL A   1      51.300  26.200  28.890  1.00  0.00     0.200 A 
ATOM     77  F   UNL A   1      51.475  27.342  26.832  1.00  0.00    -0.200 F 
ATOM     78  F   UNL A   1      52.605  25.897  28.851  1.00  0.00    -0.200 F 
ENDBRANCH  44  68
BRANCH  56  79
ATOM     79  C   UNL A   1      45.205  32.771  30.487  1.00  0.00     0.064 A 
ATOM     80  C   UNL A   1      45.453  33.773  29.540  1.00  0.00     0.173 A 
ATOM     81  C   UNL A   1      45.378  33.088  31.843  1.00  0.00     0.173 A 
ATOM     82  F   UNL A   1      45.316  33.513  28.230  1.00  0.00    -0.203 F 
ATOM     83  C   UNL A   1      45.878  35.039  29.932  1.00  0.00     0.198 A 
ATOM     84  C   UNL A   1      45.779  34.362  32.234  1.00  0.00     0.198 A 
ATOM     85  F   UNL A   1      45.148  32.165  32.789  1.00  0.00    -0.203 F 
ATOM     86  F   UNL A   1      46.149  35.970  29.007  1.00  0.00    -0.200 F 
ATOM     87  C   UNL A   1      46.034  35.335  31.279  1.00  0.00     0.200 A 
ATOM     88  F   UNL A   1      45.919  34.649  33.535  1.00  0.00    -0.200 F 
ATOM     89  F   UNL A   1      46.438  36.556  31.656  1.00  0.00    -0.200 F 
ENDBRANCH  56  79
ENDBRANCH  30  31
ENDBRANCH  23  25
ENDBRANCH  22  23
ENDBRANCH  21  22
ENDBRANCH   1  21
TORSDOF 15
ENDMDL
MODEL 2
REMARK VINA RESULT:      -9.8      6.345     12.045
REMARK SMILES Nc1nc(N)nc(N/C=C/C(=O)OCCOC(=O)c2ccc(-c3c4nc(c(-c5c(F)c(F)c(F)c(F)c5F)c5ccc([nH]5)c(-c5c(F)c(F)c(F)c(F)c5F)c5nc(c(-c6c(F)c(F)c(F)c(F)c6F)c6ccc3[nH]6)C=C5)C=C4)cc2)n1
REMARK SMILES IDX 14 1 13 2 11 3 12 4 10 5 9 6 8 7 7 9 2 10 3 11 82 12 4 13
REMARK SMILES IDX 6 14 1 15 5 18 15 21 16 22 17 23 18 24 19 25 20 26 81 27
REMARK SMILES IDX 21 28 80 29 22 30 23 31 24 32 74 33 25 34 79 35 73 36 75 37
REMARK SMILES IDX 26 38 78 39 72 40 71 41 27 43 59 44 39 45 58 46 40 47 43 48
REMARK SMILES IDX 57 49 76 50 41 51 42 52 56 54 77 55 44 56 28 57 29 58 37 59
REMARK SMILES IDX 30 60 31 61 35 62 38 63 32 64 33 65 36 66 34 67 60 68 61 69
REMARK SMILES IDX 69 70 62 71 63 72 67 73 70 74 64 75 65 76 68 77 66 78 45 79
REMARK SMILES IDX 46 80 54 81 47 82 48 83 52 84 55 85 49 86 50 87 53 88 51 89
REMARK H PARENT 8 8 1 16 1 17 5 19 5 20 75 42 43 53
REMARK Flexibility Score: inf
ROOT
ATOM      1  C   UNL A   1      32.899  36.763  31.251  1.00  0.00     0.275 C 
ENDROOT
BRANCH   1   2
ATOM      2  O   UNL A   1      34.094  36.346  31.938  1.00  0.00    -0.459 OA
BRANCH   2   3
ATOM      3  C   UNL A   1      33.938  35.346  32.835  1.00  0.00     0.332 C 
ATOM      4  O   UNL A   1      33.017  34.540  32.869  1.00  0.00    -0.247 OA
BRANCH   3   5
ATOM      5  C   UNL A   1      35.076  35.234  33.765  1.00  0.00     0.111 C 
ATOM      6  C   UNL A   1      35.379  34.161  34.505  1.00  0.00     0.093 C 
BRANCH   6   7
ATOM      7  N   UNL A   1      36.421  34.076  35.390  1.00  0.00    -0.330 N 
ATOM      8  H   UNL A   1      36.799  34.932  35.695  1.00  0.00     0.169 HD
BRANCH   7   9
ATOM      9  C   UNL A   1      37.011  32.925  35.910  1.00  0.00     0.233 A 
ATOM     10  C   UNL A   1      37.693  31.804  37.726  1.00  0.00     0.226 A 
ATOM     11  N   UNL A   1      38.263  30.858  37.002  1.00  0.00    -0.177 NA
ATOM     12  N   UNL A   1      37.062  32.859  37.236  1.00  0.00    -0.177 NA
ATOM     13  C   UNL A   1      38.151  31.013  35.694  1.00  0.00     0.226 A 
ATOM     14  N   UNL A   1      37.534  32.016  35.097  1.00  0.00    -0.177 NA
BRANCH  10  15
ATOM     15  N   UNL A   1      37.778  31.696  39.084  1.00  0.00    -0.368 N 
ATOM     16  H   UNL A   1      37.466  32.434  39.657  1.00  0.00     0.159 HD
ATOM     17  H   UNL A   1      38.151  30.880  39.491  1.00  0.00     0.159 HD
ENDBRANCH  10  15
BRANCH  13  18
ATOM     18  N   UNL A   1      38.744  30.078  34.893  1.00  0.00    -0.368 N 
ATOM     19  H   UNL A   1      38.531  29.124  35.009  1.00  0.00     0.159 HD
ATOM     20  H   UNL A   1      39.385  30.358  34.200  1.00  0.00     0.159 HD
ENDBRANCH  13  18
ENDBRANCH   7   9
ENDBRANCH   6   7
ENDBRANCH   3   5
ENDBRANCH   2   3
ENDBRANCH   1   2
BRANCH   1  21
ATOM     21  C   UNL A   1      32.907  36.323  29.784  1.00  0.00     0.275 C 
BRANCH  21  22
ATOM     22  O   UNL A   1      32.528  34.941  29.632  1.00  0.00    -0.458 OA
BRANCH  22  23
ATOM     23  C   UNL A   1      33.248  34.243  28.721  1.00  0.00     0.338 C 
ATOM     24  O   UNL A   1      33.004  34.112  27.534  1.00  0.00    -0.246 OA
BRANCH  23  25
ATOM     25  C   UNL A   1      34.490  33.743  29.337  1.00  0.00     0.060 A 
ATOM     26  C   UNL A   1      35.705  34.166  28.786  1.00  0.00     0.016 A 
ATOM     27  C   UNL A   1      34.474  32.826  30.390  1.00  0.00     0.016 A 
ATOM     28  C   UNL A   1      36.909  33.679  29.290  1.00  0.00     0.010 A 
ATOM     29  C   UNL A   1      35.683  32.328  30.888  1.00  0.00     0.010 A 
ATOM     30  C   UNL A   1      36.906  32.747  30.336  1.00  0.00    -0.014 A 
BRANCH  30  31
ATOM     31  C   UNL A   1      38.190  32.177  30.809  1.00  0.00     0.031 A 
ATOM     32  C   UNL A   1      38.724  30.918  30.189  1.00  0.00     0.074 A 
ATOM     33  C   UNL A   1      38.888  32.805  31.772  1.00  0.00     0.049 A 
ATOM     34  N   UNL A   1      39.811  30.248  30.478  1.00  0.00    -0.248 NA
ATOM     35  C   UNL A   1      37.930  30.337  29.097  1.00  0.00     0.031 C 
ATOM     36  C   UNL A   1      38.488  34.052  32.424  1.00  0.00     0.029 A 
ATOM     37  N   UNL A   1      40.080  32.481  32.368  1.00  0.00    -0.354 N 
ATOM     38  C   UNL A   1      39.829  29.165  29.611  1.00  0.00     0.074 A 
ATOM     39  C   UNL A   1      38.634  29.253  28.798  1.00  0.00     0.031 C 
ATOM     40  C   UNL A   1      39.418  34.386  33.334  1.00  0.00     0.029 A 
ATOM     41  C   UNL A   1      40.460  33.362  33.350  1.00  0.00     0.049 A 
ATOM     42  H   UNL A   1      40.613  31.692  32.116  1.00  0.00     0.167 HD
ATOM     43  C   UNL A   1      40.762  28.189  29.501  1.00  0.00     0.037 A 
ATOM     44  C   UNL A   1      41.519  33.332  34.183  1.00  0.00     0.037 A 
ATOM     45  C   UNL A   1      41.953  28.107  30.305  1.00  0.00     0.049 A 
ATOM     46  C   UNL A   1      42.512  32.206  34.074  1.00  0.00     0.074 A 
ATOM     47  C   UNL A   1      42.965  27.164  30.255  1.00  0.00     0.029 A 
ATOM     48  N   UNL A   1      42.291  29.002  31.309  1.00  0.00    -0.354 N 
ATOM     49  N   UNL A   1      42.530  31.195  33.239  1.00  0.00    -0.248 NA
ATOM     50  C   UNL A   1      43.633  32.216  35.024  1.00  0.00     0.031 C 
ATOM     51  C   UNL A   1      43.896  27.466  31.255  1.00  0.00     0.029 A 
ATOM     52  C   UNL A   1      43.485  28.621  31.900  1.00  0.00     0.049 A 
ATOM     53  H   UNL A   1      41.761  29.791  31.564  1.00  0.00     0.167 HD
ATOM     54  C   UNL A   1      43.670  30.465  33.547  1.00  0.00     0.074 A 
ATOM     55  C   UNL A   1      44.328  31.155  34.637  1.00  0.00     0.031 C 
ATOM     56  C   UNL A   1      44.130  29.324  32.978  1.00  0.00     0.037 A 
BRANCH  43  57
ATOM     57  C   UNL A   1      40.524  27.114  28.484  1.00  0.00     0.064 A 
ATOM     58  C   UNL A   1      39.613  26.073  28.714  1.00  0.00     0.173 A 
ATOM     59  C   UNL A   1      41.178  27.155  27.243  1.00  0.00     0.173 A 
ATOM     60  F   UNL A   1      38.972  25.985  29.888  1.00  0.00    -0.203 F 
ATOM     61  C   UNL A   1      39.378  25.102  27.744  1.00  0.00     0.198 A 
ATOM     62  C   UNL A   1      40.923  26.195  26.267  1.00  0.00     0.198 A 
ATOM     63  F   UNL A   1      42.055  28.134  26.973  1.00  0.00    -0.203 F 
ATOM     64  F   UNL A   1      38.528  24.097  27.997  1.00  0.00    -0.200 F 
ATOM     65  C   UNL A   1      40.027  25.168  26.520  1.00  0.00     0.200 A 
ATOM     66  F   UNL A   1      41.543  26.267  25.081  1.00  0.00    -0.200 F 
ATOM     67  F   UNL A   1      39.793  24.237  25.585  1.00  0.00    -0.200 F 
ENDBRANCH  43  57
BRANCH  44  68
ATOM     68  C   UNL A   1      41.690  34.397  35.203  1.00  0.00     0.064 A 
ATOM     69  C   UNL A   1      41.192  34.239  36.503  1.00  0.00     0.173 A 
ATOM     70  C   UNL A   1      42.338  35.601  34.892  1.00  0.00     0.173 A 
ATOM     71  F   UNL A   1      40.540  33.116  36.839  1.00  0.00    -0.203 F 
ATOM     72  C   UNL A   1      41.321  35.254  37.450  1.00  0.00     0.198 A 
ATOM     73  C   UNL A   1      42.490  36.604  35.847  1.00  0.00     0.198 A 
ATOM     74  F   UNL A   1      42.827  35.802  33.660  1.00  0.00    -0.203 F 
ATOM     75  F   UNL A   1      40.795  35.097  38.672  1.00  0.00    -0.200 F 
ATOM     76  C   UNL A   1      41.975  36.433  37.123  1.00  0.00     0.200 A 
ATOM     77  F   UNL A   1      43.128  37.738  35.529  1.00  0.00    -0.200 F 
ATOM     78  F   UNL A   1      42.098  37.407  38.034  1.00  0.00    -0.200 F 
ENDBRANCH  44  68
BRANCH  56  79
ATOM     79  C   UNL A   1      45.421  28.767  33.502  1.00  0.00     0.064 A 
ATOM     80  C   UNL A   1      45.447  27.827  34.541  1.00  0.00     0.173 A 
ATOM     81  C   UNL A   1      46.644  29.151  32.930  1.00  0.00     0.173 A 
ATOM     82  F   UNL A   1      44.304  27.440  35.130  1.00  0.00    -0.203 F 
ATOM     83  C   UNL A   1      46.652  27.305  35.004  1.00  0.00     0.198 A 
ATOM     84  C   UNL A   1      47.845  28.609  33.378  1.00  0.00     0.198 A 
ATOM     85  F   UNL A   1      46.672  30.044  31.929  1.00  0.00    -0.203 F 
ATOM     86  F   UNL A   1      46.656  26.438  36.026  1.00  0.00    -0.200 F 
ATOM     87  C   UNL A   1      47.849  27.691  34.418  1.00  0.00     0.200 A 
ATOM     88  F   UNL A   1      48.999  28.975  32.804  1.00  0.00    -0.200 F 
ATOM     89  F   UNL A   1      49.007  27.184  34.861  1.00  0.00    -0.200 F 
ENDBRANCH  56  79
ENDBRANCH  30  31
ENDBRANCH  23  25
ENDBRANCH  22  23
ENDBRANCH  21  22
ENDBRANCH   1  21
TORSDOF 15
ENDMDL
MODEL 3
REMARK VINA RESULT:      -9.7      7.457     11.977
REMARK SMILES Nc1nc(N)nc(N/C=C/C(=O)OCCOC(=O)c2ccc(-c3c4nc(c(-c5c(F)c(F)c(F)c(F)c5F)c5ccc([nH]5)c(-c5c(F)c(F)c(F)c(F)c5F)c5nc(c(-c6c(F)c(F)c(F)c(F)c6F)c6ccc3[nH]6)C=C5)C=C4)cc2)n1
REMARK SMILES IDX 14 1 13 2 11 3 12 4 10 5 9 6 8 7 7 9 2 10 3 11 82 12 4 13
REMARK SMILES IDX 6 14 1 15 5 18 15 21 16 22 17 23 18 24 19 25 20 26 81 27
REMARK SMILES IDX 21 28 80 29 22 30 23 31 24 32 74 33 25 34 79 35 73 36 75 37
REMARK SMILES IDX 26 38 78 39 72 40 71 41 27 43 59 44 39 45 58 46 40 47 43 48
REMARK SMILES IDX 57 49 76 50 41 51 42 52 56 54 77 55 44 56 28 57 29 58 37 59
REMARK SMILES IDX 30 60 31 61 35 62 38 63 32 64 33 65 36 66 34 67 60 68 61 69
REMARK SMILES IDX 69 70 62 71 63 72 67 73 70 74 64 75 65 76 68 77 66 78 45 79
REMARK SMILES IDX 46 80 54 81 47 82 48 83 52 84 55 85 49 86 50 87 53 88 51 89
REMARK H PARENT 8 8 1 16 1 17 5 19 5 20 75 42 43 53
REMARK Flexibility Score: inf
ROOT
ATOM      1  C   UNL A   1      31.707  32.453  26.618  1.00  0.00     0.275 C 
ENDROOT
BRANCH   1   2
ATOM      2  O   UNL A   1      31.836  31.087  27.051  1.00  0.00    -0.459 OA
BRANCH   2   3
ATOM      3  C   UNL A   1      32.497  30.262  26.206  1.00  0.00     0.332 C 
ATOM      4  O   UNL A   1      33.677  29.948  26.276  1.00  0.00    -0.247 OA
BRANCH   3   5
ATOM      5  C   UNL A   1      31.613  29.661  25.191  1.00  0.00     0.111 C 
ATOM      6  C   UNL A   1      32.010  28.934  24.139  1.00  0.00     0.093 C 
BRANCH   6   7
ATOM      7  N   UNL A   1      31.185  28.405  23.183  1.00  0.00    -0.330 N 
ATOM      8  H   UNL A   1      31.492  27.569  22.763  1.00  0.00     0.169 HD
BRANCH   7   9
ATOM      9  C   UNL A   1      29.964  28.904  22.733  1.00  0.00     0.233 A 
ATOM     10  C   UNL A   1      28.874  30.512  21.617  1.00  0.00     0.226 A 
ATOM     11  N   UNL A   1      27.692  30.034  21.961  1.00  0.00    -0.177 NA
ATOM     12  N   UNL A   1      30.037  29.995  21.978  1.00  0.00    -0.177 NA
ATOM     13  C   UNL A   1      27.727  28.944  22.708  1.00  0.00     0.226 A 
ATOM     14  N   UNL A   1      28.827  28.336  23.115  1.00  0.00    -0.177 NA
BRANCH  10  15
ATOM     15  N   UNL A   1      28.898  31.638  20.845  1.00  0.00    -0.368 N 
ATOM     16  H   UNL A   1      29.173  32.498  21.238  1.00  0.00     0.159 HD
ATOM     17  H   UNL A   1      28.641  31.589  19.896  1.00  0.00     0.159 HD
ENDBRANCH  10  15
BRANCH  13  18
ATOM     18  N   UNL A   1      26.535  28.418  23.118  1.00  0.00    -0.368 N 
ATOM     19  H   UNL A   1      25.702  28.668  22.655  1.00  0.00     0.159 HD
ATOM     20  H   UNL A   1      26.508  27.790  23.875  1.00  0.00     0.159 HD
ENDBRANCH  13  18
ENDBRANCH   7   9
ENDBRANCH   6   7
ENDBRANCH   3   5
ENDBRANCH   2   3
ENDBRANCH   1   2
BRANCH   1  21
ATOM     21  C   UNL A   1      32.759  33.356  27.272  1.00  0.00     0.275 C 
BRANCH  21  22
ATOM     22  O   UNL A   1      32.176  34.253  28.237  1.00  0.00    -0.458 OA
BRANCH  22  23
ATOM     23  C   UNL A   1      33.018  35.191  28.733  1.00  0.00     0.338 C 
ATOM     24  O   UNL A   1      32.866  36.401  28.716  1.00  0.00    -0.246 OA
BRANCH  23  25
ATOM     25  C   UNL A   1      34.134  34.541  29.444  1.00  0.00     0.060 A 
ATOM     26  C   UNL A   1      35.397  34.572  28.841  1.00  0.00     0.016 A 
ATOM     27  C   UNL A   1      33.943  33.856  30.646  1.00  0.00     0.016 A 
ATOM     28  C   UNL A   1      36.474  33.924  29.439  1.00  0.00     0.010 A 
ATOM     29  C   UNL A   1      35.023  33.195  31.241  1.00  0.00     0.010 A 
ATOM     30  C   UNL A   1      36.292  33.220  30.637  1.00  0.00    -0.014 A 
BRANCH  30  31
ATOM     31  C   UNL A   1      37.429  32.468  31.221  1.00  0.00     0.031 A 
ATOM     32  C   UNL A   1      37.932  32.818  32.591  1.00  0.00     0.074 A 
ATOM     33  C   UNL A   1      37.987  31.456  30.533  1.00  0.00     0.049 A 
ATOM     34  N   UNL A   1      38.926  32.300  33.267  1.00  0.00    -0.248 NA
ATOM     35  C   UNL A   1      37.218  33.892  33.298  1.00  0.00     0.031 C 
ATOM     36  C   UNL A   1      37.562  31.002  29.210  1.00  0.00     0.029 A 
ATOM     37  N   UNL A   1      39.032  30.626  30.855  1.00  0.00    -0.354 N 
ATOM     38  C   UNL A   1      38.964  32.987  34.471  1.00  0.00     0.074 A 
ATOM     39  C   UNL A   1      37.905  33.975  34.429  1.00  0.00     0.031 C 
ATOM     40  C   UNL A   1      38.343  29.977  28.829  1.00  0.00     0.029 A 
ATOM     41  C   UNL A   1      39.340  29.724  29.867  1.00  0.00     0.049 A 
ATOM     42  H   UNL A   1      39.514  30.674  31.711  1.00  0.00     0.167 HD
ATOM     43  C   UNL A   1      39.803  32.805  35.519  1.00  0.00     0.037 A 
ATOM     44  C   UNL A   1      40.329  28.811  29.801  1.00  0.00     0.037 A 
ATOM     45  C   UNL A   1      40.850  31.819  35.563  1.00  0.00     0.049 A 
ATOM     46  C   UNL A   1      41.280  28.668  30.958  1.00  0.00     0.074 A 
ATOM     47  C   UNL A   1      41.740  31.549  36.588  1.00  0.00     0.029 A 
ATOM     48  N   UNL A   1      41.149  30.941  34.533  1.00  0.00    -0.354 N 
ATOM     49  N   UNL A   1      41.297  29.310  32.100  1.00  0.00    -0.248 NA
ATOM     50  C   UNL A   1      42.351  27.672  30.816  1.00  0.00     0.031 C 
ATOM     51  C   UNL A   1      42.604  30.534  36.163  1.00  0.00     0.029 A 
ATOM     52  C   UNL A   1      42.225  30.142  34.889  1.00  0.00     0.049 A 
ATOM     53  H   UNL A   1      40.670  30.891  33.675  1.00  0.00     0.167 HD
ATOM     54  C   UNL A   1      42.360  28.783  32.820  1.00  0.00     0.074 A 
ATOM     55  C   UNL A   1      42.958  27.757  31.992  1.00  0.00     0.031 C 
ATOM     56  C   UNL A   1      42.802  29.119  34.056  1.00  0.00     0.037 A 
BRANCH  43  57
ATOM     57  C   UNL A   1      39.637  33.709  36.704  1.00  0.00     0.064 A 
ATOM     58  C   UNL A   1      40.230  34.979  36.749  1.00  0.00     0.173 A 
ATOM     59  C   UNL A   1      38.833  33.318  37.786  1.00  0.00     0.173 A 
ATOM     60  F   UNL A   1      41.016  35.392  35.745  1.00  0.00    -0.203 F 
ATOM     61  C   UNL A   1      40.037  35.819  37.843  1.00  0.00     0.198 A 
ATOM     62  C   UNL A   1      38.624  34.170  38.867  1.00  0.00     0.198 A 
ATOM     63  F   UNL A   1      38.240  32.115  37.788  1.00  0.00    -0.203 F 
ATOM     64  F   UNL A   1      40.640  37.015  37.881  1.00  0.00    -0.200 F 
ATOM     65  C   UNL A   1      39.229  35.417  38.897  1.00  0.00     0.200 A 
ATOM     66  F   UNL A   1      37.835  33.784  39.879  1.00  0.00    -0.200 F 
ATOM     67  F   UNL A   1      39.038  36.231  39.944  1.00  0.00    -0.200 F 
ENDBRANCH  43  57
BRANCH  44  68
ATOM     68  C   UNL A   1      40.478  27.968  28.587  1.00  0.00     0.064 A 
ATOM     69  C   UNL A   1      39.874  26.707  28.505  1.00  0.00     0.173 A 
ATOM     70  C   UNL A   1      41.242  28.401  27.493  1.00  0.00     0.173 A 
ATOM     71  F   UNL A   1      39.157  26.238  29.537  1.00  0.00    -0.203 F 
ATOM     72  C   UNL A   1      40.044  25.901  27.380  1.00  0.00     0.198 A 
ATOM     73  C   UNL A   1      41.389  27.606  26.359  1.00  0.00     0.198 A 
ATOM     74  F   UNL A   1      41.844  29.599  27.527  1.00  0.00    -0.203 F 
ATOM     75  F   UNL A   1      39.496  24.679  27.345  1.00  0.00    -0.200 F 
ATOM     76  C   UNL A   1      40.797  26.354  26.306  1.00  0.00     0.200 A 
ATOM     77  F   UNL A   1      42.110  28.050  25.321  1.00  0.00    -0.200 F 
ATOM     78  F   UNL A   1      40.959  25.579  25.225  1.00  0.00    -0.200 F 
ENDBRANCH  44  68
BRANCH  56  79
ATOM     79  C   UNL A   1      43.970  28.351  34.601  1.00  0.00     0.064 A 
ATOM     80  C   UNL A   1      43.793  27.170  35.336  1.00  0.00     0.173 A 
ATOM     81  C   UNL A   1      45.282  28.781  34.352  1.00  0.00     0.173 A 
ATOM     82  F   UNL A   1      42.556  26.727  35.613  1.00  0.00    -0.203 F 
ATOM     83  C   UNL A   1      44.886  26.458  35.819  1.00  0.00     0.198 A 
ATOM     84  C   UNL A   1      46.374  28.053  34.815  1.00  0.00     0.198 A 
ATOM     85  F   UNL A   1      45.504  29.902  33.649  1.00  0.00    -0.203 F 
ATOM     86  F   UNL A   1      44.694  25.353  36.554  1.00  0.00    -0.200 F 
ATOM     87  C   UNL A   1      46.176  26.896  35.553  1.00  0.00     0.200 A 
ATOM     88  F   UNL A   1      47.618  28.472  34.548  1.00  0.00    -0.200 F 
ATOM     89  F   UNL A   1      47.228  26.206  36.015  1.00  0.00    -0.200 F 
ENDBRANCH  56  79
ENDBRANCH  30  31
ENDBRANCH  23  25
ENDBRANCH  22  23
ENDBRANCH  21  22
ENDBRANCH   1  21
TORSDOF 15
ENDMDL
