MODEL 1
REMARK VINA RESULT:     -13.6      0.000      0.000
REMARK SMILES Cc1nc2ccccc2c2c1C(=O)N(c1cccc(C(=O)OCCOC(=O)c3ccc(-c4c5nc(c(-c6c(F)c(F)c(F)c(F)c6F)c6ccc([nH]6)c(-c6c(F)c(F)c(F)c(F)c6F)c6nc(c(-c7c(F)c(F)c(F)c(F)c7F)c7ccc4[nH]7)C=C6)C=C5)cc3)c1)C2=O
REMARK SMILES IDX 24 1 23 2 22 3 20 4 21 5 19 6 15 7 16 8 91 9 17 10 18 11
REMARK SMILES IDX 14 12 1 13 2 14 3 15 11 16 4 17 10 18 12 19 5 20 9 21 92 22
REMARK SMILES IDX 13 23 6 24 8 25 93 26 7 27 25 28 26 29 27 30 28 31 29 32
REMARK SMILES IDX 90 33 30 34 89 35 31 36 32 37 33 38 83 39 34 40 88 41 82 42
REMARK SMILES IDX 84 43 35 44 87 45 81 46 80 47 36 49 68 50 48 51 67 52 49 53
REMARK SMILES IDX 52 54 66 55 85 56 50 57 51 58 65 60 86 61 53 62 37 63 38 64
REMARK SMILES IDX 46 65 39 66 40 67 44 68 47 69 41 70 42 71 45 72 43 73 69 74
REMARK SMILES IDX 70 75 78 76 71 77 72 78 76 79 79 80 73 81 74 82 77 83 75 84
REMARK SMILES IDX 54 85 55 86 63 87 56 88 57 89 61 90 64 91 58 92 59 93 62 94
REMARK SMILES IDX 60 95
REMARK H PARENT 84 48 52 59
REMARK Flexibility Score: inf
ROOT
ATOM      1  C   UNL A   1      31.544  31.069  26.134  1.00  0.00     0.275 C 
ENDROOT
BRANCH   1   2
ATOM      2  C   UNL A   1      31.535  29.864  25.195  1.00  0.00     0.275 C 
BRANCH   2   3
ATOM      3  O   UNL A   1      31.770  28.633  25.909  1.00  0.00    -0.458 OA
BRANCH   3   4
ATOM      4  C   UNL A   1      31.236  27.510  25.368  1.00  0.00     0.338 C 
ATOM      5  O   UNL A   1      30.282  27.463  24.606  1.00  0.00    -0.246 OA
BRANCH   4   6
ATOM      6  C   UNL A   1      31.995  26.294  25.777  1.00  0.00     0.062 A 
ATOM      7  C   UNL A   1      33.971  24.848  25.664  1.00  0.00     0.053 A 
ATOM      8  C   UNL A   1      33.293  23.896  26.441  1.00  0.00     0.027 A 
ATOM      9  C   UNL A   1      33.326  26.073  25.397  1.00  0.00     0.042 A 
ATOM     10  C   UNL A   1      31.971  24.119  26.843  1.00  0.00     0.003 A 
ATOM     11  C   UNL A   1      31.319  25.303  26.495  1.00  0.00     0.016 A 
BRANCH   7  12
ATOM     12  N   UNL A   1      35.113  24.468  24.883  1.00  0.00    -0.242 N 
ATOM     13  C   UNL A   1      38.374  21.249  25.376  1.00  0.00     0.067 C 
ATOM     14  C   UNL A   1      36.925  21.462  25.068  1.00  0.00     0.052 A 
ATOM     15  N   UNL A   1      36.089  20.405  25.207  1.00  0.00    -0.252 NA
ATOM     16  C   UNL A   1      36.484  22.643  24.512  1.00  0.00     0.075 A 
ATOM     17  C   UNL A   1      34.828  20.505  24.740  1.00  0.00     0.071 A 
ATOM     18  C   UNL A   1      35.352  22.594  23.718  1.00  0.00     0.064 A 
ATOM     19  C   UNL A   1      36.243  23.845  25.373  1.00  0.00     0.268 C 
ATOM     20  C   UNL A   1      33.864  19.608  25.182  1.00  0.00     0.029 A 
ATOM     21  C   UNL A   1      34.424  21.556  23.895  1.00  0.00     0.014 A 
ATOM     22  C   UNL A   1      34.880  23.970  23.636  1.00  0.00     0.266 C 
ATOM     23  O   UNL A   1      36.889  24.087  26.378  1.00  0.00    -0.268 OA
ATOM     24  C   UNL A   1      32.529  19.711  24.788  1.00  0.00     0.002 A 
ATOM     25  C   UNL A   1      33.090  21.624  23.443  1.00  0.00     0.011 A 
ATOM     26  O   UNL A   1      34.410  24.475  22.635  1.00  0.00    -0.268 OA
ATOM     27  C   UNL A   1      32.153  20.699  23.889  1.00  0.00     0.001 A 
ENDBRANCH   7  12
ENDBRANCH   4   6
ENDBRANCH   3   4
ENDBRANCH   2   3
ENDBRANCH   1   2
BRANCH   1  28
ATOM     28  O   UNL A   1      32.533  30.895  27.164  1.00  0.00    -0.458 OA
BRANCH  28  29
ATOM     29  C   UNL A   1      33.316  31.967  27.401  1.00  0.00     0.338 C 
ATOM     30  O   UNL A   1      33.048  33.146  27.250  1.00  0.00    -0.246 OA
BRANCH  29  31
ATOM     31  C   UNL A   1      34.608  31.517  27.937  1.00  0.00     0.060 A 
ATOM     32  C   UNL A   1      35.631  32.440  28.153  1.00  0.00     0.016 A 
ATOM     33  C   UNL A   1      34.738  30.192  28.360  1.00  0.00     0.016 A 
ATOM     34  C   UNL A   1      36.809  32.021  28.779  1.00  0.00     0.010 A 
ATOM     35  C   UNL A   1      35.897  29.791  29.029  1.00  0.00     0.010 A 
ATOM     36  C   UNL A   1      36.950  30.695  29.232  1.00  0.00    -0.014 A 
BRANCH  36  37
ATOM     37  C   UNL A   1      38.200  30.262  29.914  1.00  0.00     0.031 A 
ATOM     38  C   UNL A   1      38.504  30.726  31.313  1.00  0.00     0.074 A 
ATOM     39  C   UNL A   1      39.065  29.446  29.280  1.00  0.00     0.049 A 
ATOM     40  N   UNL A   1      39.506  30.399  32.092  1.00  0.00    -0.248 NA
ATOM     41  C   UNL A   1      37.573  31.696  31.910  1.00  0.00     0.031 C 
ATOM     42  C   UNL A   1      38.918  28.960  27.909  1.00  0.00     0.029 A 
ATOM     43  N   UNL A   1      40.232  28.865  29.716  1.00  0.00    -0.354 N 
ATOM     44  C   UNL A   1      39.321  31.114  33.268  1.00  0.00     0.074 A 
ATOM     45  C   UNL A   1      38.147  31.939  33.080  1.00  0.00     0.031 C 
ATOM     46  C   UNL A   1      39.924  28.114  27.633  1.00  0.00     0.029 A 
ATOM     47  C   UNL A   1      40.797  28.011  28.799  1.00  0.00     0.049 A 
ATOM     48  H   UNL A   1      40.626  29.044  30.600  1.00  0.00     0.167 HD
ATOM     49  C   UNL A   1      40.041  31.064  34.413  1.00  0.00     0.037 A 
ATOM     50  C   UNL A   1      41.882  27.217  28.898  1.00  0.00     0.037 A 
ATOM     51  C   UNL A   1      41.196  30.231  34.617  1.00  0.00     0.049 A 
ATOM     52  C   UNL A   1      42.670  27.184  30.179  1.00  0.00     0.074 A 
ATOM     53  C   UNL A   1      41.967  30.090  35.758  1.00  0.00     0.029 A 
ATOM     54  N   UNL A   1      41.743  29.393  33.658  1.00  0.00    -0.354 N 
ATOM     55  N   UNL A   1      42.445  27.818  31.303  1.00  0.00    -0.248 NA
ATOM     56  C   UNL A   1      43.858  26.318  30.207  1.00  0.00     0.031 C 
ATOM     57  C   UNL A   1      42.997  29.186  35.482  1.00  0.00     0.029 A 
ATOM     58  C   UNL A   1      42.847  28.739  34.179  1.00  0.00     0.049 A 
ATOM     59  H   UNL A   1      41.398  29.280  32.743  1.00  0.00     0.167 HD
ATOM     60  C   UNL A   1      43.444  27.409  32.177  1.00  0.00     0.074 A 
ATOM     61  C   UNL A   1      44.272  26.465  31.459  1.00  0.00     0.031 C 
ATOM     62  C   UNL A   1      43.653  27.788  33.461  1.00  0.00     0.037 A 
BRANCH  49  63
ATOM     63  C   UNL A   1      39.580  31.912  35.561  1.00  0.00     0.064 A 
ATOM     64  C   UNL A   1      40.059  33.218  35.732  1.00  0.00     0.173 A 
ATOM     65  C   UNL A   1      38.604  31.445  36.453  1.00  0.00     0.173 A 
ATOM     66  F   UNL A   1      40.999  33.706  34.907  1.00  0.00    -0.203 F 
ATOM     67  C   UNL A   1      39.590  34.024  36.765  1.00  0.00     0.198 A 
ATOM     68  C   UNL A   1      38.119  32.262  37.472  1.00  0.00     0.198 A 
ATOM     69  F   UNL A   1      38.107  30.206  36.327  1.00  0.00    -0.203 F 
ATOM     70  F   UNL A   1      40.084  35.259  36.928  1.00  0.00    -0.200 F 
ATOM     71  C   UNL A   1      38.615  33.548  37.629  1.00  0.00     0.200 A 
ATOM     72  F   UNL A   1      37.166  31.808  38.298  1.00  0.00    -0.200 F 
ATOM     73  F   UNL A   1      38.152  34.330  38.614  1.00  0.00    -0.200 F 
ENDBRANCH  49  63
BRANCH  50  74
ATOM     74  C   UNL A   1      42.249  26.326  27.768  1.00  0.00     0.064 A 
ATOM     75  C   UNL A   1      41.605  25.092  27.598  1.00  0.00     0.173 A 
ATOM     76  C   UNL A   1      43.237  26.681  26.841  1.00  0.00     0.173 A 
ATOM     77  F   UNL A   1      40.668  24.701  28.474  1.00  0.00    -0.203 F 
ATOM     78  C   UNL A   1      41.945  24.241  26.548  1.00  0.00     0.198 A 
ATOM     79  C   UNL A   1      43.562  25.839  25.779  1.00  0.00     0.198 A 
ATOM     80  F   UNL A   1      43.881  27.852  26.961  1.00  0.00    -0.203 F 
ATOM     81  F   UNL A   1      41.339  23.052  26.429  1.00  0.00    -0.200 F 
ATOM     82  C   UNL A   1      42.920  24.618  25.637  1.00  0.00     0.200 A 
ATOM     83  F   UNL A   1      44.498  26.209  24.895  1.00  0.00    -0.200 F 
ATOM     84  F   UNL A   1      43.244  23.801  24.625  1.00  0.00    -0.200 F 
ENDBRANCH  50  74
BRANCH  62  85
ATOM     85  C   UNL A   1      44.806  27.168  34.193  1.00  0.00     0.064 A 
ATOM     86  C   UNL A   1      46.061  27.792  34.241  1.00  0.00     0.173 A 
ATOM     87  C   UNL A   1      44.630  25.983  34.924  1.00  0.00     0.173 A 
ATOM     88  F   UNL A   1      46.279  28.920  33.549  1.00  0.00    -0.203 F 
ATOM     89  C   UNL A   1      47.100  27.247  34.989  1.00  0.00     0.198 A 
ATOM     90  C   UNL A   1      45.666  25.453  35.688  1.00  0.00     0.198 A 
ATOM     91  F   UNL A   1      43.446  25.354  34.915  1.00  0.00    -0.203 F 
ATOM     92  F   UNL A   1      48.299  27.848  35.003  1.00  0.00    -0.200 F 
ATOM     93  C   UNL A   1      46.900  26.085  35.719  1.00  0.00     0.200 A 
ATOM     94  F   UNL A   1      45.467  24.337  36.402  1.00  0.00    -0.200 F 
ATOM     95  F   UNL A   1      47.898  25.572  36.452  1.00  0.00    -0.200 F 
ENDBRANCH  62  85
ENDBRANCH  36  37
ENDBRANCH  29  31
ENDBRANCH  28  29
ENDBRANCH   1  28
TORSDOF 12
ENDMDL
MODEL 2
REMARK VINA RESULT:     -13.5      4.120      9.757
REMARK SMILES Cc1nc2ccccc2c2c1C(=O)N(c1cccc(C(=O)OCCOC(=O)c3ccc(-c4c5nc(c(-c6c(F)c(F)c(F)c(F)c6F)c6ccc([nH]6)c(-c6c(F)c(F)c(F)c(F)c6F)c6nc(c(-c7c(F)c(F)c(F)c(F)c7F)c7ccc4[nH]7)C=C6)C=C5)cc3)c1)C2=O
REMARK SMILES IDX 24 1 23 2 22 3 20 4 21 5 19 6 15 7 16 8 91 9 17 10 18 11
REMARK SMILES IDX 14 12 1 13 2 14 3 15 11 16 4 17 10 18 12 19 5 20 9 21 92 22
REMARK SMILES IDX 13 23 6 24 8 25 93 26 7 27 25 28 26 29 27 30 28 31 29 32
REMARK SMILES IDX 90 33 30 34 89 35 31 36 32 37 33 38 83 39 34 40 88 41 82 42
REMARK SMILES IDX 84 43 35 44 87 45 81 46 80 47 36 49 68 50 48 51 67 52 49 53
REMARK SMILES IDX 52 54 66 55 85 56 50 57 51 58 65 60 86 61 53 62 37 63 38 64
REMARK SMILES IDX 46 65 39 66 40 67 44 68 47 69 41 70 42 71 45 72 43 73 69 74
REMARK SMILES IDX 70 75 78 76 71 77 72 78 76 79 79 80 73 81 74 82 77 83 75 84
REMARK SMILES IDX 54 85 55 86 63 87 56 88 57 89 61 90 64 91 58 92 59 93 62 94
REMARK SMILES IDX 60 95
REMARK H PARENT 84 48 52 59
REMARK Flexibility Score: inf
ROOT
ATOM      1  C   UNL A   1      37.369  20.249  25.013  1.00  0.00     0.275 C 
ENDROOT
BRANCH   1   2
ATOM      2  C   UNL A   1      35.871  20.548  24.964  1.00  0.00     0.275 C 
BRANCH   2   3
ATOM      3  O   UNL A   1      35.598  21.777  24.261  1.00  0.00    -0.458 OA
BRANCH   3   4
ATOM      4  C   UNL A   1      34.293  22.112  24.115  1.00  0.00     0.338 C 
ATOM      5  O   UNL A   1      33.349  21.337  24.103  1.00  0.00    -0.246 OA
BRANCH   4   6
ATOM      6  C   UNL A   1      34.116  23.589  24.015  1.00  0.00     0.062 A 
ATOM      7  C   UNL A   1      33.765  25.791  25.034  1.00  0.00     0.053 A 
ATOM      8  C   UNL A   1      33.603  26.336  23.752  1.00  0.00     0.027 A 
ATOM      9  C   UNL A   1      34.087  24.422  25.143  1.00  0.00     0.042 A 
ATOM     10  C   UNL A   1      33.654  25.514  22.620  1.00  0.00     0.003 A 
ATOM     11  C   UNL A   1      33.888  24.145  22.753  1.00  0.00     0.016 A 
BRANCH   7  12
ATOM     12  N   UNL A   1      33.284  26.494  26.189  1.00  0.00    -0.242 N 
ATOM     13  C   UNL A   1      32.856  30.961  27.241  1.00  0.00     0.067 C 
ATOM     14  C   UNL A   1      32.305  29.865  26.383  1.00  0.00     0.052 A 
ATOM     15  N   UNL A   1      31.584  30.219  25.293  1.00  0.00    -0.252 NA
ATOM     16  C   UNL A   1      32.392  28.546  26.775  1.00  0.00     0.075 A 
ATOM     17  C   UNL A   1      30.902  29.267  24.625  1.00  0.00     0.071 A 
ATOM     18  C   UNL A   1      31.412  27.679  26.328  1.00  0.00     0.064 A 
ATOM     19  C   UNL A   1      33.656  27.772  26.557  1.00  0.00     0.268 C 
ATOM     20  C   UNL A   1      30.467  29.522  23.331  1.00  0.00     0.029 A 
ATOM     21  C   UNL A   1      30.703  27.978  25.154  1.00  0.00     0.014 A 
ATOM     22  C   UNL A   1      31.967  26.344  26.509  1.00  0.00     0.266 C 
ATOM     23  O   UNL A   1      34.764  28.278  26.590  1.00  0.00    -0.268 OA
ATOM     24  C   UNL A   1      29.822  28.547  22.566  1.00  0.00     0.002 A 
ATOM     25  C   UNL A   1      29.994  27.013  24.410  1.00  0.00     0.011 A 
ATOM     26  O   UNL A   1      31.326  25.380  26.876  1.00  0.00    -0.268 OA
ATOM     27  C   UNL A   1      29.555  27.305  23.124  1.00  0.00     0.001 A 
ENDBRANCH   7  12
ENDBRANCH   4   6
ENDBRANCH   3   4
ENDBRANCH   2   3
ENDBRANCH   1   2
BRANCH   1  28
ATOM     28  O   UNL A   1      38.103  21.424  25.400  1.00  0.00    -0.458 OA
BRANCH  28  29
ATOM     29  C   UNL A   1      39.217  21.198  26.125  1.00  0.00     0.338 C 
ATOM     30  O   UNL A   1      39.783  20.138  26.327  1.00  0.00    -0.246 OA
BRANCH  29  31
ATOM     31  C   UNL A   1      39.724  22.473  26.648  1.00  0.00     0.060 A 
ATOM     32  C   UNL A   1      40.802  22.483  27.533  1.00  0.00     0.016 A 
ATOM     33  C   UNL A   1      39.210  23.666  26.133  1.00  0.00     0.016 A 
ATOM     34  C   UNL A   1      41.354  23.707  27.924  1.00  0.00     0.010 A 
ATOM     35  C   UNL A   1      39.797  24.882  26.489  1.00  0.00     0.010 A 
ATOM     36  C   UNL A   1      40.864  24.918  27.399  1.00  0.00    -0.014 A 
BRANCH  36  37
ATOM     37  C   UNL A   1      41.470  26.214  27.807  1.00  0.00     0.031 A 
ATOM     38  C   UNL A   1      42.880  26.556  27.408  1.00  0.00     0.074 A 
ATOM     39  C   UNL A   1      40.753  27.093  28.535  1.00  0.00     0.049 A 
ATOM     40  N   UNL A   1      43.551  27.663  27.611  1.00  0.00    -0.248 NA
ATOM     41  C   UNL A   1      43.643  25.514  26.703  1.00  0.00     0.031 C 
ATOM     42  C   UNL A   1      39.395  26.871  29.030  1.00  0.00     0.029 A 
ATOM     43  N   UNL A   1      41.063  28.360  28.969  1.00  0.00    -0.354 N 
ATOM     44  C   UNL A   1      44.806  27.453  27.054  1.00  0.00     0.074 A 
ATOM     45  C   UNL A   1      44.826  26.093  26.559  1.00  0.00     0.031 C 
ATOM     46  C   UNL A   1      38.967  27.982  29.653  1.00  0.00     0.029 A 
ATOM     47  C   UNL A   1      40.026  28.988  29.618  1.00  0.00     0.049 A 
ATOM     48  H   UNL A   1      41.942  28.778  28.828  1.00  0.00     0.167 HD
ATOM     49  C   UNL A   1      45.836  28.322  26.934  1.00  0.00     0.037 A 
ATOM     50  C   UNL A   1      39.932  30.241  30.106  1.00  0.00     0.037 A 
ATOM     51  C   UNL A   1      45.817  29.682  27.403  1.00  0.00     0.049 A 
ATOM     52  C   UNL A   1      41.094  31.187  29.966  1.00  0.00     0.074 A 
ATOM     53  C   UNL A   1      46.805  30.647  27.292  1.00  0.00     0.029 A 
ATOM     54  N   UNL A   1      44.754  30.273  28.067  1.00  0.00    -0.354 N 
ATOM     55  N   UNL A   1      42.250  30.994  29.381  1.00  0.00    -0.248 NA
ATOM     56  C   UNL A   1      40.933  32.528  30.547  1.00  0.00     0.031 C 
ATOM     57  C   UNL A   1      46.349  31.814  27.913  1.00  0.00     0.029 A 
ATOM     58  C   UNL A   1      45.065  31.586  28.380  1.00  0.00     0.049 A 
ATOM     59  H   UNL A   1      43.905  29.826  28.284  1.00  0.00     0.167 HD
ATOM     60  C   UNL A   1      42.941  32.191  29.500  1.00  0.00     0.074 A 
ATOM     61  C   UNL A   1      42.074  33.111  30.204  1.00  0.00     0.031 C 
ATOM     62  C   UNL A   1      44.187  32.497  29.065  1.00  0.00     0.037 A 
BRANCH  49  63
ATOM     63  C   UNL A   1      47.071  27.843  26.231  1.00  0.00     0.064 A 
ATOM     64  C   UNL A   1      48.177  27.374  26.954  1.00  0.00     0.173 A 
ATOM     65  C   UNL A   1      47.125  27.785  24.831  1.00  0.00     0.173 A 
ATOM     66  F   UNL A   1      48.175  27.417  28.295  1.00  0.00    -0.203 F 
ATOM     67  C   UNL A   1      49.302  26.878  26.300  1.00  0.00     0.198 A 
ATOM     68  C   UNL A   1      48.242  27.266  24.181  1.00  0.00     0.198 A 
ATOM     69  F   UNL A   1      46.090  28.213  24.094  1.00  0.00    -0.203 F 
ATOM     70  F   UNL A   1      50.359  26.464  27.012  1.00  0.00    -0.200 F 
ATOM     71  C   UNL A   1      49.329  26.817  24.916  1.00  0.00     0.200 A 
ATOM     72  F   UNL A   1      48.264  27.192  22.843  1.00  0.00    -0.200 F 
ATOM     73  F   UNL A   1      50.407  26.324  24.289  1.00  0.00    -0.200 F 
ENDBRANCH  49  63
BRANCH  50  74
ATOM     74  C   UNL A   1      38.657  30.702  30.713  1.00  0.00     0.064 A 
ATOM     75  C   UNL A   1      38.492  30.701  32.106  1.00  0.00     0.173 A 
ATOM     76  C   UNL A   1      37.587  31.151  29.928  1.00  0.00     0.173 A 
ATOM     77  F   UNL A   1      39.482  30.259  32.895  1.00  0.00    -0.203 F 
ATOM     78  C   UNL A   1      37.299  31.121  32.689  1.00  0.00     0.198 A 
ATOM     79  C   UNL A   1      36.402  31.591  30.514  1.00  0.00     0.198 A 
ATOM     80  F   UNL A   1      37.697  31.171  28.591  1.00  0.00    -0.203 F 
ATOM     81  F   UNL A   1      37.155  31.077  34.020  1.00  0.00    -0.200 F 
ATOM     82  C   UNL A   1      36.257  31.571  31.893  1.00  0.00     0.200 A 
ATOM     83  F   UNL A   1      35.399  32.034  29.743  1.00  0.00    -0.200 F 
ATOM     84  F   UNL A   1      35.111  31.979  32.455  1.00  0.00    -0.200 F 
ENDBRANCH  50  74
BRANCH  62  85
ATOM     85  C   UNL A   1      44.690  33.889  29.308  1.00  0.00     0.064 A 
ATOM     86  C   UNL A   1      45.448  34.203  30.444  1.00  0.00     0.173 A 
ATOM     87  C   UNL A   1      44.485  34.896  28.352  1.00  0.00     0.173 A 
ATOM     88  F   UNL A   1      45.662  33.276  31.390  1.00  0.00    -0.203 F 
ATOM     89  C   UNL A   1      45.977  35.479  30.620  1.00  0.00     0.198 A 
ATOM     90  C   UNL A   1      45.034  36.164  28.521  1.00  0.00     0.198 A 
ATOM     91  F   UNL A   1      43.773  34.641  27.245  1.00  0.00    -0.203 F 
ATOM     92  F   UNL A   1      46.680  35.765  31.725  1.00  0.00    -0.200 F 
ATOM     93  C   UNL A   1      45.777  36.455  29.655  1.00  0.00     0.200 A 
ATOM     94  F   UNL A   1      44.850  37.103  27.582  1.00  0.00    -0.200 F 
ATOM     95  F   UNL A   1      46.302  37.678  29.818  1.00  0.00    -0.200 F 
ENDBRANCH  62  85
ENDBRANCH  36  37
ENDBRANCH  29  31
ENDBRANCH  28  29
ENDBRANCH   1  28
TORSDOF 12
ENDMDL
MODEL 3
REMARK VINA RESULT:     -13.5      0.252      1.924
REMARK SMILES Cc1nc2ccccc2c2c1C(=O)N(c1cccc(C(=O)OCCOC(=O)c3ccc(-c4c5nc(c(-c6c(F)c(F)c(F)c(F)c6F)c6ccc([nH]6)c(-c6c(F)c(F)c(F)c(F)c6F)c6nc(c(-c7c(F)c(F)c(F)c(F)c7F)c7ccc4[nH]7)C=C6)C=C5)cc3)c1)C2=O
REMARK SMILES IDX 24 1 23 2 22 3 20 4 21 5 19 6 15 7 16 8 91 9 17 10 18 11
REMARK SMILES IDX 14 12 1 13 2 14 3 15 11 16 4 17 10 18 12 19 5 20 9 21 92 22
REMARK SMILES IDX 13 23 6 24 8 25 93 26 7 27 25 28 26 29 27 30 28 31 29 32
REMARK SMILES IDX 90 33 30 34 89 35 31 36 32 37 33 38 83 39 34 40 88 41 82 42
REMARK SMILES IDX 84 43 35 44 87 45 81 46 80 47 36 49 68 50 48 51 67 52 49 53
REMARK SMILES IDX 52 54 66 55 85 56 50 57 51 58 65 60 86 61 53 62 37 63 38 64
REMARK SMILES IDX 46 65 39 66 40 67 44 68 47 69 41 70 42 71 45 72 43 73 69 74
REMARK SMILES IDX 70 75 78 76 71 77 72 78 76 79 79 80 73 81 74 82 77 83 75 84
REMARK SMILES IDX 54 85 55 86 63 87 56 88 57 89 61 90 64 91 58 92 59 93 62 94
REMARK SMILES IDX 60 95
REMARK H PARENT 84 48 52 59
REMARK Flexibility Score: inf
ROOT
ATOM      1  C   UNL A   1      31.440  31.034  26.126  1.00  0.00     0.275 C 
ENDROOT
BRANCH   1   2
ATOM      2  C   UNL A   1      31.077  30.065  25.002  1.00  0.00     0.275 C 
BRANCH   2   3
ATOM      3  O   UNL A   1      31.849  28.850  25.079  1.00  0.00    -0.458 OA
BRANCH   3   4
ATOM      4  C   UNL A   1      31.184  27.694  24.834  1.00  0.00     0.338 C 
ATOM      5  O   UNL A   1      30.125  27.589  24.234  1.00  0.00    -0.246 OA
BRANCH   4   6
ATOM      6  C   UNL A   1      31.933  26.513  25.351  1.00  0.00     0.062 A 
ATOM      7  C   UNL A   1      33.909  25.064  25.390  1.00  0.00     0.053 A 
ATOM      8  C   UNL A   1      33.215  24.174  26.223  1.00  0.00     0.027 A 
ATOM      9  C   UNL A   1      33.272  26.265  25.016  1.00  0.00     0.042 A 
ATOM     10  C   UNL A   1      31.885  24.427  26.580  1.00  0.00     0.003 A 
ATOM     11  C   UNL A   1      31.242  25.580  26.128  1.00  0.00     0.016 A 
BRANCH   7  12
ATOM     12  N   UNL A   1      35.067  24.627  24.664  1.00  0.00    -0.242 N 
ATOM     13  C   UNL A   1      38.345  21.494  25.494  1.00  0.00     0.067 C 
ATOM     14  C   UNL A   1      36.899  21.666  25.147  1.00  0.00     0.052 A 
ATOM     15  N   UNL A   1      36.069  20.618  25.366  1.00  0.00    -0.252 NA
ATOM     16  C   UNL A   1      36.458  22.787  24.479  1.00  0.00     0.075 A 
ATOM     17  C   UNL A   1      34.815  20.664  24.873  1.00  0.00     0.071 A 
ATOM     18  C   UNL A   1      35.340  22.658  23.676  1.00  0.00     0.064 A 
ATOM     19  C   UNL A   1      36.194  24.060  25.225  1.00  0.00     0.268 C 
ATOM     20  C   UNL A   1      33.852  19.801  25.378  1.00  0.00     0.029 A 
ATOM     21  C   UNL A   1      34.417  21.631  23.930  1.00  0.00     0.014 A 
ATOM     22  C   UNL A   1      34.859  24.016  23.463  1.00  0.00     0.266 C 
ATOM     23  O   UNL A   1      36.822  24.397  26.214  1.00  0.00    -0.268 OA
ATOM     24  C   UNL A   1      32.522  19.856  24.957  1.00  0.00     0.002 A 
ATOM     25  C   UNL A   1      33.091  21.646  23.454  1.00  0.00     0.011 A 
ATOM     26  O   UNL A   1      34.401  24.425  22.414  1.00  0.00    -0.268 OA
ATOM     27  C   UNL A   1      32.153  20.756  23.967  1.00  0.00     0.001 A 
ENDBRANCH   7  12
ENDBRANCH   4   6
ENDBRANCH   3   4
ENDBRANCH   2   3
ENDBRANCH   1   2
BRANCH   1  28
ATOM     28  O   UNL A   1      32.840  30.933  26.442  1.00  0.00    -0.458 OA
BRANCH  28  29
ATOM     29  C   UNL A   1      33.321  31.899  27.251  1.00  0.00     0.338 C 
ATOM     30  O   UNL A   1      32.811  32.968  27.537  1.00  0.00    -0.246 OA
BRANCH  29  31
ATOM     31  C   UNL A   1      34.605  31.464  27.817  1.00  0.00     0.060 A 
ATOM     32  C   UNL A   1      35.597  32.403  28.096  1.00  0.00     0.016 A 
ATOM     33  C   UNL A   1      34.755  30.129  28.204  1.00  0.00     0.016 A 
ATOM     34  C   UNL A   1      36.763  31.993  28.748  1.00  0.00     0.010 A 
ATOM     35  C   UNL A   1      35.900  29.735  28.899  1.00  0.00     0.010 A 
ATOM     36  C   UNL A   1      36.923  30.658  29.165  1.00  0.00    -0.014 A 
BRANCH  36  37
ATOM     37  C   UNL A   1      38.160  30.234  29.876  1.00  0.00     0.031 A 
ATOM     38  C   UNL A   1      38.423  30.691  31.285  1.00  0.00     0.074 A 
ATOM     39  C   UNL A   1      39.049  29.432  29.259  1.00  0.00     0.049 A 
ATOM     40  N   UNL A   1      39.408  30.370  32.088  1.00  0.00    -0.248 NA
ATOM     41  C   UNL A   1      37.466  31.646  31.866  1.00  0.00     0.031 C 
ATOM     42  C   UNL A   1      38.943  28.955  27.881  1.00  0.00     0.029 A 
ATOM     43  N   UNL A   1      40.212  28.862  29.721  1.00  0.00    -0.354 N 
ATOM     44  C   UNL A   1      39.185  31.074  33.263  1.00  0.00     0.074 A 
ATOM     45  C   UNL A   1      38.006  31.887  33.051  1.00  0.00     0.031 C 
ATOM     46  C   UNL A   1      39.966  28.122  27.625  1.00  0.00     0.029 A 
ATOM     47  C   UNL A   1      40.810  28.021  28.812  1.00  0.00     0.049 A 
ATOM     48  H   UNL A   1      40.581  29.038  30.616  1.00  0.00     0.167 HD
ATOM     49  C   UNL A   1      39.876  31.024  34.426  1.00  0.00     0.037 A 
ATOM     50  C   UNL A   1      41.901  27.238  28.933  1.00  0.00     0.037 A 
ATOM     51  C   UNL A   1      41.035  30.202  34.654  1.00  0.00     0.049 A 
ATOM     52  C   UNL A   1      42.656  27.204  30.234  1.00  0.00     0.074 A 
ATOM     53  C   UNL A   1      41.778  30.061  35.813  1.00  0.00     0.029 A 
ATOM     54  N   UNL A   1      41.616  29.378  33.704  1.00  0.00    -0.354 N 
ATOM     55  N   UNL A   1      42.395  27.827  31.357  1.00  0.00    -0.248 NA
ATOM     56  C   UNL A   1      43.852  26.352  30.287  1.00  0.00     0.031 C 
ATOM     57  C   UNL A   1      42.825  29.171  35.557  1.00  0.00     0.029 A 
ATOM     58  C   UNL A   1      42.713  28.732  34.248  1.00  0.00     0.049 A 
ATOM     59  H   UNL A   1      41.296  29.267  32.779  1.00  0.00     0.167 HD
ATOM     60  C   UNL A   1      43.376  27.424  32.253  1.00  0.00     0.074 A 
ATOM     61  C   UNL A   1      44.233  26.494  31.549  1.00  0.00     0.031 C 
ATOM     62  C   UNL A   1      43.548  27.795  33.544  1.00  0.00     0.037 A 
BRANCH  49  63
ATOM     63  C   UNL A   1      39.376  31.858  35.568  1.00  0.00     0.064 A 
ATOM     64  C   UNL A   1      38.469  31.337  36.501  1.00  0.00     0.173 A 
ATOM     65  C   UNL A   1      39.858  33.159  35.772  1.00  0.00     0.173 A 
ATOM     66  F   UNL A   1      37.974  30.099  36.343  1.00  0.00    -0.203 F 
ATOM     67  C   UNL A   1      38.048  32.093  37.591  1.00  0.00     0.198 A 
ATOM     68  C   UNL A   1      39.453  33.905  36.876  1.00  0.00     0.198 A 
ATOM     69  F   UNL A   1      40.733  33.700  34.913  1.00  0.00    -0.203 F 
ATOM     70  F   UNL A   1      37.157  31.585  38.453  1.00  0.00    -0.200 F 
ATOM     71  C   UNL A   1      38.547  33.373  37.782  1.00  0.00     0.200 A 
ATOM     72  F   UNL A   1      39.946  35.136  37.070  1.00  0.00    -0.200 F 
ATOM     73  F   UNL A   1      38.152  34.094  38.840  1.00  0.00    -0.200 F 
ENDBRANCH  49  63
BRANCH  50  74
ATOM     74  C   UNL A   1      42.307  26.359  27.807  1.00  0.00     0.064 A 
ATOM     75  C   UNL A   1      43.317  26.761  26.920  1.00  0.00     0.173 A 
ATOM     76  C   UNL A   1      41.705  25.113  27.591  1.00  0.00     0.173 A 
ATOM     77  F   UNL A   1      43.905  27.956  27.075  1.00  0.00    -0.203 F 
ATOM     78  C   UNL A   1      43.701  25.952  25.853  1.00  0.00     0.198 A 
ATOM     79  C   UNL A   1      42.105  24.295  26.536  1.00  0.00     0.198 A 
ATOM     80  F   UNL A   1      40.735  24.684  28.412  1.00  0.00    -0.203 F 
ATOM     81  F   UNL A   1      44.644  26.376  25.001  1.00  0.00    -0.200 F 
ATOM     82  C   UNL A   1      43.099  24.718  25.666  1.00  0.00     0.200 A 
ATOM     83  F   UNL A   1      41.528  23.099  26.361  1.00  0.00    -0.200 F 
ATOM     84  F   UNL A   1      43.472  23.938  24.641  1.00  0.00    -0.200 F 
ENDBRANCH  50  74
BRANCH  62  85
ATOM     85  C   UNL A   1      44.689  27.183  34.301  1.00  0.00     0.064 A 
ATOM     86  C   UNL A   1      44.550  25.954  34.962  1.00  0.00     0.173 A 
ATOM     87  C   UNL A   1      45.955  27.789  34.293  1.00  0.00     0.173 A 
ATOM     88  F   UNL A   1      43.357  25.343  35.005  1.00  0.00    -0.203 F 
ATOM     89  C   UNL A   1      45.637  25.357  35.594  1.00  0.00     0.198 A 
ATOM     90  C   UNL A   1      47.044  27.178  34.908  1.00  0.00     0.198 A 
ATOM     91  F   UNL A   1      46.139  28.961  33.668  1.00  0.00    -0.203 F 
ATOM     92  F   UNL A   1      45.477  24.193  36.240  1.00  0.00    -0.200 F 
ATOM     93  C   UNL A   1      46.884  25.964  35.560  1.00  0.00     0.200 A 
ATOM     94  F   UNL A   1      48.250  27.759  34.863  1.00  0.00    -0.200 F 
ATOM     95  F   UNL A   1      47.933  25.378  36.154  1.00  0.00    -0.200 F 
ENDBRANCH  62  85
ENDBRANCH  36  37
ENDBRANCH  29  31
ENDBRANCH  28  29
ENDBRANCH   1  28
TORSDOF 12
ENDMDL
