MODEL 1
REMARK VINA RESULT:     -13.3      0.000      0.000
REMARK SMILES O=C(OCCOC(=O)c1ccccc1OCC[S@](=O)c1cccc(F)c1)c1ccc(-c2c3nc(c(-c4c(F)c(F)c(F)c(F)c4F)c4ccc([nH]4)c(-c4c(F)c(F)c(F)c(F)c4F)c4nc(c(-c5c(F)c(F)c(F)c(F)c5F)c5ccc2[nH]5)C=C4)C=C3)cc1
REMARK SMILES IDX 6 1 5 2 4 3 3 4 2 5 1 6 27 7 28 8 89 9 29 10 88 11 30 12
REMARK SMILES IDX 31 13 32 14 82 15 33 16 87 17 81 18 83 19 34 20 86 21 80 22
REMARK SMILES IDX 79 23 35 25 67 26 47 27 66 28 48 29 51 30 65 31 84 32 49 33
REMARK SMILES IDX 50 34 64 36 85 37 52 38 36 39 37 40 45 41 38 42 39 43 43 44
REMARK SMILES IDX 46 45 40 46 41 47 44 48 42 49 68 50 69 51 77 52 70 53 71 54
REMARK SMILES IDX 75 55 78 56 72 57 73 58 76 59 74 60 53 61 54 62 62 63 55 64
REMARK SMILES IDX 56 65 60 66 63 67 57 68 58 69 61 70 59 71 7 72 8 73 9 74
REMARK SMILES IDX 10 75 14 76 11 77 13 78 12 79 15 80 16 81 17 82 18 83 19 84
REMARK SMILES IDX 20 85 21 86 26 87 22 88 24 89 23 90 25 91
REMARK H PARENT 83 24 51 35
REMARK Flexibility Score: inf
ROOT
ATOM      1  O   UNL A   1      30.742  26.807  26.285  1.00  0.00    -0.458 OA
ENDROOT
BRANCH   1   2
ATOM      2  C   UNL A   1      31.677  27.877  26.493  1.00  0.00     0.275 C 
BRANCH   2   3
ATOM      3  C   UNL A   1      31.493  29.029  25.479  1.00  0.00     0.275 C 
BRANCH   3   4
ATOM      4  O   UNL A   1      32.501  30.074  25.595  1.00  0.00    -0.458 OA
BRANCH   4   5
ATOM      5  C   UNL A   1      32.716  30.909  26.658  1.00  0.00     0.338 C 
ATOM      6  O   UNL A   1      31.903  31.771  26.973  1.00  0.00    -0.246 OA
BRANCH   5   7
ATOM      7  C   UNL A   1      34.044  30.964  27.310  1.00  0.00     0.060 A 
ATOM      8  C   UNL A   1      34.746  29.435  27.790  1.00  0.00     0.016 A 
ATOM      9  C   UNL A   1      34.886  32.464  27.795  1.00  0.00     0.016 A 
ATOM     10  C   UNL A   1      36.261  29.315  28.821  1.00  0.00     0.010 A 
ATOM     11  C   UNL A   1      36.443  32.386  28.699  1.00  0.00     0.010 A 
ATOM     12  C   UNL A   1      37.160  30.820  29.279  1.00  0.00    -0.014 A 
BRANCH  12  13
ATOM     13  C   UNL A   1      38.507  30.696  29.939  1.00  0.00     0.031 A 
ATOM     14  C   UNL A   1      39.409  29.638  29.405  1.00  0.00     0.074 A 
ATOM     15  C   UNL A   1      38.827  31.329  31.099  1.00  0.00     0.049 A 
ATOM     16  N   UNL A   1      40.237  28.859  30.036  1.00  0.00    -0.248 NA
ATOM     17  C   UNL A   1      39.327  29.376  27.958  1.00  0.00     0.031 C 
ATOM     18  C   UNL A   1      38.257  32.550  31.669  1.00  0.00     0.029 A 
ATOM     19  N   UNL A   1      39.631  30.907  32.133  1.00  0.00    -0.354 N 
ATOM     20  C   UNL A   1      40.706  27.994  29.063  1.00  0.00     0.074 A 
ATOM     21  C   UNL A   1      39.907  28.190  27.881  1.00  0.00     0.031 C 
ATOM     22  C   UNL A   1      38.418  32.587  32.996  1.00  0.00     0.029 A 
ATOM     23  C   UNL A   1      39.320  31.515  33.342  1.00  0.00     0.049 A 
ATOM     24  H   UNL A   1      40.350  30.242  32.027  1.00  0.00     0.167 HD
ATOM     25  C   UNL A   1      41.818  27.232  29.106  1.00  0.00     0.037 A 
ATOM     26  C   UNL A   1      39.770  31.297  34.589  1.00  0.00     0.037 A 
ATOM     27  C   UNL A   1      42.696  27.249  30.237  1.00  0.00     0.049 A 
ATOM     28  C   UNL A   1      40.951  30.389  34.670  1.00  0.00     0.074 A 
ATOM     29  C   UNL A   1      43.932  26.657  30.382  1.00  0.00     0.029 A 
ATOM     30  N   UNL A   1      42.433  27.945  31.412  1.00  0.00    -0.354 N 
ATOM     31  N   UNL A   1      41.448  29.627  33.727  1.00  0.00    -0.248 NA
ATOM     32  C   UNL A   1      41.716  30.404  35.917  1.00  0.00     0.031 C 
ATOM     33  C   UNL A   1      44.384  26.936  31.675  1.00  0.00     0.029 A 
ATOM     34  C   UNL A   1      43.461  27.756  32.311  1.00  0.00     0.049 A 
ATOM     35  H   UNL A   1      41.631  28.493  31.577  1.00  0.00     0.167 HD
ATOM     36  C   UNL A   1      42.629  29.129  34.231  1.00  0.00     0.074 A 
ATOM     37  C   UNL A   1      42.768  29.678  35.570  1.00  0.00     0.031 C 
ATOM     38  C   UNL A   1      43.530  28.312  33.637  1.00  0.00     0.037 A 
BRANCH  25  39
ATOM     39  C   UNL A   1      42.161  26.427  27.891  1.00  0.00     0.064 A 
ATOM     40  C   UNL A   1      41.646  25.136  27.675  1.00  0.00     0.173 A 
ATOM     41  C   UNL A   1      43.038  26.947  26.931  1.00  0.00     0.173 A 
ATOM     42  F   UNL A   1      40.821  24.576  28.574  1.00  0.00    -0.203 F 
ATOM     43  C   UNL A   1      42.030  24.384  26.569  1.00  0.00     0.198 A 
ATOM     44  C   UNL A   1      43.388  26.209  25.804  1.00  0.00     0.198 A 
ATOM     45  F   UNL A   1      43.567  28.170  27.092  1.00  0.00    -0.203 F 
ATOM     46  F   UNL A   1      41.587  23.127  26.430  1.00  0.00    -0.200 F 
ATOM     47  C   UNL A   1      42.893  24.925  25.630  1.00  0.00     0.200 A 
ATOM     48  F   UNL A   1      44.218  26.735  24.893  1.00  0.00    -0.200 F 
ATOM     49  F   UNL A   1      43.256  24.204  24.560  1.00  0.00    -0.200 F 
ENDBRANCH  25  39
BRANCH  26  50
ATOM     50  C   UNL A   1      39.260  32.063  35.761  1.00  0.00     0.064 A 
ATOM     51  C   UNL A   1      39.697  33.369  36.030  1.00  0.00     0.173 A 
ATOM     52  C   UNL A   1      38.326  31.505  36.647  1.00  0.00     0.173 A 
ATOM     53  F   UNL A   1      40.561  33.969  35.198  1.00  0.00    -0.203 F 
ATOM     54  C   UNL A   1      39.283  34.055  37.173  1.00  0.00     0.198 A 
ATOM     55  C   UNL A   1      37.894  32.200  37.779  1.00  0.00     0.198 A 
ATOM     56  F   UNL A   1      37.829  30.281  36.417  1.00  0.00    -0.203 F 
ATOM     57  F   UNL A   1      39.769  35.277  37.432  1.00  0.00    -0.200 F 
ATOM     58  C   UNL A   1      38.388  33.465  38.053  1.00  0.00     0.200 A 
ATOM     59  F   UNL A   1      37.005  31.640  38.612  1.00  0.00    -0.200 F 
ATOM     60  F   UNL A   1      38.008  34.116  39.162  1.00  0.00    -0.200 F 
ENDBRANCH  26  50
BRANCH  38  61
ATOM     61  C   UNL A   1      44.723  27.967  34.456  1.00  0.00     0.064 A 
ATOM     62  C   UNL A   1      44.731  26.825  35.268  1.00  0.00     0.173 A 
ATOM     63  C   UNL A   1      45.874  28.761  34.395  1.00  0.00     0.173 A 
ATOM     64  F   UNL A   1      43.633  26.060  35.370  1.00  0.00    -0.203 F 
ATOM     65  C   UNL A   1      45.850  26.505  36.018  1.00  0.00     0.198 A 
ATOM     66  C   UNL A   1      47.010  28.407  35.107  1.00  0.00     0.198 A 
ATOM     67  F   UNL A   1      45.902  29.863  33.629  1.00  0.00    -0.203 F 
ATOM     68  F   UNL A   1      45.818  25.450  36.843  1.00  0.00    -0.200 F 
ATOM     69  C   UNL A   1      46.994  27.286  35.925  1.00  0.00     0.200 A 
ATOM     70  F   UNL A   1      48.122  29.147  34.999  1.00  0.00    -0.200 F 
ATOM     71  F   UNL A   1      48.082  26.961  36.633  1.00  0.00    -0.200 F 
ENDBRANCH  38  61
ENDBRANCH  12  13
ENDBRANCH   5   7
ENDBRANCH   4   5
ENDBRANCH   3   4
ENDBRANCH   2   3
ENDBRANCH   1   2
BRANCH   1  72
ATOM     72  C   UNL A   1      31.229  25.565  26.104  1.00  0.00     0.342 C 
ATOM     73  O   UNL A   1      31.019  24.618  26.842  1.00  0.00    -0.246 OA
BRANCH  72  74
ATOM     74  C   UNL A   1      31.843  25.441  24.739  1.00  0.00     0.102 A 
ATOM     75  C   UNL A   1      30.952  25.857  23.706  1.00  0.00     0.019 A 
ATOM     76  C   UNL A   1      33.207  25.257  24.406  1.00  0.00     0.133 A 
ATOM     77  C   UNL A   1      31.342  25.924  22.368  1.00  0.00     0.001 A 
ATOM     78  C   UNL A   1      33.518  25.124  23.027  1.00  0.00     0.047 A 
ATOM     79  C   UNL A   1      32.599  25.464  22.020  1.00  0.00     0.004 A 
BRANCH  76  80
ATOM     80  O   UNL A   1      34.366  25.424  25.152  1.00  0.00    -0.492 OA
BRANCH  80  81
ATOM     81  C   UNL A   1      35.501  24.545  25.469  1.00  0.00     0.243 C 
BRANCH  81  82
ATOM     82  C   UNL A   1      36.170  23.186  24.778  1.00  0.00     0.152 C 
BRANCH  82  83
ATOM     83  S   UNL A   1      36.388  21.147  25.415  1.00  0.00     0.056 S 
ATOM     84  O   UNL A   1      37.816  20.761  25.126  1.00  0.00    -0.254 OA
BRANCH  83  85
ATOM     85  C   UNL A   1      34.449  19.609  24.643  1.00  0.00     0.042 A 
ATOM     86  C   UNL A   1      33.047  19.891  24.170  1.00  0.00     0.018 A 
ATOM     87  C   UNL A   1      34.544  18.080  24.295  1.00  0.00     0.057 A 
ATOM     88  C   UNL A   1      32.248  19.057  23.302  1.00  0.00     0.004 A 
ATOM     89  C   UNL A   1      33.764  17.291  23.442  1.00  0.00     0.124 A 
ATOM     90  C   UNL A   1      32.648  17.803  22.870  1.00  0.00     0.039 A 
ATOM     91  F   UNL A   1      34.156  16.034  23.183  1.00  0.00    -0.207 F 
ENDBRANCH  83  85
ENDBRANCH  82  83
ENDBRANCH  81  82
ENDBRANCH  80  81
ENDBRANCH  76  80
ENDBRANCH  72  74
ENDBRANCH   1  72
TORSDOF 16
ENDMDL
MODEL 2
REMARK VINA RESULT:     -13.2      9.949     14.668
REMARK SMILES O=C(OCCOC(=O)c1ccccc1OCC[S@](=O)c1cccc(F)c1)c1ccc(-c2c3nc(c(-c4c(F)c(F)c(F)c(F)c4F)c4ccc([nH]4)c(-c4c(F)c(F)c(F)c(F)c4F)c4nc(c(-c5c(F)c(F)c(F)c(F)c5F)c5ccc2[nH]5)C=C4)C=C3)cc1
REMARK SMILES IDX 6 1 5 2 4 3 3 4 2 5 1 6 27 7 28 8 89 9 29 10 88 11 30 12
REMARK SMILES IDX 31 13 32 14 82 15 33 16 87 17 81 18 83 19 34 20 86 21 80 22
REMARK SMILES IDX 79 23 35 25 67 26 47 27 66 28 48 29 51 30 65 31 84 32 49 33
REMARK SMILES IDX 50 34 64 36 85 37 52 38 36 39 37 40 45 41 38 42 39 43 43 44
REMARK SMILES IDX 46 45 40 46 41 47 44 48 42 49 68 50 69 51 77 52 70 53 71 54
REMARK SMILES IDX 75 55 78 56 72 57 73 58 76 59 74 60 53 61 54 62 62 63 55 64
REMARK SMILES IDX 56 65 60 66 63 67 57 68 58 69 61 70 59 71 7 72 8 73 9 74
REMARK SMILES IDX 10 75 14 76 11 77 13 78 12 79 15 80 16 81 17 82 18 83 19 84
REMARK SMILES IDX 20 85 21 86 26 87 22 88 24 89 23 90 25 91
REMARK H PARENT 83 24 51 35
REMARK Flexibility Score: inf
ROOT
ATOM      1  O   UNL A   1      43.827  40.885  25.454  1.00  0.00    -0.458 OA
ENDROOT
BRANCH   1   2
ATOM      2  C   UNL A   1      42.964  40.330  26.459  1.00  0.00     0.275 C 
BRANCH   2   3
ATOM      3  C   UNL A   1      43.335  38.874  26.819  1.00  0.00     0.275 C 
BRANCH   3   4
ATOM      4  O   UNL A   1      44.498  38.767  27.689  1.00  0.00    -0.458 OA
BRANCH   4   5
ATOM      5  C   UNL A   1      45.477  37.812  27.656  1.00  0.00     0.338 C 
ATOM      6  O   UNL A   1      46.641  38.091  27.389  1.00  0.00    -0.246 OA
BRANCH   5   7
ATOM      7  C   UNL A   1      45.121  36.375  27.698  1.00  0.00     0.060 A 
ATOM      8  C   UNL A   1      45.622  35.484  29.119  1.00  0.00     0.016 A 
ATOM      9  C   UNL A   1      44.390  35.461  26.348  1.00  0.00     0.016 A 
ATOM     10  C   UNL A   1      45.488  33.657  29.247  1.00  0.00     0.010 A 
ATOM     11  C   UNL A   1      44.125  33.683  26.486  1.00  0.00     0.010 A 
ATOM     12  C   UNL A   1      44.701  32.717  27.914  1.00  0.00    -0.014 A 
BRANCH  12  13
ATOM     13  C   UNL A   1      44.408  31.255  28.123  1.00  0.00     0.031 A 
ATOM     14  C   UNL A   1      45.154  30.301  27.257  1.00  0.00     0.074 A 
ATOM     15  C   UNL A   1      43.369  30.806  28.876  1.00  0.00     0.049 A 
ATOM     16  N   UNL A   1      44.756  29.189  26.714  1.00  0.00    -0.248 NA
ATOM     17  C   UNL A   1      46.532  30.681  26.900  1.00  0.00     0.031 C 
ATOM     18  C   UNL A   1      42.672  31.475  29.976  1.00  0.00     0.029 A 
ATOM     19  N   UNL A   1      42.575  29.697  28.699  1.00  0.00    -0.354 N 
ATOM     20  C   UNL A   1      45.816  28.795  25.916  1.00  0.00     0.074 A 
ATOM     21  C   UNL A   1      46.755  29.887  25.865  1.00  0.00     0.031 C 
ATOM     22  C   UNL A   1      41.430  31.001  30.123  1.00  0.00     0.029 A 
ATOM     23  C   UNL A   1      41.327  29.824  29.294  1.00  0.00     0.049 A 
ATOM     24  H   UNL A   1      42.860  28.897  28.201  1.00  0.00     0.167 HD
ATOM     25  C   UNL A   1      46.058  27.566  25.418  1.00  0.00     0.037 A 
ATOM     26  C   UNL A   1      40.236  29.041  29.252  1.00  0.00     0.037 A 
ATOM     27  C   UNL A   1      45.190  26.460  25.690  1.00  0.00     0.049 A 
ATOM     28  C   UNL A   1      40.459  27.704  28.628  1.00  0.00     0.074 A 
ATOM     29  C   UNL A   1      45.366  25.127  25.389  1.00  0.00     0.029 A 
ATOM     30  N   UNL A   1      43.987  26.572  26.379  1.00  0.00    -0.354 N 
ATOM     31  N   UNL A   1      41.498  27.300  27.938  1.00  0.00    -0.248 NA
ATOM     32  C   UNL A   1      39.450  26.676  28.880  1.00  0.00     0.031 C 
ATOM     33  C   UNL A   1      44.232  24.442  25.834  1.00  0.00     0.029 A 
ATOM     34  C   UNL A   1      43.381  25.337  26.470  1.00  0.00     0.049 A 
ATOM     35  H   UNL A   1      43.623  27.409  26.749  1.00  0.00     0.167 HD
ATOM     36  C   UNL A   1      41.313  25.950  27.738  1.00  0.00     0.074 A 
ATOM     37  C   UNL A   1      40.055  25.608  28.381  1.00  0.00     0.031 C 
ATOM     38  C   UNL A   1      42.117  25.066  27.103  1.00  0.00     0.037 A 
BRANCH  25  39
ATOM     39  C   UNL A   1      47.321  27.365  24.637  1.00  0.00     0.064 A 
ATOM     40  C   UNL A   1      47.452  27.783  23.301  1.00  0.00     0.173 A 
ATOM     41  C   UNL A   1      48.416  26.725  25.230  1.00  0.00     0.173 A 
ATOM     42  F   UNL A   1      46.427  28.380  22.672  1.00  0.00    -0.203 F 
ATOM     43  C   UNL A   1      48.613  27.528  22.578  1.00  0.00     0.198 A 
ATOM     44  C   UNL A   1      49.592  26.508  24.517  1.00  0.00     0.198 A 
ATOM     45  F   UNL A   1      48.342  26.297  26.499  1.00  0.00    -0.203 F 
ATOM     46  F   UNL A   1      48.682  27.865  21.282  1.00  0.00    -0.200 F 
ATOM     47  C   UNL A   1      49.686  26.900  23.190  1.00  0.00     0.200 A 
ATOM     48  F   UNL A   1      50.631  25.906  25.112  1.00  0.00    -0.200 F 
ATOM     49  F   UNL A   1      50.808  26.661  22.497  1.00  0.00    -0.200 F 
ENDBRANCH  25  39
BRANCH  26  50
ATOM     50  C   UNL A   1      38.973  29.401  29.956  1.00  0.00     0.064 A 
ATOM     51  C   UNL A   1      37.988  30.187  29.339  1.00  0.00     0.173 A 
ATOM     52  C   UNL A   1      38.723  28.974  31.269  1.00  0.00     0.173 A 
ATOM     53  F   UNL A   1      38.154  30.594  28.073  1.00  0.00    -0.203 F 
ATOM     54  C   UNL A   1      36.844  30.594  30.029  1.00  0.00     0.198 A 
ATOM     55  C   UNL A   1      37.567  29.363  31.952  1.00  0.00     0.198 A 
ATOM     56  F   UNL A   1      39.601  28.178  31.896  1.00  0.00    -0.203 F 
ATOM     57  F   UNL A   1      35.954  31.397  29.429  1.00  0.00    -0.200 F 
ATOM     58  C   UNL A   1      36.639  30.190  31.338  1.00  0.00     0.200 A 
ATOM     59  F   UNL A   1      37.357  28.945  33.208  1.00  0.00    -0.200 F 
ATOM     60  F   UNL A   1      35.552  30.599  32.006  1.00  0.00    -0.200 F 
ENDBRANCH  26  50
BRANCH  38  61
ATOM     61  C   UNL A   1      41.631  23.661  27.073  1.00  0.00     0.064 A 
ATOM     62  C   UNL A   1      40.496  23.309  26.330  1.00  0.00     0.173 A 
ATOM     63  C   UNL A   1      42.328  22.658  27.758  1.00  0.00     0.173 A 
ATOM     64  F   UNL A   1      39.791  24.252  25.686  1.00  0.00    -0.203 F 
ATOM     65  C   UNL A   1      40.057  21.996  26.298  1.00  0.00     0.198 A 
ATOM     66  C   UNL A   1      41.915  21.336  27.680  1.00  0.00     0.198 A 
ATOM     67  F   UNL A   1      43.418  22.959  28.481  1.00  0.00    -0.203 F 
ATOM     68  F   UNL A   1      38.931  21.687  25.641  1.00  0.00    -0.200 F 
ATOM     69  C   UNL A   1      40.775  21.008  26.959  1.00  0.00     0.200 A 
ATOM     70  F   UNL A   1      42.621  20.380  28.298  1.00  0.00    -0.200 F 
ATOM     71  F   UNL A   1      40.362  19.736  26.907  1.00  0.00    -0.200 F 
ENDBRANCH  38  61
ENDBRANCH  12  13
ENDBRANCH   5   7
ENDBRANCH   4   5
ENDBRANCH   3   4
ENDBRANCH   2   3
ENDBRANCH   1   2
BRANCH   1  72
ATOM     72  C   UNL A   1      43.831  42.222  25.290  1.00  0.00     0.342 C 
ATOM     73  O   UNL A   1      44.272  43.023  26.095  1.00  0.00    -0.246 OA
BRANCH  72  74
ATOM     74  C   UNL A   1      43.465  42.573  23.876  1.00  0.00     0.102 A 
ATOM     75  C   UNL A   1      42.096  42.297  23.587  1.00  0.00     0.019 A 
ATOM     76  C   UNL A   1      44.192  43.368  22.956  1.00  0.00     0.133 A 
ATOM     77  C   UNL A   1      41.509  42.637  22.369  1.00  0.00     0.001 A 
ATOM     78  C   UNL A   1      43.640  43.508  21.655  1.00  0.00     0.047 A 
ATOM     79  C   UNL A   1      42.310  43.156  21.368  1.00  0.00     0.004 A 
BRANCH  76  80
ATOM     80  O   UNL A   1      45.239  44.259  23.138  1.00  0.00    -0.492 OA
BRANCH  80  81
ATOM     81  C   UNL A   1      45.644  45.499  22.458  1.00  0.00     0.243 C 
BRANCH  81  82
ATOM     82  C   UNL A   1      46.578  45.863  21.128  1.00  0.00     0.152 C 
BRANCH  82  83
ATOM     83  S   UNL A   1      46.295  45.650  19.010  1.00  0.00     0.056 S 
ATOM     84  O   UNL A   1      47.588  46.075  18.363  1.00  0.00    -0.254 OA
BRANCH  83  85
ATOM     85  C   UNL A   1      44.045  46.622  18.164  1.00  0.00     0.042 A 
ATOM     86  C   UNL A   1      43.491  48.022  18.113  1.00  0.00     0.018 A 
ATOM     87  C   UNL A   1      42.967  45.879  17.297  1.00  0.00     0.057 A 
ATOM     88  C   UNL A   1      42.495  48.520  17.192  1.00  0.00     0.004 A 
ATOM     89  C   UNL A   1      42.015  46.380  16.401  1.00  0.00     0.124 A 
ATOM     90  C   UNL A   1      41.830  47.717  16.282  1.00  0.00     0.039 A 
ATOM     91  F   UNL A   1      41.315  45.517  15.650  1.00  0.00    -0.207 F 
ENDBRANCH  83  85
ENDBRANCH  82  83
ENDBRANCH  81  82
ENDBRANCH  80  81
ENDBRANCH  76  80
ENDBRANCH  72  74
ENDBRANCH   1  72
TORSDOF 16
ENDMDL
MODEL 3
REMARK VINA RESULT:     -13.1      3.202      8.466
REMARK SMILES O=C(OCCOC(=O)c1ccccc1OCC[S@](=O)c1cccc(F)c1)c1ccc(-c2c3nc(c(-c4c(F)c(F)c(F)c(F)c4F)c4ccc([nH]4)c(-c4c(F)c(F)c(F)c(F)c4F)c4nc(c(-c5c(F)c(F)c(F)c(F)c5F)c5ccc2[nH]5)C=C4)C=C3)cc1
REMARK SMILES IDX 6 1 5 2 4 3 3 4 2 5 1 6 27 7 28 8 89 9 29 10 88 11 30 12
REMARK SMILES IDX 31 13 32 14 82 15 33 16 87 17 81 18 83 19 34 20 86 21 80 22
REMARK SMILES IDX 79 23 35 25 67 26 47 27 66 28 48 29 51 30 65 31 84 32 49 33
REMARK SMILES IDX 50 34 64 36 85 37 52 38 36 39 37 40 45 41 38 42 39 43 43 44
REMARK SMILES IDX 46 45 40 46 41 47 44 48 42 49 68 50 69 51 77 52 70 53 71 54
REMARK SMILES IDX 75 55 78 56 72 57 73 58 76 59 74 60 53 61 54 62 62 63 55 64
REMARK SMILES IDX 56 65 60 66 63 67 57 68 58 69 61 70 59 71 7 72 8 73 9 74
REMARK SMILES IDX 10 75 14 76 11 77 13 78 12 79 15 80 16 81 17 82 18 83 19 84
REMARK SMILES IDX 20 85 21 86 26 87 22 88 24 89 23 90 25 91
REMARK H PARENT 83 24 51 35
REMARK Flexibility Score: inf
ROOT
ATOM      1  O   UNL A   1      36.866  21.315  25.777  1.00  0.00    -0.458 OA
ENDROOT
BRANCH   1   2
ATOM      2  C   UNL A   1      38.134  21.826  25.337  1.00  0.00     0.275 C 
BRANCH   2   3
ATOM      3  C   UNL A   1      39.327  21.064  25.958  1.00  0.00     0.275 C 
BRANCH   3   4
ATOM      4  O   UNL A   1      40.614  21.424  25.378  1.00  0.00    -0.458 OA
BRANCH   4   5
ATOM      5  C   UNL A   1      41.763  21.756  26.044  1.00  0.00     0.338 C 
ATOM      6  O   UNL A   1      42.634  20.925  26.277  1.00  0.00    -0.246 OA
BRANCH   5   7
ATOM      7  C   UNL A   1      41.883  23.068  26.720  1.00  0.00     0.060 A 
ATOM      8  C   UNL A   1      40.625  23.479  27.864  1.00  0.00     0.016 A 
ATOM      9  C   UNL A   1      43.101  24.315  26.326  1.00  0.00     0.016 A 
ATOM     10  C   UNL A   1      40.470  25.147  28.617  1.00  0.00     0.010 A 
ATOM     11  C   UNL A   1      43.057  25.923  27.139  1.00  0.00     0.010 A 
ATOM     12  C   UNL A   1      41.723  26.409  28.273  1.00  0.00    -0.014 A 
BRANCH  12  13
ATOM     13  C   UNL A   1      41.701  27.695  29.057  1.00  0.00     0.031 A 
ATOM     14  C   UNL A   1      42.511  27.720  30.306  1.00  0.00     0.074 A 
ATOM     15  C   UNL A   1      40.829  28.706  28.802  1.00  0.00     0.049 A 
ATOM     16  N   UNL A   1      42.256  28.287  31.448  1.00  0.00    -0.248 NA
ATOM     17  C   UNL A   1      43.765  26.947  30.289  1.00  0.00     0.031 C 
ATOM     18  C   UNL A   1      40.138  29.033  27.553  1.00  0.00     0.029 A 
ATOM     19  N   UNL A   1      40.220  29.577  29.675  1.00  0.00    -0.354 N 
ATOM     20  C   UNL A   1      43.286  27.875  32.275  1.00  0.00     0.074 A 
ATOM     21  C   UNL A   1      44.018  26.845  31.583  1.00  0.00     0.031 C 
ATOM     22  C   UNL A   1      39.013  29.717  27.787  1.00  0.00     0.029 A 
ATOM     23  C   UNL A   1      39.031  30.096  29.180  1.00  0.00     0.049 A 
ATOM     24  H   UNL A   1      40.587  29.808  30.559  1.00  0.00     0.167 HD
ATOM     25  C   UNL A   1      43.684  28.435  33.435  1.00  0.00     0.037 A 
ATOM     26  C   UNL A   1      38.089  30.864  29.752  1.00  0.00     0.037 A 
ATOM     27  C   UNL A   1      43.044  29.603  33.964  1.00  0.00     0.049 A 
ATOM     28  C   UNL A   1      38.473  31.430  31.077  1.00  0.00     0.074 A 
ATOM     29  C   UNL A   1      43.412  30.379  35.041  1.00  0.00     0.029 A 
ATOM     30  N   UNL A   1      41.911  30.185  33.405  1.00  0.00    -0.354 N 
ATOM     31  N   UNL A   1      39.495  31.099  31.829  1.00  0.00    -0.248 NA
ATOM     32  C   UNL A   1      37.680  32.553  31.576  1.00  0.00     0.031 C 
ATOM     33  C   UNL A   1      42.458  31.392  35.177  1.00  0.00     0.029 A 
ATOM     34  C   UNL A   1      41.533  31.284  34.146  1.00  0.00     0.049 A 
ATOM     35  H   UNL A   1      41.448  29.860  32.598  1.00  0.00     0.167 HD
ATOM     36  C   UNL A   1      39.521  32.021  32.852  1.00  0.00     0.074 A 
ATOM     37  C   UNL A   1      38.406  32.923  32.621  1.00  0.00     0.031 C 
ATOM     38  C   UNL A   1      40.399  32.128  33.877  1.00  0.00     0.037 A 
BRANCH  25  39
ATOM     39  C   UNL A   1      44.882  27.852  34.119  1.00  0.00     0.064 A 
ATOM     40  C   UNL A   1      44.776  26.817  35.065  1.00  0.00     0.173 A 
ATOM     41  C   UNL A   1      46.160  28.350  33.838  1.00  0.00     0.173 A 
ATOM     42  F   UNL A   1      43.574  26.317  35.393  1.00  0.00    -0.203 F 
ATOM     43  C   UNL A   1      45.898  26.336  35.733  1.00  0.00     0.198 A 
ATOM     44  C   UNL A   1      47.286  27.837  34.477  1.00  0.00     0.198 A 
ATOM     45  F   UNL A   1      46.317  29.344  32.951  1.00  0.00    -0.203 F 
ATOM     46  F   UNL A   1      45.760  25.405  36.688  1.00  0.00    -0.200 F 
ATOM     47  C   UNL A   1      47.153  26.839  35.430  1.00  0.00     0.200 A 
ATOM     48  F   UNL A   1      48.499  28.321  34.180  1.00  0.00    -0.200 F 
ATOM     49  F   UNL A   1      48.235  26.370  36.067  1.00  0.00    -0.200 F 
ENDBRANCH  25  39
BRANCH  26  50
ATOM     50  C   UNL A   1      36.856  31.280  29.025  1.00  0.00     0.064 A 
ATOM     51  C   UNL A   1      36.694  32.587  28.542  1.00  0.00     0.173 A 
ATOM     52  C   UNL A   1      35.803  30.379  28.800  1.00  0.00     0.173 A 
ATOM     53  F   UNL A   1      37.681  33.482  28.695  1.00  0.00    -0.203 F 
ATOM     54  C   UNL A   1      35.506  32.998  27.936  1.00  0.00     0.198 A 
ATOM     55  C   UNL A   1      34.622  30.785  28.173  1.00  0.00     0.198 A 
ATOM     56  F   UNL A   1      35.917  29.102  29.190  1.00  0.00    -0.203 F 
ATOM     57  F   UNL A   1      35.362  34.272  27.543  1.00  0.00    -0.200 F 
ATOM     58  C   UNL A   1      34.466  32.099  27.760  1.00  0.00     0.200 A 
ATOM     59  F   UNL A   1      33.630  29.905  27.976  1.00  0.00    -0.200 F 
ATOM     60  F   UNL A   1      33.317  32.500  27.198  1.00  0.00    -0.200 F 
ENDBRANCH  26  50
BRANCH  38  61
ATOM     61  C   UNL A   1      40.155  33.256  34.816  1.00  0.00     0.064 A 
ATOM     62  C   UNL A   1      40.705  34.522  34.576  1.00  0.00     0.173 A 
ATOM     63  C   UNL A   1      39.337  33.076  35.938  1.00  0.00     0.173 A 
ATOM     64  F   UNL A   1      41.517  34.719  33.525  1.00  0.00    -0.203 F 
ATOM     65  C   UNL A   1      40.464  35.570  35.449  1.00  0.00     0.198 A 
ATOM     66  C   UNL A   1      39.055  34.142  36.780  1.00  0.00     0.198 A 
ATOM     67  F   UNL A   1      38.794  31.877  36.199  1.00  0.00    -0.203 F 
ATOM     68  F   UNL A   1      41.053  36.755  35.244  1.00  0.00    -0.200 F 
ATOM     69  C   UNL A   1      39.627  35.383  36.541  1.00  0.00     0.200 A 
ATOM     70  F   UNL A   1      38.228  33.968  37.820  1.00  0.00    -0.200 F 
ATOM     71  F   UNL A   1      39.376  36.403  37.371  1.00  0.00    -0.200 F 
ENDBRANCH  38  61
ENDBRANCH  12  13
ENDBRANCH   5   7
ENDBRANCH   4   5
ENDBRANCH   3   4
ENDBRANCH   2   3
ENDBRANCH   1   2
BRANCH   1  72
ATOM     72  C   UNL A   1      36.275  20.360  25.034  1.00  0.00     0.342 C 
ATOM     73  O   UNL A   1      36.697  19.225  24.892  1.00  0.00    -0.246 OA
BRANCH  72  74
ATOM     74  C   UNL A   1      34.898  20.798  24.624  1.00  0.00     0.102 A 
ATOM     75  C   UNL A   1      33.913  19.802  24.892  1.00  0.00     0.019 A 
ATOM     76  C   UNL A   1      34.455  22.103  24.302  1.00  0.00     0.133 A 
ATOM     77  C   UNL A   1      32.552  20.028  24.687  1.00  0.00     0.001 A 
ATOM     78  C   UNL A   1      33.100  22.237  23.897  1.00  0.00     0.047 A 
ATOM     79  C   UNL A   1      32.157  21.215  24.098  1.00  0.00     0.004 A 
BRANCH  76  80
ATOM     80  O   UNL A   1      35.018  23.349  24.536  1.00  0.00    -0.492 OA
BRANCH  80  81
ATOM     81  C   UNL A   1      34.464  24.655  24.925  1.00  0.00     0.243 C 
BRANCH  81  82
ATOM     82  C   UNL A   1      33.781  25.936  24.110  1.00  0.00     0.152 C 
BRANCH  82  83
ATOM     83  S   UNL A   1      32.459  26.091  22.424  1.00  0.00     0.056 S 
ATOM     84  O   UNL A   1      33.329  26.023  21.194  1.00  0.00    -0.254 OA
BRANCH  83  85
ATOM     85  C   UNL A   1      30.698  27.979  22.661  1.00  0.00     0.042 A 
ATOM     86  C   UNL A   1      30.626  29.383  22.118  1.00  0.00     0.018 A 
ATOM     87  C   UNL A   1      29.242  27.840  23.231  1.00  0.00     0.057 A 
ATOM     88  C   UNL A   1      29.426  30.150  21.874  1.00  0.00     0.004 A 
ATOM     89  C   UNL A   1      28.088  28.589  22.974  1.00  0.00     0.124 A 
ATOM     90  C   UNL A   1      28.158  29.711  22.219  1.00  0.00     0.039 A 
ATOM     91  F   UNL A   1      26.915  28.160  23.465  1.00  0.00    -0.207 F 
ENDBRANCH  83  85
ENDBRANCH  82  83
ENDBRANCH  81  82
ENDBRANCH  80  81
ENDBRANCH  76  80
ENDBRANCH  72  74
ENDBRANCH   1  72
TORSDOF 16
ENDMDL
