MODEL 1
REMARK VINA RESULT:     -13.9      0.000      0.000
REMARK SMILES CS(=O)(=O)Nc1ccc(-c2cc(Cl)cc3c2O[C@H](C(F)(F)F)C(C(=O)OCCOC(=O)c2ccc(-c4c5nc(c(-c6c(F)c(F)c(F)c(F)c6F)c6ccc([nH]6)c(-c6c(F)c(F)c(F)c(F)c6F)c6nc(c(-c7c(F)c(F)c(F)c(F)c7F)c7ccc4[nH]7)C=C6)C=C5)cc2)=C3)cc1
REMARK SMILES IDX 27 1 26 2 24 3 25 4 23 5 10 6 11 7 16 8 12 9 15 10 17 11
REMARK SMILES IDX 13 12 14 13 95 14 18 15 9 16 6 17 7 18 97 19 8 20 96 21 5 22
REMARK SMILES IDX 2 24 1 25 3 26 4 27 19 28 20 29 21 30 22 31 28 32 29 33
REMARK SMILES IDX 30 34 31 35 32 36 33 37 94 38 34 39 93 40 35 41 36 42 37 43
REMARK SMILES IDX 87 44 38 45 92 46 86 47 88 48 39 49 91 50 85 51 84 52 40 54
REMARK SMILES IDX 72 55 52 56 71 57 53 58 56 59 70 60 89 61 54 62 55 63 69 65
REMARK SMILES IDX 90 66 57 67 41 68 42 69 50 70 43 71 44 72 48 73 51 74 45 75
REMARK SMILES IDX 46 76 49 77 47 78 73 79 74 80 82 81 75 82 76 83 80 84 83 85
REMARK SMILES IDX 77 86 78 87 81 88 79 89 58 90 59 91 67 92 60 93 61 94 65 95
REMARK SMILES IDX 68 96 62 97 63 98 66 99 64 100
REMARK H PARENT 5 23 88 53 56 64
REMARK Flexibility Score: inf
ROOT
ATOM      1  C   UNL A   1      31.500  29.323  24.956  1.00  0.00     0.275 C 
ENDROOT
BRANCH   1   2
ATOM      2  O   UNL A   1      31.173  28.062  25.599  1.00  0.00    -0.459 OA
BRANCH   2   3
ATOM      3  C   UNL A   1      30.913  27.067  24.710  1.00  0.00     0.338 C 
ATOM      4  O   UNL A   1      29.793  26.800  24.287  1.00  0.00    -0.246 OA
BRANCH   3   5
ATOM      5  C   UNL A   1      32.114  26.337  24.226  1.00  0.00     0.087 C 
ATOM      6  C   UNL A   1      32.179  22.277  24.435  1.00  0.00     0.026 A 
ATOM      7  C   UNL A   1      31.235  22.077  25.475  1.00  0.00     0.033 A 
ATOM      8  C   UNL A   1      32.563  23.614  24.281  1.00  0.00     0.135 A 
ATOM      9  C   UNL A   1      30.854  23.070  26.386  1.00  0.00     0.042 A 
ATOM     10  C   UNL A   1      32.402  24.509  25.369  1.00  0.00     0.019 A 
ATOM     11  O   UNL A   1      32.876  24.213  23.061  1.00  0.00    -0.475 OA
ATOM     12  Cl  UNL A   1      29.532  22.948  27.471  1.00  0.00    -0.084 Cl
ATOM     13  C   UNL A   1      31.544  24.249  26.417  1.00  0.00     0.032 A 
ATOM     14  C   UNL A   1      32.889  25.891  25.228  1.00  0.00     0.027 C 
ATOM     15  C   UNL A   1      32.232  25.586  22.911  1.00  0.00     0.316 C 
BRANCH   6  16
ATOM     16  C   UNL A   1      32.762  21.005  23.871  1.00  0.00    -0.014 A 
ATOM     17  C   UNL A   1      33.155  18.142  23.755  1.00  0.00     0.048 A 
ATOM     18  C   UNL A   1      32.270  18.792  22.895  1.00  0.00     0.027 A 
ATOM     19  C   UNL A   1      33.944  18.937  24.579  1.00  0.00     0.027 A 
ATOM     20  C   UNL A   1      32.125  20.204  22.911  1.00  0.00     0.011 A 
ATOM     21  C   UNL A   1      33.740  20.337  24.642  1.00  0.00     0.011 A 
BRANCH  17  22
ATOM     22  N   UNL A   1      33.085  16.719  23.851  1.00  0.00    -0.284 N 
ATOM     23  H   UNL A   1      32.859  16.227  23.028  1.00  0.00     0.180 HD
BRANCH  22  24
ATOM     24  S   UNL A   1      33.348  15.808  25.223  1.00  0.00     0.229 S 
ATOM     25  C   UNL A   1      35.111  15.824  25.370  1.00  0.00     0.183 C 
ATOM     26  O   UNL A   1      32.921  14.442  24.997  1.00  0.00    -0.207 OA
ATOM     27  O   UNL A   1      32.841  16.582  26.333  1.00  0.00    -0.207 OA
ENDBRANCH  22  24
ENDBRANCH  17  22
ENDBRANCH   6  16
BRANCH  15  28
ATOM     28  C   UNL A   1      33.079  26.495  22.010  1.00  0.00     0.430 C 
ATOM     29  F   UNL A   1      32.930  26.178  20.701  1.00  0.00    -0.167 F 
ATOM     30  F   UNL A   1      32.770  27.799  22.157  1.00  0.00    -0.167 F 
ATOM     31  F   UNL A   1      34.402  26.365  22.296  1.00  0.00    -0.167 F 
ENDBRANCH  15  28
ENDBRANCH   3   5
ENDBRANCH   2   3
ENDBRANCH   1   2
BRANCH   1  32
ATOM     32  C   UNL A   1      31.720  30.474  25.944  1.00  0.00     0.275 C 
BRANCH  32  33
ATOM     33  O   UNL A   1      32.958  30.328  26.664  1.00  0.00    -0.458 OA
BRANCH  33  34
ATOM     34  C   UNL A   1      33.413  31.481  27.210  1.00  0.00     0.338 C 
ATOM     35  O   UNL A   1      32.793  32.534  27.283  1.00  0.00    -0.246 OA
BRANCH  34  36
ATOM     36  C   UNL A   1      34.737  31.297  27.858  1.00  0.00     0.060 A 
ATOM     37  C   UNL A   1      34.994  30.031  28.366  1.00  0.00     0.016 A 
ATOM     38  C   UNL A   1      35.715  32.292  28.001  1.00  0.00     0.016 A 
ATOM     39  C   UNL A   1      36.230  29.761  28.953  1.00  0.00     0.010 A 
ATOM     40  C   UNL A   1      36.975  31.995  28.587  1.00  0.00     0.010 A 
ATOM     41  C   UNL A   1      37.271  30.704  29.037  1.00  0.00    -0.014 A 
BRANCH  41  42
ATOM     42  C   UNL A   1      38.565  30.246  29.676  1.00  0.00     0.031 A 
ATOM     43  C   UNL A   1      38.792  30.618  31.114  1.00  0.00     0.074 A 
ATOM     44  C   UNL A   1      39.428  29.365  29.109  1.00  0.00     0.049 A 
ATOM     45  N   UNL A   1      39.666  30.149  31.966  1.00  0.00    -0.248 NA
ATOM     46  C   UNL A   1      37.894  31.645  31.671  1.00  0.00     0.031 C 
ATOM     47  C   UNL A   1      39.340  28.898  27.741  1.00  0.00     0.029 A 
ATOM     48  N   UNL A   1      40.495  28.633  29.602  1.00  0.00    -0.354 N 
ATOM     49  C   UNL A   1      39.431  30.831  33.149  1.00  0.00     0.074 A 
ATOM     50  C   UNL A   1      38.295  31.699  32.930  1.00  0.00     0.031 C 
ATOM     51  C   UNL A   1      40.150  27.847  27.544  1.00  0.00     0.029 A 
ATOM     52  C   UNL A   1      40.989  27.679  28.722  1.00  0.00     0.049 A 
ATOM     53  H   UNL A   1      40.872  28.778  30.501  1.00  0.00     0.167 HD
ATOM     54  C   UNL A   1      40.135  30.783  34.301  1.00  0.00     0.037 A 
ATOM     55  C   UNL A   1      42.022  26.807  28.815  1.00  0.00     0.037 A 
ATOM     56  C   UNL A   1      41.328  30.006  34.487  1.00  0.00     0.049 A 
ATOM     57  C   UNL A   1      42.848  26.866  30.081  1.00  0.00     0.074 A 
ATOM     58  C   UNL A   1      42.140  29.942  35.602  1.00  0.00     0.029 A 
ATOM     59  N   UNL A   1      41.906  29.197  33.519  1.00  0.00    -0.354 N 
ATOM     60  N   UNL A   1      42.602  27.513  31.197  1.00  0.00    -0.248 NA
ATOM     61  C   UNL A   1      44.103  26.104  30.097  1.00  0.00     0.031 C 
ATOM     62  C   UNL A   1      43.242  29.142  35.290  1.00  0.00     0.029 A 
ATOM     63  C   UNL A   1      43.069  28.630  34.012  1.00  0.00     0.049 A 
ATOM     64  H   UNL A   1      41.544  29.049  32.616  1.00  0.00     0.167 HD
ATOM     65  C   UNL A   1      43.666  27.231  32.048  1.00  0.00     0.074 A 
ATOM     66  C   UNL A   1      44.532  26.316  31.334  1.00  0.00     0.031 C 
ATOM     67  C   UNL A   1      43.909  27.697  33.299  1.00  0.00     0.037 A 
BRANCH  54  68
ATOM     68  C   UNL A   1      39.687  31.698  35.399  1.00  0.00     0.064 A 
ATOM     69  C   UNL A   1      38.708  31.317  36.329  1.00  0.00     0.173 A 
ATOM     70  C   UNL A   1      40.222  32.991  35.494  1.00  0.00     0.173 A 
ATOM     71  F   UNL A   1      38.140  30.103  36.250  1.00  0.00    -0.203 F 
ATOM     72  C   UNL A   1      38.264  32.209  37.301  1.00  0.00     0.198 A 
ATOM     73  C   UNL A   1      39.794  33.871  36.483  1.00  0.00     0.198 A 
ATOM     74  F   UNL A   1      41.146  33.405  34.616  1.00  0.00    -0.203 F 
ATOM     75  F   UNL A   1      37.285  31.848  38.142  1.00  0.00    -0.200 F 
ATOM     76  C   UNL A   1      38.810  33.482  37.380  1.00  0.00     0.200 A 
ATOM     77  F   UNL A   1      40.320  35.100  36.555  1.00  0.00    -0.200 F 
ATOM     78  F   UNL A   1      38.374  34.344  38.309  1.00  0.00    -0.200 F 
ENDBRANCH  54  68
BRANCH  55  79
ATOM     79  C   UNL A   1      42.400  25.866  27.690  1.00  0.00     0.064 A 
ATOM     80  C   UNL A   1      43.375  26.183  26.724  1.00  0.00     0.173 A 
ATOM     81  C   UNL A   1      41.754  24.632  27.509  1.00  0.00     0.173 A 
ATOM     82  F   UNL A   1      43.989  27.368  26.741  1.00  0.00    -0.203 F 
ATOM     83  C   UNL A   1      43.704  25.325  25.671  1.00  0.00     0.198 A 
ATOM     84  C   UNL A   1      42.098  23.758  26.470  1.00  0.00     0.198 A 
ATOM     85  F   UNL A   1      40.772  24.262  28.343  1.00  0.00    -0.203 F 
ATOM     86  F   UNL A   1      44.617  25.703  24.765  1.00  0.00    -0.200 F 
ATOM     87  C   UNL A   1      43.071  24.106  25.549  1.00  0.00     0.200 A 
ATOM     88  F   UNL A   1      41.472  22.579  26.359  1.00  0.00    -0.200 F 
ATOM     89  F   UNL A   1      43.381  23.281  24.540  1.00  0.00    -0.200 F 
ENDBRANCH  55  79
BRANCH  67  90
ATOM     90  C   UNL A   1      45.123  27.174  34.021  1.00  0.00     0.064 A 
ATOM     91  C   UNL A   1      45.088  26.003  34.792  1.00  0.00     0.173 A 
ATOM     92  C   UNL A   1      46.363  27.819  33.875  1.00  0.00     0.173 A 
ATOM     93  F   UNL A   1      43.932  25.342  34.967  1.00  0.00    -0.203 F 
ATOM     94  C   UNL A   1      46.236  25.520  35.417  1.00  0.00     0.198 A 
ATOM     95  C   UNL A   1      47.516  27.313  34.468  1.00  0.00     0.198 A 
ATOM     96  F   UNL A   1      46.468  28.923  33.120  1.00  0.00    -0.203 F 
ATOM     97  F   UNL A   1      46.166  24.426  36.190  1.00  0.00    -0.200 F 
ATOM     98  C   UNL A   1      47.449  26.169  35.247  1.00  0.00     0.200 A 
ATOM     99  F   UNL A   1      48.692  27.924  34.275  1.00  0.00    -0.200 F 
ATOM    100  F   UNL A   1      48.556  25.692  35.834  1.00  0.00    -0.200 F 
ENDBRANCH  67  90
ENDBRANCH  41  42
ENDBRANCH  34  36
ENDBRANCH  33  34
ENDBRANCH  32  33
ENDBRANCH   1  32
TORSDOF 15
ENDMDL
MODEL 2
REMARK VINA RESULT:     -13.5      2.490      7.767
REMARK SMILES CS(=O)(=O)Nc1ccc(-c2cc(Cl)cc3c2O[C@H](C(F)(F)F)C(C(=O)OCCOC(=O)c2ccc(-c4c5nc(c(-c6c(F)c(F)c(F)c(F)c6F)c6ccc([nH]6)c(-c6c(F)c(F)c(F)c(F)c6F)c6nc(c(-c7c(F)c(F)c(F)c(F)c7F)c7ccc4[nH]7)C=C6)C=C5)cc2)=C3)cc1
REMARK SMILES IDX 27 1 26 2 24 3 25 4 23 5 10 6 11 7 16 8 12 9 15 10 17 11
REMARK SMILES IDX 13 12 14 13 95 14 18 15 9 16 6 17 7 18 97 19 8 20 96 21 5 22
REMARK SMILES IDX 2 24 1 25 3 26 4 27 19 28 20 29 21 30 22 31 28 32 29 33
REMARK SMILES IDX 30 34 31 35 32 36 33 37 94 38 34 39 93 40 35 41 36 42 37 43
REMARK SMILES IDX 87 44 38 45 92 46 86 47 88 48 39 49 91 50 85 51 84 52 40 54
REMARK SMILES IDX 72 55 52 56 71 57 53 58 56 59 70 60 89 61 54 62 55 63 69 65
REMARK SMILES IDX 90 66 57 67 41 68 42 69 50 70 43 71 44 72 48 73 51 74 45 75
REMARK SMILES IDX 46 76 49 77 47 78 73 79 74 80 82 81 75 82 76 83 80 84 83 85
REMARK SMILES IDX 77 86 78 87 81 88 79 89 58 90 59 91 67 92 60 93 61 94 65 95
REMARK SMILES IDX 68 96 62 97 63 98 66 99 64 100
REMARK H PARENT 5 23 88 53 56 64
REMARK Flexibility Score: inf
ROOT
ATOM      1  C   UNL A   1      31.468  32.415  26.497  1.00  0.00     0.275 C 
ENDROOT
BRANCH   1   2
ATOM      2  O   UNL A   1      31.043  31.044  26.717  1.00  0.00    -0.459 OA
BRANCH   2   3
ATOM      3  C   UNL A   1      31.731  30.149  25.960  1.00  0.00     0.338 C 
ATOM      4  O   UNL A   1      31.680  30.103  24.735  1.00  0.00    -0.246 OA
BRANCH   3   5
ATOM      5  C   UNL A   1      32.620  29.239  26.728  1.00  0.00     0.087 C 
ATOM      6  C   UNL A   1      33.096  25.405  25.461  1.00  0.00     0.026 A 
ATOM      7  C   UNL A   1      31.895  25.247  24.722  1.00  0.00     0.033 A 
ATOM      8  C   UNL A   1      33.125  26.570  26.236  1.00  0.00     0.135 A 
ATOM      9  C   UNL A   1      30.768  26.063  24.880  1.00  0.00     0.042 A 
ATOM     10  C   UNL A   1      31.902  27.190  26.598  1.00  0.00     0.019 A 
ATOM     11  O   UNL A   1      34.270  27.323  26.492  1.00  0.00    -0.475 OA
ATOM     12  Cl  UNL A   1      29.414  26.076  23.828  1.00  0.00    -0.084 Cl
ATOM     13  C   UNL A   1      30.725  26.950  25.920  1.00  0.00     0.032 A 
ATOM     14  C   UNL A   1      31.938  28.364  27.485  1.00  0.00     0.027 C 
ATOM     15  C   UNL A   1      34.024  28.819  26.332  1.00  0.00     0.316 C 
BRANCH   6  16
ATOM     16  C   UNL A   1      33.990  24.190  25.462  1.00  0.00    -0.014 A 
ATOM     17  C   UNL A   1      34.544  21.358  25.261  1.00  0.00     0.048 A 
ATOM     18  C   UNL A   1      34.759  22.221  24.187  1.00  0.00     0.027 A 
ATOM     19  C   UNL A   1      34.184  21.930  26.477  1.00  0.00     0.027 A 
ATOM     20  C   UNL A   1      34.546  23.619  24.307  1.00  0.00     0.011 A 
ATOM     21  C   UNL A   1      33.901  23.315  26.568  1.00  0.00     0.011 A 
BRANCH  17  22
ATOM     22  N   UNL A   1      34.551  19.951  25.014  1.00  0.00    -0.284 N 
ATOM     23  H   UNL A   1      35.419  19.492  25.078  1.00  0.00     0.180 HD
BRANCH  22  24
ATOM     24  S   UNL A   1      33.229  19.011  24.626  1.00  0.00     0.229 S 
ATOM     25  C   UNL A   1      33.972  17.503  24.072  1.00  0.00     0.183 C 
ATOM     26  O   UNL A   1      32.513  19.602  23.513  1.00  0.00    -0.207 OA
ATOM     27  O   UNL A   1      32.566  18.702  25.872  1.00  0.00    -0.207 OA
ENDBRANCH  22  24
ENDBRANCH  17  22
ENDBRANCH   6  16
BRANCH  15  28
ATOM     28  C   UNL A   1      34.953  29.629  27.246  1.00  0.00     0.430 C 
ATOM     29  F   UNL A   1      34.957  29.142  28.511  1.00  0.00    -0.167 F 
ATOM     30  F   UNL A   1      36.228  29.643  26.805  1.00  0.00    -0.167 F 
ATOM     31  F   UNL A   1      34.546  30.924  27.326  1.00  0.00    -0.167 F 
ENDBRANCH  15  28
ENDBRANCH   3   5
ENDBRANCH   2   3
ENDBRANCH   1   2
BRANCH   1  32
ATOM     32  C   UNL A   1      32.039  33.088  27.749  1.00  0.00     0.275 C 
BRANCH  32  33
ATOM     33  O   UNL A   1      32.704  34.325  27.433  1.00  0.00    -0.458 OA
BRANCH  33  34
ATOM     34  C   UNL A   1      33.073  35.043  28.521  1.00  0.00     0.338 C 
ATOM     35  O   UNL A   1      32.478  36.010  28.977  1.00  0.00    -0.246 OA
BRANCH  34  36
ATOM     36  C   UNL A   1      34.240  34.436  29.210  1.00  0.00     0.060 A 
ATOM     37  C   UNL A   1      33.966  33.772  30.399  1.00  0.00     0.016 A 
ATOM     38  C   UNL A   1      35.568  34.497  28.764  1.00  0.00     0.016 A 
ATOM     39  C   UNL A   1      34.998  33.138  31.089  1.00  0.00     0.010 A 
ATOM     40  C   UNL A   1      36.605  33.831  29.470  1.00  0.00     0.010 A 
ATOM     41  C   UNL A   1      36.327  33.099  30.630  1.00  0.00    -0.014 A 
BRANCH  41  42
ATOM     42  C   UNL A   1      37.328  32.341  31.479  1.00  0.00     0.031 A 
ATOM     43  C   UNL A   1      38.100  31.237  30.814  1.00  0.00     0.074 A 
ATOM     44  C   UNL A   1      37.713  32.719  32.724  1.00  0.00     0.049 A 
ATOM     45  N   UNL A   1      39.176  30.616  31.219  1.00  0.00    -0.248 NA
ATOM     46  C   UNL A   1      37.599  30.790  29.502  1.00  0.00     0.031 C 
ATOM     47  C   UNL A   1      37.081  33.771  33.493  1.00  0.00     0.029 A 
ATOM     48  N   UNL A   1      38.762  32.343  33.546  1.00  0.00    -0.354 N 
ATOM     49  C   UNL A   1      39.471  29.700  30.221  1.00  0.00     0.074 A 
ATOM     50  C   UNL A   1      38.502  29.886  29.163  1.00  0.00     0.031 C 
ATOM     51  C   UNL A   1      37.831  34.099  34.556  1.00  0.00     0.029 A 
ATOM     52  C   UNL A   1      38.914  33.135  34.676  1.00  0.00     0.049 A 
ATOM     53  H   UNL A   1      39.350  31.578  33.346  1.00  0.00     0.167 HD
ATOM     54  C   UNL A   1      40.428  28.747  30.211  1.00  0.00     0.037 A 
ATOM     55  C   UNL A   1      39.781  33.073  35.717  1.00  0.00     0.037 A 
ATOM     56  C   UNL A   1      41.320  28.486  31.305  1.00  0.00     0.049 A 
ATOM     57  C   UNL A   1      40.764  31.924  35.715  1.00  0.00     0.074 A 
ATOM     58  C   UNL A   1      42.283  27.501  31.405  1.00  0.00     0.029 A 
ATOM     59  N   UNL A   1      41.326  29.181  32.506  1.00  0.00    -0.354 N 
ATOM     60  N   UNL A   1      41.034  31.072  34.754  1.00  0.00    -0.248 NA
ATOM     61  C   UNL A   1      41.540  31.706  36.943  1.00  0.00     0.031 C 
ATOM     62  C   UNL A   1      42.831  27.562  32.689  1.00  0.00     0.029 A 
ATOM     63  C   UNL A   1      42.277  28.644  33.356  1.00  0.00     0.049 A 
ATOM     64  H   UNL A   1      40.741  29.943  32.722  1.00  0.00     0.167 HD
ATOM     65  C   UNL A   1      42.014  30.222  35.257  1.00  0.00     0.074 A 
ATOM     66  C   UNL A   1      42.323  30.694  36.591  1.00  0.00     0.031 C 
ATOM     67  C   UNL A   1      42.595  29.143  34.673  1.00  0.00     0.037 A 
BRANCH  54  68
ATOM     68  C   UNL A   1      40.461  27.843  29.017  1.00  0.00     0.064 A 
ATOM     69  C   UNL A   1      39.691  26.671  28.953  1.00  0.00     0.173 A 
ATOM     70  C   UNL A   1      41.308  28.138  27.938  1.00  0.00     0.173 A 
ATOM     71  F   UNL A   1      38.898  26.329  29.979  1.00  0.00    -0.203 F 
ATOM     72  C   UNL A   1      39.788  25.816  27.859  1.00  0.00     0.198 A 
ATOM     73  C   UNL A   1      41.382  27.293  26.836  1.00  0.00     0.198 A 
ATOM     74  F   UNL A   1      42.075  29.237  27.965  1.00  0.00    -0.203 F 
ATOM     75  F   UNL A   1      39.091  24.671  27.842  1.00  0.00    -0.200 F 
ATOM     76  C   UNL A   1      40.629  26.129  26.801  1.00  0.00     0.200 A 
ATOM     77  F   UNL A   1      42.197  27.597  25.817  1.00  0.00    -0.200 F 
ATOM     78  F   UNL A   1      40.729  25.299  25.754  1.00  0.00    -0.200 F 
ENDBRANCH  54  68
BRANCH  55  79
ATOM     79  C   UNL A   1      39.734  34.048  36.876  1.00  0.00     0.064 A 
ATOM     80  C   UNL A   1      40.513  35.221  36.919  1.00  0.00     0.173 A 
ATOM     81  C   UNL A   1      38.945  33.808  38.013  1.00  0.00     0.173 A 
ATOM     82  F   UNL A   1      41.369  35.505  35.936  1.00  0.00    -0.203 F 
ATOM     83  C   UNL A   1      40.488  36.106  38.001  1.00  0.00     0.198 A 
ATOM     84  C   UNL A   1      38.899  34.705  39.088  1.00  0.00     0.198 A 
ATOM     85  F   UNL A   1      38.209  32.691  38.094  1.00  0.00    -0.203 F 
ATOM     86  F   UNL A   1      41.280  37.187  37.994  1.00  0.00    -0.200 F 
ATOM     87  C   UNL A   1      39.672  35.852  39.084  1.00  0.00     0.200 A 
ATOM     88  F   UNL A   1      38.106  34.445  40.137  1.00  0.00    -0.200 F 
ATOM     89  F   UNL A   1      39.648  36.696  40.124  1.00  0.00    -0.200 F 
ENDBRANCH  55  79
BRANCH  67  90
ATOM     90  C   UNL A   1      43.682  28.432  35.435  1.00  0.00     0.064 A 
ATOM     91  C   UNL A   1      45.035  28.780  35.308  1.00  0.00     0.173 A 
ATOM     92  C   UNL A   1      43.353  27.432  36.366  1.00  0.00     0.173 A 
ATOM     93  F   UNL A   1      45.410  29.729  34.435  1.00  0.00    -0.203 F 
ATOM     94  C   UNL A   1      46.017  28.132  36.054  1.00  0.00     0.198 A 
ATOM     95  C   UNL A   1      44.332  26.813  37.138  1.00  0.00     0.198 A 
ATOM     96  F   UNL A   1      42.073  27.080  36.560  1.00  0.00    -0.203 F 
ATOM     97  F   UNL A   1      47.308  28.447  35.878  1.00  0.00    -0.200 F 
ATOM     98  C   UNL A   1      45.664  27.157  36.975  1.00  0.00     0.200 A 
ATOM     99  F   UNL A   1      43.985  25.895  38.050  1.00  0.00    -0.200 F 
ATOM    100  F   UNL A   1      46.609  26.547  37.705  1.00  0.00    -0.200 F 
ENDBRANCH  67  90
ENDBRANCH  41  42
ENDBRANCH  34  36
ENDBRANCH  33  34
ENDBRANCH  32  33
ENDBRANCH   1  32
TORSDOF 15
ENDMDL
MODEL 3
REMARK VINA RESULT:     -13.1      2.281      7.672
REMARK SMILES CS(=O)(=O)Nc1ccc(-c2cc(Cl)cc3c2O[C@H](C(F)(F)F)C(C(=O)OCCOC(=O)c2ccc(-c4c5nc(c(-c6c(F)c(F)c(F)c(F)c6F)c6ccc([nH]6)c(-c6c(F)c(F)c(F)c(F)c6F)c6nc(c(-c7c(F)c(F)c(F)c(F)c7F)c7ccc4[nH]7)C=C6)C=C5)cc2)=C3)cc1
REMARK SMILES IDX 27 1 26 2 24 3 25 4 23 5 10 6 11 7 16 8 12 9 15 10 17 11
REMARK SMILES IDX 13 12 14 13 95 14 18 15 9 16 6 17 7 18 97 19 8 20 96 21 5 22
REMARK SMILES IDX 2 24 1 25 3 26 4 27 19 28 20 29 21 30 22 31 28 32 29 33
REMARK SMILES IDX 30 34 31 35 32 36 33 37 94 38 34 39 93 40 35 41 36 42 37 43
REMARK SMILES IDX 87 44 38 45 92 46 86 47 88 48 39 49 91 50 85 51 84 52 40 54
REMARK SMILES IDX 72 55 52 56 71 57 53 58 56 59 70 60 89 61 54 62 55 63 69 65
REMARK SMILES IDX 90 66 57 67 41 68 42 69 50 70 43 71 44 72 48 73 51 74 45 75
REMARK SMILES IDX 46 76 49 77 47 78 73 79 74 80 82 81 75 82 76 83 80 84 83 85
REMARK SMILES IDX 77 86 78 87 81 88 79 89 58 90 59 91 67 92 60 93 61 94 65 95
REMARK SMILES IDX 68 96 62 97 63 98 66 99 64 100
REMARK H PARENT 5 23 88 53 56 64
REMARK Flexibility Score: inf
ROOT
ATOM      1  C   UNL A   1      31.934  31.631  27.146  1.00  0.00     0.275 C 
ENDROOT
BRANCH   1   2
ATOM      2  O   UNL A   1      31.089  30.879  26.235  1.00  0.00    -0.459 OA
BRANCH   2   3
ATOM      3  C   UNL A   1      31.754  29.881  25.597  1.00  0.00     0.338 C 
ATOM      4  O   UNL A   1      31.756  29.725  24.381  1.00  0.00    -0.246 OA
BRANCH   3   5
ATOM      5  C   UNL A   1      32.549  28.996  26.488  1.00  0.00     0.087 C 
ATOM      6  C   UNL A   1      33.026  25.086  25.479  1.00  0.00     0.026 A 
ATOM      7  C   UNL A   1      31.889  24.914  24.648  1.00  0.00     0.033 A 
ATOM      8  C   UNL A   1      33.021  26.293  26.188  1.00  0.00     0.135 A 
ATOM      9  C   UNL A   1      30.775  25.763  24.663  1.00  0.00     0.042 A 
ATOM     10  C   UNL A   1      31.788  26.959  26.408  1.00  0.00     0.019 A 
ATOM     11  O   UNL A   1      34.160  27.033  26.501  1.00  0.00    -0.475 OA
ATOM     12  Cl  UNL A   1      29.517  25.747  23.498  1.00  0.00    -0.084 Cl
ATOM     13  C   UNL A   1      30.667  26.708  25.645  1.00  0.00     0.032 A 
ATOM     14  C   UNL A   1      31.781  28.181  27.230  1.00  0.00     0.027 C 
ATOM     15  C   UNL A   1      33.970  28.522  26.239  1.00  0.00     0.316 C 
BRANCH   6  16
ATOM     16  C   UNL A   1      33.882  23.853  25.623  1.00  0.00    -0.014 A 
ATOM     17  C   UNL A   1      34.400  21.009  25.526  1.00  0.00     0.048 A 
ATOM     18  C   UNL A   1      34.795  21.857  24.492  1.00  0.00     0.027 A 
ATOM     19  C   UNL A   1      33.870  21.599  26.669  1.00  0.00     0.027 A 
ATOM     20  C   UNL A   1      34.596  23.261  24.570  1.00  0.00     0.011 A 
ATOM     21  C   UNL A   1      33.606  22.990  26.708  1.00  0.00     0.011 A 
BRANCH  17  22
ATOM     22  N   UNL A   1      34.414  19.600  25.290  1.00  0.00    -0.284 N 
ATOM     23  H   UNL A   1      35.232  19.115  25.544  1.00  0.00     0.180 HD
BRANCH  22  24
ATOM     24  S   UNL A   1      33.178  18.698  24.626  1.00  0.00     0.229 S 
ATOM     25  C   UNL A   1      34.040  17.342  23.885  1.00  0.00     0.183 C 
ATOM     26  O   UNL A   1      32.526  19.453  23.576  1.00  0.00    -0.207 OA
ATOM     27  O   UNL A   1      32.432  18.147  25.734  1.00  0.00    -0.207 OA
ENDBRANCH  22  24
ENDBRANCH  17  22
ENDBRANCH   6  16
BRANCH  15  28
ATOM     28  C   UNL A   1      34.839  29.362  27.185  1.00  0.00     0.430 C 
ATOM     29  F   UNL A   1      36.130  28.949  27.174  1.00  0.00    -0.167 F 
ATOM     30  F   UNL A   1      34.822  30.673  26.872  1.00  0.00    -0.167 F 
ATOM     31  F   UNL A   1      34.404  29.253  28.468  1.00  0.00    -0.167 F 
ENDBRANCH  15  28
ENDBRANCH   3   5
ENDBRANCH   2   3
ENDBRANCH   1   2
BRANCH   1  32
ATOM     32  C   UNL A   1      31.820  33.150  26.974  1.00  0.00     0.275 C 
BRANCH  32  33
ATOM     33  O   UNL A   1      33.100  33.797  27.095  1.00  0.00    -0.458 OA
BRANCH  33  34
ATOM     34  C   UNL A   1      33.279  34.443  28.272  1.00  0.00     0.338 C 
ATOM     35  O   UNL A   1      32.528  35.281  28.751  1.00  0.00    -0.246 OA
BRANCH  34  36
ATOM     36  C   UNL A   1      34.451  33.915  29.016  1.00  0.00     0.060 A 
ATOM     37  C   UNL A   1      34.206  32.828  29.846  1.00  0.00     0.016 A 
ATOM     38  C   UNL A   1      35.754  34.433  28.952  1.00  0.00     0.016 A 
ATOM     39  C   UNL A   1      35.260  32.245  30.549  1.00  0.00     0.010 A 
ATOM     40  C   UNL A   1      36.818  33.816  29.662  1.00  0.00     0.010 A 
ATOM     41  C   UNL A   1      36.594  32.677  30.444  1.00  0.00    -0.014 A 
BRANCH  41  42
ATOM     42  C   UNL A   1      37.630  31.919  31.249  1.00  0.00     0.031 A 
ATOM     43  C   UNL A   1      38.470  30.912  30.515  1.00  0.00     0.074 A 
ATOM     44  C   UNL A   1      37.982  32.226  32.523  1.00  0.00     0.049 A 
ATOM     45  N   UNL A   1      39.577  30.325  30.888  1.00  0.00    -0.248 NA
ATOM     46  C   UNL A   1      38.006  30.533  29.169  1.00  0.00     0.031 C 
ATOM     47  C   UNL A   1      37.284  33.182  33.357  1.00  0.00     0.029 A 
ATOM     48  N   UNL A   1      39.044  31.852  33.328  1.00  0.00    -0.354 N 
ATOM     49  C   UNL A   1      39.932  29.502  29.830  1.00  0.00     0.074 A 
ATOM     50  C   UNL A   1      38.963  29.709  28.777  1.00  0.00     0.031 C 
ATOM     51  C   UNL A   1      38.005  33.475  34.450  1.00  0.00     0.029 A 
ATOM     52  C   UNL A   1      39.141  32.568  34.514  1.00  0.00     0.049 A 
ATOM     53  H   UNL A   1      39.677  31.138  33.080  1.00  0.00     0.167 HD
ATOM     54  C   UNL A   1      40.943  28.608  29.764  1.00  0.00     0.037 A 
ATOM     55  C   UNL A   1      40.001  32.480  35.559  1.00  0.00     0.037 A 
ATOM     56  C   UNL A   1      41.839  28.320  30.847  1.00  0.00     0.049 A 
ATOM     57  C   UNL A   1      41.048  31.392  35.487  1.00  0.00     0.074 A 
ATOM     58  C   UNL A   1      42.856  27.387  30.889  1.00  0.00     0.029 A 
ATOM     59  N   UNL A   1      41.795  28.926  32.096  1.00  0.00    -0.354 N 
ATOM     60  N   UNL A   1      41.376  30.629  34.470  1.00  0.00    -0.248 NA
ATOM     61  C   UNL A   1      41.826  31.130  36.705  1.00  0.00     0.031 C 
ATOM     62  C   UNL A   1      43.389  27.385  32.180  1.00  0.00     0.029 A 
ATOM     63  C   UNL A   1      42.769  28.383  32.917  1.00  0.00     0.049 A 
ATOM     64  H   UNL A   1      41.165  29.635  32.358  1.00  0.00     0.167 HD
ATOM     65  C   UNL A   1      42.399  29.802  34.923  1.00  0.00     0.074 A 
ATOM     66  C   UNL A   1      42.669  30.193  36.291  1.00  0.00     0.031 C 
ATOM     67  C   UNL A   1      43.046  28.803  34.270  1.00  0.00     0.037 A 
BRANCH  54  68
ATOM     68  C   UNL A   1      41.037  27.796  28.509  1.00  0.00     0.064 A 
ATOM     69  C   UNL A   1      41.834  28.196  27.425  1.00  0.00     0.173 A 
ATOM     70  C   UNL A   1      40.286  26.619  28.378  1.00  0.00     0.173 A 
ATOM     71  F   UNL A   1      42.538  29.337  27.491  1.00  0.00    -0.203 F 
ATOM     72  C   UNL A   1      41.856  27.456  26.246  1.00  0.00     0.198 A 
ATOM     73  C   UNL A   1      40.330  25.869  27.208  1.00  0.00     0.198 A 
ATOM     74  F   UNL A   1      39.497  26.208  29.381  1.00  0.00    -0.203 F 
ATOM     75  F   UNL A   1      42.575  27.887  25.200  1.00  0.00    -0.200 F 
ATOM     76  C   UNL A   1      41.108  26.292  26.140  1.00  0.00     0.200 A 
ATOM     77  F   UNL A   1      39.605  24.747  27.107  1.00  0.00    -0.200 F 
ATOM     78  F   UNL A   1      41.121  25.587  25.001  1.00  0.00    -0.200 F 
ENDBRANCH  54  68
BRANCH  55  79
ATOM     79  C   UNL A   1      39.888  33.363  36.784  1.00  0.00     0.064 A 
ATOM     80  C   UNL A   1      38.974  33.112  37.826  1.00  0.00     0.173 A 
ATOM     81  C   UNL A   1      40.659  34.529  36.929  1.00  0.00     0.173 A 
ATOM     82  F   UNL A   1      38.126  32.085  37.752  1.00  0.00    -0.203 F 
ATOM     83  C   UNL A   1      38.853  33.943  38.944  1.00  0.00     0.198 A 
ATOM     84  C   UNL A   1      40.559  35.350  38.059  1.00  0.00     0.198 A 
ATOM     85  F   UNL A   1      41.520  34.886  35.966  1.00  0.00    -0.203 F 
ATOM     86  F   UNL A   1      37.938  33.666  39.882  1.00  0.00    -0.200 F 
ATOM     87  C   UNL A   1      39.654  35.059  39.065  1.00  0.00     0.200 A 
ATOM     88  F   UNL A   1      41.339  36.435  38.164  1.00  0.00    -0.200 F 
ATOM     89  F   UNL A   1      39.540  35.860  40.133  1.00  0.00    -0.200 F 
ENDBRANCH  55  79
BRANCH  67  90
ATOM     90  C   UNL A   1      44.166  28.101  34.992  1.00  0.00     0.064 A 
ATOM     91  C   UNL A   1      43.968  26.903  35.694  1.00  0.00     0.173 A 
ATOM     92  C   UNL A   1      45.477  28.601  34.917  1.00  0.00     0.173 A 
ATOM     93  F   UNL A   1      42.737  26.376  35.800  1.00  0.00    -0.203 F 
ATOM     94  C   UNL A   1      45.030  26.253  36.320  1.00  0.00     0.198 A 
ATOM     95  C   UNL A   1      46.542  27.930  35.511  1.00  0.00     0.198 A 
ATOM     96  F   UNL A   1      45.736  29.723  34.230  1.00  0.00    -0.203 F 
ATOM     97  F   UNL A   1      44.806  25.136  37.028  1.00  0.00    -0.200 F 
ATOM     98  C   UNL A   1      46.316  26.762  36.221  1.00  0.00     0.200 A 
ATOM     99  F   UNL A   1      47.788  28.406  35.385  1.00  0.00    -0.200 F 
ATOM    100  F   UNL A   1      47.339  26.125  36.809  1.00  0.00    -0.200 F 
ENDBRANCH  67  90
ENDBRANCH  41  42
ENDBRANCH  34  36
ENDBRANCH  33  34
ENDBRANCH  32  33
ENDBRANCH   1  32
TORSDOF 15
ENDMDL
