MODEL 1
REMARK VINA RESULT:     -13.5      0.000      0.000
REMARK SMILES Cc1c(C[NH2+]C[C@@H]2CCCO2)c(C(=O)OCCOC(=O)c2ccc(-c3c4nc(c(-c5c(F)c(F)c(F)c(F)c5F)c5ccc([nH]5)c(-c5c(F)c(F)c(F)c(F)c5F)c5nc(c(-c6c(F)c(F)c(F)c(F)c6F)c6ccc3[nH]6)C=C5)C=C4)cc2)c(C)n1Cc1ccc(F)cc1
REMARK SMILES IDX 16 1 15 2 13 3 14 4 12 5 1 6 2 7 3 8 86 9 84 10 85 11 4 12
REMARK SMILES IDX 5 13 6 16 7 17 8 18 11 19 9 20 10 21 87 22 88 23 89 24 94 25
REMARK SMILES IDX 90 26 93 27 91 28 92 29 17 30 18 31 19 32 20 33 21 34 22 35
REMARK SMILES IDX 83 36 23 37 82 38 24 39 25 40 26 41 76 42 27 43 81 44 75 45
REMARK SMILES IDX 77 46 28 47 80 48 74 49 73 50 29 52 61 53 41 54 60 55 42 56
REMARK SMILES IDX 45 57 59 58 78 59 43 60 44 61 58 63 79 64 46 65 30 66 31 67
REMARK SMILES IDX 39 68 32 69 33 70 37 71 40 72 34 73 35 74 38 75 36 76 62 77
REMARK SMILES IDX 63 78 71 79 64 80 65 81 69 82 72 83 66 84 67 85 70 86 68 87
REMARK SMILES IDX 47 88 48 89 56 90 49 91 50 92 54 93 57 94 51 95 52 96 55 97
REMARK SMILES IDX 53 98
REMARK H PARENT 5 14 5 15 77 51 45 62
REMARK Flexibility Score: inf
ROOT
ATOM      1  C   UNL A   1      38.165  22.461  25.752  1.00  0.00     0.275 C 
ENDROOT
BRANCH   1   2
ATOM      2  O   UNL A   1      36.801  22.887  25.872  1.00  0.00    -0.458 OA
BRANCH   2   3
ATOM      3  C   UNL A   1      35.871  22.175  25.205  1.00  0.00     0.340 C 
ATOM      4  O   UNL A   1      36.096  21.085  24.624  1.00  0.00    -0.246 OA
BRANCH   3   5
ATOM      5  C   UNL A   1      34.564  22.779  25.329  1.00  0.00     0.089 A 
ATOM      6  C   UNL A   1      31.165  23.240  26.794  1.00  0.00     0.065 C 
ATOM      7  C   UNL A   1      32.490  23.257  26.108  1.00  0.00     0.025 A 
ATOM      8  C   UNL A   1      33.513  22.319  26.177  1.00  0.00     0.042 A 
ATOM      9  N   UNL A   1      32.913  24.295  25.278  1.00  0.00    -0.343 N 
ATOM     10  C   UNL A   1      34.097  23.910  24.664  1.00  0.00     0.030 A 
ATOM     11  C   UNL A   1      34.736  24.601  23.509  1.00  0.00     0.065 C 
BRANCH   8  12
ATOM     12  C   UNL A   1      33.573  21.068  27.005  1.00  0.00     0.300 C 
BRANCH  12  13
ATOM     13  N   UNL A   1      33.720  19.929  26.114  1.00  0.00    -0.340 N 
ATOM     14  H   UNL A   1      33.881  19.101  26.688  1.00  0.00     0.346 HD
ATOM     15  H   UNL A   1      34.496  20.158  25.494  1.00  0.00     0.346 HD
BRANCH  13  16
ATOM     16  C   UNL A   1      32.580  19.657  25.245  1.00  0.00     0.293 C 
BRANCH  16  17
ATOM     17  C   UNL A   1      32.545  18.254  24.621  1.00  0.00     0.173 C 
ATOM     18  C   UNL A   1      32.782  17.120  25.606  1.00  0.00     0.040 C 
ATOM     19  O   UNL A   1      33.590  18.115  23.637  1.00  0.00    -0.372 OA
ATOM     20  C   UNL A   1      33.233  16.016  24.686  1.00  0.00     0.031 C 
ATOM     21  C   UNL A   1      34.075  16.766  23.676  1.00  0.00     0.161 C 
ENDBRANCH  16  17
ENDBRANCH  13  16
ENDBRANCH  12  13
ENDBRANCH   8  12
BRANCH   9  22
ATOM     22  C   UNL A   1      32.120  25.498  24.971  1.00  0.00     0.157 C 
BRANCH  22  23
ATOM     23  C   UNL A   1      32.432  26.742  25.791  1.00  0.00    -0.028 A 
ATOM     24  C   UNL A   1      31.528  27.183  26.778  1.00  0.00     0.008 A 
ATOM     25  C   UNL A   1      33.533  27.567  25.511  1.00  0.00     0.008 A 
ATOM     26  C   UNL A   1      31.722  28.400  27.444  1.00  0.00     0.039 A 
ATOM     27  C   UNL A   1      33.732  28.781  26.177  1.00  0.00     0.039 A 
ATOM     28  C   UNL A   1      32.821  29.190  27.135  1.00  0.00     0.123 A 
ATOM     29  F   UNL A   1      32.995  30.364  27.753  1.00  0.00    -0.207 F 
ENDBRANCH  22  23
ENDBRANCH   9  22
ENDBRANCH   3   5
ENDBRANCH   2   3
ENDBRANCH   1   2
BRANCH   1  30
ATOM     30  C   UNL A   1      39.102  23.347  26.651  1.00  0.00     0.275 C 
BRANCH  30  31
ATOM     31  O   UNL A   1      40.415  23.961  26.170  1.00  0.00    -0.458 OA
BRANCH  31  32
ATOM     32  C   UNL A   1      40.690  25.335  26.295  1.00  0.00     0.338 C 
ATOM     33  O   UNL A   1      41.110  25.978  25.342  1.00  0.00    -0.246 OA
BRANCH  32  34
ATOM     34  C   UNL A   1      40.544  26.075  27.730  1.00  0.00     0.060 A 
ATOM     35  C   UNL A   1      39.381  26.393  28.528  1.00  0.00     0.016 A 
ATOM     36  C   UNL A   1      41.605  26.656  28.330  1.00  0.00     0.016 A 
ATOM     37  C   UNL A   1      39.269  27.243  29.931  1.00  0.00     0.010 A 
ATOM     38  C   UNL A   1      41.444  27.417  29.625  1.00  0.00     0.010 A 
ATOM     39  C   UNL A   1      40.334  27.886  30.622  1.00  0.00    -0.014 A 
BRANCH  39  40
ATOM     40  C   UNL A   1      40.528  28.508  32.434  1.00  0.00     0.031 A 
ATOM     41  C   UNL A   1      42.031  28.694  32.631  1.00  0.00     0.074 A 
ATOM     42  C   UNL A   1      39.997  29.390  33.648  1.00  0.00     0.049 A 
ATOM     43  N   UNL A   1      42.468  29.931  32.543  1.00  0.00    -0.248 NA
ATOM     44  C   UNL A   1      42.834  27.879  31.730  1.00  0.00     0.031 C 
ATOM     45  C   UNL A   1      38.633  29.943  34.005  1.00  0.00     0.029 A 
ATOM     46  N   UNL A   1      40.700  30.167  34.894  1.00  0.00    -0.354 N 
ATOM     47  C   UNL A   1      42.203  30.074  31.163  1.00  0.00     0.074 A 
ATOM     48  C   UNL A   1      42.877  28.806  30.751  1.00  0.00     0.031 C 
ATOM     49  C   UNL A   1      38.589  30.860  35.035  1.00  0.00     0.029 A 
ATOM     50  C   UNL A   1      39.895  31.188  35.700  1.00  0.00     0.049 A 
ATOM     51  H   UNL A   1      41.639  29.982  35.128  1.00  0.00     0.167 HD
ATOM     52  C   UNL A   1      40.999  30.804  30.956  1.00  0.00     0.037 A 
ATOM     53  C   UNL A   1      39.938  32.265  36.752  1.00  0.00     0.037 A 
ATOM     54  C   UNL A   1      41.381  32.074  31.370  1.00  0.00     0.049 A 
ATOM     55  C   UNL A   1      40.215  33.287  35.705  1.00  0.00     0.074 A 
ATOM     56  C   UNL A   1      42.567  32.752  31.505  1.00  0.00     0.029 A 
ATOM     57  N   UNL A   1      40.533  32.590  32.250  1.00  0.00    -0.354 N 
ATOM     58  N   UNL A   1      39.313  34.090  35.222  1.00  0.00    -0.248 NA
ATOM     59  C   UNL A   1      41.640  33.651  35.471  1.00  0.00     0.031 C 
ATOM     60  C   UNL A   1      42.237  33.801  32.366  1.00  0.00     0.029 A 
ATOM     61  C   UNL A   1      40.832  33.894  32.399  1.00  0.00     0.049 A 
ATOM     62  H   UNL A   1      39.813  32.104  32.713  1.00  0.00     0.167 HD
ATOM     63  C   UNL A   1      40.062  34.837  34.335  1.00  0.00     0.074 A 
ATOM     64  C   UNL A   1      41.441  34.793  34.807  1.00  0.00     0.031 C 
ATOM     65  C   UNL A   1      39.760  34.596  33.038  1.00  0.00     0.037 A 
BRANCH  52  66
ATOM     66  C   UNL A   1      39.340  30.672  30.412  1.00  0.00     0.064 A 
ATOM     67  C   UNL A   1      38.080  30.806  31.134  1.00  0.00     0.173 A 
ATOM     68  C   UNL A   1      39.102  30.226  29.098  1.00  0.00     0.173 A 
ATOM     69  F   UNL A   1      37.940  31.370  32.333  1.00  0.00    -0.203 F 
ATOM     70  C   UNL A   1      36.846  30.275  30.728  1.00  0.00     0.198 A 
ATOM     71  C   UNL A   1      37.826  29.778  28.652  1.00  0.00     0.198 A 
ATOM     72  F   UNL A   1      40.108  30.171  28.220  1.00  0.00    -0.203 F 
ATOM     73  F   UNL A   1      35.811  30.264  31.585  1.00  0.00    -0.200 F 
ATOM     74  C   UNL A   1      36.725  29.728  29.489  1.00  0.00     0.200 A 
ATOM     75  F   UNL A   1      37.678  29.355  27.390  1.00  0.00    -0.200 F 
ATOM     76  F   UNL A   1      35.565  29.174  29.108  1.00  0.00    -0.200 F 
ENDBRANCH  52  66
BRANCH  53  77
ATOM     77  C   UNL A   1      40.329  33.443  38.057  1.00  0.00     0.064 A 
ATOM     78  C   UNL A   1      41.296  33.270  39.076  1.00  0.00     0.173 A 
ATOM     79  C   UNL A   1      39.524  34.610  38.504  1.00  0.00     0.173 A 
ATOM     80  F   UNL A   1      41.967  32.115  39.167  1.00  0.00    -0.203 F 
ATOM     81  C   UNL A   1      41.536  34.230  40.170  1.00  0.00     0.198 A 
ATOM     82  C   UNL A   1      39.841  35.634  39.432  1.00  0.00     0.198 A 
ATOM     83  F   UNL A   1      38.199  34.651  38.363  1.00  0.00    -0.203 F 
ATOM     84  F   UNL A   1      42.390  33.924  41.159  1.00  0.00    -0.200 F 
ATOM     85  C   UNL A   1      40.867  35.441  40.289  1.00  0.00     0.200 A 
ATOM     86  F   UNL A   1      39.003  36.676  39.601  1.00  0.00    -0.200 F 
ATOM     87  F   UNL A   1      41.088  36.312  41.288  1.00  0.00    -0.200 F 
ENDBRANCH  53  77
BRANCH  65  88
ATOM     88  C   UNL A   1      38.254  34.378  32.833  1.00  0.00     0.064 A 
ATOM     89  C   UNL A   1      37.799  34.232  31.519  1.00  0.00     0.173 A 
ATOM     90  C   UNL A   1      37.235  34.533  33.798  1.00  0.00     0.173 A 
ATOM     91  F   UNL A   1      38.685  34.080  30.526  1.00  0.00    -0.203 F 
ATOM     92  C   UNL A   1      36.438  34.291  31.199  1.00  0.00     0.198 A 
ATOM     93  C   UNL A   1      35.879  34.585  33.489  1.00  0.00     0.198 A 
ATOM     94  F   UNL A   1      37.505  34.711  35.086  1.00  0.00    -0.203 F 
ATOM     95  F   UNL A   1      36.057  34.185  29.920  1.00  0.00    -0.200 F 
ATOM     96  C   UNL A   1      35.479  34.481  32.181  1.00  0.00     0.200 A 
ATOM     97  F   UNL A   1      34.982  34.770  34.471  1.00  0.00    -0.200 F 
ATOM     98  F   UNL A   1      34.180  34.570  31.869  1.00  0.00    -0.200 F 
ENDBRANCH  65  88
ENDBRANCH  39  40
ENDBRANCH  32  34
ENDBRANCH  31  32
ENDBRANCH  30  31
ENDBRANCH   1  30
TORSDOF 17
ENDMDL
MODEL 2
REMARK VINA RESULT:     -13.0      1.831      4.189
REMARK SMILES Cc1c(C[NH2+]C[C@@H]2CCCO2)c(C(=O)OCCOC(=O)c2ccc(-c3c4nc(c(-c5c(F)c(F)c(F)c(F)c5F)c5ccc([nH]5)c(-c5c(F)c(F)c(F)c(F)c5F)c5nc(c(-c6c(F)c(F)c(F)c(F)c6F)c6ccc3[nH]6)C=C5)C=C4)cc2)c(C)n1Cc1ccc(F)cc1
REMARK SMILES IDX 16 1 15 2 13 3 14 4 12 5 1 6 2 7 3 8 86 9 84 10 85 11 4 12
REMARK SMILES IDX 5 13 6 16 7 17 8 18 11 19 9 20 10 21 87 22 88 23 89 24 94 25
REMARK SMILES IDX 90 26 93 27 91 28 92 29 17 30 18 31 19 32 20 33 21 34 22 35
REMARK SMILES IDX 83 36 23 37 82 38 24 39 25 40 26 41 76 42 27 43 81 44 75 45
REMARK SMILES IDX 77 46 28 47 80 48 74 49 73 50 29 52 61 53 41 54 60 55 42 56
REMARK SMILES IDX 45 57 59 58 78 59 43 60 44 61 58 63 79 64 46 65 30 66 31 67
REMARK SMILES IDX 39 68 32 69 33 70 37 71 40 72 34 73 35 74 38 75 36 76 62 77
REMARK SMILES IDX 63 78 71 79 64 80 65 81 69 82 72 83 66 84 67 85 70 86 68 87
REMARK SMILES IDX 47 88 48 89 56 90 49 91 50 92 54 93 57 94 51 95 52 96 55 97
REMARK SMILES IDX 53 98
REMARK H PARENT 5 14 5 15 77 51 45 62
REMARK Flexibility Score: inf
ROOT
ATOM      1  C   UNL A   1      37.590  23.956  25.739  1.00  0.00     0.275 C 
ENDROOT
BRANCH   1   2
ATOM      2  O   UNL A   1      36.399  23.171  25.881  1.00  0.00    -0.458 OA
BRANCH   2   3
ATOM      3  C   UNL A   1      35.221  23.792  25.673  1.00  0.00     0.340 C 
ATOM      4  O   UNL A   1      35.029  25.021  25.843  1.00  0.00    -0.246 OA
BRANCH   3   5
ATOM      5  C   UNL A   1      34.238  22.878  25.138  1.00  0.00     0.089 A 
ATOM      6  C   UNL A   1      32.150  21.326  22.465  1.00  0.00     0.065 C 
ATOM      7  C   UNL A   1      32.925  21.767  23.661  1.00  0.00     0.025 A 
ATOM      8  C   UNL A   1      33.732  22.891  23.804  1.00  0.00     0.042 A 
ATOM      9  N   UNL A   1      32.968  21.051  24.857  1.00  0.00    -0.343 N 
ATOM     10  C   UNL A   1      33.619  21.826  25.808  1.00  0.00     0.030 A 
ATOM     11  C   UNL A   1      33.640  21.558  27.273  1.00  0.00     0.065 C 
BRANCH   8  12
ATOM     12  C   UNL A   1      34.076  23.926  22.772  1.00  0.00     0.300 C 
BRANCH  12  13
ATOM     13  N   UNL A   1      32.918  24.779  22.567  1.00  0.00    -0.340 N 
ATOM     14  H   UNL A   1      32.102  24.300  22.949  1.00  0.00     0.346 HD
ATOM     15  H   UNL A   1      32.866  24.942  21.561  1.00  0.00     0.346 HD
BRANCH  13  16
ATOM     16  C   UNL A   1      32.991  26.100  23.182  1.00  0.00     0.293 C 
BRANCH  16  17
ATOM     17  C   UNL A   1      31.915  26.397  24.237  1.00  0.00     0.173 C 
ATOM     18  C   UNL A   1      32.433  27.087  25.489  1.00  0.00     0.040 C 
ATOM     19  O   UNL A   1      31.320  25.170  24.709  1.00  0.00    -0.372 OA
ATOM     20  C   UNL A   1      31.356  26.745  26.485  1.00  0.00     0.031 C 
ATOM     21  C   UNL A   1      31.006  25.323  26.100  1.00  0.00     0.161 C 
ENDBRANCH  16  17
ENDBRANCH  13  16
ENDBRANCH  12  13
ENDBRANCH   8  12
BRANCH   9  22
ATOM     22  C   UNL A   1      32.263  19.780  25.098  1.00  0.00     0.157 C 
BRANCH  22  23
ATOM     23  C   UNL A   1      33.093  18.511  24.967  1.00  0.00    -0.028 A 
ATOM     24  C   UNL A   1      32.550  17.270  25.354  1.00  0.00     0.008 A 
ATOM     25  C   UNL A   1      34.449  18.536  24.604  1.00  0.00     0.008 A 
ATOM     26  C   UNL A   1      33.339  16.112  25.379  1.00  0.00     0.039 A 
ATOM     27  C   UNL A   1      35.238  17.382  24.623  1.00  0.00     0.039 A 
ATOM     28  C   UNL A   1      34.678  16.179  25.016  1.00  0.00     0.123 A 
ATOM     29  F   UNL A   1      35.439  15.079  25.062  1.00  0.00    -0.207 F 
ENDBRANCH  22  23
ENDBRANCH   9  22
ENDBRANCH   3   5
ENDBRANCH   2   3
ENDBRANCH   1   2
BRANCH   1  30
ATOM     30  C   UNL A   1      38.811  23.238  26.422  1.00  0.00     0.275 C 
BRANCH  30  31
ATOM     31  O   UNL A   1      40.248  23.752  26.359  1.00  0.00    -0.458 OA
BRANCH  31  32
ATOM     32  C   UNL A   1      40.558  25.122  26.440  1.00  0.00     0.338 C 
ATOM     33  O   UNL A   1      40.994  25.724  25.468  1.00  0.00    -0.246 OA
BRANCH  32  34
ATOM     34  C   UNL A   1      40.430  25.911  27.851  1.00  0.00     0.060 A 
ATOM     35  C   UNL A   1      39.274  26.323  28.616  1.00  0.00     0.016 A 
ATOM     36  C   UNL A   1      41.514  26.444  28.457  1.00  0.00     0.016 A 
ATOM     37  C   UNL A   1      39.188  27.219  29.992  1.00  0.00     0.010 A 
ATOM     38  C   UNL A   1      41.375  27.250  29.726  1.00  0.00     0.010 A 
ATOM     39  C   UNL A   1      40.278  27.815  30.687  1.00  0.00    -0.014 A 
BRANCH  39  40
ATOM     40  C   UNL A   1      40.475  28.476  32.484  1.00  0.00     0.031 A 
ATOM     41  C   UNL A   1      41.979  28.660  32.677  1.00  0.00     0.074 A 
ATOM     42  C   UNL A   1      39.948  29.387  33.678  1.00  0.00     0.049 A 
ATOM     43  N   UNL A   1      42.421  29.892  32.560  1.00  0.00    -0.248 NA
ATOM     44  C   UNL A   1      42.778  27.822  31.793  1.00  0.00     0.031 C 
ATOM     45  C   UNL A   1      38.588  29.955  34.023  1.00  0.00     0.029 A 
ATOM     46  N   UNL A   1      40.656  30.189  34.907  1.00  0.00    -0.354 N 
ATOM     47  C   UNL A   1      42.156  30.006  31.178  1.00  0.00     0.074 A 
ATOM     48  C   UNL A   1      42.825  28.726  30.794  1.00  0.00     0.031 C 
ATOM     49  C   UNL A   1      38.548  30.894  35.033  1.00  0.00     0.029 A 
ATOM     50  C   UNL A   1      39.855  31.231  35.690  1.00  0.00     0.049 A 
ATOM     51  H   UNL A   1      41.594  30.005  35.144  1.00  0.00     0.167 HD
ATOM     52  C   UNL A   1      40.956  30.736  30.955  1.00  0.00     0.037 A 
ATOM     53  C   UNL A   1      39.903  32.331  36.717  1.00  0.00     0.037 A 
ATOM     54  C   UNL A   1      41.344  32.013  31.340  1.00  0.00     0.049 A 
ATOM     55  C   UNL A   1      40.184  33.328  35.648  1.00  0.00     0.074 A 
ATOM     56  C   UNL A   1      42.532  32.689  31.460  1.00  0.00     0.029 A 
ATOM     57  N   UNL A   1      40.498  32.553  32.209  1.00  0.00    -0.354 N 
ATOM     58  N   UNL A   1      39.285  34.124  35.147  1.00  0.00    -0.248 NA
ATOM     59  C   UNL A   1      41.611  33.681  35.406  1.00  0.00     0.031 C 
ATOM     60  C   UNL A   1      42.207  33.758  32.298  1.00  0.00     0.029 A 
ATOM     61  C   UNL A   1      40.803  33.859  32.329  1.00  0.00     0.049 A 
ATOM     62  H   UNL A   1      39.776  32.081  32.683  1.00  0.00     0.167 HD
ATOM     63  C   UNL A   1      40.038  34.848  34.244  1.00  0.00     0.074 A 
ATOM     64  C   UNL A   1      41.417  34.808  34.716  1.00  0.00     0.031 C 
ATOM     65  C   UNL A   1      39.734  34.579  32.952  1.00  0.00     0.037 A 
BRANCH  52  66
ATOM     66  C   UNL A   1      39.296  30.600  30.415  1.00  0.00     0.064 A 
ATOM     67  C   UNL A   1      38.037  30.727  31.140  1.00  0.00     0.173 A 
ATOM     68  C   UNL A   1      39.057  30.157  29.100  1.00  0.00     0.173 A 
ATOM     69  F   UNL A   1      37.898  31.287  32.341  1.00  0.00    -0.203 F 
ATOM     70  C   UNL A   1      36.805  30.193  30.735  1.00  0.00     0.198 A 
ATOM     71  C   UNL A   1      37.781  29.705  28.656  1.00  0.00     0.198 A 
ATOM     72  F   UNL A   1      40.061  30.108  28.219  1.00  0.00    -0.203 F 
ATOM     73  F   UNL A   1      35.771  30.175  31.595  1.00  0.00    -0.200 F 
ATOM     74  C   UNL A   1      36.682  29.648  29.495  1.00  0.00     0.200 A 
ATOM     75  F   UNL A   1      37.631  29.286  27.393  1.00  0.00    -0.200 F 
ATOM     76  F   UNL A   1      35.524  29.092  29.115  1.00  0.00    -0.200 F 
ENDBRANCH  52  66
BRANCH  53  77
ATOM     77  C   UNL A   1      40.300  33.536  37.996  1.00  0.00     0.064 A 
ATOM     78  C   UNL A   1      41.295  33.399  38.994  1.00  0.00     0.173 A 
ATOM     79  C   UNL A   1      39.481  34.692  38.446  1.00  0.00     0.173 A 
ATOM     80  F   UNL A   1      41.992  32.259  39.084  1.00  0.00    -0.203 F 
ATOM     81  C   UNL A   1      41.540  34.379  40.067  1.00  0.00     0.198 A 
ATOM     82  C   UNL A   1      39.799  35.736  39.351  1.00  0.00     0.198 A 
ATOM     83  F   UNL A   1      38.153  34.703  38.337  1.00  0.00    -0.203 F 
ATOM     84  F   UNL A   1      42.424  34.105  41.040  1.00  0.00    -0.200 F 
ATOM     85  C   UNL A   1      40.848  35.577  40.186  1.00  0.00     0.200 A 
ATOM     86  F   UNL A   1      38.942  36.762  39.525  1.00  0.00    -0.200 F 
ATOM     87  F   UNL A   1      41.075  36.468  41.166  1.00  0.00    -0.200 F 
ENDBRANCH  53  77
BRANCH  65  88
ATOM     88  C   UNL A   1      38.227  34.363  32.753  1.00  0.00     0.064 A 
ATOM     89  C   UNL A   1      37.768  34.215  31.441  1.00  0.00     0.173 A 
ATOM     90  C   UNL A   1      37.212  34.523  33.721  1.00  0.00     0.173 A 
ATOM     91  F   UNL A   1      38.651  34.059  30.445  1.00  0.00    -0.203 F 
ATOM     92  C   UNL A   1      36.406  34.276  31.125  1.00  0.00     0.198 A 
ATOM     93  C   UNL A   1      35.855  34.576  33.416  1.00  0.00     0.198 A 
ATOM     94  F   UNL A   1      37.486  34.703  35.008  1.00  0.00    -0.203 F 
ATOM     95  F   UNL A   1      36.021  34.167  29.848  1.00  0.00    -0.200 F 
ATOM     96  C   UNL A   1      35.451  34.470  32.110  1.00  0.00     0.200 A 
ATOM     97  F   UNL A   1      34.961  34.765  34.401  1.00  0.00    -0.200 F 
ATOM     98  F   UNL A   1      34.150  34.561  31.801  1.00  0.00    -0.200 F 
ENDBRANCH  65  88
ENDBRANCH  39  40
ENDBRANCH  32  34
ENDBRANCH  31  32
ENDBRANCH  30  31
ENDBRANCH   1  30
TORSDOF 17
ENDMDL
MODEL 3
REMARK VINA RESULT:     -12.9      6.183     11.371
REMARK SMILES Cc1c(C[NH2+]C[C@@H]2CCCO2)c(C(=O)OCCOC(=O)c2ccc(-c3c4nc(c(-c5c(F)c(F)c(F)c(F)c5F)c5ccc([nH]5)c(-c5c(F)c(F)c(F)c(F)c5F)c5nc(c(-c6c(F)c(F)c(F)c(F)c6F)c6ccc3[nH]6)C=C5)C=C4)cc2)c(C)n1Cc1ccc(F)cc1
REMARK SMILES IDX 16 1 15 2 13 3 14 4 12 5 1 6 2 7 3 8 86 9 84 10 85 11 4 12
REMARK SMILES IDX 5 13 6 16 7 17 8 18 11 19 9 20 10 21 87 22 88 23 89 24 94 25
REMARK SMILES IDX 90 26 93 27 91 28 92 29 17 30 18 31 19 32 20 33 21 34 22 35
REMARK SMILES IDX 83 36 23 37 82 38 24 39 25 40 26 41 76 42 27 43 81 44 75 45
REMARK SMILES IDX 77 46 28 47 80 48 74 49 73 50 29 52 61 53 41 54 60 55 42 56
REMARK SMILES IDX 45 57 59 58 78 59 43 60 44 61 58 63 79 64 46 65 30 66 31 67
REMARK SMILES IDX 39 68 32 69 33 70 37 71 40 72 34 73 35 74 38 75 36 76 62 77
REMARK SMILES IDX 63 78 71 79 64 80 65 81 69 82 72 83 66 84 67 85 70 86 68 87
REMARK SMILES IDX 47 88 48 89 56 90 49 91 50 92 54 93 57 94 51 95 52 96 55 97
REMARK SMILES IDX 53 98
REMARK H PARENT 5 14 5 15 77 51 45 62
REMARK Flexibility Score: inf
ROOT
ATOM      1  C   UNL A   1      34.673  29.104  26.995  1.00  0.00     0.275 C 
ENDROOT
BRANCH   1   2
ATOM      2  O   UNL A   1      33.844  29.120  25.826  1.00  0.00    -0.458 OA
BRANCH   2   3
ATOM      3  C   UNL A   1      32.813  28.253  25.788  1.00  0.00     0.340 C 
ATOM      4  O   UNL A   1      31.787  28.341  26.508  1.00  0.00    -0.246 OA
BRANCH   3   5
ATOM      5  C   UNL A   1      32.996  27.269  24.746  1.00  0.00     0.089 A 
ATOM      6  C   UNL A   1      32.903  25.971  21.251  1.00  0.00     0.065 C 
ATOM      7  C   UNL A   1      33.071  26.310  22.694  1.00  0.00     0.025 A 
ATOM      8  C   UNL A   1      32.577  27.407  23.389  1.00  0.00     0.042 A 
ATOM      9  N   UNL A   1      33.818  25.537  23.583  1.00  0.00    -0.343 N 
ATOM     10  C   UNL A   1      33.615  26.027  24.866  1.00  0.00     0.030 A 
ATOM     11  C   UNL A   1      34.003  25.335  26.126  1.00  0.00     0.065 C 
BRANCH   8  12
ATOM     12  C   UNL A   1      31.787  28.567  22.857  1.00  0.00     0.300 C 
BRANCH  12  13
ATOM     13  N   UNL A   1      30.542  28.661  23.599  1.00  0.00    -0.340 N 
ATOM     14  H   UNL A   1      30.408  29.637  23.865  1.00  0.00     0.346 HD
ATOM     15  H   UNL A   1      30.641  28.027  24.392  1.00  0.00     0.346 HD
BRANCH  13  16
ATOM     16  C   UNL A   1      29.347  28.223  22.885  1.00  0.00     0.293 C 
BRANCH  16  17
ATOM     17  C   UNL A   1      28.429  29.348  22.383  1.00  0.00     0.173 C 
ATOM     18  C   UNL A   1      29.143  30.455  21.625  1.00  0.00     0.040 C 
ATOM     19  O   UNL A   1      27.792  30.011  23.494  1.00  0.00    -0.372 OA
ATOM     20  C   UNL A   1      28.164  31.591  21.762  1.00  0.00     0.031 C 
ATOM     21  C   UNL A   1      27.654  31.402  23.174  1.00  0.00     0.161 C 
ENDBRANCH  16  17
ENDBRANCH  13  16
ENDBRANCH  12  13
ENDBRANCH   8  12
BRANCH   9  22
ATOM     22  C   UNL A   1      34.530  24.299  23.222  1.00  0.00     0.157 C 
BRANCH  22  23
ATOM     23  C   UNL A   1      33.806  22.991  23.512  1.00  0.00    -0.028 A 
ATOM     24  C   UNL A   1      34.305  22.110  24.491  1.00  0.00     0.008 A 
ATOM     25  C   UNL A   1      32.721  22.549  22.739  1.00  0.00     0.008 A 
ATOM     26  C   UNL A   1      33.742  20.840  24.675  1.00  0.00     0.039 A 
ATOM     27  C   UNL A   1      32.153  21.285  22.923  1.00  0.00     0.039 A 
ATOM     28  C   UNL A   1      32.672  20.438  23.886  1.00  0.00     0.123 A 
ATOM     29  F   UNL A   1      32.147  19.216  24.044  1.00  0.00    -0.207 F 
ENDBRANCH  22  23
ENDBRANCH   9  22
ENDBRANCH   3   5
ENDBRANCH   2   3
ENDBRANCH   1   2
BRANCH   1  30
ATOM     30  C   UNL A   1      34.445  30.401  27.852  1.00  0.00     0.275 C 
BRANCH  30  31
ATOM     31  O   UNL A   1      35.411  30.897  28.926  1.00  0.00    -0.458 OA
BRANCH  31  32
ATOM     32  C   UNL A   1      36.334  30.042  29.556  1.00  0.00     0.338 C 
ATOM     33  O   UNL A   1      36.047  29.473  30.602  1.00  0.00    -0.246 OA
BRANCH  32  34
ATOM     34  C   UNL A   1      37.830  29.865  28.959  1.00  0.00     0.060 A 
ATOM     35  C   UNL A   1      38.317  29.170  27.787  1.00  0.00     0.016 A 
ATOM     36  C   UNL A   1      38.915  30.283  29.648  1.00  0.00     0.016 A 
ATOM     37  C   UNL A   1      39.861  28.924  27.276  1.00  0.00     0.010 A 
ATOM     38  C   UNL A   1      40.310  30.037  29.123  1.00  0.00     0.010 A 
ATOM     39  C   UNL A   1      41.051  29.329  27.943  1.00  0.00    -0.014 A 
BRANCH  39  40
ATOM     40  C   UNL A   1      42.866  29.564  27.346  1.00  0.00     0.031 A 
ATOM     41  C   UNL A   1      43.540  30.389  28.440  1.00  0.00     0.074 A 
ATOM     42  C   UNL A   1      44.162  28.983  26.625  1.00  0.00     0.049 A 
ATOM     43  N   UNL A   1      44.287  29.713  29.285  1.00  0.00    -0.248 NA
ATOM     44  C   UNL A   1      42.601  31.182  29.222  1.00  0.00     0.031 C 
ATOM     45  C   UNL A   1      44.374  27.874  25.617  1.00  0.00     0.029 A 
ATOM     46  N   UNL A   1      45.764  29.230  26.776  1.00  0.00    -0.354 N 
ATOM     47  C   UNL A   1      43.219  29.010  29.885  1.00  0.00     0.074 A 
ATOM     48  C   UNL A   1      42.371  30.216  30.134  1.00  0.00     0.031 C 
ATOM     49  C   UNL A   1      45.680  27.501  25.375  1.00  0.00     0.029 A 
ATOM     50  C   UNL A   1      46.743  28.253  26.122  1.00  0.00     0.049 A 
ATOM     51  H   UNL A   1      46.101  30.002  27.285  1.00  0.00     0.167 HD
ATOM     52  C   UNL A   1      43.135  27.688  29.367  1.00  0.00     0.037 A 
ATOM     53  C   UNL A   1      48.180  27.822  25.994  1.00  0.00     0.037 A 
ATOM     54  C   UNL A   1      44.278  27.115  29.912  1.00  0.00     0.049 A 
ATOM     55  C   UNL A   1      48.016  26.904  27.154  1.00  0.00     0.074 A 
ATOM     56  C   UNL A   1      45.092  27.369  30.988  1.00  0.00     0.029 A 
ATOM     57  N   UNL A   1      45.020  26.508  28.995  1.00  0.00    -0.354 N 
ATOM     58  N   UNL A   1      47.842  25.620  27.041  1.00  0.00    -0.248 NA
ATOM     59  C   UNL A   1      48.433  27.415  28.490  1.00  0.00     0.031 C 
ATOM     60  C   UNL A   1      46.262  26.674  30.671  1.00  0.00     0.029 A 
ATOM     61  C   UNL A   1      45.951  25.775  29.633  1.00  0.00     0.049 A 
ATOM     62  H   UNL A   1      44.908  26.581  28.020  1.00  0.00     0.167 HD
ATOM     63  C   UNL A   1      47.777  25.237  28.366  1.00  0.00     0.074 A 
ATOM     64  C   UNL A   1      48.502  26.245  29.131  1.00  0.00     0.031 C 
ATOM     65  C   UNL A   1      46.548  24.820  28.748  1.00  0.00     0.037 A 
BRANCH  52  66
ATOM     66  C   UNL A   1      42.179  26.618  28.364  1.00  0.00     0.064 A 
ATOM     67  C   UNL A   1      42.469  25.993  27.079  1.00  0.00     0.173 A 
ATOM     68  C   UNL A   1      40.837  26.388  28.724  1.00  0.00     0.173 A 
ATOM     69  F   UNL A   1      43.683  25.874  26.541  1.00  0.00    -0.203 F 
ATOM     70  C   UNL A   1      41.514  25.516  26.169  1.00  0.00     0.198 A 
ATOM     71  C   UNL A   1      39.886  25.811  27.835  1.00  0.00     0.198 A 
ATOM     72  F   UNL A   1      40.399  26.754  29.933  1.00  0.00    -0.203 F 
ATOM     73  F   UNL A   1      41.892  25.175  24.924  1.00  0.00    -0.200 F 
ATOM     74  C   UNL A   1      40.207  25.454  26.537  1.00  0.00     0.200 A 
ATOM     75  F   UNL A   1      38.623  25.634  28.243  1.00  0.00    -0.200 F 
ATOM     76  F   UNL A   1      39.279  25.045  25.661  1.00  0.00    -0.200 F 
ENDBRANCH  52  66
BRANCH  53  77
ATOM     77  C   UNL A   1      49.968  27.605  26.029  1.00  0.00     0.064 A 
ATOM     78  C   UNL A   1      50.932  28.633  26.173  1.00  0.00     0.173 A 
ATOM     79  C   UNL A   1      50.753  26.420  25.594  1.00  0.00     0.173 A 
ATOM     80  F   UNL A   1      50.538  29.911  26.225  1.00  0.00    -0.203 F 
ATOM     81  C   UNL A   1      52.390  28.421  26.125  1.00  0.00     0.198 A 
ATOM     82  C   UNL A   1      52.139  26.149  25.718  1.00  0.00     0.198 A 
ATOM     83  F   UNL A   1      50.303  25.577  24.665  1.00  0.00    -0.203 F 
ATOM     84  F   UNL A   1      53.225  29.472  26.149  1.00  0.00    -0.200 F 
ATOM     85  C   UNL A   1      52.981  27.172  25.984  1.00  0.00     0.200 A 
ATOM     86  F   UNL A   1      52.626  24.945  25.358  1.00  0.00    -0.200 F 
ATOM     87  F   UNL A   1      54.310  26.983  25.940  1.00  0.00    -0.200 F 
ENDBRANCH  53  77
BRANCH  65  88
ATOM     88  C   UNL A   1      45.849  24.014  27.643  1.00  0.00     0.064 A 
ATOM     89  C   UNL A   1      44.629  23.412  27.963  1.00  0.00     0.173 A 
ATOM     90  C   UNL A   1      46.400  23.615  26.407  1.00  0.00     0.173 A 
ATOM     91  F   UNL A   1      44.021  23.720  29.117  1.00  0.00    -0.203 F 
ATOM     92  C   UNL A   1      44.041  22.451  27.133  1.00  0.00     0.198 A 
ATOM     93  C   UNL A   1      45.818  22.666  25.571  1.00  0.00     0.198 A 
ATOM     94  F   UNL A   1      47.569  24.075  25.973  1.00  0.00    -0.203 F 
ATOM     95  F   UNL A   1      42.891  21.875  27.503  1.00  0.00    -0.200 F 
ATOM     96  C   UNL A   1      44.642  22.068  25.944  1.00  0.00     0.200 A 
ATOM     97  F   UNL A   1      46.434  22.323  24.427  1.00  0.00    -0.200 F 
ATOM     98  F   UNL A   1      44.095  21.124  25.167  1.00  0.00    -0.200 F 
ENDBRANCH  65  88
ENDBRANCH  39  40
ENDBRANCH  32  34
ENDBRANCH  31  32
ENDBRANCH  30  31
ENDBRANCH   1  30
TORSDOF 17
ENDMDL
