MODEL 1
REMARK VINA RESULT:     -13.1      0.000      0.000
REMARK SMILES CC1=NN(c2ccc(Cl)cc2)C(=O)/C1=C/c1ccccc1OCC(=O)OCCOC(=O)c1ccc(-c2c3nc(c(-c4c(F)c(F)c(F)c(F)c4F)c4ccc([nH]4)c(-c4c(F)c(F)c(F)c(F)c4F)c4nc(c(-c5c(F)c(F)c(F)c(F)c5F)c5ccc2[nH]5)C=C4)C=C3)cc1
REMARK SMILES IDX 27 1 26 2 24 3 25 4 23 5 22 6 21 7 16 8 17 9 18 10 20 11
REMARK SMILES IDX 19 12 15 13 1 14 2 15 3 16 14 17 4 18 12 19 13 20 5 21 6 22
REMARK SMILES IDX 11 23 7 24 10 25 8 26 9 27 28 28 29 29 30 30 31 31 32 32
REMARK SMILES IDX 33 33 94 34 34 35 93 36 35 37 36 38 37 39 87 40 38 41 92 42
REMARK SMILES IDX 86 43 88 44 39 45 91 46 85 47 84 48 40 50 72 51 52 52 71 53
REMARK SMILES IDX 53 54 56 55 70 56 89 57 54 58 55 59 69 61 90 62 57 63 41 64
REMARK SMILES IDX 42 65 50 66 43 67 44 68 48 69 51 70 45 71 46 72 49 73 47 74
REMARK SMILES IDX 73 75 74 76 82 77 75 78 76 79 80 80 83 81 77 82 78 83 81 84
REMARK SMILES IDX 79 85 58 86 59 87 67 88 60 89 61 90 65 91 68 92 62 93 63 94
REMARK SMILES IDX 66 95 64 96
REMARK H PARENT 88 49 56 60
REMARK Flexibility Score: inf
ROOT
ATOM      1  C   UNL A   1      33.601  27.793  24.250  1.00  0.00     0.274 C 
ENDROOT
BRANCH   1   2
ATOM      2  O   UNL A   1      33.635  26.329  24.409  1.00  0.00    -0.460 OA
BRANCH   2   3
ATOM      3  C   UNL A   1      33.982  25.611  23.287  1.00  0.00     0.344 C 
ATOM      4  O   UNL A   1      33.834  26.046  22.146  1.00  0.00    -0.248 OA
BRANCH   3   5
ATOM      5  C   UNL A   1      34.712  24.233  23.531  1.00  0.00     0.352 C 
BRANCH   5   6
ATOM      6  O   UNL A   1      34.760  23.510  24.744  1.00  0.00    -0.481 OA
BRANCH   6   7
ATOM      7  C   UNL A   1      34.045  22.395  25.091  1.00  0.00     0.127 A 
ATOM      8  C   UNL A   1      32.740  22.224  25.610  1.00  0.00     0.017 A 
ATOM      9  C   UNL A   1      32.151  20.935  25.565  1.00  0.00     0.012 A 
ATOM     10  C   UNL A   1      32.843  19.834  25.055  1.00  0.00     0.001 A 
ATOM     11  C   UNL A   1      34.762  21.244  24.712  1.00  0.00     0.047 A 
ATOM     12  C   UNL A   1      34.165  19.982  24.667  1.00  0.00     0.004 A 
BRANCH   8  13
ATOM     13  C   UNL A   1      31.824  23.293  26.031  1.00  0.00     0.027 C 
ATOM     14  C   UNL A   1      31.460  22.439  23.027  1.00  0.00     0.069 C 
ATOM     15  C   UNL A   1      31.039  23.720  23.709  1.00  0.00     0.071 C 
ATOM     16  N   UNL A   1      30.597  24.789  23.102  1.00  0.00    -0.169 NA
ATOM     17  C   UNL A   1      31.060  23.946  25.151  1.00  0.00     0.066 C 
ATOM     18  N   UNL A   1      30.159  25.690  24.054  1.00  0.00    -0.196 N 
ATOM     19  C   UNL A   1      30.323  25.223  25.373  1.00  0.00     0.280 C 
ATOM     20  O   UNL A   1      29.994  25.676  26.442  1.00  0.00    -0.267 OA
BRANCH  18  21
ATOM     21  C   UNL A   1      29.538  26.883  23.585  1.00  0.00     0.069 A 
ATOM     22  C   UNL A   1      28.185  27.158  23.805  1.00  0.00     0.030 A 
ATOM     23  C   UNL A   1      30.284  27.833  22.856  1.00  0.00     0.030 A 
ATOM     24  C   UNL A   1      27.605  28.343  23.320  1.00  0.00     0.023 A 
ATOM     25  C   UNL A   1      29.713  29.019  22.377  1.00  0.00     0.023 A 
ATOM     26  C   UNL A   1      28.369  29.268  22.613  1.00  0.00     0.041 A 
ATOM     27  Cl  UNL A   1      27.653  30.715  22.022  1.00  0.00    -0.084 Cl
ENDBRANCH  18  21
ENDBRANCH   8  13
ENDBRANCH   6   7
ENDBRANCH   5   6
ENDBRANCH   3   5
ENDBRANCH   2   3
ENDBRANCH   1   2
BRANCH   1  28
ATOM     28  C   UNL A   1      32.679  28.602  25.260  1.00  0.00     0.275 C 
BRANCH  28  29
ATOM     29  O   UNL A   1      32.861  30.070  25.291  1.00  0.00    -0.458 OA
BRANCH  29  30
ATOM     30  C   UNL A   1      32.927  30.719  26.506  1.00  0.00     0.338 C 
ATOM     31  O   UNL A   1      31.961  31.222  27.063  1.00  0.00    -0.246 OA
BRANCH  30  32
ATOM     32  C   UNL A   1      34.272  30.576  27.224  1.00  0.00     0.060 A 
ATOM     33  C   UNL A   1      34.768  29.348  27.638  1.00  0.00     0.016 A 
ATOM     34  C   UNL A   1      35.020  31.692  27.626  1.00  0.00     0.016 A 
ATOM     35  C   UNL A   1      35.827  29.235  28.564  1.00  0.00     0.010 A 
ATOM     36  C   UNL A   1      36.221  31.557  28.393  1.00  0.00     0.010 A 
ATOM     37  C   UNL A   1      36.658  30.315  28.893  1.00  0.00    -0.014 A 
BRANCH  37  38
ATOM     38  C   UNL A   1      37.975  30.110  29.646  1.00  0.00     0.031 A 
ATOM     39  C   UNL A   1      39.126  29.279  29.090  1.00  0.00     0.074 A 
ATOM     40  C   UNL A   1      38.191  30.649  30.875  1.00  0.00     0.049 A 
ATOM     41  N   UNL A   1      40.167  28.769  29.714  1.00  0.00    -0.248 NA
ATOM     42  C   UNL A   1      39.116  29.000  27.647  1.00  0.00     0.031 C 
ATOM     43  C   UNL A   1      37.281  31.537  31.599  1.00  0.00     0.029 A 
ATOM     44  N   UNL A   1      39.261  30.526  31.747  1.00  0.00    -0.354 N 
ATOM     45  C   UNL A   1      40.890  28.050  28.765  1.00  0.00     0.074 A 
ATOM     46  C   UNL A   1      40.183  28.219  27.509  1.00  0.00     0.031 C 
ATOM     47  C   UNL A   1      37.846  31.931  32.746  1.00  0.00     0.029 A 
ATOM     48  C   UNL A   1      39.088  31.197  32.939  1.00  0.00     0.049 A 
ATOM     49  H   UNL A   1      40.071  30.008  31.535  1.00  0.00     0.167 HD
ATOM     50  C   UNL A   1      42.021  27.310  28.915  1.00  0.00     0.037 A 
ATOM     51  C   UNL A   1      39.765  31.181  34.108  1.00  0.00     0.037 A 
ATOM     52  C   UNL A   1      42.791  27.178  30.133  1.00  0.00     0.049 A 
ATOM     53  C   UNL A   1      40.959  30.289  34.288  1.00  0.00     0.074 A 
ATOM     54  C   UNL A   1      43.938  26.427  30.354  1.00  0.00     0.029 A 
ATOM     55  N   UNL A   1      42.516  27.825  31.326  1.00  0.00    -0.354 N 
ATOM     56  N   UNL A   1      41.544  29.509  33.417  1.00  0.00    -0.248 NA
ATOM     57  C   UNL A   1      41.563  30.249  35.631  1.00  0.00     0.031 C 
ATOM     58  C   UNL A   1      44.331  26.586  31.689  1.00  0.00     0.029 A 
ATOM     59  C   UNL A   1      43.457  27.475  32.288  1.00  0.00     0.049 A 
ATOM     60  H   UNL A   1      41.764  28.442  31.472  1.00  0.00     0.167 HD
ATOM     61  C   UNL A   1      42.585  28.892  34.101  1.00  0.00     0.074 A 
ATOM     62  C   UNL A   1      42.568  29.403  35.453  1.00  0.00     0.031 C 
ATOM     63  C   UNL A   1      43.463  27.972  33.638  1.00  0.00     0.037 A 
BRANCH  50  64
ATOM     64  C   UNL A   1      42.492  26.501  27.736  1.00  0.00     0.064 A 
ATOM     65  C   UNL A   1      43.512  26.941  26.881  1.00  0.00     0.173 A 
ATOM     66  C   UNL A   1      41.960  25.219  27.513  1.00  0.00     0.173 A 
ATOM     67  F   UNL A   1      44.057  28.154  27.050  1.00  0.00    -0.203 F 
ATOM     68  C   UNL A   1      43.959  26.142  25.829  1.00  0.00     0.198 A 
ATOM     69  C   UNL A   1      42.428  24.413  26.478  1.00  0.00     0.198 A 
ATOM     70  F   UNL A   1      40.999  24.737  28.316  1.00  0.00    -0.203 F 
ATOM     71  F   UNL A   1      44.907  26.599  24.999  1.00  0.00    -0.200 F 
ATOM     72  C   UNL A   1      43.421  24.878  25.632  1.00  0.00     0.200 A 
ATOM     73  F   UNL A   1      41.919  23.185  26.303  1.00  0.00    -0.200 F 
ATOM     74  F   UNL A   1      43.857  24.110  24.623  1.00  0.00    -0.200 F 
ENDBRANCH  50  64
BRANCH  51  75
ATOM     75  C   UNL A   1      39.256  31.975  35.263  1.00  0.00     0.064 A 
ATOM     76  C   UNL A   1      38.481  31.383  36.268  1.00  0.00     0.173 A 
ATOM     77  C   UNL A   1      39.531  33.348  35.375  1.00  0.00     0.173 A 
ATOM     78  F   UNL A   1      38.153  30.085  36.184  1.00  0.00    -0.203 F 
ATOM     79  C   UNL A   1      37.999  32.132  37.340  1.00  0.00     0.198 A 
ATOM     80  C   UNL A   1      39.083  34.087  36.467  1.00  0.00     0.198 A 
ATOM     81  F   UNL A   1      40.257  33.968  34.432  1.00  0.00    -0.203 F 
ATOM     82  F   UNL A   1      37.220  31.554  38.263  1.00  0.00    -0.200 F 
ATOM     83  C   UNL A   1      38.312  33.480  37.445  1.00  0.00     0.200 A 
ATOM     84  F   UNL A   1      39.401  35.385  36.570  1.00  0.00    -0.200 F 
ATOM     85  F   UNL A   1      37.862  34.196  38.484  1.00  0.00    -0.200 F 
ENDBRANCH  51  75
BRANCH  63  86
ATOM     86  C   UNL A   1      44.511  27.473  34.591  1.00  0.00     0.064 A 
ATOM     87  C   UNL A   1      44.313  26.318  35.362  1.00  0.00     0.173 A 
ATOM     88  C   UNL A   1      45.733  28.150  34.728  1.00  0.00     0.173 A 
ATOM     89  F   UNL A   1      43.154  25.646  35.286  1.00  0.00    -0.203 F 
ATOM     90  C   UNL A   1      45.291  25.870  36.248  1.00  0.00     0.198 A 
ATOM     91  C   UNL A   1      46.717  27.687  35.598  1.00  0.00     0.198 A 
ATOM     92  F   UNL A   1      45.972  29.261  34.016  1.00  0.00    -0.203 F 
ATOM     93  F   UNL A   1      45.062  24.788  37.006  1.00  0.00    -0.200 F 
ATOM     94  C   UNL A   1      46.494  26.551  36.361  1.00  0.00     0.200 A 
ATOM     95  F   UNL A   1      47.880  28.344  35.702  1.00  0.00    -0.200 F 
ATOM     96  F   UNL A   1      47.433  26.119  37.213  1.00  0.00    -0.200 F 
ENDBRANCH  63  86
ENDBRANCH  37  38
ENDBRANCH  30  32
ENDBRANCH  29  30
ENDBRANCH  28  29
ENDBRANCH   1  28
TORSDOF 15
ENDMDL
MODEL 2
REMARK VINA RESULT:     -13.1      0.393      1.598
REMARK SMILES CC1=NN(c2ccc(Cl)cc2)C(=O)/C1=C/c1ccccc1OCC(=O)OCCOC(=O)c1ccc(-c2c3nc(c(-c4c(F)c(F)c(F)c(F)c4F)c4ccc([nH]4)c(-c4c(F)c(F)c(F)c(F)c4F)c4nc(c(-c5c(F)c(F)c(F)c(F)c5F)c5ccc2[nH]5)C=C4)C=C3)cc1
REMARK SMILES IDX 27 1 26 2 24 3 25 4 23 5 22 6 21 7 16 8 17 9 18 10 20 11
REMARK SMILES IDX 19 12 15 13 1 14 2 15 3 16 14 17 4 18 12 19 13 20 5 21 6 22
REMARK SMILES IDX 11 23 7 24 10 25 8 26 9 27 28 28 29 29 30 30 31 31 32 32
REMARK SMILES IDX 33 33 94 34 34 35 93 36 35 37 36 38 37 39 87 40 38 41 92 42
REMARK SMILES IDX 86 43 88 44 39 45 91 46 85 47 84 48 40 50 72 51 52 52 71 53
REMARK SMILES IDX 53 54 56 55 70 56 89 57 54 58 55 59 69 61 90 62 57 63 41 64
REMARK SMILES IDX 42 65 50 66 43 67 44 68 48 69 51 70 45 71 46 72 49 73 47 74
REMARK SMILES IDX 73 75 74 76 82 77 75 78 76 79 80 80 83 81 77 82 78 83 81 84
REMARK SMILES IDX 79 85 58 86 59 87 67 88 60 89 61 90 65 91 68 92 62 93 63 94
REMARK SMILES IDX 66 95 64 96
REMARK H PARENT 88 49 56 60
REMARK Flexibility Score: inf
ROOT
ATOM      1  C   UNL A   1      33.910  28.341  24.339  1.00  0.00     0.274 C 
ENDROOT
BRANCH   1   2
ATOM      2  O   UNL A   1      33.623  27.057  25.003  1.00  0.00    -0.460 OA
BRANCH   2   3
ATOM      3  C   UNL A   1      33.990  25.927  24.310  1.00  0.00     0.344 C 
ATOM      4  O   UNL A   1      33.927  25.848  23.083  1.00  0.00    -0.248 OA
BRANCH   3   5
ATOM      5  C   UNL A   1      34.630  24.758  25.156  1.00  0.00     0.352 C 
BRANCH   5   6
ATOM      6  O   UNL A   1      34.878  23.439  24.714  1.00  0.00    -0.481 OA
BRANCH   6   7
ATOM      7  C   UNL A   1      34.249  22.286  25.102  1.00  0.00     0.127 A 
ATOM      8  C   UNL A   1      32.970  22.039  25.652  1.00  0.00     0.017 A 
ATOM      9  C   UNL A   1      32.471  20.712  25.650  1.00  0.00     0.012 A 
ATOM     10  C   UNL A   1      33.226  19.649  25.150  1.00  0.00     0.001 A 
ATOM     11  C   UNL A   1      35.036  21.178  24.733  1.00  0.00     0.047 A 
ATOM     12  C   UNL A   1      34.527  19.878  24.730  1.00  0.00     0.004 A 
BRANCH   8  13
ATOM     13  C   UNL A   1      31.990  23.053  26.069  1.00  0.00     0.027 C 
ATOM     14  C   UNL A   1      31.793  22.293  23.024  1.00  0.00     0.069 C 
ATOM     15  C   UNL A   1      31.287  23.530  23.731  1.00  0.00     0.071 C 
ATOM     16  N   UNL A   1      30.826  24.600  23.141  1.00  0.00    -0.169 NA
ATOM     17  C   UNL A   1      31.237  23.704  25.179  1.00  0.00     0.066 C 
ATOM     18  N   UNL A   1      30.309  25.447  24.104  1.00  0.00    -0.196 N 
ATOM     19  C   UNL A   1      30.436  24.941  25.411  1.00  0.00     0.280 C 
ATOM     20  O   UNL A   1      30.042  25.340  26.480  1.00  0.00    -0.267 OA
BRANCH  18  21
ATOM     21  C   UNL A   1      29.657  26.629  23.649  1.00  0.00     0.069 A 
ATOM     22  C   UNL A   1      28.292  26.856  23.850  1.00  0.00     0.030 A 
ATOM     23  C   UNL A   1      30.384  27.619  22.952  1.00  0.00     0.030 A 
ATOM     24  C   UNL A   1      27.682  28.031  23.380  1.00  0.00     0.023 A 
ATOM     25  C   UNL A   1      29.782  28.795  22.489  1.00  0.00     0.023 A 
ATOM     26  C   UNL A   1      28.427  28.995  22.705  1.00  0.00     0.041 A 
ATOM     27  Cl  UNL A   1      27.673  30.431  22.133  1.00  0.00    -0.084 Cl
ENDBRANCH  18  21
ENDBRANCH   8  13
ENDBRANCH   6   7
ENDBRANCH   5   6
ENDBRANCH   3   5
ENDBRANCH   2   3
ENDBRANCH   1   2
BRANCH   1  28
ATOM     28  C   UNL A   1      32.853  29.509  24.551  1.00  0.00     0.275 C 
BRANCH  28  29
ATOM     29  O   UNL A   1      32.366  29.718  25.932  1.00  0.00    -0.458 OA
BRANCH  29  30
ATOM     30  C   UNL A   1      32.765  30.839  26.629  1.00  0.00     0.338 C 
ATOM     31  O   UNL A   1      32.040  31.800  26.846  1.00  0.00    -0.246 OA
BRANCH  30  32
ATOM     32  C   UNL A   1      34.130  30.704  27.310  1.00  0.00     0.060 A 
ATOM     33  C   UNL A   1      34.645  29.479  27.709  1.00  0.00     0.016 A 
ATOM     34  C   UNL A   1      34.882  31.825  27.692  1.00  0.00     0.016 A 
ATOM     35  C   UNL A   1      35.730  29.373  28.606  1.00  0.00     0.010 A 
ATOM     36  C   UNL A   1      36.104  31.697  28.426  1.00  0.00     0.010 A 
ATOM     37  C   UNL A   1      36.562  30.457  28.913  1.00  0.00    -0.014 A 
BRANCH  37  38
ATOM     38  C   UNL A   1      37.900  30.260  29.629  1.00  0.00     0.031 A 
ATOM     39  C   UNL A   1      39.040  29.434  29.043  1.00  0.00     0.074 A 
ATOM     40  C   UNL A   1      38.147  30.802  30.851  1.00  0.00     0.049 A 
ATOM     41  N   UNL A   1      40.101  28.931  29.638  1.00  0.00    -0.248 NA
ATOM     42  C   UNL A   1      38.992  29.155  27.602  1.00  0.00     0.031 C 
ATOM     43  C   UNL A   1      37.253  31.686  31.600  1.00  0.00     0.029 A 
ATOM     44  N   UNL A   1      39.242  30.686  31.694  1.00  0.00    -0.354 N 
ATOM     45  C   UNL A   1      40.801  28.215  28.671  1.00  0.00     0.074 A 
ATOM     46  C   UNL A   1      40.059  28.379  27.434  1.00  0.00     0.031 C 
ATOM     47  C   UNL A   1      37.847  32.084  32.731  1.00  0.00     0.029 A 
ATOM     48  C   UNL A   1      39.097  31.357  32.890  1.00  0.00     0.049 A 
ATOM     49  H   UNL A   1      40.048  30.172  31.460  1.00  0.00     0.167 HD
ATOM     50  C   UNL A   1      41.940  27.481  28.791  1.00  0.00     0.037 A 
ATOM     51  C   UNL A   1      39.807  31.346  34.040  1.00  0.00     0.037 A 
ATOM     52  C   UNL A   1      42.744  27.355  29.988  1.00  0.00     0.049 A 
ATOM     53  C   UNL A   1      41.010  30.461  34.187  1.00  0.00     0.074 A 
ATOM     54  C   UNL A   1      43.900  26.610  30.178  1.00  0.00     0.029 A 
ATOM     55  N   UNL A   1      42.499  28.002  31.186  1.00  0.00    -0.354 N 
ATOM     56  N   UNL A   1      41.575  29.683  33.302  1.00  0.00    -0.248 NA
ATOM     57  C   UNL A   1      41.650  30.425  35.513  1.00  0.00     0.031 C 
ATOM     58  C   UNL A   1      44.329  26.773  31.501  1.00  0.00     0.029 A 
ATOM     59  C   UNL A   1      43.467  27.658  32.123  1.00  0.00     0.049 A 
ATOM     60  H   UNL A   1      41.747  28.615  31.353  1.00  0.00     0.167 HD
ATOM     61  C   UNL A   1      42.637  29.072  33.958  1.00  0.00     0.074 A 
ATOM     62  C   UNL A   1      42.655  29.585  35.309  1.00  0.00     0.031 C 
ATOM     63  C   UNL A   1      43.508  28.156  33.471  1.00  0.00     0.037 A 
BRANCH  50  64
ATOM     64  C   UNL A   1      42.383  26.673  27.600  1.00  0.00     0.064 A 
ATOM     65  C   UNL A   1      43.385  27.112  26.724  1.00  0.00     0.173 A 
ATOM     66  C   UNL A   1      41.842  25.393  27.386  1.00  0.00     0.173 A 
ATOM     67  F   UNL A   1      43.937  28.324  26.884  1.00  0.00    -0.203 F 
ATOM     68  C   UNL A   1      43.807  26.314  25.661  1.00  0.00     0.198 A 
ATOM     69  C   UNL A   1      42.285  24.588  26.340  1.00  0.00     0.198 A 
ATOM     70  F   UNL A   1      40.897  24.913  28.209  1.00  0.00    -0.203 F 
ATOM     71  F   UNL A   1      44.738  26.770  24.811  1.00  0.00    -0.200 F 
ATOM     72  C   UNL A   1      43.261  25.053  25.473  1.00  0.00     0.200 A 
ATOM     73  F   UNL A   1      41.769  23.362  26.173  1.00  0.00    -0.200 F 
ATOM     74  F   UNL A   1      43.673  24.286  24.453  1.00  0.00    -0.200 F 
ENDBRANCH  50  64
BRANCH  51  75
ATOM     75  C   UNL A   1      39.326  32.139  35.208  1.00  0.00     0.064 A 
ATOM     76  C   UNL A   1      39.680  33.484  35.369  1.00  0.00     0.173 A 
ATOM     77  C   UNL A   1      38.509  31.557  36.191  1.00  0.00     0.173 A 
ATOM     78  F   UNL A   1      40.495  34.074  34.481  1.00  0.00    -0.203 F 
ATOM     79  C   UNL A   1      39.236  34.218  36.468  1.00  0.00     0.198 A 
ATOM     80  C   UNL A   1      38.033  32.301  37.267  1.00  0.00     0.198 A 
ATOM     81  F   UNL A   1      38.152  30.268  36.092  1.00  0.00    -0.203 F 
ATOM     82  F   UNL A   1      39.627  35.489  36.625  1.00  0.00    -0.200 F 
ATOM     83  C   UNL A   1      38.402  33.630  37.408  1.00  0.00     0.200 A 
ATOM     84  F   UNL A   1      37.216  31.731  38.163  1.00  0.00    -0.200 F 
ATOM     85  F   UNL A   1      37.963  34.340  38.456  1.00  0.00    -0.200 F 
ENDBRANCH  51  75
BRANCH  63  86
ATOM     86  C   UNL A   1      44.584  27.665  34.396  1.00  0.00     0.064 A 
ATOM     87  C   UNL A   1      45.809  28.336  34.520  1.00  0.00     0.173 A 
ATOM     88  C   UNL A   1      44.385  26.516  35.177  1.00  0.00     0.173 A 
ATOM     89  F   UNL A   1      46.060  29.426  33.779  1.00  0.00    -0.203 F 
ATOM     90  C   UNL A   1      46.802  27.865  35.377  1.00  0.00     0.198 A 
ATOM     91  C   UNL A   1      45.371  26.061  36.049  1.00  0.00     0.198 A 
ATOM     92  F   UNL A   1      43.232  25.835  35.095  1.00  0.00    -0.203 F 
ATOM     93  F   UNL A   1      47.982  28.499  35.446  1.00  0.00    -0.200 F 
ATOM     94  C   UNL A   1      46.581  26.731  36.145  1.00  0.00     0.200 A 
ATOM     95  F   UNL A   1      45.152  24.968  36.794  1.00  0.00    -0.200 F 
ATOM     96  F   UNL A   1      47.536  26.280  36.969  1.00  0.00    -0.200 F 
ENDBRANCH  63  86
ENDBRANCH  37  38
ENDBRANCH  30  32
ENDBRANCH  29  30
ENDBRANCH  28  29
ENDBRANCH   1  28
TORSDOF 15
ENDMDL
MODEL 3
REMARK VINA RESULT:     -13.1      2.636      7.456
REMARK SMILES CC1=NN(c2ccc(Cl)cc2)C(=O)/C1=C/c1ccccc1OCC(=O)OCCOC(=O)c1ccc(-c2c3nc(c(-c4c(F)c(F)c(F)c(F)c4F)c4ccc([nH]4)c(-c4c(F)c(F)c(F)c(F)c4F)c4nc(c(-c5c(F)c(F)c(F)c(F)c5F)c5ccc2[nH]5)C=C4)C=C3)cc1
REMARK SMILES IDX 27 1 26 2 24 3 25 4 23 5 22 6 21 7 16 8 17 9 18 10 20 11
REMARK SMILES IDX 19 12 15 13 1 14 2 15 3 16 14 17 4 18 12 19 13 20 5 21 6 22
REMARK SMILES IDX 11 23 7 24 10 25 8 26 9 27 28 28 29 29 30 30 31 31 32 32
REMARK SMILES IDX 33 33 94 34 34 35 93 36 35 37 36 38 37 39 87 40 38 41 92 42
REMARK SMILES IDX 86 43 88 44 39 45 91 46 85 47 84 48 40 50 72 51 52 52 71 53
REMARK SMILES IDX 53 54 56 55 70 56 89 57 54 58 55 59 69 61 90 62 57 63 41 64
REMARK SMILES IDX 42 65 50 66 43 67 44 68 48 69 51 70 45 71 46 72 49 73 47 74
REMARK SMILES IDX 73 75 74 76 82 77 75 78 76 79 80 80 83 81 77 82 78 83 81 84
REMARK SMILES IDX 79 85 58 86 59 87 67 88 60 89 61 90 65 91 68 92 62 93 63 94
REMARK SMILES IDX 66 95 64 96
REMARK H PARENT 88 49 56 60
REMARK Flexibility Score: inf
ROOT
ATOM      1  C   UNL A   1      40.783  20.414  26.792  1.00  0.00     0.274 C 
ENDROOT
BRANCH   1   2
ATOM      2  O   UNL A   1      39.641  20.231  25.880  1.00  0.00    -0.460 OA
BRANCH   2   3
ATOM      3  C   UNL A   1      38.789  21.304  25.761  1.00  0.00     0.344 C 
ATOM      4  O   UNL A   1      38.937  22.346  26.399  1.00  0.00    -0.248 OA
BRANCH   3   5
ATOM      5  C   UNL A   1      37.666  21.193  24.657  1.00  0.00     0.352 C 
BRANCH   5   6
ATOM      6  O   UNL A   1      36.534  22.027  24.522  1.00  0.00    -0.481 OA
BRANCH   6   7
ATOM      7  C   UNL A   1      35.219  21.657  24.429  1.00  0.00     0.127 A 
ATOM      8  C   UNL A   1      34.110  22.244  23.776  1.00  0.00     0.017 A 
ATOM      9  C   UNL A   1      32.941  21.464  23.582  1.00  0.00     0.012 A 
ATOM     10  C   UNL A   1      32.854  20.152  24.050  1.00  0.00     0.001 A 
ATOM     11  C   UNL A   1      35.049  20.384  25.006  1.00  0.00     0.047 A 
ATOM     12  C   UNL A   1      33.895  19.626  24.800  1.00  0.00     0.004 A 
BRANCH   8  13
ATOM     13  C   UNL A   1      34.091  23.544  23.090  1.00  0.00     0.027 C 
ATOM     14  C   UNL A   1      33.090  23.681  26.068  1.00  0.00     0.069 C 
ATOM     15  C   UNL A   1      32.844  24.652  24.936  1.00  0.00     0.071 C 
ATOM     16  N   UNL A   1      32.002  25.649  24.967  1.00  0.00    -0.169 NA
ATOM     17  C   UNL A   1      33.519  24.617  23.642  1.00  0.00     0.066 C 
ATOM     18  N   UNL A   1      32.170  26.406  23.823  1.00  0.00    -0.196 N 
ATOM     19  C   UNL A   1      33.162  25.896  22.963  1.00  0.00     0.280 C 
ATOM     20  O   UNL A   1      33.641  26.311  21.936  1.00  0.00    -0.267 OA
BRANCH  18  21
ATOM     21  C   UNL A   1      31.412  27.608  23.719  1.00  0.00     0.069 A 
ATOM     22  C   UNL A   1      31.663  28.723  24.525  1.00  0.00     0.030 A 
ATOM     23  C   UNL A   1      30.354  27.704  22.791  1.00  0.00     0.030 A 
ATOM     24  C   UNL A   1      30.889  29.889  24.400  1.00  0.00     0.023 A 
ATOM     25  C   UNL A   1      29.584  28.866  22.656  1.00  0.00     0.023 A 
ATOM     26  C   UNL A   1      29.857  29.958  23.467  1.00  0.00     0.041 A 
ATOM     27  Cl  UNL A   1      28.914  31.388  23.319  1.00  0.00    -0.084 Cl
ENDBRANCH  18  21
ENDBRANCH   8  13
ENDBRANCH   6   7
ENDBRANCH   5   6
ENDBRANCH   3   5
ENDBRANCH   2   3
ENDBRANCH   1   2
BRANCH   1  28
ATOM     28  C   UNL A   1      42.151  20.892  26.140  1.00  0.00     0.275 C 
BRANCH  28  29
ATOM     29  O   UNL A   1      42.071  22.017  25.183  1.00  0.00    -0.458 OA
BRANCH  29  30
ATOM     30  C   UNL A   1      43.056  22.982  25.187  1.00  0.00     0.338 C 
ATOM     31  O   UNL A   1      43.936  23.059  24.341  1.00  0.00    -0.246 OA
BRANCH  30  32
ATOM     32  C   UNL A   1      42.841  24.097  26.215  1.00  0.00     0.060 A 
ATOM     33  C   UNL A   1      42.169  23.887  27.411  1.00  0.00     0.016 A 
ATOM     34  C   UNL A   1      43.192  25.428  25.948  1.00  0.00     0.016 A 
ATOM     35  C   UNL A   1      41.692  24.952  28.205  1.00  0.00     0.010 A 
ATOM     36  C   UNL A   1      42.890  26.485  26.866  1.00  0.00     0.010 A 
ATOM     37  C   UNL A   1      42.119  26.275  28.026  1.00  0.00    -0.014 A 
BRANCH  37  38
ATOM     38  C   UNL A   1      41.840  27.353  29.075  1.00  0.00     0.031 A 
ATOM     39  C   UNL A   1      42.696  27.535  30.324  1.00  0.00     0.074 A 
ATOM     40  C   UNL A   1      40.792  28.211  28.962  1.00  0.00     0.049 A 
ATOM     41  N   UNL A   1      42.426  28.188  31.436  1.00  0.00    -0.248 NA
ATOM     42  C   UNL A   1      44.030  26.921  30.317  1.00  0.00     0.031 C 
ATOM     43  C   UNL A   1      39.862  28.294  27.835  1.00  0.00     0.029 A 
ATOM     44  N   UNL A   1      40.323  29.194  29.821  1.00  0.00    -0.354 N 
ATOM     45  C   UNL A   1      43.515  28.001  32.284  1.00  0.00     0.074 A 
ATOM     46  C   UNL A   1      44.469  27.198  31.542  1.00  0.00     0.031 C 
ATOM     47  C   UNL A   1      38.998  29.297  28.030  1.00  0.00     0.029 A 
ATOM     48  C   UNL A   1      39.187  29.831  29.370  1.00  0.00     0.049 A 
ATOM     49  H   UNL A   1      40.761  29.416  30.674  1.00  0.00     0.167 HD
ATOM     50  C   UNL A   1      43.705  28.437  33.558  1.00  0.00     0.037 A 
ATOM     51  C   UNL A   1      38.314  30.678  29.959  1.00  0.00     0.037 A 
ATOM     52  C   UNL A   1      42.810  29.297  34.301  1.00  0.00     0.049 A 
ATOM     53  C   UNL A   1      38.489  31.079  31.395  1.00  0.00     0.074 A 
ATOM     54  C   UNL A   1      42.940  29.760  35.604  1.00  0.00     0.029 A 
ATOM     55  N   UNL A   1      41.639  29.846  33.810  1.00  0.00    -0.354 N 
ATOM     56  N   UNL A   1      39.454  30.777  32.224  1.00  0.00    -0.248 NA
ATOM     57  C   UNL A   1      37.427  31.909  31.988  1.00  0.00     0.031 C 
ATOM     58  C   UNL A   1      41.827  30.552  35.914  1.00  0.00     0.029 A 
ATOM     59  C   UNL A   1      41.028  30.623  34.788  1.00  0.00     0.049 A 
ATOM     60  H   UNL A   1      41.288  29.706  32.901  1.00  0.00     0.167 HD
ATOM     61  C   UNL A   1      39.121  31.383  33.429  1.00  0.00     0.074 A 
ATOM     62  C   UNL A   1      37.877  32.089  33.221  1.00  0.00     0.031 C 
ATOM     63  C   UNL A   1      39.793  31.337  34.604  1.00  0.00     0.037 A 
BRANCH  50  64
ATOM     64  C   UNL A   1      44.921  27.940  34.295  1.00  0.00     0.064 A 
ATOM     65  C   UNL A   1      46.094  28.697  34.408  1.00  0.00     0.173 A 
ATOM     66  C   UNL A   1      44.870  26.707  34.970  1.00  0.00     0.173 A 
ATOM     67  F   UNL A   1      46.195  29.881  33.786  1.00  0.00    -0.203 F 
ATOM     68  C   UNL A   1      47.182  28.227  35.143  1.00  0.00     0.198 A 
ATOM     69  C   UNL A   1      45.948  26.254  35.726  1.00  0.00     0.198 A 
ATOM     70  F   UNL A   1      43.762  25.953  34.917  1.00  0.00    -0.203 F 
ATOM     71  F   UNL A   1      48.309  28.950  35.205  1.00  0.00    -0.200 F 
ATOM     72  C   UNL A   1      47.106  27.010  35.805  1.00  0.00     0.200 A 
ATOM     73  F   UNL A   1      45.864  25.086  36.380  1.00  0.00    -0.200 F 
ATOM     74  F   UNL A   1      48.152  26.564  36.515  1.00  0.00    -0.200 F 
ENDBRANCH  50  64
BRANCH  51  75
ATOM     75  C   UNL A   1      37.108  31.132  29.208  1.00  0.00     0.064 A 
ATOM     76  C   UNL A   1      37.005  32.440  28.719  1.00  0.00     0.173 A 
ATOM     77  C   UNL A   1      36.031  30.262  28.976  1.00  0.00     0.173 A 
ATOM     78  F   UNL A   1      37.988  33.322  28.954  1.00  0.00    -0.203 F 
ATOM     79  C   UNL A   1      35.871  32.861  28.026  1.00  0.00     0.198 A 
ATOM     80  C   UNL A   1      34.916  30.671  28.249  1.00  0.00     0.198 A 
ATOM     81  F   UNL A   1      36.072  29.002  29.435  1.00  0.00    -0.203 F 
ATOM     82  F   UNL A   1      35.776  34.130  27.610  1.00  0.00    -0.200 F 
ATOM     83  C   UNL A   1      34.834  31.973  27.780  1.00  0.00     0.200 A 
ATOM     84  F   UNL A   1      33.924  29.804  28.002  1.00  0.00    -0.200 F 
ATOM     85  F   UNL A   1      33.751  32.374  27.101  1.00  0.00    -0.200 F 
ENDBRANCH  51  75
BRANCH  63  86
ATOM     86  C   UNL A   1      39.216  32.102  35.761  1.00  0.00     0.064 A 
ATOM     87  C   UNL A   1      38.352  31.495  36.685  1.00  0.00     0.173 A 
ATOM     88  C   UNL A   1      39.540  33.453  35.957  1.00  0.00     0.173 A 
ATOM     89  F   UNL A   1      37.993  30.212  36.531  1.00  0.00    -0.203 F 
ATOM     90  C   UNL A   1      37.819  32.218  37.751  1.00  0.00     0.198 A 
ATOM     91  C   UNL A   1      39.023  34.166  37.036  1.00  0.00     0.198 A 
ATOM     92  F   UNL A   1      40.359  34.082  35.102  1.00  0.00    -0.203 F 
ATOM     93  F   UNL A   1      36.962  31.629  38.596  1.00  0.00    -0.200 F 
ATOM     94  C   UNL A   1      38.159  33.551  37.928  1.00  0.00     0.200 A 
ATOM     95  F   UNL A   1      39.356  35.453  37.208  1.00  0.00    -0.200 F 
ATOM     96  F   UNL A   1      37.645  34.244  38.954  1.00  0.00    -0.200 F 
ENDBRANCH  63  86
ENDBRANCH  37  38
ENDBRANCH  30  32
ENDBRANCH  29  30
ENDBRANCH  28  29
ENDBRANCH   1  28
TORSDOF 15
ENDMDL
