MODEL 1
REMARK VINA RESULT:     -12.8      0.000      0.000
REMARK SMILES CCOc1ccc(C[N@H+]2CC[NH2+][C@H](C(=O)OCCOC(=O)c3ccc(-c4c5nc(c(-c6c(F)c(F)c(F)c(F)c6F)c6ccc([nH]6)c(-c6c(F)c(F)c(F)c(F)c6F)c6nc(c(-c7c(F)c(F)c(F)c(F)c7F)c7ccc4[nH]7)C=C6)C=C5)cc3)C2)c(OCC)c1C
REMARK SMILES IDX 17 1 16 2 14 3 15 4 13 5 9 6 10 7 85 8 11 10 12 11 8 14 7 15
REMARK SMILES IDX 4 16 5 17 90 18 6 19 86 20 91 21 3 22 2 23 1 24 87 25 88 26
REMARK SMILES IDX 89 27 18 28 19 29 20 30 21 31 22 32 23 33 84 34 24 35 83 36
REMARK SMILES IDX 25 37 26 38 27 39 77 40 28 41 82 42 76 43 78 44 29 45 81 46
REMARK SMILES IDX 75 47 74 48 30 50 62 51 42 52 61 53 43 54 46 55 60 56 79 57
REMARK SMILES IDX 44 58 45 59 59 61 80 62 47 63 31 64 32 65 40 66 33 67 34 68
REMARK SMILES IDX 38 69 41 70 35 71 36 72 39 73 37 74 63 75 64 76 72 77 65 78
REMARK SMILES IDX 66 79 70 80 73 81 67 82 68 83 71 84 69 85 48 86 49 87 57 88
REMARK SMILES IDX 50 89 51 90 55 91 58 92 52 93 53 94 56 95 54 96
REMARK H PARENT 9 9 12 12 12 13 78 49 46 60
REMARK Flexibility Score: inf
ROOT
ATOM      1  C   UNL A   1      33.115  29.212  25.827  1.00  0.00     0.274 C 
ENDROOT
BRANCH   1   2
ATOM      2  O   UNL A   1      31.783  28.678  25.858  1.00  0.00    -0.457 OA
BRANCH   2   3
ATOM      3  C   UNL A   1      31.669  27.643  26.756  1.00  0.00     0.371 C 
ATOM      4  O   UNL A   1      31.455  27.812  27.954  1.00  0.00    -0.245 OA
BRANCH   3   5
ATOM      5  C   UNL A   1      31.864  26.258  26.119  1.00  0.00     0.348 C 
ATOM      6  N   UNL A   1      31.561  24.929  23.926  1.00  0.00    -0.321 N 
ATOM      7  C   UNL A   1      30.929  23.883  24.746  1.00  0.00     0.324 C 
ATOM      8  C   UNL A   1      31.498  26.246  24.610  1.00  0.00     0.341 C 
ATOM      9  H   UNL A   1      31.004  25.056  23.082  1.00  0.00     0.348 HD
ATOM     10  C   UNL A   1      31.209  23.935  26.265  1.00  0.00     0.323 C 
ATOM     11  N   UNL A   1      31.036  25.262  26.866  1.00  0.00    -0.325 N 
ATOM     12  H   UNL A   1      31.333  25.234  27.841  1.00  0.00     0.347 HD
ATOM     13  H   UNL A   1      30.054  25.532  26.818  1.00  0.00     0.347 HD
BRANCH   6  14
ATOM     14  C   UNL A   1      32.851  24.536  23.314  1.00  0.00     0.303 C 
BRANCH  14  15
ATOM     15  C   UNL A   1      33.119  23.051  23.230  1.00  0.00     0.049 A 
ATOM     16  C   UNL A   1      32.664  20.291  23.407  1.00  0.00     0.125 A 
ATOM     17  C   UNL A   1      32.096  21.006  22.365  1.00  0.00     0.047 A 
ATOM     18  C   UNL A   1      33.561  20.909  24.288  1.00  0.00     0.034 A 
ATOM     19  C   UNL A   1      32.342  22.369  22.264  1.00  0.00     0.017 A 
ATOM     20  C   UNL A   1      33.851  22.298  24.167  1.00  0.00     0.134 A 
ATOM     21  C   UNL A   1      34.131  20.144  25.452  1.00  0.00     0.052 C 
BRANCH  16  22
ATOM     22  O   UNL A   1      32.136  19.055  23.675  1.00  0.00    -0.493 OA
BRANCH  22  23
ATOM     23  C   UNL A   1      32.444  18.089  22.670  1.00  0.00     0.226 C 
ATOM     24  C   UNL A   1      33.603  17.209  23.101  1.00  0.00     0.049 C 
ENDBRANCH  22  23
ENDBRANCH  16  22
BRANCH  20  25
ATOM     25  O   UNL A   1      34.752  22.713  25.105  1.00  0.00    -0.493 OA
BRANCH  25  26
ATOM     26  C   UNL A   1      36.066  23.200  24.884  1.00  0.00     0.226 C 
ATOM     27  C   UNL A   1      36.579  22.935  23.486  1.00  0.00     0.049 C 
ENDBRANCH  25  26
ENDBRANCH  20  25
ENDBRANCH  14  15
ENDBRANCH   6  14
ENDBRANCH   3   5
ENDBRANCH   2   3
ENDBRANCH   1   2
BRANCH   1  28
ATOM     28  C   UNL A   1      33.446  30.265  26.899  1.00  0.00     0.275 C 
BRANCH  28  29
ATOM     29  O   UNL A   1      34.596  30.131  27.772  1.00  0.00    -0.458 OA
BRANCH  29  30
ATOM     30  C   UNL A   1      35.735  30.865  27.839  1.00  0.00     0.338 C 
ATOM     31  O   UNL A   1      35.775  32.065  27.728  1.00  0.00    -0.246 OA
BRANCH  30  32
ATOM     32  C   UNL A   1      36.939  30.114  28.169  1.00  0.00     0.060 A 
ATOM     33  C   UNL A   1      36.944  29.364  29.352  1.00  0.00     0.016 A 
ATOM     34  C   UNL A   1      38.001  30.109  27.279  1.00  0.00     0.016 A 
ATOM     35  C   UNL A   1      38.015  28.535  29.641  1.00  0.00     0.010 A 
ATOM     36  C   UNL A   1      39.038  29.241  27.532  1.00  0.00     0.010 A 
ATOM     37  C   UNL A   1      39.048  28.471  28.715  1.00  0.00    -0.014 A 
BRANCH  37  38
ATOM     38  C   UNL A   1      40.307  27.805  28.987  1.00  0.00     0.031 A 
ATOM     39  C   UNL A   1      40.611  26.429  28.557  1.00  0.00     0.074 A 
ATOM     40  C   UNL A   1      41.227  28.659  29.471  1.00  0.00     0.049 A 
ATOM     41  N   UNL A   1      41.641  25.757  28.939  1.00  0.00    -0.248 NA
ATOM     42  C   UNL A   1      39.738  25.663  27.680  1.00  0.00     0.031 C 
ATOM     43  C   UNL A   1      42.672  28.576  29.436  1.00  0.00     0.029 A 
ATOM     44  N   UNL A   1      40.949  29.797  30.247  1.00  0.00    -0.354 N 
ATOM     45  C   UNL A   1      41.733  24.642  28.128  1.00  0.00     0.074 A 
ATOM     46  C   UNL A   1      40.466  24.565  27.446  1.00  0.00     0.031 C 
ATOM     47  C   UNL A   1      43.165  29.434  30.348  1.00  0.00     0.029 A 
ATOM     48  C   UNL A   1      42.032  29.921  31.127  1.00  0.00     0.049 A 
ATOM     49  H   UNL A   1      40.161  30.384  30.185  1.00  0.00     0.167 HD
ATOM     50  C   UNL A   1      42.945  24.029  27.986  1.00  0.00     0.037 A 
ATOM     51  C   UNL A   1      41.842  29.656  32.453  1.00  0.00     0.037 A 
ATOM     52  C   UNL A   1      43.925  24.652  28.867  1.00  0.00     0.049 A 
ATOM     53  C   UNL A   1      42.698  28.511  32.925  1.00  0.00     0.074 A 
ATOM     54  C   UNL A   1      44.818  25.689  28.649  1.00  0.00     0.029 A 
ATOM     55  N   UNL A   1      43.791  24.524  30.244  1.00  0.00    -0.354 N 
ATOM     56  N   UNL A   1      43.005  27.472  32.196  1.00  0.00    -0.248 NA
ATOM     57  C   UNL A   1      43.324  28.493  34.241  1.00  0.00     0.031 C 
ATOM     58  C   UNL A   1      45.156  26.245  29.904  1.00  0.00     0.029 A 
ATOM     59  C   UNL A   1      44.492  25.528  30.885  1.00  0.00     0.049 A 
ATOM     60  H   UNL A   1      43.273  23.819  30.698  1.00  0.00     0.167 HD
ATOM     61  C   UNL A   1      43.916  26.709  32.879  1.00  0.00     0.074 A 
ATOM     62  C   UNL A   1      44.061  27.372  34.162  1.00  0.00     0.031 C 
ATOM     63  C   UNL A   1      44.527  25.616  32.332  1.00  0.00     0.037 A 
BRANCH  50  64
ATOM     64  C   UNL A   1      43.307  23.157  26.803  1.00  0.00     0.064 A 
ATOM     65  C   UNL A   1      42.999  21.777  26.807  1.00  0.00     0.173 A 
ATOM     66  C   UNL A   1      44.016  23.600  25.672  1.00  0.00     0.173 A 
ATOM     67  F   UNL A   1      42.245  21.227  27.766  1.00  0.00    -0.203 F 
ATOM     68  C   UNL A   1      43.463  20.896  25.827  1.00  0.00     0.198 A 
ATOM     69  C   UNL A   1      44.511  22.712  24.707  1.00  0.00     0.198 A 
ATOM     70  F   UNL A   1      44.218  24.905  25.454  1.00  0.00    -0.203 F 
ATOM     71  F   UNL A   1      43.156  19.593  25.905  1.00  0.00    -0.200 F 
ATOM     72  C   UNL A   1      44.247  21.358  24.793  1.00  0.00     0.200 A 
ATOM     73  F   UNL A   1      45.252  23.177  23.690  1.00  0.00    -0.200 F 
ATOM     74  F   UNL A   1      44.729  20.508  23.876  1.00  0.00    -0.200 F 
ENDBRANCH  50  64
BRANCH  51  75
ATOM     75  C   UNL A   1      40.462  29.945  32.946  1.00  0.00     0.064 A 
ATOM     76  C   UNL A   1      40.106  31.283  33.217  1.00  0.00     0.173 A 
ATOM     77  C   UNL A   1      39.420  29.012  32.864  1.00  0.00     0.173 A 
ATOM     78  F   UNL A   1      41.058  32.226  33.297  1.00  0.00    -0.203 F 
ATOM     79  C   UNL A   1      38.773  31.680  33.323  1.00  0.00     0.198 A 
ATOM     80  C   UNL A   1      38.084  29.413  32.977  1.00  0.00     0.198 A 
ATOM     81  F   UNL A   1      39.678  27.724  32.600  1.00  0.00    -0.203 F 
ATOM     82  F   UNL A   1      38.471  32.974  33.504  1.00  0.00    -0.200 F 
ATOM     83  C   UNL A   1      37.762  30.746  33.188  1.00  0.00     0.200 A 
ATOM     84  F   UNL A   1      37.099  28.515  32.824  1.00  0.00    -0.200 F 
ATOM     85  F   UNL A   1      36.479  31.130  33.243  1.00  0.00    -0.200 F 
ENDBRANCH  51  75
BRANCH  63  86
ATOM     86  C   UNL A   1      45.339  24.596  33.083  1.00  0.00     0.064 A 
ATOM     87  C   UNL A   1      46.634  24.845  33.562  1.00  0.00     0.173 A 
ATOM     88  C   UNL A   1      44.756  23.372  33.493  1.00  0.00     0.173 A 
ATOM     89  F   UNL A   1      47.245  26.018  33.346  1.00  0.00    -0.203 F 
ATOM     90  C   UNL A   1      47.321  23.909  34.337  1.00  0.00     0.198 A 
ATOM     91  C   UNL A   1      45.421  22.471  34.319  1.00  0.00     0.198 A 
ATOM     92  F   UNL A   1      43.512  23.025  33.131  1.00  0.00    -0.203 F 
ATOM     93  F   UNL A   1      48.575  24.173  34.732  1.00  0.00    -0.200 F 
ATOM     94  C   UNL A   1      46.712  22.732  34.726  1.00  0.00     0.200 A 
ATOM     95  F   UNL A   1      44.794  21.362  34.736  1.00  0.00    -0.200 F 
ATOM     96  F   UNL A   1      47.359  21.861  35.513  1.00  0.00    -0.200 F 
ENDBRANCH  63  86
ENDBRANCH  37  38
ENDBRANCH  30  32
ENDBRANCH  29  30
ENDBRANCH  28  29
ENDBRANCH   1  28
TORSDOF 17
ENDMDL
MODEL 2
REMARK VINA RESULT:     -12.8      3.767     10.008
REMARK SMILES CCOc1ccc(C[N@H+]2CC[NH2+][C@H](C(=O)OCCOC(=O)c3ccc(-c4c5nc(c(-c6c(F)c(F)c(F)c(F)c6F)c6ccc([nH]6)c(-c6c(F)c(F)c(F)c(F)c6F)c6nc(c(-c7c(F)c(F)c(F)c(F)c7F)c7ccc4[nH]7)C=C6)C=C5)cc3)C2)c(OCC)c1C
REMARK SMILES IDX 17 1 16 2 14 3 15 4 13 5 9 6 10 7 85 8 11 10 12 11 8 14 7 15
REMARK SMILES IDX 4 16 5 17 90 18 6 19 86 20 91 21 3 22 2 23 1 24 87 25 88 26
REMARK SMILES IDX 89 27 18 28 19 29 20 30 21 31 22 32 23 33 84 34 24 35 83 36
REMARK SMILES IDX 25 37 26 38 27 39 77 40 28 41 82 42 76 43 78 44 29 45 81 46
REMARK SMILES IDX 75 47 74 48 30 50 62 51 42 52 61 53 43 54 46 55 60 56 79 57
REMARK SMILES IDX 44 58 45 59 59 61 80 62 47 63 31 64 32 65 40 66 33 67 34 68
REMARK SMILES IDX 38 69 41 70 35 71 36 72 39 73 37 74 63 75 64 76 72 77 65 78
REMARK SMILES IDX 66 79 70 80 73 81 67 82 68 83 71 84 69 85 48 86 49 87 57 88
REMARK SMILES IDX 50 89 51 90 55 91 58 92 52 93 53 94 56 95 54 96
REMARK H PARENT 9 9 12 12 12 13 78 49 46 60
REMARK Flexibility Score: inf
ROOT
ATOM      1  C   UNL A   1      36.436  21.658  25.733  1.00  0.00     0.274 C 
ENDROOT
BRANCH   1   2
ATOM      2  O   UNL A   1      35.743  21.378  24.509  1.00  0.00    -0.457 OA
BRANCH   2   3
ATOM      3  C   UNL A   1      34.384  21.291  24.699  1.00  0.00     0.371 C 
ATOM      4  O   UNL A   1      33.821  20.265  25.075  1.00  0.00    -0.245 OA
BRANCH   3   5
ATOM      5  C   UNL A   1      33.636  22.592  24.366  1.00  0.00     0.348 C 
ATOM      6  N   UNL A   1      31.291  23.667  24.292  1.00  0.00    -0.321 N 
ATOM      7  C   UNL A   1      31.644  24.143  22.944  1.00  0.00     0.324 C 
ATOM      8  C   UNL A   1      32.117  22.493  24.670  1.00  0.00     0.341 C 
ATOM      9  H   UNL A   1      30.337  23.308  24.266  1.00  0.00     0.348 HD
ATOM     10  C   UNL A   1      33.149  24.160  22.592  1.00  0.00     0.323 C 
ATOM     11  N   UNL A   1      33.862  22.923  22.926  1.00  0.00    -0.325 N 
ATOM     12  H   UNL A   1      34.859  23.049  22.756  1.00  0.00     0.347 HD
ATOM     13  H   UNL A   1      33.512  22.161  22.343  1.00  0.00     0.347 HD
BRANCH   6  14
ATOM     14  C   UNL A   1      31.122  24.740  25.299  1.00  0.00     0.303 C 
BRANCH  14  15
ATOM     15  C   UNL A   1      30.888  26.130  24.753  1.00  0.00     0.049 A 
ATOM     16  C   UNL A   1      30.269  28.155  22.918  1.00  0.00     0.125 A 
ATOM     17  C   UNL A   1      29.248  27.375  23.436  1.00  0.00     0.047 A 
ATOM     18  C   UNL A   1      31.579  28.025  23.399  1.00  0.00     0.034 A 
ATOM     19  C   UNL A   1      29.552  26.388  24.364  1.00  0.00     0.017 A 
ATOM     20  C   UNL A   1      31.892  27.042  24.381  1.00  0.00     0.134 A 
ATOM     21  C   UNL A   1      32.695  28.833  22.794  1.00  0.00     0.052 C 
BRANCH  16  22
ATOM     22  O   UNL A   1      29.995  28.865  21.777  1.00  0.00    -0.493 OA
BRANCH  22  23
ATOM     23  C   UNL A   1      29.487  30.172  22.044  1.00  0.00     0.226 C 
ATOM     24  C   UNL A   1      28.111  30.353  21.431  1.00  0.00     0.049 C 
ENDBRANCH  22  23
ENDBRANCH  16  22
BRANCH  20  25
ATOM     25  O   UNL A   1      33.212  27.076  24.731  1.00  0.00    -0.493 OA
BRANCH  25  26
ATOM     26  C   UNL A   1      33.756  27.138  26.039  1.00  0.00     0.226 C 
ATOM     27  C   UNL A   1      33.985  28.549  26.532  1.00  0.00     0.049 C 
ENDBRANCH  25  26
ENDBRANCH  20  25
ENDBRANCH  14  15
ENDBRANCH   6  14
ENDBRANCH   3   5
ENDBRANCH   2   3
ENDBRANCH   1   2
BRANCH   1  28
ATOM     28  C   UNL A   1      37.929  22.006  25.601  1.00  0.00     0.275 C 
BRANCH  28  29
ATOM     29  O   UNL A   1      38.479  23.233  26.142  1.00  0.00    -0.458 OA
BRANCH  29  30
ATOM     30  C   UNL A   1      39.570  23.434  26.923  1.00  0.00     0.338 C 
ATOM     31  O   UNL A   1      40.419  22.604  27.127  1.00  0.00    -0.246 OA
BRANCH  30  32
ATOM     32  C   UNL A   1      39.724  24.790  27.437  1.00  0.00     0.060 A 
ATOM     33  C   UNL A   1      40.240  25.766  26.575  1.00  0.00     0.016 A 
ATOM     34  C   UNL A   1      39.296  25.081  28.722  1.00  0.00     0.016 A 
ATOM     35  C   UNL A   1      40.283  27.090  26.977  1.00  0.00     0.010 A 
ATOM     36  C   UNL A   1      39.281  26.403  29.102  1.00  0.00     0.010 A 
ATOM     37  C   UNL A   1      39.787  27.397  28.237  1.00  0.00    -0.014 A 
BRANCH  37  38
ATOM     38  C   UNL A   1      39.957  28.699  28.854  1.00  0.00     0.031 A 
ATOM     39  C   UNL A   1      38.923  29.746  28.845  1.00  0.00     0.074 A 
ATOM     40  C   UNL A   1      41.066  28.747  29.614  1.00  0.00     0.049 A 
ATOM     41  N   UNL A   1      39.114  30.963  29.223  1.00  0.00    -0.248 NA
ATOM     42  C   UNL A   1      37.571  29.520  28.356  1.00  0.00     0.031 C 
ATOM     43  C   UNL A   1      41.380  29.608  30.736  1.00  0.00     0.029 A 
ATOM     44  N   UNL A   1      42.242  28.014  29.382  1.00  0.00    -0.354 N 
ATOM     45  C   UNL A   1      37.873  31.563  29.335  1.00  0.00     0.074 A 
ATOM     46  C   UNL A   1      36.960  30.667  28.672  1.00  0.00     0.031 C 
ATOM     47  C   UNL A   1      42.708  29.566  30.940  1.00  0.00     0.029 A 
ATOM     48  C   UNL A   1      43.287  28.840  29.814  1.00  0.00     0.049 A 
ATOM     49  H   UNL A   1      42.316  27.110  28.998  1.00  0.00     0.167 HD
ATOM     50  C   UNL A   1      37.740  32.651  30.148  1.00  0.00     0.037 A 
ATOM     51  C   UNL A   1      44.117  29.401  28.885  1.00  0.00     0.037 A 
ATOM     52  C   UNL A   1      39.041  33.046  30.670  1.00  0.00     0.049 A 
ATOM     53  C   UNL A   1      44.063  30.905  28.918  1.00  0.00     0.074 A 
ATOM     54  C   UNL A   1      39.701  32.695  31.837  1.00  0.00     0.029 A 
ATOM     55  N   UNL A   1      40.004  33.554  29.806  1.00  0.00    -0.354 N 
ATOM     56  N   UNL A   1      42.987  31.596  29.183  1.00  0.00    -0.248 NA
ATOM     57  C   UNL A   1      45.243  31.734  28.718  1.00  0.00     0.031 C 
ATOM     58  C   UNL A   1      41.084  32.913  31.639  1.00  0.00     0.029 A 
ATOM     59  C   UNL A   1      41.261  33.423  30.364  1.00  0.00     0.049 A 
ATOM     60  H   UNL A   1      39.817  33.951  28.923  1.00  0.00     0.167 HD
ATOM     61  C   UNL A   1      43.329  32.921  29.280  1.00  0.00     0.074 A 
ATOM     62  C   UNL A   1      44.742  32.959  28.953  1.00  0.00     0.031 C 
ATOM     63  C   UNL A   1      42.445  33.887  29.669  1.00  0.00     0.037 A 
BRANCH  50  64
ATOM     64  C   UNL A   1      36.421  33.089  30.749  1.00  0.00     0.064 A 
ATOM     65  C   UNL A   1      35.562  33.960  30.040  1.00  0.00     0.173 A 
ATOM     66  C   UNL A   1      35.977  32.745  32.039  1.00  0.00     0.173 A 
ATOM     67  F   UNL A   1      35.800  34.300  28.767  1.00  0.00    -0.203 F 
ATOM     68  C   UNL A   1      34.425  34.533  30.614  1.00  0.00     0.198 A 
ATOM     69  C   UNL A   1      34.856  33.345  32.627  1.00  0.00     0.198 A 
ATOM     70  F   UNL A   1      36.598  31.794  32.749  1.00  0.00    -0.203 F 
ATOM     71  F   UNL A   1      33.668  35.374  29.894  1.00  0.00    -0.200 F 
ATOM     72  C   UNL A   1      34.088  34.251  31.919  1.00  0.00     0.200 A 
ATOM     73  F   UNL A   1      34.523  33.043  33.891  1.00  0.00    -0.200 F 
ATOM     74  F   UNL A   1      33.022  34.832  32.485  1.00  0.00    -0.200 F 
ENDBRANCH  50  64
BRANCH  51  75
ATOM     75  C   UNL A   1      44.294  28.583  27.648  1.00  0.00     0.064 A 
ATOM     76  C   UNL A   1      45.153  27.465  27.692  1.00  0.00     0.173 A 
ATOM     77  C   UNL A   1      43.433  28.682  26.548  1.00  0.00     0.173 A 
ATOM     78  F   UNL A   1      45.995  27.308  28.726  1.00  0.00    -0.203 F 
ATOM     79  C   UNL A   1      45.098  26.460  26.727  1.00  0.00     0.198 A 
ATOM     80  C   UNL A   1      43.385  27.675  25.578  1.00  0.00     0.198 A 
ATOM     81  F   UNL A   1      42.581  29.711  26.440  1.00  0.00    -0.203 F 
ATOM     82  F   UNL A   1      45.877  25.375  26.843  1.00  0.00    -0.200 F 
ATOM     83  C   UNL A   1      44.203  26.559  25.678  1.00  0.00     0.200 A 
ATOM     84  F   UNL A   1      42.502  27.756  24.570  1.00  0.00    -0.200 F 
ATOM     85  F   UNL A   1      44.114  25.574  24.772  1.00  0.00    -0.200 F 
ENDBRANCH  51  75
BRANCH  63  86
ATOM     86  C   UNL A   1      42.668  35.373  29.565  1.00  0.00     0.064 A 
ATOM     87  C   UNL A   1      43.531  36.083  30.413  1.00  0.00     0.173 A 
ATOM     88  C   UNL A   1      42.131  36.107  28.479  1.00  0.00     0.173 A 
ATOM     89  F   UNL A   1      44.196  35.471  31.403  1.00  0.00    -0.203 F 
ATOM     90  C   UNL A   1      43.786  37.443  30.228  1.00  0.00     0.198 A 
ATOM     91  C   UNL A   1      42.439  37.447  28.262  1.00  0.00     0.198 A 
ATOM     92  F   UNL A   1      41.316  35.540  27.576  1.00  0.00    -0.203 F 
ATOM     93  F   UNL A   1      44.581  38.088  31.093  1.00  0.00    -0.200 F 
ATOM     94  C   UNL A   1      43.253  38.119  29.148  1.00  0.00     0.200 A 
ATOM     95  F   UNL A   1      41.962  38.071  27.177  1.00  0.00    -0.200 F 
ATOM     96  F   UNL A   1      43.542  39.412  28.947  1.00  0.00    -0.200 F 
ENDBRANCH  63  86
ENDBRANCH  37  38
ENDBRANCH  30  32
ENDBRANCH  29  30
ENDBRANCH  28  29
ENDBRANCH   1  28
TORSDOF 17
ENDMDL
MODEL 3
REMARK VINA RESULT:     -12.7      1.050      1.816
REMARK SMILES CCOc1ccc(C[N@H+]2CC[NH2+][C@H](C(=O)OCCOC(=O)c3ccc(-c4c5nc(c(-c6c(F)c(F)c(F)c(F)c6F)c6ccc([nH]6)c(-c6c(F)c(F)c(F)c(F)c6F)c6nc(c(-c7c(F)c(F)c(F)c(F)c7F)c7ccc4[nH]7)C=C6)C=C5)cc3)C2)c(OCC)c1C
REMARK SMILES IDX 17 1 16 2 14 3 15 4 13 5 9 6 10 7 85 8 11 10 12 11 8 14 7 15
REMARK SMILES IDX 4 16 5 17 90 18 6 19 86 20 91 21 3 22 2 23 1 24 87 25 88 26
REMARK SMILES IDX 89 27 18 28 19 29 20 30 21 31 22 32 23 33 84 34 24 35 83 36
REMARK SMILES IDX 25 37 26 38 27 39 77 40 28 41 82 42 76 43 78 44 29 45 81 46
REMARK SMILES IDX 75 47 74 48 30 50 62 51 42 52 61 53 43 54 46 55 60 56 79 57
REMARK SMILES IDX 44 58 45 59 59 61 80 62 47 63 31 64 32 65 40 66 33 67 34 68
REMARK SMILES IDX 38 69 41 70 35 71 36 72 39 73 37 74 63 75 64 76 72 77 65 78
REMARK SMILES IDX 66 79 70 80 73 81 67 82 68 83 71 84 69 85 48 86 49 87 57 88
REMARK SMILES IDX 50 89 51 90 55 91 58 92 52 93 53 94 56 95 54 96
REMARK H PARENT 9 9 12 12 12 13 78 49 46 60
REMARK Flexibility Score: inf
ROOT
ATOM      1  C   UNL A   1      32.584  30.097  25.899  1.00  0.00     0.274 C 
ENDROOT
BRANCH   1   2
ATOM      2  O   UNL A   1      32.924  29.333  24.733  1.00  0.00    -0.457 OA
BRANCH   2   3
ATOM      3  C   UNL A   1      31.810  28.803  24.126  1.00  0.00     0.371 C 
ATOM      4  O   UNL A   1      30.769  29.435  23.961  1.00  0.00    -0.245 OA
BRANCH   3   5
ATOM      5  C   UNL A   1      31.985  27.337  23.701  1.00  0.00     0.348 C 
ATOM      6  N   UNL A   1      33.496  25.265  23.997  1.00  0.00    -0.321 N 
ATOM      7  C   UNL A   1      33.467  25.138  22.531  1.00  0.00     0.324 C 
ATOM      8  C   UNL A   1      33.185  26.656  24.413  1.00  0.00     0.341 C 
ATOM      9  H   UNL A   1      34.453  25.114  24.314  1.00  0.00     0.348 HD
ATOM     10  C   UNL A   1      32.331  25.887  21.797  1.00  0.00     0.323 C 
ATOM     11  N   UNL A   1      32.157  27.281  22.217  1.00  0.00    -0.325 N 
ATOM     12  H   UNL A   1      31.333  27.672  21.763  1.00  0.00     0.347 HD
ATOM     13  H   UNL A   1      32.981  27.822  21.950  1.00  0.00     0.347 HD
BRANCH   6  14
ATOM     14  C   UNL A   1      32.820  24.164  24.724  1.00  0.00     0.303 C 
BRANCH  14  15
ATOM     15  C   UNL A   1      33.264  22.764  24.366  1.00  0.00     0.049 A 
ATOM     16  C   UNL A   1      33.653  19.999  24.598  1.00  0.00     0.125 A 
ATOM     17  C   UNL A   1      32.391  20.482  24.294  1.00  0.00     0.047 A 
ATOM     18  C   UNL A   1      34.752  20.867  24.661  1.00  0.00     0.034 A 
ATOM     19  C   UNL A   1      32.204  21.851  24.155  1.00  0.00     0.017 A 
ATOM     20  C   UNL A   1      34.575  22.268  24.479  1.00  0.00     0.134 A 
ATOM     21  C   UNL A   1      36.110  20.347  25.049  1.00  0.00     0.052 C 
BRANCH  16  22
ATOM     22  O   UNL A   1      33.734  18.711  25.062  1.00  0.00    -0.493 OA
BRANCH  22  23
ATOM     23  C   UNL A   1      34.321  17.816  24.117  1.00  0.00     0.226 C 
ATOM     24  C   UNL A   1      33.278  17.290  23.148  1.00  0.00     0.049 C 
ENDBRANCH  22  23
ENDBRANCH  16  22
BRANCH  20  25
ATOM     25  O   UNL A   1      35.759  22.945  24.565  1.00  0.00    -0.493 OA
BRANCH  25  26
ATOM     26  C   UNL A   1      36.164  23.849  25.580  1.00  0.00     0.226 C 
ATOM     27  C   UNL A   1      37.615  23.698  25.978  1.00  0.00     0.049 C 
ENDBRANCH  25  26
ENDBRANCH  20  25
ENDBRANCH  14  15
ENDBRANCH   6  14
ENDBRANCH   3   5
ENDBRANCH   2   3
ENDBRANCH   1   2
BRANCH   1  28
ATOM     28  C   UNL A   1      33.305  29.704  27.200  1.00  0.00     0.275 C 
BRANCH  28  29
ATOM     29  O   UNL A   1      34.751  29.636  27.282  1.00  0.00    -0.458 OA
BRANCH  29  30
ATOM     30  C   UNL A   1      35.621  30.362  28.027  1.00  0.00     0.338 C 
ATOM     31  O   UNL A   1      35.360  31.428  28.525  1.00  0.00    -0.246 OA
BRANCH  30  32
ATOM     32  C   UNL A   1      36.899  29.714  28.297  1.00  0.00     0.060 A 
ATOM     33  C   UNL A   1      37.956  29.951  27.409  1.00  0.00     0.016 A 
ATOM     34  C   UNL A   1      37.045  28.952  29.444  1.00  0.00     0.016 A 
ATOM     35  C   UNL A   1      39.221  29.463  27.694  1.00  0.00     0.010 A 
ATOM     36  C   UNL A   1      38.311  28.518  29.762  1.00  0.00     0.010 A 
ATOM     37  C   UNL A   1      39.388  28.762  28.881  1.00  0.00    -0.014 A 
BRANCH  37  38
ATOM     38  C   UNL A   1      40.600  28.031  29.199  1.00  0.00     0.031 A 
ATOM     39  C   UNL A   1      40.875  26.665  28.726  1.00  0.00     0.074 A 
ATOM     40  C   UNL A   1      41.520  28.825  29.778  1.00  0.00     0.049 A 
ATOM     41  N   UNL A   1      41.852  25.933  29.139  1.00  0.00    -0.248 NA
ATOM     42  C   UNL A   1      40.031  25.975  27.763  1.00  0.00     0.031 C 
ATOM     43  C   UNL A   1      42.961  28.682  29.828  1.00  0.00     0.029 A 
ATOM     44  N   UNL A   1      41.239  29.939  30.587  1.00  0.00    -0.354 N 
ATOM     45  C   UNL A   1      41.951  24.851  28.285  1.00  0.00     0.074 A 
ATOM     46  C   UNL A   1      40.728  24.858  27.523  1.00  0.00     0.031 C 
ATOM     47  C   UNL A   1      43.428  29.477  30.807  1.00  0.00     0.029 A 
ATOM     48  C   UNL A   1      42.268  29.977  31.536  1.00  0.00     0.049 A 
ATOM     49  H   UNL A   1      40.480  30.560  30.504  1.00  0.00     0.167 HD
ATOM     50  C   UNL A   1      43.144  24.195  28.190  1.00  0.00     0.037 A 
ATOM     51  C   UNL A   1      41.984  29.663  32.835  1.00  0.00     0.037 A 
ATOM     52  C   UNL A   1      44.090  24.737  29.157  1.00  0.00     0.049 A 
ATOM     53  C   UNL A   1      42.762  28.463  33.306  1.00  0.00     0.074 A 
ATOM     54  C   UNL A   1      45.036  25.743  29.042  1.00  0.00     0.029 A 
ATOM     55  N   UNL A   1      43.865  24.555  30.516  1.00  0.00    -0.354 N 
ATOM     56  N   UNL A   1      43.073  27.446  32.550  1.00  0.00    -0.248 NA
ATOM     57  C   UNL A   1      43.302  28.362  34.655  1.00  0.00     0.031 C 
ATOM     58  C   UNL A   1      45.315  26.229  30.340  1.00  0.00     0.029 A 
ATOM     59  C   UNL A   1      44.562  25.499  31.244  1.00  0.00     0.049 A 
ATOM     60  H   UNL A   1      43.291  23.854  30.904  1.00  0.00     0.167 HD
ATOM     61  C   UNL A   1      43.908  26.615  33.251  1.00  0.00     0.074 A 
ATOM     62  C   UNL A   1      43.998  27.216  34.570  1.00  0.00     0.031 C 
ATOM     63  C   UNL A   1      44.509  25.523  32.693  1.00  0.00     0.037 A 
BRANCH  50  64
ATOM     64  C   UNL A   1      43.546  23.360  26.992  1.00  0.00     0.064 A 
ATOM     65  C   UNL A   1      43.096  22.026  26.863  1.00  0.00     0.173 A 
ATOM     66  C   UNL A   1      44.422  23.788  25.978  1.00  0.00     0.173 A 
ATOM     67  F   UNL A   1      42.185  21.507  27.694  1.00  0.00    -0.203 F 
ATOM     68  C   UNL A   1      43.575  21.160  25.877  1.00  0.00     0.198 A 
ATOM     69  C   UNL A   1      44.928  22.911  25.010  1.00  0.00     0.198 A 
ATOM     70  F   UNL A   1      44.783  25.074  25.878  1.00  0.00    -0.203 F 
ATOM     71  F   UNL A   1      43.127  19.897  25.827  1.00  0.00    -0.200 F 
ATOM     72  C   UNL A   1      44.516  21.592  24.969  1.00  0.00     0.200 A 
ATOM     73  F   UNL A   1      45.825  23.350  24.115  1.00  0.00    -0.200 F 
ATOM     74  F   UNL A   1      45.007  20.751  24.050  1.00  0.00    -0.200 F 
ENDBRANCH  50  64
BRANCH  51  75
ATOM     75  C   UNL A   1      40.588  29.989  33.255  1.00  0.00     0.064 A 
ATOM     76  C   UNL A   1      40.254  31.336  33.511  1.00  0.00     0.173 A 
ATOM     77  C   UNL A   1      39.527  29.085  33.114  1.00  0.00     0.173 A 
ATOM     78  F   UNL A   1      41.226  32.253  33.644  1.00  0.00    -0.203 F 
ATOM     79  C   UNL A   1      38.929  31.769  33.547  1.00  0.00     0.198 A 
ATOM     80  C   UNL A   1      38.198  29.522  33.158  1.00  0.00     0.198 A 
ATOM     81  F   UNL A   1      39.764  27.791  32.860  1.00  0.00    -0.203 F 
ATOM     82  F   UNL A   1      38.653  33.069  33.717  1.00  0.00    -0.200 F 
ATOM     83  C   UNL A   1      37.902  30.863  33.355  1.00  0.00     0.200 A 
ATOM     84  F   UNL A   1      37.199  28.651  32.950  1.00  0.00    -0.200 F 
ATOM     85  F   UNL A   1      36.628  31.281  33.344  1.00  0.00    -0.200 F 
ENDBRANCH  51  75
BRANCH  63  86
ATOM     86  C   UNL A   1      45.231  24.437  33.445  1.00  0.00     0.064 A 
ATOM     87  C   UNL A   1      44.650  23.199  33.756  1.00  0.00     0.173 A 
ATOM     88  C   UNL A   1      46.613  24.557  33.732  1.00  0.00     0.173 A 
ATOM     89  F   UNL A   1      43.382  22.919  33.421  1.00  0.00    -0.203 F 
ATOM     90  C   UNL A   1      45.379  22.180  34.371  1.00  0.00     0.198 A 
ATOM     91  C   UNL A   1      47.351  23.516  34.287  1.00  0.00     0.198 A 
ATOM     92  F   UNL A   1      47.298  25.677  33.456  1.00  0.00    -0.203 F 
ATOM     93  F   UNL A   1      44.767  21.031  34.692  1.00  0.00    -0.200 F 
ATOM     94  C   UNL A   1      46.729  22.333  34.623  1.00  0.00     0.200 A 
ATOM     95  F   UNL A   1      48.671  23.659  34.469  1.00  0.00    -0.200 F 
ATOM     96  F   UNL A   1      47.434  21.332  35.167  1.00  0.00    -0.200 F 
ENDBRANCH  63  86
ENDBRANCH  37  38
ENDBRANCH  30  32
ENDBRANCH  29  30
ENDBRANCH  28  29
ENDBRANCH   1  28
TORSDOF 17
ENDMDL
