MODEL 1
REMARK VINA RESULT:     -11.6      0.000      0.000
REMARK SMILES O=C(OCCOC(=O)c1cccc2c(=O)oc(=O)[nH]c12)c1ccc(-c2c3nc(c(-c4c(F)c(F)c(F)c(F)c4F)c4ccc([nH]4)c(-c4c(F)c(F)c(F)c(F)c4F)c4nc(c(-c5c(F)c(F)c(F)c(F)c5F)c5ccc2[nH]5)C=C4)C=C3)cc1
REMARK SMILES IDX 4 1 3 2 2 3 1 4 21 5 22 6 83 7 23 8 82 9 24 10 25 11 26 12
REMARK SMILES IDX 76 13 27 14 81 15 75 16 77 17 28 18 80 19 74 20 73 21 29 23
REMARK SMILES IDX 61 24 41 25 60 26 42 27 45 28 59 29 78 30 43 31 44 32 58 34
REMARK SMILES IDX 79 35 46 36 30 37 31 38 39 39 32 40 33 41 37 42 40 43 34 44
REMARK SMILES IDX 35 45 38 46 36 47 62 48 63 49 71 50 64 51 65 52 69 53 72 54
REMARK SMILES IDX 66 55 67 56 70 57 68 58 47 59 48 60 56 61 49 62 50 63 54 64
REMARK SMILES IDX 57 65 51 66 52 67 55 68 53 69 5 70 6 71 7 72 8 73 9 74 10 75
REMARK SMILES IDX 20 76 11 77 13 78 19 79 12 80 14 81 17 82 15 84 16 85 18 86
REMARK H PARENT 77 22 45 33 19 83
REMARK Flexibility Score: inf
ROOT
ATOM      1  C   UNL A   1      32.114  31.960  27.148  1.00  0.00     0.275 C 
ENDROOT
BRANCH   1   2
ATOM      2  O   UNL A   1      33.154  31.145  27.717  1.00  0.00    -0.458 OA
BRANCH   2   3
ATOM      3  C   UNL A   1      34.073  30.353  27.118  1.00  0.00     0.338 C 
ATOM      4  O   UNL A   1      33.762  29.749  26.093  1.00  0.00    -0.246 OA
BRANCH   3   5
ATOM      5  C   UNL A   1      35.390  30.024  27.739  1.00  0.00     0.060 A 
ATOM      6  C   UNL A   1      35.345  29.501  29.042  1.00  0.00     0.016 A 
ATOM      7  C   UNL A   1      36.641  30.201  27.148  1.00  0.00     0.016 A 
ATOM      8  C   UNL A   1      36.511  29.326  29.789  1.00  0.00     0.010 A 
ATOM      9  C   UNL A   1      37.814  30.000  27.882  1.00  0.00     0.010 A 
ATOM     10  C   UNL A   1      37.759  29.595  29.217  1.00  0.00    -0.014 A 
BRANCH  10  11
ATOM     11  C   UNL A   1      39.006  29.260  29.936  1.00  0.00     0.031 A 
ATOM     12  C   UNL A   1      39.894  28.121  29.533  1.00  0.00     0.074 A 
ATOM     13  C   UNL A   1      39.303  29.992  31.023  1.00  0.00     0.049 A 
ATOM     14  N   UNL A   1      41.091  27.819  29.970  1.00  0.00    -0.248 NA
ATOM     15  C   UNL A   1      39.398  27.216  28.489  1.00  0.00     0.031 C 
ATOM     16  C   UNL A   1      38.496  31.104  31.530  1.00  0.00     0.029 A 
ATOM     17  N   UNL A   1      40.338  29.892  31.910  1.00  0.00    -0.354 N 
ATOM     18  C   UNL A   1      41.536  26.777  29.170  1.00  0.00     0.074 A 
ATOM     19  C   UNL A   1      40.450  26.435  28.278  1.00  0.00     0.031 C 
ATOM     20  C   UNL A   1      39.061  31.577  32.648  1.00  0.00     0.029 A 
ATOM     21  C   UNL A   1      40.236  30.771  32.955  1.00  0.00     0.049 A 
ATOM     22  H   UNL A   1      41.080  29.253  31.808  1.00  0.00     0.167 HD
ATOM     23  C   UNL A   1      42.746  26.169  29.180  1.00  0.00     0.037 A 
ATOM     24  C   UNL A   1      40.988  30.890  34.062  1.00  0.00     0.037 A 
ATOM     25  C   UNL A   1      43.711  26.340  30.236  1.00  0.00     0.049 A 
ATOM     26  C   UNL A   1      42.181  29.999  34.217  1.00  0.00     0.074 A 
ATOM     27  C   UNL A   1      44.923  25.698  30.420  1.00  0.00     0.029 A 
ATOM     28  N   UNL A   1      43.522  27.160  31.342  1.00  0.00    -0.354 N 
ATOM     29  N   UNL A   1      42.666  29.114  33.379  1.00  0.00    -0.248 NA
ATOM     30  C   UNL A   1      42.931  30.124  35.470  1.00  0.00     0.031 C 
ATOM     31  C   UNL A   1      45.408  26.044  31.690  1.00  0.00     0.029 A 
ATOM     32  C   UNL A   1      44.543  26.967  32.260  1.00  0.00     0.049 A 
ATOM     33  H   UNL A   1      42.773  27.786  31.457  1.00  0.00     0.167 HD
ATOM     34  C   UNL A   1      43.787  28.581  33.994  1.00  0.00     0.074 A 
ATOM     35  C   UNL A   1      43.919  29.264  35.269  1.00  0.00     0.031 C 
ATOM     36  C   UNL A   1      44.632  27.618  33.544  1.00  0.00     0.037 A 
BRANCH  23  37
ATOM     37  C   UNL A   1      43.057  25.233  28.048  1.00  0.00     0.064 A 
ATOM     38  C   UNL A   1      43.694  25.698  26.884  1.00  0.00     0.173 A 
ATOM     39  C   UNL A   1      42.754  23.866  28.123  1.00  0.00     0.173 A 
ATOM     40  F   UNL A   1      43.986  27.001  26.749  1.00  0.00    -0.203 F 
ATOM     41  C   UNL A   1      44.005  24.831  25.838  1.00  0.00     0.198 A 
ATOM     42  C   UNL A   1      43.080  23.000  27.081  1.00  0.00     0.198 A 
ATOM     43  F   UNL A   1      42.137  23.371  29.205  1.00  0.00    -0.203 F 
ATOM     44  F   UNL A   1      44.584  25.305  24.726  1.00  0.00    -0.200 F 
ATOM     45  C   UNL A   1      43.702  23.482  25.939  1.00  0.00     0.200 A 
ATOM     46  F   UNL A   1      42.781  21.697  27.177  1.00  0.00    -0.200 F 
ATOM     47  F   UNL A   1      43.995  22.651  24.929  1.00  0.00    -0.200 F 
ENDBRANCH  23  37
BRANCH  24  48
ATOM     48  C   UNL A   1      40.604  31.903  35.072  1.00  0.00     0.064 A 
ATOM     49  C   UNL A   1      41.111  33.205  35.005  1.00  0.00     0.173 A 
ATOM     50  C   UNL A   1      39.631  31.623  36.045  1.00  0.00     0.173 A 
ATOM     51  F   UNL A   1      42.049  33.512  34.098  1.00  0.00    -0.203 F 
ATOM     52  C   UNL A   1      40.646  34.197  35.865  1.00  0.00     0.198 A 
ATOM     53  C   UNL A   1      39.149  32.622  36.886  1.00  0.00     0.198 A 
ATOM     54  F   UNL A   1      39.107  30.392  36.137  1.00  0.00    -0.203 F 
ATOM     55  F   UNL A   1      41.146  35.437  35.784  1.00  0.00    -0.200 F 
ATOM     56  C   UNL A   1      39.655  33.909  36.794  1.00  0.00     0.200 A 
ATOM     57  F   UNL A   1      38.174  32.344  37.763  1.00  0.00    -0.200 F 
ATOM     58  F   UNL A   1      39.184  34.874  37.595  1.00  0.00    -0.200 F 
ENDBRANCH  24  48
BRANCH  36  59
ATOM     59  C   UNL A   1      45.756  27.229  34.460  1.00  0.00     0.064 A 
ATOM     60  C   UNL A   1      46.989  27.899  34.430  1.00  0.00     0.173 A 
ATOM     61  C   UNL A   1      45.599  26.184  35.383  1.00  0.00     0.173 A 
ATOM     62  F   UNL A   1      47.195  28.897  33.556  1.00  0.00    -0.203 F 
ATOM     63  C   UNL A   1      48.036  27.509  35.260  1.00  0.00     0.198 A 
ATOM     64  C   UNL A   1      46.637  25.823  36.238  1.00  0.00     0.198 A 
ATOM     65  F   UNL A   1      44.439  25.517  35.460  1.00  0.00    -0.203 F 
ATOM     66  F   UNL A   1      49.226  28.119  35.165  1.00  0.00    -0.200 F 
ATOM     67  C   UNL A   1      47.858  26.476  36.167  1.00  0.00     0.200 A 
ATOM     68  F   UNL A   1      46.456  24.837  37.127  1.00  0.00    -0.200 F 
ATOM     69  F   UNL A   1      48.866  26.103  36.967  1.00  0.00    -0.200 F 
ENDBRANCH  36  59
ENDBRANCH  10  11
ENDBRANCH   3   5
ENDBRANCH   2   3
ENDBRANCH   1   2
BRANCH   1  70
ATOM     70  C   UNL A   1      32.364  33.471  27.188  1.00  0.00     0.275 C 
BRANCH  70  71
ATOM     71  O   UNL A   1      33.546  33.873  27.899  1.00  0.00    -0.458 OA
BRANCH  71  72
ATOM     72  C   UNL A   1      33.333  34.718  28.944  1.00  0.00     0.340 C 
ATOM     73  O   UNL A   1      32.590  35.683  28.961  1.00  0.00    -0.246 OA
BRANCH  72  74
ATOM     74  C   UNL A   1      34.044  34.230  30.146  1.00  0.00     0.084 A 
ATOM     75  C   UNL A   1      34.542  32.920  30.178  1.00  0.00     0.018 A 
ATOM     76  C   UNL A   1      34.188  35.060  31.270  1.00  0.00     0.073 A 
ATOM     77  C   UNL A   1      35.157  32.435  31.335  1.00  0.00     0.002 A 
ATOM     78  C   UNL A   1      34.766  34.557  32.423  1.00  0.00     0.085 A 
ATOM     79  N   UNL A   1      33.713  36.366  31.311  1.00  0.00    -0.289 N 
ATOM     80  C   UNL A   1      35.248  33.243  32.465  1.00  0.00     0.018 A 
ATOM     81  C   UNL A   1      34.808  35.404  33.621  1.00  0.00     0.349 A 
ATOM     82  C   UNL A   1      33.757  37.157  32.422  1.00  0.00     0.419 A 
ATOM     83  H   UNL A   1      33.321  36.744  30.490  1.00  0.00     0.173 HD
ATOM     84  O   UNL A   1      35.284  34.958  34.660  1.00  0.00    -0.246 OA
ATOM     85  O   UNL A   1      34.294  36.649  33.559  1.00  0.00    -0.372 OA
ATOM     86  O   UNL A   1      33.305  38.298  32.395  1.00  0.00    -0.224 OA
ENDBRANCH  72  74
ENDBRANCH  71  72
ENDBRANCH  70  71
ENDBRANCH   1  70
TORSDOF 11
ENDMDL
MODEL 2
REMARK VINA RESULT:     -11.5      0.309      2.040
REMARK SMILES O=C(OCCOC(=O)c1cccc2c(=O)oc(=O)[nH]c12)c1ccc(-c2c3nc(c(-c4c(F)c(F)c(F)c(F)c4F)c4ccc([nH]4)c(-c4c(F)c(F)c(F)c(F)c4F)c4nc(c(-c5c(F)c(F)c(F)c(F)c5F)c5ccc2[nH]5)C=C4)C=C3)cc1
REMARK SMILES IDX 4 1 3 2 2 3 1 4 21 5 22 6 83 7 23 8 82 9 24 10 25 11 26 12
REMARK SMILES IDX 76 13 27 14 81 15 75 16 77 17 28 18 80 19 74 20 73 21 29 23
REMARK SMILES IDX 61 24 41 25 60 26 42 27 45 28 59 29 78 30 43 31 44 32 58 34
REMARK SMILES IDX 79 35 46 36 30 37 31 38 39 39 32 40 33 41 37 42 40 43 34 44
REMARK SMILES IDX 35 45 38 46 36 47 62 48 63 49 71 50 64 51 65 52 69 53 72 54
REMARK SMILES IDX 66 55 67 56 70 57 68 58 47 59 48 60 56 61 49 62 50 63 54 64
REMARK SMILES IDX 57 65 51 66 52 67 55 68 53 69 5 70 6 71 7 72 8 73 9 74 10 75
REMARK SMILES IDX 20 76 11 77 13 78 19 79 12 80 14 81 17 82 15 84 16 85 18 86
REMARK H PARENT 77 22 45 33 19 83
REMARK Flexibility Score: inf
ROOT
ATOM      1  C   UNL A   1      32.188  31.940  26.958  1.00  0.00     0.275 C 
ENDROOT
BRANCH   1   2
ATOM      2  O   UNL A   1      33.230  31.165  27.578  1.00  0.00    -0.458 OA
BRANCH   2   3
ATOM      3  C   UNL A   1      34.081  30.258  27.047  1.00  0.00     0.338 C 
ATOM      4  O   UNL A   1      33.699  29.556  26.113  1.00  0.00    -0.246 OA
BRANCH   3   5
ATOM      5  C   UNL A   1      35.403  29.930  27.659  1.00  0.00     0.060 A 
ATOM      6  C   UNL A   1      35.373  29.470  28.985  1.00  0.00     0.016 A 
ATOM      7  C   UNL A   1      36.646  30.052  27.037  1.00  0.00     0.016 A 
ATOM      8  C   UNL A   1      36.550  29.304  29.718  1.00  0.00     0.010 A 
ATOM      9  C   UNL A   1      37.829  29.860  27.757  1.00  0.00     0.010 A 
ATOM     10  C   UNL A   1      37.792  29.519  29.111  1.00  0.00    -0.014 A 
BRANCH  10  11
ATOM     11  C   UNL A   1      39.046  29.192  29.822  1.00  0.00     0.031 A 
ATOM     12  C   UNL A   1      39.902  28.017  29.455  1.00  0.00     0.074 A 
ATOM     13  C   UNL A   1      39.378  29.966  30.868  1.00  0.00     0.049 A 
ATOM     14  N   UNL A   1      41.101  27.711  29.883  1.00  0.00    -0.248 NA
ATOM     15  C   UNL A   1      39.368  27.076  28.463  1.00  0.00     0.031 C 
ATOM     16  C   UNL A   1      38.604  31.117  31.338  1.00  0.00     0.029 A 
ATOM     17  N   UNL A   1      40.428  29.885  31.740  1.00  0.00    -0.354 N 
ATOM     18  C   UNL A   1      41.510  26.624  29.124  1.00  0.00     0.074 A 
ATOM     19  C   UNL A   1      40.400  26.264  28.269  1.00  0.00     0.031 C 
ATOM     20  C   UNL A   1      39.199  31.628  32.423  1.00  0.00     0.029 A 
ATOM     21  C   UNL A   1      40.363  30.812  32.745  1.00  0.00     0.049 A 
ATOM     22  H   UNL A   1      41.155  29.227  31.653  1.00  0.00     0.167 HD
ATOM     23  C   UNL A   1      42.707  25.992  29.140  1.00  0.00     0.037 A 
ATOM     24  C   UNL A   1      41.139  30.967  33.830  1.00  0.00     0.037 A 
ATOM     25  C   UNL A   1      43.696  26.191  30.169  1.00  0.00     0.049 A 
ATOM     26  C   UNL A   1      42.317  30.059  34.005  1.00  0.00     0.074 A 
ATOM     27  C   UNL A   1      44.898  25.532  30.360  1.00  0.00     0.029 A 
ATOM     28  N   UNL A   1      43.545  27.064  31.239  1.00  0.00    -0.354 N 
ATOM     29  N   UNL A   1      42.767  29.127  33.200  1.00  0.00    -0.248 NA
ATOM     30  C   UNL A   1      43.093  30.225  35.237  1.00  0.00     0.031 C 
ATOM     31  C   UNL A   1      45.414  25.925  31.603  1.00  0.00     0.029 A 
ATOM     32  C   UNL A   1      44.580  26.892  32.146  1.00  0.00     0.049 A 
ATOM     33  H   UNL A   1      42.811  27.710  31.339  1.00  0.00     0.167 HD
ATOM     34  C   UNL A   1      43.889  28.599  33.818  1.00  0.00     0.074 A 
ATOM     35  C   UNL A   1      44.060  29.336  35.057  1.00  0.00     0.031 C 
ATOM     36  C   UNL A   1      44.706  27.599  33.397  1.00  0.00     0.037 A 
BRANCH  23  37
ATOM     37  C   UNL A   1      42.978  24.998  28.046  1.00  0.00     0.064 A 
ATOM     38  C   UNL A   1      42.710  23.631  28.234  1.00  0.00     0.173 A 
ATOM     39  C   UNL A   1      43.472  25.400  26.798  1.00  0.00     0.173 A 
ATOM     40  F   UNL A   1      42.256  23.188  29.417  1.00  0.00    -0.203 F 
ATOM     41  C   UNL A   1      42.937  22.706  27.217  1.00  0.00     0.198 A 
ATOM     42  C   UNL A   1      43.685  24.474  25.778  1.00  0.00     0.198 A 
ATOM     43  F   UNL A   1      43.755  26.690  26.568  1.00  0.00    -0.203 F 
ATOM     44  F   UNL A   1      42.704  21.404  27.432  1.00  0.00    -0.200 F 
ATOM     45  C   UNL A   1      43.421  23.129  25.989  1.00  0.00     0.200 A 
ATOM     46  F   UNL A   1      44.158  24.883  24.593  1.00  0.00    -0.200 F 
ATOM     47  F   UNL A   1      43.647  22.237  25.013  1.00  0.00    -0.200 F 
ENDBRANCH  23  37
BRANCH  24  48
ATOM     48  C   UNL A   1      40.795  32.032  34.800  1.00  0.00     0.064 A 
ATOM     49  C   UNL A   1      39.935  31.771  35.872  1.00  0.00     0.173 A 
ATOM     50  C   UNL A   1      41.413  33.292  34.742  1.00  0.00     0.173 A 
ATOM     51  F   UNL A   1      39.316  30.585  35.959  1.00  0.00    -0.203 F 
ATOM     52  C   UNL A   1      39.719  32.725  36.863  1.00  0.00     0.198 A 
ATOM     53  C   UNL A   1      41.216  34.234  35.747  1.00  0.00     0.198 A 
ATOM     54  F   UNL A   1      42.255  33.582  33.739  1.00  0.00    -0.203 F 
ATOM     55  F   UNL A   1      38.891  32.453  37.881  1.00  0.00    -0.200 F 
ATOM     56  C   UNL A   1      40.371  33.949  36.808  1.00  0.00     0.200 A 
ATOM     57  F   UNL A   1      41.868  35.404  35.703  1.00  0.00    -0.200 F 
ATOM     58  F   UNL A   1      40.190  34.851  37.783  1.00  0.00    -0.200 F 
ENDBRANCH  24  48
BRANCH  36  59
ATOM     59  C   UNL A   1      45.840  27.229  34.309  1.00  0.00     0.064 A 
ATOM     60  C   UNL A   1      45.699  26.227  35.282  1.00  0.00     0.173 A 
ATOM     61  C   UNL A   1      47.082  27.875  34.207  1.00  0.00     0.173 A 
ATOM     62  F   UNL A   1      44.528  25.589  35.430  1.00  0.00    -0.203 F 
ATOM     63  C   UNL A   1      46.746  25.915  36.144  1.00  0.00     0.198 A 
ATOM     64  C   UNL A   1      48.137  27.532  35.046  1.00  0.00     0.198 A 
ATOM     65  F   UNL A   1      47.272  28.833  33.288  1.00  0.00    -0.203 F 
ATOM     66  F   UNL A   1      46.566  25.002  37.109  1.00  0.00    -0.200 F 
ATOM     67  C   UNL A   1      47.966  26.562  36.022  1.00  0.00     0.200 A 
ATOM     68  F   UNL A   1      49.321  28.146  34.913  1.00  0.00    -0.200 F 
ATOM     69  F   UNL A   1      48.973  26.260  36.852  1.00  0.00    -0.200 F 
ENDBRANCH  36  59
ENDBRANCH  10  11
ENDBRANCH   3   5
ENDBRANCH   2   3
ENDBRANCH   1   2
BRANCH   1  70
ATOM     70  C   UNL A   1      32.187  33.434  27.297  1.00  0.00     0.275 C 
BRANCH  70  71
ATOM     71  O   UNL A   1      33.413  33.932  27.857  1.00  0.00    -0.458 OA
BRANCH  71  72
ATOM     72  C   UNL A   1      33.266  34.785  28.905  1.00  0.00     0.340 C 
ATOM     73  O   UNL A   1      32.541  35.763  28.952  1.00  0.00    -0.246 OA
BRANCH  72  74
ATOM     74  C   UNL A   1      34.025  34.291  30.075  1.00  0.00     0.084 A 
ATOM     75  C   UNL A   1      34.556  32.994  30.065  1.00  0.00     0.018 A 
ATOM     76  C   UNL A   1      34.184  35.103  31.210  1.00  0.00     0.073 A 
ATOM     77  C   UNL A   1      35.218  32.501  31.191  1.00  0.00     0.002 A 
ATOM     78  C   UNL A   1      34.810  34.591  32.335  1.00  0.00     0.085 A 
ATOM     79  N   UNL A   1      33.679  36.395  31.293  1.00  0.00    -0.289 N 
ATOM     80  C   UNL A   1      35.325  33.289  32.335  1.00  0.00     0.018 A 
ATOM     81  C   UNL A   1      34.869  35.415  33.549  1.00  0.00     0.349 A 
ATOM     82  C   UNL A   1      33.739  37.164  32.419  1.00  0.00     0.419 A 
ATOM     83  H   UNL A   1      33.253  36.779  30.493  1.00  0.00     0.173 HD
ATOM     84  O   UNL A   1      35.388  34.960  34.563  1.00  0.00    -0.246 OA
ATOM     85  O   UNL A   1      34.324  36.647  33.528  1.00  0.00    -0.372 OA
ATOM     86  O   UNL A   1      33.259  38.294  32.429  1.00  0.00    -0.224 OA
ENDBRANCH  72  74
ENDBRANCH  71  72
ENDBRANCH  70  71
ENDBRANCH   1  70
TORSDOF 11
ENDMDL
MODEL 3
REMARK VINA RESULT:     -11.4      2.624      4.914
REMARK SMILES O=C(OCCOC(=O)c1cccc2c(=O)oc(=O)[nH]c12)c1ccc(-c2c3nc(c(-c4c(F)c(F)c(F)c(F)c4F)c4ccc([nH]4)c(-c4c(F)c(F)c(F)c(F)c4F)c4nc(c(-c5c(F)c(F)c(F)c(F)c5F)c5ccc2[nH]5)C=C4)C=C3)cc1
REMARK SMILES IDX 4 1 3 2 2 3 1 4 21 5 22 6 83 7 23 8 82 9 24 10 25 11 26 12
REMARK SMILES IDX 76 13 27 14 81 15 75 16 77 17 28 18 80 19 74 20 73 21 29 23
REMARK SMILES IDX 61 24 41 25 60 26 42 27 45 28 59 29 78 30 43 31 44 32 58 34
REMARK SMILES IDX 79 35 46 36 30 37 31 38 39 39 32 40 33 41 37 42 40 43 34 44
REMARK SMILES IDX 35 45 38 46 36 47 62 48 63 49 71 50 64 51 65 52 69 53 72 54
REMARK SMILES IDX 66 55 67 56 70 57 68 58 47 59 48 60 56 61 49 62 50 63 54 64
REMARK SMILES IDX 57 65 51 66 52 67 55 68 53 69 5 70 6 71 7 72 8 73 9 74 10 75
REMARK SMILES IDX 20 76 11 77 13 78 19 79 12 80 14 81 17 82 15 84 16 85 18 86
REMARK H PARENT 77 22 45 33 19 83
REMARK Flexibility Score: inf
ROOT
ATOM      1  C   UNL A   1      33.265  37.237  30.440  1.00  0.00     0.275 C 
ENDROOT
BRANCH   1   2
ATOM      2  O   UNL A   1      32.754  36.800  31.712  1.00  0.00    -0.458 OA
BRANCH   2   3
ATOM      3  C   UNL A   1      32.690  35.562  32.252  1.00  0.00     0.338 C 
ATOM      4  O   UNL A   1      31.592  35.099  32.556  1.00  0.00    -0.246 OA
BRANCH   3   5
ATOM      5  C   UNL A   1      33.901  34.797  32.675  1.00  0.00     0.060 A 
ATOM      6  C   UNL A   1      35.140  35.398  32.397  1.00  0.00     0.016 A 
ATOM      7  C   UNL A   1      33.904  33.551  33.301  1.00  0.00     0.016 A 
ATOM      8  C   UNL A   1      36.336  34.702  32.580  1.00  0.00     0.010 A 
ATOM      9  C   UNL A   1      35.101  32.860  33.514  1.00  0.00     0.010 A 
ATOM     10  C   UNL A   1      36.323  33.413  33.125  1.00  0.00    -0.014 A 
BRANCH  10  11
ATOM     11  C   UNL A   1      37.586  32.730  33.476  1.00  0.00     0.031 A 
ATOM     12  C   UNL A   1      38.109  31.551  32.711  1.00  0.00     0.074 A 
ATOM     13  C   UNL A   1      38.242  33.173  34.561  1.00  0.00     0.049 A 
ATOM     14  N   UNL A   1      39.275  30.963  32.807  1.00  0.00    -0.248 NA
ATOM     15  C   UNL A   1      37.233  30.968  31.688  1.00  0.00     0.031 C 
ATOM     16  C   UNL A   1      37.811  34.291  35.402  1.00  0.00     0.029 A 
ATOM     17  N   UNL A   1      39.385  32.721  35.158  1.00  0.00    -0.354 N 
ATOM     18  C   UNL A   1      39.318  30.033  31.779  1.00  0.00     0.074 A 
ATOM     19  C   UNL A   1      38.029  30.069  31.123  1.00  0.00     0.031 C 
ATOM     20  C   UNL A   1      38.673  34.431  36.416  1.00  0.00     0.029 A 
ATOM     21  C   UNL A   1      39.684  33.385  36.318  1.00  0.00     0.049 A 
ATOM     22  H   UNL A   1      39.937  31.993  34.791  1.00  0.00     0.167 HD
ATOM     23  C   UNL A   1      40.346  29.229  31.416  1.00  0.00     0.037 A 
ATOM     24  C   UNL A   1      40.648  33.153  37.224  1.00  0.00     0.037 A 
ATOM     25  C   UNL A   1      41.514  29.019  32.232  1.00  0.00     0.049 A 
ATOM     26  C   UNL A   1      41.627  32.051  36.962  1.00  0.00     0.074 A 
ATOM     27  C   UNL A   1      42.571  28.148  32.031  1.00  0.00     0.029 A 
ATOM     28  N   UNL A   1      41.729  29.629  33.462  1.00  0.00    -0.354 N 
ATOM     29  N   UNL A   1      41.734  31.273  35.912  1.00  0.00    -0.248 NA
ATOM     30  C   UNL A   1      42.618  31.796  38.011  1.00  0.00     0.031 C 
ATOM     31  C   UNL A   1      43.360  28.150  33.190  1.00  0.00     0.029 A 
ATOM     32  C   UNL A   1      42.845  29.084  34.077  1.00  0.00     0.049 A 
ATOM     33  H   UNL A   1      41.170  30.345  33.841  1.00  0.00     0.167 HD
ATOM     34  C   UNL A   1      42.813  30.440  36.162  1.00  0.00     0.074 A 
ATOM     35  C   UNL A   1      43.338  30.829  37.459  1.00  0.00     0.031 C 
ATOM     36  C   UNL A   1      43.324  29.448  35.389  1.00  0.00     0.037 A 
BRANCH  23  37
ATOM     37  C   UNL A   1      40.217  28.490  30.115  1.00  0.00     0.064 A 
ATOM     38  C   UNL A   1      40.802  28.994  28.940  1.00  0.00     0.173 A 
ATOM     39  C   UNL A   1      39.543  27.264  30.033  1.00  0.00     0.173 A 
ATOM     40  F   UNL A   1      41.440  30.175  28.957  1.00  0.00    -0.203 F 
ATOM     41  C   UNL A   1      40.705  28.303  27.734  1.00  0.00     0.198 A 
ATOM     42  C   UNL A   1      39.461  26.569  28.828  1.00  0.00     0.198 A 
ATOM     43  F   UNL A   1      38.958  26.743  31.120  1.00  0.00    -0.203 F 
ATOM     44  F   UNL A   1      41.244  28.821  26.621  1.00  0.00    -0.200 F 
ATOM     45  C   UNL A   1      40.038  27.090  27.680  1.00  0.00     0.200 A 
ATOM     46  F   UNL A   1      38.811  25.398  28.775  1.00  0.00    -0.200 F 
ATOM     47  F   UNL A   1      39.940  26.429  26.517  1.00  0.00    -0.200 F 
ENDBRANCH  23  37
BRANCH  24  48
ATOM     48  C   UNL A   1      40.698  34.003  38.436  1.00  0.00     0.064 A 
ATOM     49  C   UNL A   1      41.470  35.169  38.458  1.00  0.00     0.173 A 
ATOM     50  C   UNL A   1      39.882  33.731  39.546  1.00  0.00     0.173 A 
ATOM     51  F   UNL A   1      42.270  35.461  37.422  1.00  0.00    -0.203 F 
ATOM     52  C   UNL A   1      41.411  36.044  39.539  1.00  0.00     0.198 A 
ATOM     53  C   UNL A   1      39.805  34.619  40.614  1.00  0.00     0.198 A 
ATOM     54  F   UNL A   1      39.116  32.630  39.564  1.00  0.00    -0.203 F 
ATOM     55  F   UNL A   1      42.159  37.155  39.539  1.00  0.00    -0.200 F 
ATOM     56  C   UNL A   1      40.568  35.776  40.609  1.00  0.00     0.200 A 
ATOM     57  F   UNL A   1      38.971  34.369  41.633  1.00  0.00    -0.200 F 
ATOM     58  F   UNL A   1      40.486  36.639  41.632  1.00  0.00    -0.200 F 
ENDBRANCH  24  48
BRANCH  36  59
ATOM     59  C   UNL A   1      44.496  28.696  35.950  1.00  0.00     0.064 A 
ATOM     60  C   UNL A   1      45.815  29.111  35.708  1.00  0.00     0.173 A 
ATOM     61  C   UNL A   1      44.302  27.554  36.743  1.00  0.00     0.173 A 
ATOM     62  F   UNL A   1      46.055  30.188  34.944  1.00  0.00    -0.203 F 
ATOM     63  C   UNL A   1      46.895  28.388  36.204  1.00  0.00     0.198 A 
ATOM     64  C   UNL A   1      45.385  26.857  37.269  1.00  0.00     0.198 A 
ATOM     65  F   UNL A   1      43.063  27.120  37.012  1.00  0.00    -0.203 F 
ATOM     66  F   UNL A   1      48.146  28.765  35.903  1.00  0.00    -0.200 F 
ATOM     67  C   UNL A   1      46.680  27.266  36.989  1.00  0.00     0.200 A 
ATOM     68  F   UNL A   1      45.175  25.783  38.043  1.00  0.00    -0.200 F 
ATOM     69  F   UNL A   1      47.721  26.572  37.468  1.00  0.00    -0.200 F 
ENDBRANCH  36  59
ENDBRANCH  10  11
ENDBRANCH   3   5
ENDBRANCH   2   3
ENDBRANCH   1   2
BRANCH   1  70
ATOM     70  C   UNL A   1      32.831  36.401  29.232  1.00  0.00     0.275 C 
BRANCH  70  71
ATOM     71  O   UNL A   1      33.891  35.691  28.572  1.00  0.00    -0.458 OA
BRANCH  71  72
ATOM     72  C   UNL A   1      33.660  34.367  28.366  1.00  0.00     0.340 C 
ATOM     73  O   UNL A   1      32.610  33.856  28.018  1.00  0.00    -0.246 OA
BRANCH  72  74
ATOM     74  C   UNL A   1      34.920  33.603  28.496  1.00  0.00     0.084 A 
ATOM     75  C   UNL A   1      36.080  34.244  28.949  1.00  0.00     0.018 A 
ATOM     76  C   UNL A   1      34.968  32.247  28.131  1.00  0.00     0.073 A 
ATOM     77  C   UNL A   1      37.287  33.543  29.013  1.00  0.00     0.002 A 
ATOM     78  C   UNL A   1      36.177  31.572  28.163  1.00  0.00     0.085 A 
ATOM     79  N   UNL A   1      33.859  31.549  27.667  1.00  0.00    -0.289 N 
ATOM     80  C   UNL A   1      37.342  32.215  28.598  1.00  0.00     0.018 A 
ATOM     81  C   UNL A   1      36.228  30.189  27.673  1.00  0.00     0.349 A 
ATOM     82  C   UNL A   1      33.904  30.262  27.217  1.00  0.00     0.419 A 
ATOM     83  H   UNL A   1      32.989  32.011  27.662  1.00  0.00     0.173 HD
ATOM     84  O   UNL A   1      37.299  29.592  27.662  1.00  0.00    -0.246 OA
ATOM     85  O   UNL A   1      35.096  29.615  27.219  1.00  0.00    -0.372 OA
ATOM     86  O   UNL A   1      32.888  29.708  26.806  1.00  0.00    -0.224 OA
ENDBRANCH  72  74
ENDBRANCH  71  72
ENDBRANCH  70  71
ENDBRANCH   1  70
TORSDOF 11
ENDMDL
