MODEL 1
REMARK VINA RESULT:     -11.2      0.000      0.000
REMARK SMILES C[C@@H](Oc1cncc(C(=O)OCCOC(=O)c2ccc(-c3c4nc(c(-c5c(F)c(F)c(F)c(F)c5F)c5ccc([nH]5)c(-c5c(F)c(F)c(F)c(F)c5F)c5nc(c(-c6c(F)c(F)c(F)c(F)c6F)c6ccc3[nH]6)C=C5)C=C4)cc2)n1)C(F)(F)F
REMARK SMILES IDX 12 1 11 2 9 3 10 4 8 5 4 6 5 7 80 8 6 9 7 10 3 11 2 12 1 13
REMARK SMILES IDX 81 14 82 15 83 16 84 17 13 18 14 19 15 20 16 21 17 22 18 23
REMARK SMILES IDX 79 24 19 25 78 26 20 27 21 28 22 29 72 30 23 31 77 32 71 33
REMARK SMILES IDX 73 34 24 35 76 36 70 37 69 38 25 40 57 41 37 42 56 43 38 44
REMARK SMILES IDX 41 45 55 46 74 47 39 48 40 49 54 51 75 52 42 53 26 54 27 55
REMARK SMILES IDX 35 56 28 57 29 58 33 59 36 60 30 61 31 62 34 63 32 64 58 65
REMARK SMILES IDX 59 66 67 67 60 68 61 69 65 70 68 71 62 72 63 73 66 74 64 75
REMARK SMILES IDX 43 76 44 77 52 78 45 79 46 80 50 81 53 82 47 83 48 84 51 85
REMARK SMILES IDX 49 86
REMARK H PARENT 73 39 41 50
REMARK Flexibility Score: inf
ROOT
ATOM      1  C   UNL A   1      33.494  34.479  28.098  1.00  0.00     0.275 C 
ENDROOT
BRANCH   1   2
ATOM      2  O   UNL A   1      32.528  35.220  28.876  1.00  0.00    -0.457 OA
BRANCH   2   3
ATOM      3  C   UNL A   1      32.986  36.393  29.383  1.00  0.00     0.358 C 
ATOM      4  O   UNL A   1      33.188  37.418  28.745  1.00  0.00    -0.244 OA
BRANCH   3   5
ATOM      5  C   UNL A   1      33.148  36.366  30.854  1.00  0.00     0.170 A 
ATOM      6  C   UNL A   1      33.646  35.309  32.812  1.00  0.00     0.233 A 
ATOM      7  C   UNL A   1      33.853  36.544  33.425  1.00  0.00     0.179 A 
ATOM      8  N   UNL A   1      33.282  35.183  31.515  1.00  0.00    -0.203 NA
ATOM      9  N   UNL A   1      33.652  37.718  32.792  1.00  0.00    -0.257 NA
ATOM     10  C   UNL A   1      33.326  37.594  31.487  1.00  0.00     0.147 A 
BRANCH   6  11
ATOM     11  O   UNL A   1      34.029  34.164  33.459  1.00  0.00    -0.464 OA
BRANCH  11  12
ATOM     12  C   UNL A   1      35.350  33.720  33.084  1.00  0.00     0.277 C 
ATOM     13  C   UNL A   1      35.294  32.303  32.503  1.00  0.00     0.063 C 
BRANCH  12  14
ATOM     14  C   UNL A   1      36.229  33.709  34.338  1.00  0.00     0.425 C 
ATOM     15  F   UNL A   1      35.540  34.170  35.410  1.00  0.00    -0.167 F 
ATOM     16  F   UNL A   1      36.654  32.464  34.642  1.00  0.00    -0.167 F 
ATOM     17  F   UNL A   1      37.318  34.498  34.192  1.00  0.00    -0.167 F 
ENDBRANCH  12  14
ENDBRANCH  11  12
ENDBRANCH   6  11
ENDBRANCH   3   5
ENDBRANCH   2   3
ENDBRANCH   1   2
BRANCH   1  18
ATOM     18  C   UNL A   1      32.872  33.252  27.429  1.00  0.00     0.275 C 
BRANCH  18  19
ATOM     19  O   UNL A   1      33.314  32.040  28.072  1.00  0.00    -0.458 OA
BRANCH  19  20
ATOM     20  C   UNL A   1      33.817  31.090  27.252  1.00  0.00     0.338 C 
ATOM     21  O   UNL A   1      33.270  30.580  26.285  1.00  0.00    -0.246 OA
BRANCH  20  22
ATOM     22  C   UNL A   1      35.192  30.732  27.644  1.00  0.00     0.060 A 
ATOM     23  C   UNL A   1      35.528  29.397  27.841  1.00  0.00     0.016 A 
ATOM     24  C   UNL A   1      36.098  31.732  27.994  1.00  0.00     0.016 A 
ATOM     25  C   UNL A   1      36.699  29.062  28.520  1.00  0.00     0.010 A 
ATOM     26  C   UNL A   1      37.334  31.385  28.556  1.00  0.00     0.010 A 
ATOM     27  C   UNL A   1      37.631  30.048  28.879  1.00  0.00    -0.014 A 
BRANCH  27  28
ATOM     28  C   UNL A   1      38.882  29.695  29.619  1.00  0.00     0.031 A 
ATOM     29  C   UNL A   1      39.867  28.711  29.033  1.00  0.00     0.074 A 
ATOM     30  C   UNL A   1      39.163  30.255  30.814  1.00  0.00     0.049 A 
ATOM     31  N   UNL A   1      40.886  28.115  29.603  1.00  0.00    -0.248 NA
ATOM     32  C   UNL A   1      39.669  28.333  27.625  1.00  0.00     0.031 C 
ATOM     33  C   UNL A   1      38.343  31.253  31.501  1.00  0.00     0.029 A 
ATOM     34  N   UNL A   1      40.231  30.071  31.663  1.00  0.00    -0.354 N 
ATOM     35  C   UNL A   1      41.397  27.239  28.651  1.00  0.00     0.074 A 
ATOM     36  C   UNL A   1      40.586  27.388  27.463  1.00  0.00     0.031 C 
ATOM     37  C   UNL A   1      38.961  31.638  32.627  1.00  0.00     0.029 A 
ATOM     38  C   UNL A   1      40.168  30.838  32.801  1.00  0.00     0.049 A 
ATOM     39  H   UNL A   1      40.970  29.449  31.471  1.00  0.00     0.167 HD
ATOM     40  C   UNL A   1      42.443  26.383  28.764  1.00  0.00     0.037 A 
ATOM     41  C   UNL A   1      40.959  30.867  33.891  1.00  0.00     0.037 A 
ATOM     42  C   UNL A   1      43.306  26.294  29.912  1.00  0.00     0.049 A 
ATOM     43  C   UNL A   1      42.116  29.916  33.990  1.00  0.00     0.074 A 
ATOM     44  C   UNL A   1      44.405  25.472  30.106  1.00  0.00     0.029 A 
ATOM     45  N   UNL A   1      43.188  27.076  31.051  1.00  0.00    -0.354 N 
ATOM     46  N   UNL A   1      42.533  29.028  33.122  1.00  0.00    -0.248 NA
ATOM     47  C   UNL A   1      42.894  29.948  35.238  1.00  0.00     0.031 C 
ATOM     48  C   UNL A   1      44.936  25.741  31.372  1.00  0.00     0.029 A 
ATOM     49  C   UNL A   1      44.190  26.753  31.953  1.00  0.00     0.049 A 
ATOM     50  H   UNL A   1      42.495  27.759  31.198  1.00  0.00     0.167 HD
ATOM     51  C   UNL A   1      43.616  28.396  33.715  1.00  0.00     0.074 A 
ATOM     52  C   UNL A   1      43.811  29.019  35.007  1.00  0.00     0.031 C 
ATOM     53  C   UNL A   1      44.373  27.380  33.234  1.00  0.00     0.037 A 
BRANCH  40  54
ATOM     54  C   UNL A   1      42.698  25.439  27.625  1.00  0.00     0.064 A 
ATOM     55  C   UNL A   1      41.968  24.256  27.457  1.00  0.00     0.173 A 
ATOM     56  C   UNL A   1      43.660  25.762  26.652  1.00  0.00     0.173 A 
ATOM     57  F   UNL A   1      41.047  23.897  28.364  1.00  0.00    -0.203 F 
ATOM     58  C   UNL A   1      42.203  23.418  26.368  1.00  0.00     0.198 A 
ATOM     59  C   UNL A   1      43.874  24.935  25.553  1.00  0.00     0.198 A 
ATOM     60  F   UNL A   1      44.380  26.887  26.762  1.00  0.00    -0.203 F 
ATOM     61  F   UNL A   1      41.518  22.273  26.245  1.00  0.00    -0.200 F 
ATOM     62  C   UNL A   1      43.150  23.762  25.414  1.00  0.00     0.200 A 
ATOM     63  F   UNL A   1      44.781  25.276  24.626  1.00  0.00    -0.200 F 
ATOM     64  F   UNL A   1      43.366  22.960  24.362  1.00  0.00    -0.200 F 
ENDBRANCH  40  54
BRANCH  41  65
ATOM     65  C   UNL A   1      40.648  31.806  35.000  1.00  0.00     0.064 A 
ATOM     66  C   UNL A   1      41.344  33.012  35.139  1.00  0.00     0.173 A 
ATOM     67  C   UNL A   1      39.635  31.523  35.931  1.00  0.00     0.173 A 
ATOM     68  F   UNL A   1      42.340  33.313  34.292  1.00  0.00    -0.203 F 
ATOM     69  C   UNL A   1      41.040  33.904  36.167  1.00  0.00     0.198 A 
ATOM     70  C   UNL A   1      39.312  32.427  36.939  1.00  0.00     0.198 A 
ATOM     71  F   UNL A   1      38.943  30.378  35.841  1.00  0.00    -0.203 F 
ATOM     72  F   UNL A   1      41.742  35.037  36.297  1.00  0.00    -0.200 F 
ATOM     73  C   UNL A   1      40.017  33.615  37.058  1.00  0.00     0.200 A 
ATOM     74  F   UNL A   1      38.314  32.151  37.789  1.00  0.00    -0.200 F 
ATOM     75  F   UNL A   1      39.714  34.479  38.036  1.00  0.00    -0.200 F 
ENDBRANCH  41  65
BRANCH  53  76
ATOM     76  C   UNL A   1      45.492  26.894  34.104  1.00  0.00     0.064 A 
ATOM     77  C   UNL A   1      45.304  25.844  35.014  1.00  0.00     0.173 A 
ATOM     78  C   UNL A   1      46.769  27.465  34.007  1.00  0.00     0.173 A 
ATOM     79  F   UNL A   1      44.095  25.279  35.152  1.00  0.00    -0.203 F 
ATOM     80  C   UNL A   1      46.353  25.395  35.812  1.00  0.00     0.198 A 
ATOM     81  C   UNL A   1      47.820  27.000  34.793  1.00  0.00     0.198 A 
ATOM     82  F   UNL A   1      46.997  28.470  33.149  1.00  0.00    -0.203 F 
ATOM     83  F   UNL A   1      46.143  24.417  36.704  1.00  0.00    -0.200 F 
ATOM     84  C   UNL A   1      47.610  25.970  35.697  1.00  0.00     0.200 A 
ATOM     85  F   UNL A   1      49.036  27.552  34.677  1.00  0.00    -0.200 F 
ATOM     86  F   UNL A   1      48.618  25.538  36.467  1.00  0.00    -0.200 F 
ENDBRANCH  53  76
ENDBRANCH  27  28
ENDBRANCH  20  22
ENDBRANCH  19  20
ENDBRANCH  18  19
ENDBRANCH   1  18
TORSDOF 14
ENDMDL
MODEL 2
REMARK VINA RESULT:     -10.9      2.035      7.726
REMARK SMILES C[C@@H](Oc1cncc(C(=O)OCCOC(=O)c2ccc(-c3c4nc(c(-c5c(F)c(F)c(F)c(F)c5F)c5ccc([nH]5)c(-c5c(F)c(F)c(F)c(F)c5F)c5nc(c(-c6c(F)c(F)c(F)c(F)c6F)c6ccc3[nH]6)C=C5)C=C4)cc2)n1)C(F)(F)F
REMARK SMILES IDX 12 1 11 2 9 3 10 4 8 5 4 6 5 7 80 8 6 9 7 10 3 11 2 12 1 13
REMARK SMILES IDX 81 14 82 15 83 16 84 17 13 18 14 19 15 20 16 21 17 22 18 23
REMARK SMILES IDX 79 24 19 25 78 26 20 27 21 28 22 29 72 30 23 31 77 32 71 33
REMARK SMILES IDX 73 34 24 35 76 36 70 37 69 38 25 40 57 41 37 42 56 43 38 44
REMARK SMILES IDX 41 45 55 46 74 47 39 48 40 49 54 51 75 52 42 53 26 54 27 55
REMARK SMILES IDX 35 56 28 57 29 58 33 59 36 60 30 61 31 62 34 63 32 64 58 65
REMARK SMILES IDX 59 66 67 67 60 68 61 69 65 70 68 71 62 72 63 73 66 74 64 75
REMARK SMILES IDX 43 76 44 77 52 78 45 79 46 80 50 81 53 82 47 83 48 84 51 85
REMARK SMILES IDX 49 86
REMARK H PARENT 73 39 41 50
REMARK Flexibility Score: inf
ROOT
ATOM      1  C   UNL A   1      33.431  34.232  28.184  1.00  0.00     0.275 C 
ENDROOT
BRANCH   1   2
ATOM      2  O   UNL A   1      32.586  34.762  29.230  1.00  0.00    -0.457 OA
BRANCH   2   3
ATOM      3  C   UNL A   1      32.953  35.984  29.693  1.00  0.00     0.358 C 
ATOM      4  O   UNL A   1      32.928  37.028  29.053  1.00  0.00    -0.244 OA
BRANCH   3   5
ATOM      5  C   UNL A   1      33.319  35.977  31.127  1.00  0.00     0.170 A 
ATOM      6  C   UNL A   1      34.734  35.492  32.848  1.00  0.00     0.233 A 
ATOM      7  C   UNL A   1      34.079  36.426  33.648  1.00  0.00     0.179 A 
ATOM      8  N   UNL A   1      34.372  35.235  31.569  1.00  0.00    -0.203 NA
ATOM      9  N   UNL A   1      32.993  37.110  33.236  1.00  0.00    -0.257 NA
ATOM     10  C   UNL A   1      32.652  36.884  31.948  1.00  0.00     0.147 A 
BRANCH   6  11
ATOM     11  O   UNL A   1      35.925  34.961  33.269  1.00  0.00    -0.464 OA
BRANCH  11  12
ATOM     12  C   UNL A   1      35.772  33.690  33.933  1.00  0.00     0.277 C 
ATOM     13  C   UNL A   1      36.621  33.646  35.208  1.00  0.00     0.063 C 
BRANCH  12  14
ATOM     14  C   UNL A   1      36.247  32.587  32.982  1.00  0.00     0.425 C 
ATOM     15  F   UNL A   1      35.205  32.082  32.277  1.00  0.00    -0.167 F 
ATOM     16  F   UNL A   1      37.147  33.049  32.087  1.00  0.00    -0.167 F 
ATOM     17  F   UNL A   1      36.814  31.558  33.652  1.00  0.00    -0.167 F 
ENDBRANCH  12  14
ENDBRANCH  11  12
ENDBRANCH   6  11
ENDBRANCH   3   5
ENDBRANCH   2   3
ENDBRANCH   1   2
BRANCH   1  18
ATOM     18  C   UNL A   1      34.376  33.148  28.704  1.00  0.00     0.275 C 
BRANCH  18  19
ATOM     19  O   UNL A   1      34.827  32.304  27.626  1.00  0.00    -0.458 OA
BRANCH  19  20
ATOM     20  C   UNL A   1      34.566  30.985  27.763  1.00  0.00     0.338 C 
ATOM     21  O   UNL A   1      33.490  30.423  27.615  1.00  0.00    -0.246 OA
BRANCH  20  22
ATOM     22  C   UNL A   1      35.792  30.238  28.094  1.00  0.00     0.060 A 
ATOM     23  C   UNL A   1      35.933  29.667  29.355  1.00  0.00     0.016 A 
ATOM     24  C   UNL A   1      36.877  30.260  27.220  1.00  0.00     0.016 A 
ATOM     25  C   UNL A   1      37.188  29.253  29.800  1.00  0.00     0.010 A 
ATOM     26  C   UNL A   1      38.107  29.721  27.623  1.00  0.00     0.010 A 
ATOM     27  C   UNL A   1      38.297  29.260  28.938  1.00  0.00    -0.014 A 
BRANCH  27  28
ATOM     28  C   UNL A   1      39.647  28.829  29.416  1.00  0.00     0.031 A 
ATOM     29  C   UNL A   1      40.385  29.637  30.458  1.00  0.00     0.074 A 
ATOM     30  C   UNL A   1      40.227  27.708  28.940  1.00  0.00     0.049 A 
ATOM     31  N   UNL A   1      41.636  29.556  30.841  1.00  0.00    -0.248 NA
ATOM     32  C   UNL A   1      39.618  30.686  31.149  1.00  0.00     0.031 C 
ATOM     33  C   UNL A   1      39.636  26.792  27.964  1.00  0.00     0.029 A 
ATOM     34  N   UNL A   1      41.448  27.138  29.223  1.00  0.00    -0.354 N 
ATOM     35  C   UNL A   1      41.824  30.590  31.752  1.00  0.00     0.074 A 
ATOM     36  C   UNL A   1      40.557  31.277  31.877  1.00  0.00     0.031 C 
ATOM     37  C   UNL A   1      40.459  25.750  27.777  1.00  0.00     0.029 A 
ATOM     38  C   UNL A   1      41.686  25.974  28.533  1.00  0.00     0.049 A 
ATOM     39  H   UNL A   1      42.089  27.528  29.860  1.00  0.00     0.167 HD
ATOM     40  C   UNL A   1      42.954  30.937  32.416  1.00  0.00     0.037 A 
ATOM     41  C   UNL A   1      42.781  25.193  28.470  1.00  0.00     0.037 A 
ATOM     42  C   UNL A   1      44.192  30.204  32.363  1.00  0.00     0.049 A 
ATOM     43  C   UNL A   1      44.018  25.593  29.221  1.00  0.00     0.074 A 
ATOM     44  C   UNL A   1      45.382  30.468  33.021  1.00  0.00     0.029 A 
ATOM     45  N   UNL A   1      44.391  29.043  31.631  1.00  0.00    -0.354 N 
ATOM     46  N   UNL A   1      44.211  26.623  30.006  1.00  0.00    -0.248 NA
ATOM     47  C   UNL A   1      45.202  24.737  29.050  1.00  0.00     0.031 C 
ATOM     48  C   UNL A   1      46.308  29.481  32.668  1.00  0.00     0.029 A 
ATOM     49  C   UNL A   1      45.685  28.583  31.818  1.00  0.00     0.049 A 
ATOM     50  H   UNL A   1      43.713  28.611  31.063  1.00  0.00     0.167 HD
ATOM     51  C   UNL A   1      45.533  26.543  30.421  1.00  0.00     0.074 A 
ATOM     52  C   UNL A   1      46.090  25.348  29.823  1.00  0.00     0.031 C 
ATOM     53  C   UNL A   1      46.225  27.393  31.217  1.00  0.00     0.037 A 
BRANCH  40  54
ATOM     54  C   UNL A   1      42.921  32.191  33.241  1.00  0.00     0.064 A 
ATOM     55  C   UNL A   1      43.177  33.454  32.690  1.00  0.00     0.173 A 
ATOM     56  C   UNL A   1      42.571  32.126  34.600  1.00  0.00     0.173 A 
ATOM     57  F   UNL A   1      43.527  33.569  31.400  1.00  0.00    -0.203 F 
ATOM     58  C   UNL A   1      43.103  34.605  33.473  1.00  0.00     0.198 A 
ATOM     59  C   UNL A   1      42.474  33.280  35.373  1.00  0.00     0.198 A 
ATOM     60  F   UNL A   1      42.309  30.943  35.174  1.00  0.00    -0.203 F 
ATOM     61  F   UNL A   1      43.385  35.799  32.935  1.00  0.00    -0.200 F 
ATOM     62  C   UNL A   1      42.744  34.517  34.811  1.00  0.00     0.200 A 
ATOM     63  F   UNL A   1      42.115  33.193  36.662  1.00  0.00    -0.200 F 
ATOM     64  F   UNL A   1      42.664  35.626  35.559  1.00  0.00    -0.200 F 
ENDBRANCH  40  54
BRANCH  41  65
ATOM     65  C   UNL A   1      42.767  23.974  27.621  1.00  0.00     0.064 A 
ATOM     66  C   UNL A   1      43.141  24.032  26.272  1.00  0.00     0.173 A 
ATOM     67  C   UNL A   1      42.400  22.725  28.145  1.00  0.00     0.173 A 
ATOM     68  F   UNL A   1      43.471  25.209  25.718  1.00  0.00    -0.203 F 
ATOM     69  C   UNL A   1      43.148  22.886  25.479  1.00  0.00     0.198 A 
ATOM     70  C   UNL A   1      42.437  21.576  27.360  1.00  0.00     0.198 A 
ATOM     71  F   UNL A   1      42.031  22.619  29.430  1.00  0.00    -0.203 F 
ATOM     72  F   UNL A   1      43.479  22.973  24.183  1.00  0.00    -0.200 F 
ATOM     73  C   UNL A   1      42.807  21.658  26.026  1.00  0.00     0.200 A 
ATOM     74  F   UNL A   1      42.120  20.390  27.896  1.00  0.00    -0.200 F 
ATOM     75  F   UNL A   1      42.830  20.554  25.267  1.00  0.00    -0.200 F 
ENDBRANCH  41  65
BRANCH  53  76
ATOM     76  C   UNL A   1      47.656  27.048  31.500  1.00  0.00     0.064 A 
ATOM     77  C   UNL A   1      48.002  26.161  32.528  1.00  0.00     0.173 A 
ATOM     78  C   UNL A   1      48.686  27.590  30.718  1.00  0.00     0.173 A 
ATOM     79  F   UNL A   1      47.051  25.631  33.312  1.00  0.00    -0.203 F 
ATOM     80  C   UNL A   1      49.335  25.843  32.778  1.00  0.00     0.198 A 
ATOM     81  C   UNL A   1      50.016  27.254  30.958  1.00  0.00     0.198 A 
ATOM     82  F   UNL A   1      48.402  28.442  29.722  1.00  0.00    -0.203 F 
ATOM     83  F   UNL A   1      49.648  25.023  33.791  1.00  0.00    -0.200 F 
ATOM     84  C   UNL A   1      50.339  26.386  31.989  1.00  0.00     0.200 A 
ATOM     85  F   UNL A   1      50.985  27.774  30.192  1.00  0.00    -0.200 F 
ATOM     86  F   UNL A   1      51.621  26.079  32.231  1.00  0.00    -0.200 F 
ENDBRANCH  53  76
ENDBRANCH  27  28
ENDBRANCH  20  22
ENDBRANCH  19  20
ENDBRANCH  18  19
ENDBRANCH   1  18
TORSDOF 14
ENDMDL
MODEL 3
REMARK VINA RESULT:     -10.7      3.266      9.366
REMARK SMILES C[C@@H](Oc1cncc(C(=O)OCCOC(=O)c2ccc(-c3c4nc(c(-c5c(F)c(F)c(F)c(F)c5F)c5ccc([nH]5)c(-c5c(F)c(F)c(F)c(F)c5F)c5nc(c(-c6c(F)c(F)c(F)c(F)c6F)c6ccc3[nH]6)C=C5)C=C4)cc2)n1)C(F)(F)F
REMARK SMILES IDX 12 1 11 2 9 3 10 4 8 5 4 6 5 7 80 8 6 9 7 10 3 11 2 12 1 13
REMARK SMILES IDX 81 14 82 15 83 16 84 17 13 18 14 19 15 20 16 21 17 22 18 23
REMARK SMILES IDX 79 24 19 25 78 26 20 27 21 28 22 29 72 30 23 31 77 32 71 33
REMARK SMILES IDX 73 34 24 35 76 36 70 37 69 38 25 40 57 41 37 42 56 43 38 44
REMARK SMILES IDX 41 45 55 46 74 47 39 48 40 49 54 51 75 52 42 53 26 54 27 55
REMARK SMILES IDX 35 56 28 57 29 58 33 59 36 60 30 61 31 62 34 63 32 64 58 65
REMARK SMILES IDX 59 66 67 67 60 68 61 69 65 70 68 71 62 72 63 73 66 74 64 75
REMARK SMILES IDX 43 76 44 77 52 78 45 79 46 80 50 81 53 82 47 83 48 84 51 85
REMARK SMILES IDX 49 86
REMARK H PARENT 73 39 41 50
REMARK Flexibility Score: inf
ROOT
ATOM      1  C   UNL A   1      34.065  35.152  28.743  1.00  0.00     0.275 C 
ENDROOT
BRANCH   1   2
ATOM      2  O   UNL A   1      33.743  33.758  28.534  1.00  0.00    -0.457 OA
BRANCH   2   3
ATOM      3  C   UNL A   1      34.731  33.027  27.959  1.00  0.00     0.358 C 
ATOM      4  O   UNL A   1      35.832  33.447  27.628  1.00  0.00    -0.244 OA
BRANCH   3   5
ATOM      5  C   UNL A   1      34.393  31.590  27.835  1.00  0.00     0.170 A 
ATOM      6  C   UNL A   1      33.028  29.886  27.180  1.00  0.00     0.233 A 
ATOM      7  C   UNL A   1      34.102  29.000  27.254  1.00  0.00     0.179 A 
ATOM      8  N   UNL A   1      33.139  31.202  27.473  1.00  0.00    -0.203 NA
ATOM      9  N   UNL A   1      35.327  29.368  27.680  1.00  0.00    -0.257 NA
ATOM     10  C   UNL A   1      35.450  30.688  27.936  1.00  0.00     0.147 A 
BRANCH   6  11
ATOM     11  O   UNL A   1      31.863  29.485  26.581  1.00  0.00    -0.464 OA
BRANCH  11  12
ATOM     12  C   UNL A   1      32.081  28.653  25.423  1.00  0.00     0.277 C 
ATOM     13  C   UNL A   1      31.501  29.316  24.170  1.00  0.00     0.063 C 
BRANCH  12  14
ATOM     14  C   UNL A   1      31.373  27.313  25.651  1.00  0.00     0.425 C 
ATOM     15  F   UNL A   1      30.233  27.244  24.920  1.00  0.00    -0.167 F 
ATOM     16  F   UNL A   1      32.145  26.268  25.284  1.00  0.00    -0.167 F 
ATOM     17  F   UNL A   1      31.029  27.144  26.948  1.00  0.00    -0.167 F 
ENDBRANCH  12  14
ENDBRANCH  11  12
ENDBRANCH   6  11
ENDBRANCH   3   5
ENDBRANCH   2   3
ENDBRANCH   1   2
BRANCH   1  18
ATOM     18  C   UNL A   1      32.905  35.919  29.381  1.00  0.00     0.275 C 
BRANCH  18  19
ATOM     19  O   UNL A   1      32.366  35.190  30.501  1.00  0.00    -0.458 OA
BRANCH  19  20
ATOM     20  C   UNL A   1      32.565  35.747  31.716  1.00  0.00     0.338 C 
ATOM     21  O   UNL A   1      31.928  36.656  32.228  1.00  0.00    -0.246 OA
BRANCH  20  22
ATOM     22  C   UNL A   1      33.675  35.083  32.423  1.00  0.00     0.060 A 
ATOM     23  C   UNL A   1      34.918  35.704  32.494  1.00  0.00     0.016 A 
ATOM     24  C   UNL A   1      33.535  33.766  32.856  1.00  0.00     0.016 A 
ATOM     25  C   UNL A   1      36.048  34.971  32.855  1.00  0.00     0.010 A 
ATOM     26  C   UNL A   1      34.649  33.072  33.345  1.00  0.00     0.010 A 
ATOM     27  C   UNL A   1      35.934  33.644  33.300  1.00  0.00    -0.014 A 
BRANCH  27  28
ATOM     28  C   UNL A   1      37.145  32.850  33.675  1.00  0.00     0.031 A 
ATOM     29  C   UNL A   1      37.796  33.038  35.025  1.00  0.00     0.074 A 
ATOM     30  C   UNL A   1      37.670  31.942  32.826  1.00  0.00     0.049 A 
ATOM     31  N   UNL A   1      38.960  32.613  35.454  1.00  0.00    -0.248 NA
ATOM     32  C   UNL A   1      37.047  33.823  36.020  1.00  0.00     0.031 C 
ATOM     33  C   UNL A   1      37.141  31.607  31.505  1.00  0.00     0.029 A 
ATOM     34  N   UNL A   1      38.768  31.122  32.956  1.00  0.00    -0.354 N 
ATOM     35  C   UNL A   1      39.115  33.145  36.730  1.00  0.00     0.074 A 
ATOM     36  C   UNL A   1      37.922  33.912  37.013  1.00  0.00     0.031 C 
ATOM     37  C   UNL A   1      37.870  30.615  30.973  1.00  0.00     0.029 A 
ATOM     38  C   UNL A   1      38.985  30.317  31.864  1.00  0.00     0.049 A 
ATOM     39  H   UNL A   1      39.342  31.114  33.755  1.00  0.00     0.167 HD
ATOM     40  C   UNL A   1      40.161  33.010  37.581  1.00  0.00     0.037 A 
ATOM     41  C   UNL A   1      39.990  29.466  31.580  1.00  0.00     0.037 A 
ATOM     42  C   UNL A   1      41.309  32.176  37.339  1.00  0.00     0.049 A 
ATOM     43  C   UNL A   1      41.134  29.327  32.542  1.00  0.00     0.074 A 
ATOM     44  C   UNL A   1      42.408  31.960  38.156  1.00  0.00     0.029 A 
ATOM     45  N   UNL A   1      41.495  31.396  36.208  1.00  0.00    -0.354 N 
ATOM     46  N   UNL A   1      41.312  29.905  33.703  1.00  0.00    -0.248 NA
ATOM     47  C   UNL A   1      42.234  28.439  32.137  1.00  0.00     0.031 C 
ATOM     48  C   UNL A   1      43.269  31.067  37.507  1.00  0.00     0.029 A 
ATOM     49  C   UNL A   1      42.691  30.702  36.303  1.00  0.00     0.049 A 
ATOM     50  H   UNL A   1      40.870  31.345  35.449  1.00  0.00     0.167 HD
ATOM     51  C   UNL A   1      42.541  29.457  34.168  1.00  0.00     0.074 A 
ATOM     52  C   UNL A   1      43.054  28.535  33.175  1.00  0.00     0.031 C 
ATOM     53  C   UNL A   1      43.189  29.789  35.309  1.00  0.00     0.037 A 
BRANCH  40  54
ATOM     54  C   UNL A   1      40.135  33.809  38.851  1.00  0.00     0.064 A 
ATOM     55  C   UNL A   1      39.489  33.353  40.008  1.00  0.00     0.173 A 
ATOM     56  C   UNL A   1      40.821  35.034  38.921  1.00  0.00     0.173 A 
ATOM     57  F   UNL A   1      38.810  32.196  39.990  1.00  0.00    -0.203 F 
ATOM     58  C   UNL A   1      39.514  34.101  41.184  1.00  0.00     0.198 A 
ATOM     59  C   UNL A   1      40.864  35.766  40.105  1.00  0.00     0.198 A 
ATOM     60  F   UNL A   1      41.462  35.511  37.845  1.00  0.00    -0.203 F 
ATOM     61  F   UNL A   1      38.860  33.663  42.268  1.00  0.00    -0.200 F 
ATOM     62  C   UNL A   1      40.207  35.302  41.233  1.00  0.00     0.200 A 
ATOM     63  F   UNL A   1      41.545  36.920  40.153  1.00  0.00    -0.200 F 
ATOM     64  F   UNL A   1      40.237  36.014  42.368  1.00  0.00    -0.200 F 
ENDBRANCH  40  54
BRANCH  41  65
ATOM     65  C   UNL A   1      39.978  28.715  30.298  1.00  0.00     0.064 A 
ATOM     66  C   UNL A   1      40.567  29.250  29.146  1.00  0.00     0.173 A 
ATOM     67  C   UNL A   1      39.396  27.442  30.205  1.00  0.00     0.173 A 
ATOM     68  F   UNL A   1      41.109  30.477  29.177  1.00  0.00    -0.203 F 
ATOM     69  C   UNL A   1      40.574  28.539  27.947  1.00  0.00     0.198 A 
ATOM     70  C   UNL A   1      39.430  26.720  29.016  1.00  0.00     0.198 A 
ATOM     71  F   UNL A   1      38.816  26.889  31.281  1.00  0.00    -0.203 F 
ATOM     72  F   UNL A   1      41.116  29.086  26.849  1.00  0.00    -0.200 F 
ATOM     73  C   UNL A   1      40.016  27.271  27.886  1.00  0.00     0.200 A 
ATOM     74  F   UNL A   1      38.903  25.489  28.965  1.00  0.00    -0.200 F 
ATOM     75  F   UNL A   1      40.038  26.581  26.737  1.00  0.00    -0.200 F 
ENDBRANCH  41  65
BRANCH  53  76
ATOM     76  C   UNL A   1      44.517  29.139  35.553  1.00  0.00     0.064 A 
ATOM     77  C   UNL A   1      45.710  29.735  35.121  1.00  0.00     0.173 A 
ATOM     78  C   UNL A   1      44.598  27.923  36.247  1.00  0.00     0.173 A 
ATOM     79  F   UNL A   1      45.680  30.890  34.439  1.00  0.00    -0.203 F 
ATOM     80  C   UNL A   1      46.940  29.125  35.358  1.00  0.00     0.198 A 
ATOM     81  C   UNL A   1      45.830  27.327  36.499  1.00  0.00     0.198 A 
ATOM     82  F   UNL A   1      43.483  27.317  36.681  1.00  0.00    -0.203 F 
ATOM     83  F   UNL A   1      48.066  29.691  34.903  1.00  0.00    -0.200 F 
ATOM     84  C   UNL A   1      46.998  27.925  36.051  1.00  0.00     0.200 A 
ATOM     85  F   UNL A   1      45.886  26.170  37.174  1.00  0.00    -0.200 F 
ATOM     86  F   UNL A   1      48.182  27.339  36.279  1.00  0.00    -0.200 F 
ENDBRANCH  53  76
ENDBRANCH  27  28
ENDBRANCH  20  22
ENDBRANCH  19  20
ENDBRANCH  18  19
ENDBRANCH   1  18
TORSDOF 14
ENDMDL
