MODEL 1
REMARK VINA RESULT:     -11.1      0.000      0.000
REMARK SMILES CCCCCCNC(=O)Oc1cccc(-c2ccc([C@@H](C)C(=O)OCCOC(=O)c3ccc(-c4c5nc(c(-c6c(F)c(F)c(F)c(F)c6F)c6ccc([nH]6)c(-c6c(F)c(F)c(F)c(F)c6F)c6nc(c(-c7c(F)c(F)c(F)c(F)c7F)c7ccc4[nH]7)C=C6)C=C5)cc3)cc2)c1
REMARK SMILES IDX 20 1 21 2 19 3 16 4 17 5 94 6 18 7 93 8 15 9 11 10 12 11
REMARK SMILES IDX 95 12 13 13 14 14 10 15 8 16 7 17 9 19 6 20 5 21 4 22 3 23
REMARK SMILES IDX 2 24 1 25 22 26 23 27 24 28 25 29 26 30 27 31 28 32 29 33
REMARK SMILES IDX 30 34 31 35 92 36 32 37 91 38 33 39 34 40 35 41 85 42 36 43
REMARK SMILES IDX 90 44 84 45 86 46 37 47 89 48 83 49 82 50 38 52 70 53 50 54
REMARK SMILES IDX 69 55 51 56 54 57 68 58 87 59 52 60 53 61 67 63 88 64 55 65
REMARK SMILES IDX 39 66 40 67 48 68 41 69 42 70 46 71 49 72 43 73 44 74 47 75
REMARK SMILES IDX 45 76 71 77 72 78 80 79 73 80 74 81 78 82 81 83 75 84 76 85
REMARK SMILES IDX 79 86 77 87 56 88 57 89 65 90 58 91 59 92 63 93 66 94 60 95
REMARK SMILES IDX 61 96 64 97 62 98
REMARK H PARENT 7 18 86 51 54 62
REMARK Flexibility Score: inf
ROOT
ATOM      1  C   UNL A   1      41.085  21.905  26.974  1.00  0.00     0.126 C 
ATOM      2  C   UNL A   1      41.480  22.560  28.294  1.00  0.00     0.025 C 
ENDROOT
BRANCH   1   3
ATOM      3  C   UNL A   1      39.726  22.368  26.469  1.00  0.00    -0.034 A 
ATOM      4  C   UNL A   1      37.167  23.177  25.532  1.00  0.00    -0.018 A 
ATOM      5  C   UNL A   1      37.982  24.052  26.264  1.00  0.00     0.009 A 
ATOM      6  C   UNL A   1      37.655  21.889  25.274  1.00  0.00     0.009 A 
ATOM      7  C   UNL A   1      39.242  23.657  26.724  1.00  0.00     0.005 A 
ATOM      8  C   UNL A   1      38.917  21.493  25.728  1.00  0.00     0.005 A 
BRANCH   4   9
ATOM      9  C   UNL A   1      35.849  23.608  25.039  1.00  0.00    -0.015 A 
ATOM     10  C   UNL A   1      33.859  24.984  25.212  1.00  0.00     0.133 A 
ATOM     11  C   UNL A   1      33.328  24.409  24.059  1.00  0.00     0.047 A 
ATOM     12  C   UNL A   1      35.098  24.583  25.716  1.00  0.00     0.056 A 
ATOM     13  C   UNL A   1      34.060  23.439  23.382  1.00  0.00     0.004 A 
ATOM     14  C   UNL A   1      35.309  23.044  23.868  1.00  0.00     0.009 A 
BRANCH  10  15
ATOM     15  O   UNL A   1      33.044  25.903  25.891  1.00  0.00    -0.410 OA
BRANCH  15  16
ATOM     16  C   UNL A   1      31.736  25.524  26.160  1.00  0.00     0.412 C 
ATOM     17  N   UNL A   1      30.809  26.323  25.547  1.00  0.00    -0.321 N 
ATOM     18  H   UNL A   1      29.865  26.077  25.674  1.00  0.00     0.167 HD
ATOM     19  O   UNL A   1      31.383  24.593  26.873  1.00  0.00    -0.224 OA
BRANCH  17  20
ATOM     20  C   UNL A   1      31.067  27.493  24.732  1.00  0.00     0.119 C 
BRANCH  20  21
ATOM     21  C   UNL A   1      30.702  27.268  23.266  1.00  0.00     0.021 C 
BRANCH  21  22
ATOM     22  C   UNL A   1      30.288  28.532  22.501  1.00  0.00     0.002 C 
BRANCH  22  23
ATOM     23  C   UNL A   1      29.685  29.656  23.350  1.00  0.00    -0.000 C 
BRANCH  23  24
ATOM     24  C   UNL A   1      28.215  29.979  23.071  1.00  0.00    -0.003 C 
ATOM     25  C   UNL A   1      27.310  28.756  23.107  1.00  0.00     0.004 C 
ENDBRANCH  23  24
ENDBRANCH  22  23
ENDBRANCH  21  22
ENDBRANCH  20  21
ENDBRANCH  17  20
ENDBRANCH  15  16
ENDBRANCH  10  15
ENDBRANCH   4   9
ENDBRANCH   1   3
BRANCH   1  26
ATOM     26  C   UNL A   1      41.276  20.394  27.065  1.00  0.00     0.313 C 
ATOM     27  O   UNL A   1      40.779  19.728  27.968  1.00  0.00    -0.252 OA
BRANCH  26  28
ATOM     28  O   UNL A   1      41.993  19.872  26.035  1.00  0.00    -0.462 OA
BRANCH  28  29
ATOM     29  C   UNL A   1      42.472  18.522  26.188  1.00  0.00     0.274 C 
BRANCH  29  30
ATOM     30  C   UNL A   1      43.774  18.297  25.416  1.00  0.00     0.275 C 
BRANCH  30  31
ATOM     31  O   UNL A   1      43.864  19.176  24.280  1.00  0.00    -0.458 OA
BRANCH  31  32
ATOM     32  C   UNL A   1      45.056  19.796  24.135  1.00  0.00     0.338 C 
ATOM     33  O   UNL A   1      46.031  19.405  23.519  1.00  0.00    -0.246 OA
BRANCH  32  34
ATOM     34  C   UNL A   1      44.996  21.132  24.744  1.00  0.00     0.060 A 
ATOM     35  C   UNL A   1      44.796  22.223  23.896  1.00  0.00     0.016 A 
ATOM     36  C   UNL A   1      45.235  21.324  26.105  1.00  0.00     0.016 A 
ATOM     37  C   UNL A   1      44.859  23.518  24.395  1.00  0.00     0.010 A 
ATOM     38  C   UNL A   1      45.289  22.627  26.610  1.00  0.00     0.010 A 
ATOM     39  C   UNL A   1      45.123  23.730  25.754  1.00  0.00    -0.014 A 
BRANCH  39  40
ATOM     40  C   UNL A   1      45.285  25.117  26.247  1.00  0.00     0.031 A 
ATOM     41  C   UNL A   1      46.629  25.780  26.181  1.00  0.00     0.074 A 
ATOM     42  C   UNL A   1      44.218  25.790  26.708  1.00  0.00     0.049 A 
ATOM     43  N   UNL A   1      46.978  26.985  26.559  1.00  0.00    -0.248 NA
ATOM     44  C   UNL A   1      47.728  24.983  25.620  1.00  0.00     0.031 C 
ATOM     45  C   UNL A   1      42.860  25.256  26.796  1.00  0.00     0.029 A 
ATOM     46  N   UNL A   1      44.110  27.071  27.188  1.00  0.00    -0.354 N 
ATOM     47  C   UNL A   1      48.335  27.085  26.292  1.00  0.00     0.074 A 
ATOM     48  C   UNL A   1      48.754  25.811  25.746  1.00  0.00     0.031 C 
ATOM     49  C   UNL A   1      42.051  26.203  27.297  1.00  0.00     0.029 A 
ATOM     50  C   UNL A   1      42.840  27.396  27.593  1.00  0.00     0.049 A 
ATOM     51  H   UNL A   1      44.869  27.696  27.235  1.00  0.00     0.167 HD
ATOM     52  C   UNL A   1      49.156  28.146  26.481  1.00  0.00     0.037 A 
ATOM     53  C   UNL A   1      42.371  28.526  28.155  1.00  0.00     0.037 A 
ATOM     54  C   UNL A   1      48.734  29.414  27.015  1.00  0.00     0.049 A 
ATOM     55  C   UNL A   1      43.304  29.682  28.378  1.00  0.00     0.074 A 
ATOM     56  C   UNL A   1      49.484  30.559  27.220  1.00  0.00     0.029 A 
ATOM     57  N   UNL A   1      47.442  29.703  27.433  1.00  0.00    -0.354 N 
ATOM     58  N   UNL A   1      44.583  29.776  28.105  1.00  0.00    -0.248 NA
ATOM     59  C   UNL A   1      42.729  30.891  28.983  1.00  0.00     0.031 C 
ATOM     60  C   UNL A   1      48.655  31.528  27.800  1.00  0.00     0.029 A 
ATOM     61  C   UNL A   1      47.379  31.000  27.916  1.00  0.00     0.049 A 
ATOM     62  H   UNL A   1      46.683  29.078  27.392  1.00  0.00     0.167 HD
ATOM     63  C   UNL A   1      44.965  31.053  28.492  1.00  0.00     0.074 A 
ATOM     64  C   UNL A   1      43.776  31.706  29.004  1.00  0.00     0.031 C 
ATOM     65  C   UNL A   1      46.189  31.631  28.430  1.00  0.00     0.037 A 
BRANCH  52  66
ATOM     66  C   UNL A   1      50.603  27.962  26.132  1.00  0.00     0.064 A 
ATOM     67  C   UNL A   1      51.573  27.705  27.113  1.00  0.00     0.173 A 
ATOM     68  C   UNL A   1      51.026  28.042  24.796  1.00  0.00     0.173 A 
ATOM     69  F   UNL A   1      51.221  27.633  28.406  1.00  0.00    -0.203 F 
ATOM     70  C   UNL A   1      52.916  27.568  26.774  1.00  0.00     0.198 A 
ATOM     71  C   UNL A   1      52.366  27.878  24.458  1.00  0.00     0.198 A 
ATOM     72  F   UNL A   1      50.138  28.282  23.819  1.00  0.00    -0.203 F 
ATOM     73  F   UNL A   1      53.832  27.375  27.733  1.00  0.00    -0.200 F 
ATOM     74  C   UNL A   1      53.312  27.651  25.447  1.00  0.00     0.200 A 
ATOM     75  F   UNL A   1      52.746  27.950  23.174  1.00  0.00    -0.200 F 
ATOM     76  F   UNL A   1      54.606  27.523  25.123  1.00  0.00    -0.200 F 
ENDBRANCH  52  66
BRANCH  53  77
ATOM     77  C   UNL A   1      40.941  28.603  28.541  1.00  0.00     0.064 A 
ATOM     78  C   UNL A   1      40.520  28.257  29.832  1.00  0.00     0.173 A 
ATOM     79  C   UNL A   1      39.971  29.060  27.636  1.00  0.00     0.173 A 
ATOM     80  F   UNL A   1      41.408  27.793  30.723  1.00  0.00    -0.203 F 
ATOM     81  C   UNL A   1      39.181  28.365  30.202  1.00  0.00     0.198 A 
ATOM     82  C   UNL A   1      38.638  29.190  28.016  1.00  0.00     0.198 A 
ATOM     83  F   UNL A   1      40.327  29.404  26.389  1.00  0.00    -0.203 F 
ATOM     84  F   UNL A   1      38.799  28.005  31.435  1.00  0.00    -0.200 F 
ATOM     85  C   UNL A   1      38.243  28.840  29.298  1.00  0.00     0.200 A 
ATOM     86  F   UNL A   1      37.737  29.660  27.141  1.00  0.00    -0.200 F 
ATOM     87  F   UNL A   1      36.958  28.957  29.660  1.00  0.00    -0.200 F 
ENDBRANCH  53  77
BRANCH  65  88
ATOM     88  C   UNL A   1      46.304  33.045  28.918  1.00  0.00     0.064 A 
ATOM     89  C   UNL A   1      46.089  34.134  28.062  1.00  0.00     0.173 A 
ATOM     90  C   UNL A   1      46.594  33.312  30.264  1.00  0.00     0.173 A 
ATOM     91  F   UNL A   1      45.824  33.930  26.763  1.00  0.00    -0.203 F 
ATOM     92  C   UNL A   1      46.179  35.442  28.533  1.00  0.00     0.198 A 
ATOM     93  C   UNL A   1      46.659  34.619  30.737  1.00  0.00     0.198 A 
ATOM     94  F   UNL A   1      46.804  32.303  31.124  1.00  0.00    -0.203 F 
ATOM     95  F   UNL A   1      46.007  36.469  27.689  1.00  0.00    -0.200 F 
ATOM     96  C   UNL A   1      46.457  35.682  29.870  1.00  0.00     0.200 A 
ATOM     97  F   UNL A   1      46.919  34.851  32.032  1.00  0.00    -0.200 F 
ATOM     98  F   UNL A   1      46.537  36.942  30.322  1.00  0.00    -0.200 F 
ENDBRANCH  65  88
ENDBRANCH  39  40
ENDBRANCH  32  34
ENDBRANCH  31  32
ENDBRANCH  30  31
ENDBRANCH  29  30
ENDBRANCH  28  29
ENDBRANCH  26  28
ENDBRANCH   1  26
TORSDOF 20
ENDMDL
MODEL 2
REMARK VINA RESULT:     -11.1      1.788      3.457
REMARK SMILES CCCCCCNC(=O)Oc1cccc(-c2ccc([C@@H](C)C(=O)OCCOC(=O)c3ccc(-c4c5nc(c(-c6c(F)c(F)c(F)c(F)c6F)c6ccc([nH]6)c(-c6c(F)c(F)c(F)c(F)c6F)c6nc(c(-c7c(F)c(F)c(F)c(F)c7F)c7ccc4[nH]7)C=C6)C=C5)cc3)cc2)c1
REMARK SMILES IDX 20 1 21 2 19 3 16 4 17 5 94 6 18 7 93 8 15 9 11 10 12 11
REMARK SMILES IDX 95 12 13 13 14 14 10 15 8 16 7 17 9 19 6 20 5 21 4 22 3 23
REMARK SMILES IDX 2 24 1 25 22 26 23 27 24 28 25 29 26 30 27 31 28 32 29 33
REMARK SMILES IDX 30 34 31 35 92 36 32 37 91 38 33 39 34 40 35 41 85 42 36 43
REMARK SMILES IDX 90 44 84 45 86 46 37 47 89 48 83 49 82 50 38 52 70 53 50 54
REMARK SMILES IDX 69 55 51 56 54 57 68 58 87 59 52 60 53 61 67 63 88 64 55 65
REMARK SMILES IDX 39 66 40 67 48 68 41 69 42 70 46 71 49 72 43 73 44 74 47 75
REMARK SMILES IDX 45 76 71 77 72 78 80 79 73 80 74 81 78 82 81 83 75 84 76 85
REMARK SMILES IDX 79 86 77 87 56 88 57 89 65 90 58 91 59 92 63 93 66 94 60 95
REMARK SMILES IDX 61 96 64 97 62 98
REMARK H PARENT 7 18 86 51 54 62
REMARK Flexibility Score: inf
ROOT
ATOM      1  C   UNL A   1      41.136  21.881  26.917  1.00  0.00     0.126 C 
ATOM      2  C   UNL A   1      41.632  22.579  28.180  1.00  0.00     0.025 C 
ENDROOT
BRANCH   1   3
ATOM      3  C   UNL A   1      39.739  22.324  26.509  1.00  0.00    -0.034 A 
ATOM      4  C   UNL A   1      37.110  23.096  25.749  1.00  0.00    -0.018 A 
ATOM      5  C   UNL A   1      37.934  23.955  26.489  1.00  0.00     0.009 A 
ATOM      6  C   UNL A   1      37.625  21.843  25.391  1.00  0.00     0.009 A 
ATOM      7  C   UNL A   1      39.228  23.579  26.862  1.00  0.00     0.005 A 
ATOM      8  C   UNL A   1      38.921  21.465  25.758  1.00  0.00     0.005 A 
BRANCH   4   9
ATOM      9  C   UNL A   1      35.756  23.509  25.347  1.00  0.00    -0.015 A 
ATOM     10  C   UNL A   1      33.520  22.993  24.564  1.00  0.00     0.133 A 
ATOM     11  C   UNL A   1      33.169  24.341  24.589  1.00  0.00     0.047 A 
ATOM     12  C   UNL A   1      34.802  22.571  24.920  1.00  0.00     0.056 A 
ATOM     13  C   UNL A   1      34.107  25.281  25.006  1.00  0.00     0.004 A 
ATOM     14  C   UNL A   1      35.387  24.866  25.383  1.00  0.00     0.009 A 
BRANCH  10  15
ATOM     15  O   UNL A   1      32.557  22.101  24.065  1.00  0.00    -0.410 OA
BRANCH  15  16
ATOM     16  C   UNL A   1      31.838  21.351  24.985  1.00  0.00     0.412 C 
ATOM     17  N   UNL A   1      32.125  20.014  24.930  1.00  0.00    -0.321 N 
ATOM     18  H   UNL A   1      31.670  19.440  25.586  1.00  0.00     0.167 HD
ATOM     19  O   UNL A   1      31.010  21.779  25.779  1.00  0.00    -0.224 OA
BRANCH  17  20
ATOM     20  C   UNL A   1      33.025  19.352  24.008  1.00  0.00     0.119 C 
BRANCH  20  21
ATOM     21  C   UNL A   1      34.383  19.052  24.642  1.00  0.00     0.021 C 
BRANCH  21  22
ATOM     22  C   UNL A   1      34.945  17.657  24.337  1.00  0.00     0.002 C 
BRANCH  22  23
ATOM     23  C   UNL A   1      33.960  16.665  23.710  1.00  0.00    -0.000 C 
BRANCH  23  24
ATOM     24  C   UNL A   1      33.393  15.606  24.659  1.00  0.00    -0.003 C 
ATOM     25  C   UNL A   1      32.587  16.194  25.808  1.00  0.00     0.004 C 
ENDBRANCH  23  24
ENDBRANCH  22  23
ENDBRANCH  21  22
ENDBRANCH  20  21
ENDBRANCH  17  20
ENDBRANCH  15  16
ENDBRANCH  10  15
ENDBRANCH   4   9
ENDBRANCH   1   3
BRANCH   1  26
ATOM     26  C   UNL A   1      41.341  20.374  27.041  1.00  0.00     0.313 C 
ATOM     27  O   UNL A   1      40.878  19.729  27.977  1.00  0.00    -0.252 OA
BRANCH  26  28
ATOM     28  O   UNL A   1      42.028  19.830  26.002  1.00  0.00    -0.462 OA
BRANCH  28  29
ATOM     29  C   UNL A   1      42.539  18.495  26.182  1.00  0.00     0.274 C 
BRANCH  29  30
ATOM     30  C   UNL A   1      43.821  18.269  25.377  1.00  0.00     0.275 C 
BRANCH  30  31
ATOM     31  O   UNL A   1      43.914  19.194  24.278  1.00  0.00    -0.458 OA
BRANCH  31  32
ATOM     32  C   UNL A   1      45.111  19.810  24.155  1.00  0.00     0.338 C 
ATOM     33  O   UNL A   1      46.096  19.413  23.560  1.00  0.00    -0.246 OA
BRANCH  32  34
ATOM     34  C   UNL A   1      45.043  21.148  24.757  1.00  0.00     0.060 A 
ATOM     35  C   UNL A   1      44.848  22.235  23.902  1.00  0.00     0.016 A 
ATOM     36  C   UNL A   1      45.270  21.347  26.119  1.00  0.00     0.016 A 
ATOM     37  C   UNL A   1      44.905  23.533  24.396  1.00  0.00     0.010 A 
ATOM     38  C   UNL A   1      45.317  22.652  26.619  1.00  0.00     0.010 A 
ATOM     39  C   UNL A   1      45.156  23.751  25.756  1.00  0.00    -0.014 A 
BRANCH  39  40
ATOM     40  C   UNL A   1      45.312  25.141  26.244  1.00  0.00     0.031 A 
ATOM     41  C   UNL A   1      46.652  25.811  26.174  1.00  0.00     0.074 A 
ATOM     42  C   UNL A   1      44.242  25.810  26.704  1.00  0.00     0.049 A 
ATOM     43  N   UNL A   1      46.995  27.019  26.547  1.00  0.00    -0.248 NA
ATOM     44  C   UNL A   1      47.755  25.017  25.614  1.00  0.00     0.031 C 
ATOM     45  C   UNL A   1      42.887  25.269  26.795  1.00  0.00     0.029 A 
ATOM     46  N   UNL A   1      44.128  27.092  27.179  1.00  0.00    -0.354 N 
ATOM     47  C   UNL A   1      48.352  27.125  26.279  1.00  0.00     0.074 A 
ATOM     48  C   UNL A   1      48.777  25.851  25.736  1.00  0.00     0.031 C 
ATOM     49  C   UNL A   1      42.074  26.214  27.295  1.00  0.00     0.029 A 
ATOM     50  C   UNL A   1      42.857  27.412  27.586  1.00  0.00     0.049 A 
ATOM     51  H   UNL A   1      44.884  27.721  27.224  1.00  0.00     0.167 HD
ATOM     52  C   UNL A   1      49.167  28.191  26.463  1.00  0.00     0.037 A 
ATOM     53  C   UNL A   1      42.382  28.541  28.144  1.00  0.00     0.037 A 
ATOM     54  C   UNL A   1      48.739  29.459  26.993  1.00  0.00     0.049 A 
ATOM     55  C   UNL A   1      43.310  29.703  28.362  1.00  0.00     0.074 A 
ATOM     56  C   UNL A   1      49.483  30.608  27.193  1.00  0.00     0.029 A 
ATOM     57  N   UNL A   1      47.446  29.742  27.411  1.00  0.00    -0.354 N 
ATOM     58  N   UNL A   1      44.588  29.802  28.087  1.00  0.00    -0.248 NA
ATOM     59  C   UNL A   1      42.729  30.911  28.964  1.00  0.00     0.031 C 
ATOM     60  C   UNL A   1      48.650  31.575  27.771  1.00  0.00     0.029 A 
ATOM     61  C   UNL A   1      47.377  31.040  27.890  1.00  0.00     0.049 A 
ATOM     62  H   UNL A   1      46.691  29.113  27.374  1.00  0.00     0.167 HD
ATOM     63  C   UNL A   1      44.963  31.083  28.469  1.00  0.00     0.074 A 
ATOM     64  C   UNL A   1      43.772  31.731  28.981  1.00  0.00     0.031 C 
ATOM     65  C   UNL A   1      46.184  31.667  28.403  1.00  0.00     0.037 A 
BRANCH  52  66
ATOM     66  C   UNL A   1      50.615  28.013  26.112  1.00  0.00     0.064 A 
ATOM     67  C   UNL A   1      51.071  28.105  24.789  1.00  0.00     0.173 A 
ATOM     68  C   UNL A   1      51.560  27.750  27.116  1.00  0.00     0.173 A 
ATOM     69  F   UNL A   1      50.205  28.340  23.791  1.00  0.00    -0.203 F 
ATOM     70  C   UNL A   1      52.414  27.906  24.479  1.00  0.00     0.198 A 
ATOM     71  C   UNL A   1      52.906  27.579  26.805  1.00  0.00     0.198 A 
ATOM     72  F   UNL A   1      51.176  27.657  28.398  1.00  0.00    -0.203 F 
ATOM     73  F   UNL A   1      52.819  27.946  23.202  1.00  0.00    -0.200 F 
ATOM     74  C   UNL A   1      53.331  27.647  25.487  1.00  0.00     0.200 A 
ATOM     75  F   UNL A   1      53.792  27.337  27.782  1.00  0.00    -0.200 F 
ATOM     76  F   UNL A   1      54.622  27.452  25.187  1.00  0.00    -0.200 F 
ENDBRANCH  52  66
BRANCH  53  77
ATOM     77  C   UNL A   1      40.952  28.611  28.532  1.00  0.00     0.064 A 
ATOM     78  C   UNL A   1      40.535  28.266  29.824  1.00  0.00     0.173 A 
ATOM     79  C   UNL A   1      39.979  29.063  27.626  1.00  0.00     0.173 A 
ATOM     80  F   UNL A   1      41.426  27.808  30.715  1.00  0.00    -0.203 F 
ATOM     81  C   UNL A   1      39.195  28.368  30.196  1.00  0.00     0.198 A 
ATOM     82  C   UNL A   1      38.646  29.186  28.008  1.00  0.00     0.198 A 
ATOM     83  F   UNL A   1      40.332  29.405  26.379  1.00  0.00    -0.203 F 
ATOM     84  F   UNL A   1      38.817  28.009  31.430  1.00  0.00    -0.200 F 
ATOM     85  C   UNL A   1      38.254  28.837  29.291  1.00  0.00     0.200 A 
ATOM     86  F   UNL A   1      37.742  29.650  27.134  1.00  0.00    -0.200 F 
ATOM     87  F   UNL A   1      36.969  28.949  29.655  1.00  0.00    -0.200 F 
ENDBRANCH  53  77
BRANCH  65  88
ATOM     88  C   UNL A   1      46.293  33.083  28.887  1.00  0.00     0.064 A 
ATOM     89  C   UNL A   1      46.052  34.168  28.032  1.00  0.00     0.173 A 
ATOM     90  C   UNL A   1      46.602  33.356  30.227  1.00  0.00     0.173 A 
ATOM     91  F   UNL A   1      45.767  33.958  26.738  1.00  0.00    -0.203 F 
ATOM     92  C   UNL A   1      46.135  35.478  28.499  1.00  0.00     0.198 A 
ATOM     93  C   UNL A   1      46.661  34.665  30.696  1.00  0.00     0.198 A 
ATOM     94  F   UNL A   1      46.837  32.351  31.085  1.00  0.00    -0.203 F 
ATOM     95  F   UNL A   1      45.938  36.501  27.656  1.00  0.00    -0.200 F 
ATOM     96  C   UNL A   1      46.433  35.724  29.831  1.00  0.00     0.200 A 
ATOM     97  F   UNL A   1      46.940  34.903  31.986  1.00  0.00    -0.200 F 
ATOM     98  F   UNL A   1      46.507  36.985  30.278  1.00  0.00    -0.200 F 
ENDBRANCH  65  88
ENDBRANCH  39  40
ENDBRANCH  32  34
ENDBRANCH  31  32
ENDBRANCH  30  31
ENDBRANCH  29  30
ENDBRANCH  28  29
ENDBRANCH  26  28
ENDBRANCH   1  26
TORSDOF 20
ENDMDL
MODEL 3
REMARK VINA RESULT:     -10.9      6.650     12.426
REMARK SMILES CCCCCCNC(=O)Oc1cccc(-c2ccc([C@@H](C)C(=O)OCCOC(=O)c3ccc(-c4c5nc(c(-c6c(F)c(F)c(F)c(F)c6F)c6ccc([nH]6)c(-c6c(F)c(F)c(F)c(F)c6F)c6nc(c(-c7c(F)c(F)c(F)c(F)c7F)c7ccc4[nH]7)C=C6)C=C5)cc3)cc2)c1
REMARK SMILES IDX 20 1 21 2 19 3 16 4 17 5 94 6 18 7 93 8 15 9 11 10 12 11
REMARK SMILES IDX 95 12 13 13 14 14 10 15 8 16 7 17 9 19 6 20 5 21 4 22 3 23
REMARK SMILES IDX 2 24 1 25 22 26 23 27 24 28 25 29 26 30 27 31 28 32 29 33
REMARK SMILES IDX 30 34 31 35 92 36 32 37 91 38 33 39 34 40 35 41 85 42 36 43
REMARK SMILES IDX 90 44 84 45 86 46 37 47 89 48 83 49 82 50 38 52 70 53 50 54
REMARK SMILES IDX 69 55 51 56 54 57 68 58 87 59 52 60 53 61 67 63 88 64 55 65
REMARK SMILES IDX 39 66 40 67 48 68 41 69 42 70 46 71 49 72 43 73 44 74 47 75
REMARK SMILES IDX 45 76 71 77 72 78 80 79 73 80 74 81 78 82 81 83 75 84 76 85
REMARK SMILES IDX 79 86 77 87 56 88 57 89 65 90 58 91 59 92 63 93 66 94 60 95
REMARK SMILES IDX 61 96 64 97 62 98
REMARK H PARENT 7 18 86 51 54 62
REMARK Flexibility Score: inf
ROOT
ATOM      1  C   UNL A   1      35.520  32.883  28.708  1.00  0.00     0.126 C 
ATOM      2  C   UNL A   1      37.021  33.036  28.476  1.00  0.00     0.025 C 
ENDROOT
BRANCH   1   3
ATOM      3  C   UNL A   1      34.966  31.581  28.147  1.00  0.00    -0.034 A 
ATOM      4  C   UNL A   1      33.896  29.180  27.065  1.00  0.00    -0.018 A 
ATOM      5  C   UNL A   1      35.226  29.249  27.504  1.00  0.00     0.009 A 
ATOM      6  C   UNL A   1      33.108  30.333  27.179  1.00  0.00     0.009 A 
ATOM      7  C   UNL A   1      35.753  30.428  28.039  1.00  0.00     0.005 A 
ATOM      8  C   UNL A   1      33.632  31.513  27.718  1.00  0.00     0.005 A 
BRANCH   4   9
ATOM      9  C   UNL A   1      33.346  27.929  26.519  1.00  0.00    -0.015 A 
ATOM     10  C   UNL A   1      33.536  25.948  25.133  1.00  0.00     0.133 A 
ATOM     11  C   UNL A   1      32.255  25.537  25.496  1.00  0.00     0.047 A 
ATOM     12  C   UNL A   1      34.079  27.139  25.619  1.00  0.00     0.056 A 
ATOM     13  C   UNL A   1      31.516  26.313  26.383  1.00  0.00     0.004 A 
ATOM     14  C   UNL A   1      32.059  27.498  26.890  1.00  0.00     0.009 A 
BRANCH  10  15
ATOM     15  O   UNL A   1      34.203  25.163  24.179  1.00  0.00    -0.410 OA
BRANCH  15  16
ATOM     16  C   UNL A   1      33.726  25.194  22.876  1.00  0.00     0.412 C 
ATOM     17  N   UNL A   1      33.344  23.963  22.415  1.00  0.00    -0.321 N 
ATOM     18  H   UNL A   1      32.964  23.932  21.508  1.00  0.00     0.167 HD
ATOM     19  O   UNL A   1      33.645  26.181  22.157  1.00  0.00    -0.224 OA
BRANCH  17  20
ATOM     20  C   UNL A   1      33.441  22.699  23.117  1.00  0.00     0.119 C 
BRANCH  20  21
ATOM     21  C   UNL A   1      32.108  22.277  23.732  1.00  0.00     0.021 C 
BRANCH  21  22
ATOM     22  C   UNL A   1      32.205  21.164  24.784  1.00  0.00     0.002 C 
BRANCH  22  23
ATOM     23  C   UNL A   1      33.609  20.605  25.034  1.00  0.00    -0.000 C 
BRANCH  23  24
ATOM     24  C   UNL A   1      33.827  19.150  24.613  1.00  0.00    -0.003 C 
ATOM     25  C   UNL A   1      32.608  18.267  24.837  1.00  0.00     0.004 C 
ENDBRANCH  23  24
ENDBRANCH  22  23
ENDBRANCH  21  22
ENDBRANCH  20  21
ENDBRANCH  17  20
ENDBRANCH  15  16
ENDBRANCH  10  15
ENDBRANCH   4   9
ENDBRANCH   1   3
BRANCH   1  26
ATOM     26  C   UNL A   1      34.794  34.152  28.271  1.00  0.00     0.313 C 
ATOM     27  O   UNL A   1      34.883  34.592  27.129  1.00  0.00    -0.252 OA
BRANCH  26  28
ATOM     28  O   UNL A   1      34.017  34.698  29.243  1.00  0.00    -0.462 OA
BRANCH  28  29
ATOM     29  C   UNL A   1      33.455  35.998  28.980  1.00  0.00     0.274 C 
BRANCH  29  30
ATOM     30  C   UNL A   1      32.520  36.445  30.106  1.00  0.00     0.275 C 
BRANCH  30  31
ATOM     31  O   UNL A   1      33.211  36.490  31.368  1.00  0.00    -0.458 OA
BRANCH  31  32
ATOM     32  C   UNL A   1      32.842  35.534  32.250  1.00  0.00     0.338 C 
ATOM     33  O   UNL A   1      31.714  35.182  32.540  1.00  0.00    -0.246 OA
BRANCH  32  34
ATOM     34  C   UNL A   1      34.035  34.846  32.762  1.00  0.00     0.060 A 
ATOM     35  C   UNL A   1      35.266  35.489  32.619  1.00  0.00     0.016 A 
ATOM     36  C   UNL A   1      33.965  33.552  33.279  1.00  0.00     0.016 A 
ATOM     37  C   UNL A   1      36.442  34.834  32.965  1.00  0.00     0.010 A 
ATOM     38  C   UNL A   1      35.147  32.896  33.638  1.00  0.00     0.010 A 
ATOM     39  C   UNL A   1      36.392  33.526  33.462  1.00  0.00    -0.014 A 
BRANCH  39  40
ATOM     40  C   UNL A   1      37.660  32.810  33.730  1.00  0.00     0.031 A 
ATOM     41  C   UNL A   1      38.421  33.086  34.993  1.00  0.00     0.074 A 
ATOM     42  C   UNL A   1      38.098  31.881  32.863  1.00  0.00     0.049 A 
ATOM     43  N   UNL A   1      39.547  32.564  35.413  1.00  0.00    -0.248 NA
ATOM     44  C   UNL A   1      37.842  34.084  35.903  1.00  0.00     0.031 C 
ATOM     45  C   UNL A   1      37.429  31.513  31.617  1.00  0.00     0.029 A 
ATOM     46  N   UNL A   1      39.211  31.079  32.901  1.00  0.00    -0.354 N 
ATOM     47  C   UNL A   1      39.816  33.178  36.627  1.00  0.00     0.074 A 
ATOM     48  C   UNL A   1      38.751  34.130  36.866  1.00  0.00     0.031 C 
ATOM     49  C   UNL A   1      38.144  30.553  31.007  1.00  0.00     0.029 A 
ATOM     50  C   UNL A   1      39.333  30.264  31.804  1.00  0.00     0.049 A 
ATOM     51  H   UNL A   1      39.857  31.088  33.643  1.00  0.00     0.167 HD
ATOM     52  C   UNL A   1      40.854  32.962  37.469  1.00  0.00     0.037 A 
ATOM     53  C   UNL A   1      40.304  29.392  31.474  1.00  0.00     0.037 A 
ATOM     54  C   UNL A   1      41.906  32.007  37.234  1.00  0.00     0.049 A 
ATOM     55  C   UNL A   1      41.460  29.186  32.412  1.00  0.00     0.074 A 
ATOM     56  C   UNL A   1      42.988  31.696  38.039  1.00  0.00     0.029 A 
ATOM     57  N   UNL A   1      42.007  31.210  36.102  1.00  0.00    -0.354 N 
ATOM     58  N   UNL A   1      41.697  29.756  33.568  1.00  0.00    -0.248 NA
ATOM     59  C   UNL A   1      42.481  28.213  32.001  1.00  0.00     0.031 C 
ATOM     60  C   UNL A   1      43.766  30.739  37.376  1.00  0.00     0.029 A 
ATOM     61  C   UNL A   1      43.146  30.423  36.177  1.00  0.00     0.049 A 
ATOM     62  H   UNL A   1      41.365  31.204  35.357  1.00  0.00     0.167 HD
ATOM     63  C   UNL A   1      42.885  29.205  34.030  1.00  0.00     0.074 A 
ATOM     64  C   UNL A   1      43.311  28.241  33.035  1.00  0.00     0.031 C 
ATOM     65  C   UNL A   1      43.560  29.475  35.174  1.00  0.00     0.037 A 
BRANCH  52  66
ATOM     66  C   UNL A   1      40.914  33.800  38.712  1.00  0.00     0.064 A 
ATOM     67  C   UNL A   1      41.644  34.998  38.761  1.00  0.00     0.173 A 
ATOM     68  C   UNL A   1      40.229  33.401  39.870  1.00  0.00     0.173 A 
ATOM     69  F   UNL A   1      42.327  35.415  37.684  1.00  0.00    -0.203 F 
ATOM     70  C   UNL A   1      41.713  35.747  39.932  1.00  0.00     0.198 A 
ATOM     71  C   UNL A   1      40.279  34.167  41.031  1.00  0.00     0.198 A 
ATOM     72  F   UNL A   1      39.514  32.266  39.875  1.00  0.00    -0.203 F 
ATOM     73  F   UNL A   1      42.458  36.860  39.972  1.00  0.00    -0.200 F 
ATOM     74  C   UNL A   1      41.028  35.333  41.065  1.00  0.00     0.200 A 
ATOM     75  F   UNL A   1      39.610  33.770  42.123  1.00  0.00    -0.200 F 
ATOM     76  F   UNL A   1      41.099  36.053  42.193  1.00  0.00    -0.200 F 
ENDBRANCH  52  66
BRANCH  53  77
ATOM     77  C   UNL A   1      40.210  28.655  30.190  1.00  0.00     0.064 A 
ATOM     78  C   UNL A   1      40.814  29.148  29.027  1.00  0.00     0.173 A 
ATOM     79  C   UNL A   1      39.544  27.422  30.112  1.00  0.00     0.173 A 
ATOM     80  F   UNL A   1      41.442  30.333  29.049  1.00  0.00    -0.203 F 
ATOM     81  C   UNL A   1      40.755  28.435  27.831  1.00  0.00     0.198 A 
ATOM     82  C   UNL A   1      39.506  26.701  28.922  1.00  0.00     0.198 A 
ATOM     83  F   UNL A   1      38.950  26.910  31.200  1.00  0.00    -0.203 F 
ATOM     84  F   UNL A   1      41.321  28.939  26.726  1.00  0.00    -0.200 F 
ATOM     85  C   UNL A   1      40.110  27.208  27.782  1.00  0.00     0.200 A 
ATOM     86  F   UNL A   1      38.891  25.511  28.882  1.00  0.00    -0.200 F 
ATOM     87  F   UNL A   1      40.067  26.517  26.635  1.00  0.00    -0.200 F 
ENDBRANCH  53  77
BRANCH  65  88
ATOM     88  C   UNL A   1      44.827  28.710  35.418  1.00  0.00     0.064 A 
ATOM     89  C   UNL A   1      44.820  27.474  36.080  1.00  0.00     0.173 A 
ATOM     90  C   UNL A   1      46.056  29.199  34.949  1.00  0.00     0.173 A 
ATOM     91  F   UNL A   1      43.672  26.973  36.560  1.00  0.00    -0.203 F 
ATOM     92  C   UNL A   1      46.001  26.764  36.281  1.00  0.00     0.198 A 
ATOM     93  C   UNL A   1      47.230  28.475  35.130  1.00  0.00     0.198 A 
ATOM     94  F   UNL A   1      46.114  30.375  34.305  1.00  0.00    -0.203 F 
ATOM     95  F   UNL A   1      45.976  25.603  36.950  1.00  0.00    -0.200 F 
ATOM     96  C   UNL A   1      47.203  27.262  35.801  1.00  0.00     0.200 A 
ATOM     97  F   UNL A   1      48.391  28.952  34.658  1.00  0.00    -0.200 F 
ATOM     98  F   UNL A   1      48.337  26.573  35.991  1.00  0.00    -0.200 F 
ENDBRANCH  65  88
ENDBRANCH  39  40
ENDBRANCH  32  34
ENDBRANCH  31  32
ENDBRANCH  30  31
ENDBRANCH  29  30
ENDBRANCH  28  29
ENDBRANCH  26  28
ENDBRANCH   1  26
TORSDOF 20
ENDMDL
