MODEL 1
REMARK VINA RESULT:     -12.0      0.000      0.000
REMARK SMILES CC1(CNS(=O)(=O)Cc2ccc(C(=O)OCCOC(=O)c3ccc(-c4c5nc(c(-c6c(F)c(F)c(F)c(F)c6F)c6ccc([nH]6)c(-c6c(F)c(F)c(F)c(F)c6F)c6nc(c(-c7c(F)c(F)c(F)c(F)c7F)c7ccc4[nH]7)C=C6)C=C5)cc3)cc2)COC1
REMARK SMILES IDX 15 1 13 2 14 3 12 4 9 5 10 6 85 7 11 8 84 9 8 10 5 11 6 12
REMARK SMILES IDX 7 13 4 14 3 16 2 17 1 18 86 19 88 20 87 21 16 22 17 23 18 24
REMARK SMILES IDX 19 25 20 26 21 27 22 28 83 29 23 30 82 31 24 32 25 33 26 34
REMARK SMILES IDX 76 35 27 36 81 37 75 38 77 39 28 40 80 41 74 42 73 43 29 45
REMARK SMILES IDX 61 46 41 47 60 48 42 49 45 50 59 51 78 52 43 53 44 54 58 56
REMARK SMILES IDX 79 57 46 58 30 59 31 60 39 61 32 62 33 63 37 64 40 65 34 66
REMARK SMILES IDX 35 67 38 68 36 69 62 70 63 71 71 72 64 73 65 74 69 75 72 76
REMARK SMILES IDX 66 77 67 78 70 79 68 80 47 81 48 82 56 83 49 84 50 85 54 86
REMARK SMILES IDX 57 87 51 88 52 89 55 90 53 91
REMARK H PARENT 4 15 77 44 45 55
REMARK Flexibility Score: inf
ROOT
ATOM      1  O   UNL A   1      32.486  28.086  23.723  1.00  0.00    -0.458 OA
ENDROOT
BRANCH   1   2
ATOM      2  C   UNL A   1      33.382  27.393  22.979  1.00  0.00     0.338 C 
ATOM      3  O   UNL A   1      34.025  27.824  22.036  1.00  0.00    -0.246 OA
BRANCH   2   4
ATOM      4  C   UNL A   1      33.569  26.016  23.497  1.00  0.00     0.060 A 
ATOM      5  C   UNL A   1      34.173  23.448  24.520  1.00  0.00    -0.032 A 
ATOM      6  C   UNL A   1      34.270  24.587  25.329  1.00  0.00     0.006 A 
ATOM      7  C   UNL A   1      33.758  23.623  23.188  1.00  0.00     0.006 A 
ATOM      8  C   UNL A   1      34.005  25.850  24.813  1.00  0.00     0.016 A 
ATOM      9  C   UNL A   1      33.429  24.893  22.685  1.00  0.00     0.016 A 
BRANCH   5  10
ATOM     10  C   UNL A   1      34.673  22.163  25.138  1.00  0.00     0.189 C 
BRANCH  10  11
ATOM     11  S   UNL A   1      33.580  21.352  26.292  1.00  0.00     0.215 S 
ATOM     12  O   UNL A   1      32.231  21.799  26.038  1.00  0.00    -0.212 OA
ATOM     13  O   UNL A   1      34.143  21.433  27.626  1.00  0.00    -0.212 OA
BRANCH  11  14
ATOM     14  N   UNL A   1      33.652  19.728  25.868  1.00  0.00    -0.214 NA
ATOM     15  H   UNL A   1      34.420  19.308  26.392  1.00  0.00     0.141 HD
BRANCH  14  16
ATOM     16  C   UNL A   1      33.859  19.397  24.444  1.00  0.00     0.110 C 
BRANCH  16  17
ATOM     17  C   UNL A   1      33.344  17.992  24.121  1.00  0.00     0.028 C 
ATOM     18  C   UNL A   1      32.657  17.882  22.767  1.00  0.00     0.018 C 
ATOM     19  C   UNL A   1      32.523  17.388  25.278  1.00  0.00     0.170 C 
ATOM     20  C   UNL A   1      34.344  16.873  24.476  1.00  0.00     0.170 C 
ATOM     21  O   UNL A   1      33.680  16.651  25.748  1.00  0.00    -0.380 OA
ENDBRANCH  16  17
ENDBRANCH  14  16
ENDBRANCH  11  14
ENDBRANCH  10  11
ENDBRANCH   5  10
ENDBRANCH   2   4
ENDBRANCH   1   2
BRANCH   1  22
ATOM     22  C   UNL A   1      33.000  29.264  24.381  1.00  0.00     0.275 C 
BRANCH  22  23
ATOM     23  C   UNL A   1      31.986  29.867  25.355  1.00  0.00     0.275 C 
BRANCH  23  24
ATOM     24  O   UNL A   1      32.489  29.874  26.705  1.00  0.00    -0.458 OA
BRANCH  24  25
ATOM     25  C   UNL A   1      33.028  31.047  27.101  1.00  0.00     0.338 C 
ATOM     26  O   UNL A   1      32.478  32.133  27.183  1.00  0.00    -0.246 OA
BRANCH  25  27
ATOM     27  C   UNL A   1      34.417  30.852  27.534  1.00  0.00     0.060 A 
ATOM     28  C   UNL A   1      34.827  29.554  27.814  1.00  0.00     0.016 A 
ATOM     29  C   UNL A   1      35.229  31.928  27.873  1.00  0.00     0.016 A 
ATOM     30  C   UNL A   1      35.967  29.321  28.570  1.00  0.00     0.010 A 
ATOM     31  C   UNL A   1      36.453  31.683  28.507  1.00  0.00     0.010 A 
ATOM     32  C   UNL A   1      36.817  30.380  28.906  1.00  0.00    -0.014 A 
BRANCH  32  33
ATOM     33  C   UNL A   1      38.068  30.133  29.677  1.00  0.00     0.031 A 
ATOM     34  C   UNL A   1      39.146  29.251  29.104  1.00  0.00     0.074 A 
ATOM     35  C   UNL A   1      38.237  30.685  30.896  1.00  0.00     0.049 A 
ATOM     36  N   UNL A   1      40.185  28.716  29.695  1.00  0.00    -0.248 NA
ATOM     37  C   UNL A   1      39.031  28.911  27.677  1.00  0.00     0.031 C 
ATOM     38  C   UNL A   1      37.309  31.610  31.549  1.00  0.00     0.029 A 
ATOM     39  N   UNL A   1      39.250  30.539  31.814  1.00  0.00    -0.354 N 
ATOM     40  C   UNL A   1      40.808  27.929  28.733  1.00  0.00     0.074 A 
ATOM     41  C   UNL A   1      40.028  28.051  27.520  1.00  0.00     0.031 C 
ATOM     42  C   UNL A   1      37.802  31.965  32.744  1.00  0.00     0.029 A 
ATOM     43  C   UNL A   1      39.019  31.207  32.992  1.00  0.00     0.049 A 
ATOM     44  H   UNL A   1      40.062  30.006  31.644  1.00  0.00     0.167 HD
ATOM     45  C   UNL A   1      41.924  27.173  28.858  1.00  0.00     0.037 A 
ATOM     46  C   UNL A   1      39.671  31.166  34.170  1.00  0.00     0.037 A 
ATOM     47  C   UNL A   1      42.713  27.095  30.062  1.00  0.00     0.049 A 
ATOM     48  C   UNL A   1      40.867  30.268  34.306  1.00  0.00     0.074 A 
ATOM     49  C   UNL A   1      43.870  26.371  30.293  1.00  0.00     0.029 A 
ATOM     50  N   UNL A   1      42.427  27.774  31.239  1.00  0.00    -0.354 N 
ATOM     51  N   UNL A   1      41.422  29.489  33.410  1.00  0.00    -0.248 NA
ATOM     52  C   UNL A   1      41.519  30.231  35.621  1.00  0.00     0.031 C 
ATOM     53  C   UNL A   1      44.250  26.566  31.624  1.00  0.00     0.029 A 
ATOM     54  C   UNL A   1      43.373  27.469  32.204  1.00  0.00     0.049 A 
ATOM     55  H   UNL A   1      41.663  28.382  31.368  1.00  0.00     0.167 HD
ATOM     56  C   UNL A   1      42.507  28.896  34.039  1.00  0.00     0.074 A 
ATOM     57  C   UNL A   1      42.536  29.412  35.393  1.00  0.00     0.031 C 
ATOM     58  C   UNL A   1      43.400  28.009  33.540  1.00  0.00     0.037 A 
BRANCH  45  59
ATOM     59  C   UNL A   1      42.341  26.331  27.683  1.00  0.00     0.064 A 
ATOM     60  C   UNL A   1      43.319  26.753  26.769  1.00  0.00     0.173 A 
ATOM     61  C   UNL A   1      41.775  25.060  27.491  1.00  0.00     0.173 A 
ATOM     62  F   UNL A   1      43.886  27.961  26.897  1.00  0.00    -0.203 F 
ATOM     63  C   UNL A   1      43.690  25.948  25.694  1.00  0.00     0.198 A 
ATOM     64  C   UNL A   1      42.172  24.245  26.435  1.00  0.00     0.198 A 
ATOM     65  F   UNL A   1      40.839  24.602  28.337  1.00  0.00    -0.203 F 
ATOM     66  F   UNL A   1      44.588  26.395  24.804  1.00  0.00    -0.200 F 
ATOM     67  C   UNL A   1      43.123  24.693  25.532  1.00  0.00     0.200 A 
ATOM     68  F   UNL A   1      41.635  23.026  26.291  1.00  0.00    -0.200 F 
ATOM     69  F   UNL A   1      43.488  23.918  24.501  1.00  0.00    -0.200 F 
ENDBRANCH  45  59
BRANCH  46  70
ATOM     70  C   UNL A   1      39.172  31.965  35.323  1.00  0.00     0.064 A 
ATOM     71  C   UNL A   1      39.463  33.330  35.433  1.00  0.00     0.173 A 
ATOM     72  C   UNL A   1      38.391  31.381  36.334  1.00  0.00     0.173 A 
ATOM     73  F   UNL A   1      40.223  33.930  34.506  1.00  0.00    -0.203 F 
ATOM     74  C   UNL A   1      39.006  34.078  36.517  1.00  0.00     0.198 A 
ATOM     75  C   UNL A   1      37.904  32.137  37.396  1.00  0.00     0.198 A 
ATOM     76  F   UNL A   1      38.080  30.078  36.276  1.00  0.00    -0.203 F 
ATOM     77  F   UNL A   1      39.340  35.371  36.623  1.00  0.00    -0.200 F 
ATOM     78  C   UNL A   1      38.220  33.483  37.493  1.00  0.00     0.200 A 
ATOM     79  F   UNL A   1      37.128  31.562  38.325  1.00  0.00    -0.200 F 
ATOM     80  F   UNL A   1      37.774  34.205  38.529  1.00  0.00    -0.200 F 
ENDBRANCH  46  70
BRANCH  58  81
ATOM     81  C   UNL A   1      44.529  27.591  34.436  1.00  0.00     0.064 A 
ATOM     82  C   UNL A   1      45.724  28.319  34.516  1.00  0.00     0.173 A 
ATOM     83  C   UNL A   1      44.390  26.464  35.261  1.00  0.00     0.173 A 
ATOM     84  F   UNL A   1      45.914  29.393  33.735  1.00  0.00    -0.203 F 
ATOM     85  C   UNL A   1      46.747  27.920  35.373  1.00  0.00     0.198 A 
ATOM     86  C   UNL A   1      45.399  26.088  36.140  1.00  0.00     0.198 A 
ATOM     87  F   UNL A   1      43.263  25.735  35.225  1.00  0.00    -0.203 F 
ATOM     88  F   UNL A   1      47.901  28.603  35.397  1.00  0.00    -0.200 F 
ATOM     89  C   UNL A   1      46.580  26.813  36.190  1.00  0.00     0.200 A 
ATOM     90  F   UNL A   1      45.229  25.027  36.940  1.00  0.00    -0.200 F 
ATOM     91  F   UNL A   1      47.561  26.439  37.023  1.00  0.00    -0.200 F 
ENDBRANCH  58  81
ENDBRANCH  32  33
ENDBRANCH  25  27
ENDBRANCH  24  25
ENDBRANCH  23  24
ENDBRANCH  22  23
ENDBRANCH   1  22
TORSDOF 16
ENDMDL
MODEL 2
REMARK VINA RESULT:     -11.8      3.082      8.367
REMARK SMILES CC1(CNS(=O)(=O)Cc2ccc(C(=O)OCCOC(=O)c3ccc(-c4c5nc(c(-c6c(F)c(F)c(F)c(F)c6F)c6ccc([nH]6)c(-c6c(F)c(F)c(F)c(F)c6F)c6nc(c(-c7c(F)c(F)c(F)c(F)c7F)c7ccc4[nH]7)C=C6)C=C5)cc3)cc2)COC1
REMARK SMILES IDX 15 1 13 2 14 3 12 4 9 5 10 6 85 7 11 8 84 9 8 10 5 11 6 12
REMARK SMILES IDX 7 13 4 14 3 16 2 17 1 18 86 19 88 20 87 21 16 22 17 23 18 24
REMARK SMILES IDX 19 25 20 26 21 27 22 28 83 29 23 30 82 31 24 32 25 33 26 34
REMARK SMILES IDX 76 35 27 36 81 37 75 38 77 39 28 40 80 41 74 42 73 43 29 45
REMARK SMILES IDX 61 46 41 47 60 48 42 49 45 50 59 51 78 52 43 53 44 54 58 56
REMARK SMILES IDX 79 57 46 58 30 59 31 60 39 61 32 62 33 63 37 64 40 65 34 66
REMARK SMILES IDX 35 67 38 68 36 69 62 70 63 71 71 72 64 73 65 74 69 75 72 76
REMARK SMILES IDX 66 77 67 78 70 79 68 80 47 81 48 82 56 83 49 84 50 85 54 86
REMARK SMILES IDX 57 87 51 88 52 89 55 90 53 91
REMARK H PARENT 4 15 77 44 45 55
REMARK Flexibility Score: inf
ROOT
ATOM      1  O   UNL A   1      40.822  21.011  26.413  1.00  0.00    -0.458 OA
ENDROOT
BRANCH   1   2
ATOM      2  C   UNL A   1      39.747  20.423  25.834  1.00  0.00     0.338 C 
ATOM      3  O   UNL A   1      39.606  19.230  25.615  1.00  0.00    -0.246 OA
BRANCH   2   4
ATOM      4  C   UNL A   1      38.675  21.408  25.550  1.00  0.00     0.060 A 
ATOM      5  C   UNL A   1      36.583  23.290  25.259  1.00  0.00    -0.032 A 
ATOM      6  C   UNL A   1      37.752  23.615  25.960  1.00  0.00     0.006 A 
ATOM      7  C   UNL A   1      36.489  22.004  24.700  1.00  0.00     0.006 A 
ATOM      8  C   UNL A   1      38.763  22.676  26.129  1.00  0.00     0.016 A 
ATOM      9  C   UNL A   1      37.539  21.077  24.817  1.00  0.00     0.016 A 
BRANCH   5  10
ATOM     10  C   UNL A   1      35.482  24.323  25.311  1.00  0.00     0.189 C 
BRANCH  10  11
ATOM     11  S   UNL A   1      34.247  24.241  24.026  1.00  0.00     0.215 S 
ATOM     12  O   UNL A   1      33.160  23.409  24.486  1.00  0.00    -0.212 OA
ATOM     13  O   UNL A   1      34.891  23.974  22.755  1.00  0.00    -0.212 OA
BRANCH  11  14
ATOM     14  N   UNL A   1      33.654  25.810  23.913  1.00  0.00    -0.214 NA
ATOM     15  H   UNL A   1      34.325  26.424  24.374  1.00  0.00     0.141 HD
BRANCH  14  16
ATOM     16  C   UNL A   1      32.328  26.088  24.500  1.00  0.00     0.110 C 
BRANCH  16  17
ATOM     17  C   UNL A   1      32.321  27.426  25.243  1.00  0.00     0.028 C 
ATOM     18  C   UNL A   1      31.765  27.345  26.658  1.00  0.00     0.018 C 
ATOM     19  C   UNL A   1      31.701  28.561  24.403  1.00  0.00     0.170 C 
ATOM     20  C   UNL A   1      33.621  28.238  25.062  1.00  0.00     0.170 C 
ATOM     21  O   UNL A   1      33.017  29.010  23.992  1.00  0.00    -0.380 OA
ENDBRANCH  16  17
ENDBRANCH  14  16
ENDBRANCH  11  14
ENDBRANCH  10  11
ENDBRANCH   5  10
ENDBRANCH   2   4
ENDBRANCH   1   2
BRANCH   1  22
ATOM     22  C   UNL A   1      42.090  20.360  26.179  1.00  0.00     0.275 C 
BRANCH  22  23
ATOM     23  C   UNL A   1      43.175  21.352  25.751  1.00  0.00     0.275 C 
BRANCH  23  24
ATOM     24  O   UNL A   1      42.617  22.462  25.022  1.00  0.00    -0.458 OA
BRANCH  24  25
ATOM     25  C   UNL A   1      43.362  23.589  25.053  1.00  0.00     0.338 C 
ATOM     26  O   UNL A   1      44.374  23.834  24.419  1.00  0.00    -0.246 OA
BRANCH  25  27
ATOM     27  C   UNL A   1      42.737  24.591  25.925  1.00  0.00     0.060 A 
ATOM     28  C   UNL A   1      43.233  25.888  25.871  1.00  0.00     0.016 A 
ATOM     29  C   UNL A   1      41.847  24.227  26.928  1.00  0.00     0.016 A 
ATOM     30  C   UNL A   1      42.973  26.787  26.895  1.00  0.00     0.010 A 
ATOM     31  C   UNL A   1      41.470  25.180  27.883  1.00  0.00     0.010 A 
ATOM     32  C   UNL A   1      42.064  26.458  27.906  1.00  0.00    -0.014 A 
BRANCH  32  33
ATOM     33  C   UNL A   1      41.743  27.436  28.985  1.00  0.00     0.031 A 
ATOM     34  C   UNL A   1      42.582  27.480  30.236  1.00  0.00     0.074 A 
ATOM     35  C   UNL A   1      40.695  28.275  28.856  1.00  0.00     0.049 A 
ATOM     36  N   UNL A   1      42.339  28.070  31.380  1.00  0.00    -0.248 NA
ATOM     37  C   UNL A   1      43.859  26.750  30.201  1.00  0.00     0.031 C 
ATOM     38  C   UNL A   1      39.836  28.389  27.676  1.00  0.00     0.029 A 
ATOM     39  N   UNL A   1      40.164  29.189  29.735  1.00  0.00    -0.354 N 
ATOM     40  C   UNL A   1      43.396  27.728  32.216  1.00  0.00     0.074 A 
ATOM     41  C   UNL A   1      44.281  26.876  31.451  1.00  0.00     0.031 C 
ATOM     42  C   UNL A   1      38.906  29.329  27.893  1.00  0.00     0.029 A 
ATOM     43  C   UNL A   1      39.028  29.802  29.264  1.00  0.00     0.049 A 
ATOM     44  H   UNL A   1      40.559  29.385  30.616  1.00  0.00     0.167 HD
ATOM     45  C   UNL A   1      43.600  28.093  33.505  1.00  0.00     0.037 A 
ATOM     46  C   UNL A   1      38.140  30.602  29.883  1.00  0.00     0.037 A 
ATOM     47  C   UNL A   1      42.730  28.976  34.239  1.00  0.00     0.049 A 
ATOM     48  C   UNL A   1      38.351  30.938  31.331  1.00  0.00     0.074 A 
ATOM     49  C   UNL A   1      42.851  29.421  35.545  1.00  0.00     0.029 A 
ATOM     50  N   UNL A   1      41.578  29.556  33.727  1.00  0.00    -0.354 N 
ATOM     51  N   UNL A   1      39.323  30.573  32.130  1.00  0.00    -0.248 NA
ATOM     52  C   UNL A   1      37.333  31.782  31.969  1.00  0.00     0.031 C 
ATOM     53  C   UNL A   1      41.744  30.222  35.838  1.00  0.00     0.029 A 
ATOM     54  C   UNL A   1      40.969  30.337  34.696  1.00  0.00     0.049 A 
ATOM     55  H   UNL A   1      41.242  29.430  32.809  1.00  0.00     0.167 HD
ATOM     56  C   UNL A   1      39.056  31.171  33.353  1.00  0.00     0.074 A 
ATOM     57  C   UNL A   1      37.832  31.928  33.188  1.00  0.00     0.031 C 
ATOM     58  C   UNL A   1      39.762  31.102  34.507  1.00  0.00     0.037 A 
BRANCH  45  59
ATOM     59  C   UNL A   1      44.783  27.505  34.224  1.00  0.00     0.064 A 
ATOM     60  C   UNL A   1      46.027  28.153  34.274  1.00  0.00     0.173 A 
ATOM     61  C   UNL A   1      44.657  26.285  34.908  1.00  0.00     0.173 A 
ATOM     62  F   UNL A   1      46.209  29.315  33.630  1.00  0.00    -0.203 F 
ATOM     63  C   UNL A   1      47.104  27.588  34.954  1.00  0.00     0.198 A 
ATOM     64  C   UNL A   1      45.725  25.740  35.615  1.00  0.00     0.198 A 
ATOM     65  F   UNL A   1      43.490  25.623  34.900  1.00  0.00    -0.203 F 
ATOM     66  F   UNL A   1      48.297  28.200  34.942  1.00  0.00    -0.200 F 
ATOM     67  C   UNL A   1      46.951  26.387  35.630  1.00  0.00     0.200 A 
ATOM     68  F   UNL A   1      45.569  24.588  36.281  1.00  0.00    -0.200 F 
ATOM     69  F   UNL A   1      47.986  25.850  36.290  1.00  0.00    -0.200 F 
ENDBRANCH  45  59
BRANCH  46  70
ATOM     70  C   UNL A   1      36.946  31.097  29.143  1.00  0.00     0.064 A 
ATOM     71  C   UNL A   1      35.867  30.250  28.866  1.00  0.00     0.173 A 
ATOM     72  C   UNL A   1      36.857  32.429  28.704  1.00  0.00     0.173 A 
ATOM     73  F   UNL A   1      35.912  28.963  29.245  1.00  0.00    -0.203 F 
ATOM     74  C   UNL A   1      34.753  30.707  28.165  1.00  0.00     0.198 A 
ATOM     75  C   UNL A   1      35.729  32.894  28.037  1.00  0.00     0.198 A 
ATOM     76  F   UNL A   1      37.861  33.285  28.946  1.00  0.00    -0.203 F 
ATOM     77  F   UNL A   1      33.757  29.861  27.870  1.00  0.00    -0.200 F 
ATOM     78  C   UNL A   1      34.681  32.031  27.758  1.00  0.00     0.200 A 
ATOM     79  F   UNL A   1      35.655  34.180  27.664  1.00  0.00    -0.200 F 
ATOM     80  F   UNL A   1      33.605  32.472  27.092  1.00  0.00    -0.200 F 
ENDBRANCH  46  70
BRANCH  58  81
ATOM     81  C   UNL A   1      39.271  31.922  35.665  1.00  0.00     0.064 A 
ATOM     82  C   UNL A   1      39.634  33.266  35.831  1.00  0.00     0.173 A 
ATOM     83  C   UNL A   1      38.386  31.360  36.597  1.00  0.00     0.173 A 
ATOM     84  F   UNL A   1      40.492  33.845  34.977  1.00  0.00    -0.203 F 
ATOM     85  C   UNL A   1      39.146  34.010  36.902  1.00  0.00     0.198 A 
ATOM     86  C   UNL A   1      37.874  32.115  37.646  1.00  0.00     0.198 A 
ATOM     87  F   UNL A   1      38.005  30.079  36.480  1.00  0.00    -0.203 F 
ATOM     88  F   UNL A   1      39.545  35.279  37.070  1.00  0.00    -0.200 F 
ATOM     89  C   UNL A   1      38.260  33.438  37.802  1.00  0.00     0.200 A 
ATOM     90  F   UNL A   1      37.005  31.564  38.506  1.00  0.00    -0.200 F 
ATOM     91  F   UNL A   1      37.782  34.160  38.825  1.00  0.00    -0.200 F 
ENDBRANCH  58  81
ENDBRANCH  32  33
ENDBRANCH  25  27
ENDBRANCH  24  25
ENDBRANCH  23  24
ENDBRANCH  22  23
ENDBRANCH   1  22
TORSDOF 16
ENDMDL
MODEL 3
REMARK VINA RESULT:     -11.8      2.973      7.954
REMARK SMILES CC1(CNS(=O)(=O)Cc2ccc(C(=O)OCCOC(=O)c3ccc(-c4c5nc(c(-c6c(F)c(F)c(F)c(F)c6F)c6ccc([nH]6)c(-c6c(F)c(F)c(F)c(F)c6F)c6nc(c(-c7c(F)c(F)c(F)c(F)c7F)c7ccc4[nH]7)C=C6)C=C5)cc3)cc2)COC1
REMARK SMILES IDX 15 1 13 2 14 3 12 4 9 5 10 6 85 7 11 8 84 9 8 10 5 11 6 12
REMARK SMILES IDX 7 13 4 14 3 16 2 17 1 18 86 19 88 20 87 21 16 22 17 23 18 24
REMARK SMILES IDX 19 25 20 26 21 27 22 28 83 29 23 30 82 31 24 32 25 33 26 34
REMARK SMILES IDX 76 35 27 36 81 37 75 38 77 39 28 40 80 41 74 42 73 43 29 45
REMARK SMILES IDX 61 46 41 47 60 48 42 49 45 50 59 51 78 52 43 53 44 54 58 56
REMARK SMILES IDX 79 57 46 58 30 59 31 60 39 61 32 62 33 63 37 64 40 65 34 66
REMARK SMILES IDX 35 67 38 68 36 69 62 70 63 71 71 72 64 73 65 74 69 75 72 76
REMARK SMILES IDX 66 77 67 78 70 79 68 80 47 81 48 82 56 83 49 84 50 85 54 86
REMARK SMILES IDX 57 87 51 88 52 89 55 90 53 91
REMARK H PARENT 4 15 77 44 45 55
REMARK Flexibility Score: inf
ROOT
ATOM      1  O   UNL A   1      41.375  20.444  25.900  1.00  0.00    -0.458 OA
ENDROOT
BRANCH   1   2
ATOM      2  C   UNL A   1      40.451  21.023  26.705  1.00  0.00     0.338 C 
ATOM      3  O   UNL A   1      40.628  21.397  27.854  1.00  0.00    -0.246 OA
BRANCH   2   4
ATOM      4  C   UNL A   1      39.167  21.236  25.995  1.00  0.00     0.060 A 
ATOM      5  C   UNL A   1      36.609  21.678  24.870  1.00  0.00    -0.032 A 
ATOM      6  C   UNL A   1      37.283  22.700  25.550  1.00  0.00     0.006 A 
ATOM      7  C   UNL A   1      37.248  20.431  24.759  1.00  0.00     0.006 A 
ATOM      8  C   UNL A   1      38.525  22.468  26.130  1.00  0.00     0.016 A 
ATOM      9  C   UNL A   1      38.531  20.217  25.291  1.00  0.00     0.016 A 
BRANCH   5  10
ATOM     10  C   UNL A   1      35.191  21.994  24.456  1.00  0.00     0.189 C 
BRANCH  10  11
ATOM     11  S   UNL A   1      33.922  21.729  25.683  1.00  0.00     0.215 S 
ATOM     12  O   UNL A   1      32.937  22.778  25.558  1.00  0.00    -0.212 OA
ATOM     13  O   UNL A   1      34.541  21.450  26.963  1.00  0.00    -0.212 OA
BRANCH  11  14
ATOM     14  N   UNL A   1      33.179  20.296  25.216  1.00  0.00    -0.214 NA
ATOM     15  H   UNL A   1      32.790  19.866  26.055  1.00  0.00     0.141 HD
BRANCH  14  16
ATOM     16  C   UNL A   1      34.010  19.277  24.545  1.00  0.00     0.110 C 
BRANCH  16  17
ATOM     17  C   UNL A   1      33.284  17.931  24.470  1.00  0.00     0.028 C 
ATOM     18  C   UNL A   1      32.529  17.565  25.739  1.00  0.00     0.018 C 
ATOM     19  C   UNL A   1      34.196  16.802  23.949  1.00  0.00     0.170 C 
ATOM     20  C   UNL A   1      32.539  17.707  23.138  1.00  0.00     0.170 C 
ATOM     21  O   UNL A   1      33.660  16.952  22.610  1.00  0.00    -0.380 OA
ENDBRANCH  16  17
ENDBRANCH  14  16
ENDBRANCH  11  14
ENDBRANCH  10  11
ENDBRANCH   5  10
ENDBRANCH   2   4
ENDBRANCH   1   2
BRANCH   1  22
ATOM     22  C   UNL A   1      42.746  20.569  26.333  1.00  0.00     0.275 C 
BRANCH  22  23
ATOM     23  C   UNL A   1      43.560  21.481  25.411  1.00  0.00     0.275 C 
BRANCH  23  24
ATOM     24  O   UNL A   1      42.792  22.622  24.985  1.00  0.00    -0.458 OA
BRANCH  24  25
ATOM     25  C   UNL A   1      43.462  23.794  25.005  1.00  0.00     0.338 C 
ATOM     26  O   UNL A   1      44.441  24.107  24.348  1.00  0.00    -0.246 OA
BRANCH  25  27
ATOM     27  C   UNL A   1      42.797  24.750  25.899  1.00  0.00     0.060 A 
ATOM     28  C   UNL A   1      43.176  26.084  25.811  1.00  0.00     0.016 A 
ATOM     29  C   UNL A   1      41.990  24.322  26.947  1.00  0.00     0.016 A 
ATOM     30  C   UNL A   1      42.890  26.969  26.840  1.00  0.00     0.010 A 
ATOM     31  C   UNL A   1      41.579  25.251  27.912  1.00  0.00     0.010 A 
ATOM     32  C   UNL A   1      42.062  26.576  27.896  1.00  0.00    -0.014 A 
BRANCH  32  33
ATOM     33  C   UNL A   1      41.711  27.534  28.982  1.00  0.00     0.031 A 
ATOM     34  C   UNL A   1      42.529  27.574  30.247  1.00  0.00     0.074 A 
ATOM     35  C   UNL A   1      40.653  28.360  28.847  1.00  0.00     0.049 A 
ATOM     36  N   UNL A   1      42.260  28.146  31.394  1.00  0.00    -0.248 NA
ATOM     37  C   UNL A   1      43.817  26.862  30.222  1.00  0.00     0.031 C 
ATOM     38  C   UNL A   1      39.810  28.478  27.656  1.00  0.00     0.029 A 
ATOM     39  N   UNL A   1      40.096  29.256  29.729  1.00  0.00    -0.354 N 
ATOM     40  C   UNL A   1      43.309  27.809  32.243  1.00  0.00     0.074 A 
ATOM     41  C   UNL A   1      44.217  26.979  31.481  1.00  0.00     0.031 C 
ATOM     42  C   UNL A   1      38.864  29.402  27.869  1.00  0.00     0.029 A 
ATOM     43  C   UNL A   1      38.959  29.859  29.248  1.00  0.00     0.049 A 
ATOM     44  H   UNL A   1      40.475  29.446  30.619  1.00  0.00     0.167 HD
ATOM     45  C   UNL A   1      43.488  28.160  33.539  1.00  0.00     0.037 A 
ATOM     46  C   UNL A   1      38.049  30.639  29.863  1.00  0.00     0.037 A 
ATOM     47  C   UNL A   1      42.594  29.022  34.270  1.00  0.00     0.049 A 
ATOM     48  C   UNL A   1      38.233  30.959  31.319  1.00  0.00     0.074 A 
ATOM     49  C   UNL A   1      42.689  29.452  35.583  1.00  0.00     0.029 A 
ATOM     50  N   UNL A   1      41.442  29.591  33.747  1.00  0.00    -0.354 N 
ATOM     51  N   UNL A   1      39.198  30.598  32.128  1.00  0.00    -0.248 NA
ATOM     52  C   UNL A   1      37.194  31.781  31.950  1.00  0.00     0.031 C 
ATOM     53  C   UNL A   1      41.566  30.234  35.869  1.00  0.00     0.029 A 
ATOM     54  C   UNL A   1      40.807  30.352  34.716  1.00  0.00     0.049 A 
ATOM     55  H   UNL A   1      41.122  29.473  32.823  1.00  0.00     0.167 HD
ATOM     56  C   UNL A   1      38.903  31.176  33.354  1.00  0.00     0.074 A 
ATOM     57  C   UNL A   1      37.672  31.919  33.179  1.00  0.00     0.031 C 
ATOM     58  C   UNL A   1      39.593  31.103  34.518  1.00  0.00     0.037 A 
BRANCH  45  59
ATOM     59  C   UNL A   1      44.668  27.580  34.269  1.00  0.00     0.064 A 
ATOM     60  C   UNL A   1      45.925  28.203  34.275  1.00  0.00     0.173 A 
ATOM     61  C   UNL A   1      44.526  26.393  35.007  1.00  0.00     0.173 A 
ATOM     62  F   UNL A   1      46.122  29.332  33.579  1.00  0.00    -0.203 F 
ATOM     63  C   UNL A   1      46.999  27.646  34.967  1.00  0.00     0.198 A 
ATOM     64  C   UNL A   1      45.591  25.857  35.725  1.00  0.00     0.198 A 
ATOM     65  F   UNL A   1      43.345  25.756  35.042  1.00  0.00    -0.203 F 
ATOM     66  F   UNL A   1      48.204  28.232  34.914  1.00  0.00    -0.200 F 
ATOM     67  C   UNL A   1      46.830  26.479  35.697  1.00  0.00     0.200 A 
ATOM     68  F   UNL A   1      45.420  24.739  36.443  1.00  0.00    -0.200 F 
ATOM     69  F   UNL A   1      47.862  25.949  36.368  1.00  0.00    -0.200 F 
ENDBRANCH  45  59
BRANCH  46  70
ATOM     70  C   UNL A   1      36.861  31.127  29.111  1.00  0.00     0.064 A 
ATOM     71  C   UNL A   1      36.744  32.472  28.742  1.00  0.00     0.173 A 
ATOM     72  C   UNL A   1      35.822  30.258  28.741  1.00  0.00     0.173 A 
ATOM     73  F   UNL A   1      37.699  33.348  29.090  1.00  0.00    -0.203 F 
ATOM     74  C   UNL A   1      35.627  32.934  28.047  1.00  0.00     0.198 A 
ATOM     75  C   UNL A   1      34.724  30.712  28.015  1.00  0.00     0.198 A 
ATOM     76  F   UNL A   1      35.884  28.957  29.066  1.00  0.00    -0.203 F 
ATOM     77  F   UNL A   1      35.518  34.236  27.750  1.00  0.00    -0.200 F 
ATOM     78  C   UNL A   1      34.623  32.053  27.677  1.00  0.00     0.200 A 
ATOM     79  F   UNL A   1      33.767  29.852  27.642  1.00  0.00    -0.200 F 
ATOM     80  F   UNL A   1      33.554  32.496  27.001  1.00  0.00    -0.200 F 
ENDBRANCH  46  70
BRANCH  58  81
ATOM     81  C   UNL A   1      39.073  31.901  35.678  1.00  0.00     0.064 A 
ATOM     82  C   UNL A   1      38.226  31.344  36.645  1.00  0.00     0.173 A 
ATOM     83  C   UNL A   1      39.469  33.238  35.843  1.00  0.00     0.173 A 
ATOM     84  F   UNL A   1      37.804  30.076  36.523  1.00  0.00    -0.203 F 
ATOM     85  C   UNL A   1      37.777  32.102  37.723  1.00  0.00     0.198 A 
ATOM     86  C   UNL A   1      39.046  33.982  36.939  1.00  0.00     0.198 A 
ATOM     87  F   UNL A   1      40.283  33.817  34.946  1.00  0.00    -0.203 F 
ATOM     88  F   UNL A   1      36.927  31.563  38.610  1.00  0.00    -0.200 F 
ATOM     89  C   UNL A   1      38.194  33.416  37.875  1.00  0.00     0.200 A 
ATOM     90  F   UNL A   1      39.465  35.246  37.090  1.00  0.00    -0.200 F 
ATOM     91  F   UNL A   1      37.770  34.139  38.920  1.00  0.00    -0.200 F 
ENDBRANCH  58  81
ENDBRANCH  32  33
ENDBRANCH  25  27
ENDBRANCH  24  25
ENDBRANCH  23  24
ENDBRANCH  22  23
ENDBRANCH   1  22
TORSDOF 16
ENDMDL
