MODEL 1
REMARK VINA RESULT:     -11.1      0.000      0.000
REMARK SMILES CC(C)Oc1ccc([C@H](O)[C@H](F)C(=O)OCCOC(=O)c2ccc(-c3c4nc(c(-c5c(F)c(F)c(F)c(F)c5F)c5ccc([nH]5)c(-c5c(F)c(F)c(F)c(F)c5F)c5nc(c(-c6c(F)c(F)c(F)c(F)c6F)c6ccc3[nH]6)C=C5)C=C4)cc2)cc1
REMARK SMILES IDX 16 1 15 2 13 3 14 4 11 5 12 6 9 7 8 8 5 9 6 10 85 11 7 12
REMARK SMILES IDX 84 13 4 14 2 15 1 16 3 17 10 18 17 20 18 21 19 22 20 23
REMARK SMILES IDX 21 24 22 25 83 26 23 27 82 28 24 29 25 30 26 31 76 32 27 33
REMARK SMILES IDX 81 34 75 35 77 36 28 37 80 38 74 39 73 40 29 42 61 43 41 44
REMARK SMILES IDX 60 45 42 46 45 47 59 48 78 49 43 50 44 51 58 53 79 54 46 55
REMARK SMILES IDX 30 56 31 57 39 58 32 59 33 60 37 61 40 62 34 63 35 64 38 65
REMARK SMILES IDX 36 66 62 67 63 68 71 69 64 70 65 71 69 72 72 73 66 74 67 75
REMARK SMILES IDX 70 76 68 77 47 78 48 79 56 80 49 81 50 82 54 83 57 84 51 85
REMARK SMILES IDX 52 86 55 87 53 88
REMARK H PARENT 10 19 77 41 45 52
REMARK Flexibility Score: inf
ROOT
ATOM      1  C   UNL A   1      36.232  22.328  23.688  1.00  0.00     0.274 C 
ENDROOT
BRANCH   1   2
ATOM      2  O   UNL A   1      35.284  23.022  24.519  1.00  0.00    -0.460 OA
BRANCH   2   3
ATOM      3  C   UNL A   1      34.212  23.593  23.906  1.00  0.00     0.343 C 
ATOM      4  O   UNL A   1      34.266  24.296  22.903  1.00  0.00    -0.249 OA
BRANCH   3   5
ATOM      5  C   UNL A   1      32.922  23.292  24.640  1.00  0.00     0.308 C 
ATOM      6  F   UNL A   1      32.266  24.419  25.053  1.00  0.00    -0.232 F 
BRANCH   5   7
ATOM      7  C   UNL A   1      32.013  22.436  23.754  1.00  0.00     0.190 C 
BRANCH   7   8
ATOM      8  C   UNL A   1      32.340  20.959  23.834  1.00  0.00    -0.016 A 
ATOM      9  C   UNL A   1      32.726  18.187  24.027  1.00  0.00     0.119 A 
ATOM     10  C   UNL A   1      32.384  18.762  22.804  1.00  0.00     0.047 A 
ATOM     11  C   UNL A   1      32.942  18.998  25.137  1.00  0.00     0.047 A 
ATOM     12  C   UNL A   1      32.186  20.140  22.706  1.00  0.00     0.010 A 
ATOM     13  C   UNL A   1      32.735  20.374  25.045  1.00  0.00     0.010 A 
BRANCH   9  14
ATOM     14  O   UNL A   1      32.948  16.841  24.044  1.00  0.00    -0.491 OA
BRANCH  14  15
ATOM     15  C   UNL A   1      33.392  16.251  25.279  1.00  0.00     0.167 C 
ATOM     16  C   UNL A   1      32.526  15.080  25.736  1.00  0.00     0.052 C 
ATOM     17  C   UNL A   1      34.884  15.922  25.319  1.00  0.00     0.052 C 
ENDBRANCH  14  15
ENDBRANCH   9  14
ENDBRANCH   7   8
BRANCH   7  18
ATOM     18  O   UNL A   1      32.066  22.899  22.397  1.00  0.00    -0.385 OA
ATOM     19  H   UNL A   1      32.971  22.805  22.059  1.00  0.00     0.211 HD
ENDBRANCH   7  18
ENDBRANCH   5   7
ENDBRANCH   3   5
ENDBRANCH   2   3
ENDBRANCH   1   2
BRANCH   1  20
ATOM     20  C   UNL A   1      36.949  21.241  24.490  1.00  0.00     0.275 C 
BRANCH  20  21
ATOM     21  O   UNL A   1      37.407  21.759  25.754  1.00  0.00    -0.458 OA
BRANCH  21  22
ATOM     22  C   UNL A   1      38.692  21.462  26.057  1.00  0.00     0.338 C 
ATOM     23  O   UNL A   1      39.292  20.426  25.833  1.00  0.00    -0.246 OA
BRANCH  22  24
ATOM     24  C   UNL A   1      39.350  22.661  26.593  1.00  0.00     0.060 A 
ATOM     25  C   UNL A   1      38.931  23.907  26.120  1.00  0.00     0.016 A 
ATOM     26  C   UNL A   1      40.416  22.558  27.487  1.00  0.00     0.016 A 
ATOM     27  C   UNL A   1      39.577  25.066  26.540  1.00  0.00     0.010 A 
ATOM     28  C   UNL A   1      41.074  23.719  27.897  1.00  0.00     0.010 A 
ATOM     29  C   UNL A   1      40.665  24.977  27.416  1.00  0.00    -0.014 A 
BRANCH  29  30
ATOM     30  C   UNL A   1      41.443  26.191  27.750  1.00  0.00     0.031 A 
ATOM     31  C   UNL A   1      40.795  27.273  28.562  1.00  0.00     0.074 A 
ATOM     32  C   UNL A   1      42.720  26.311  27.345  1.00  0.00     0.049 A 
ATOM     33  N   UNL A   1      41.234  28.470  28.852  1.00  0.00    -0.248 NA
ATOM     34  C   UNL A   1      39.471  26.964  29.127  1.00  0.00     0.031 C 
ATOM     35  C   UNL A   1      43.473  25.294  26.613  1.00  0.00     0.029 A 
ATOM     36  N   UNL A   1      43.606  27.348  27.488  1.00  0.00    -0.354 N 
ATOM     37  C   UNL A   1      40.237  29.063  29.615  1.00  0.00     0.074 A 
ATOM     38  C   UNL A   1      39.163  28.100  29.735  1.00  0.00     0.031 C 
ATOM     39  C   UNL A   1      44.706  25.763  26.358  1.00  0.00     0.029 A 
ATOM     40  C   UNL A   1      44.810  27.129  26.866  1.00  0.00     0.049 A 
ATOM     41  H   UNL A   1      43.398  28.170  27.989  1.00  0.00     0.167 HD
ATOM     42  C   UNL A   1      40.226  30.299  30.166  1.00  0.00     0.037 A 
ATOM     43  C   UNL A   1      45.859  27.956  26.694  1.00  0.00     0.037 A 
ATOM     44  C   UNL A   1      41.303  31.245  30.049  1.00  0.00     0.049 A 
ATOM     45  C   UNL A   1      45.790  29.352  27.256  1.00  0.00     0.074 A 
ATOM     46  C   UNL A   1      41.378  32.537  30.538  1.00  0.00     0.029 A 
ATOM     47  N   UNL A   1      42.503  30.991  29.399  1.00  0.00    -0.354 N 
ATOM     48  N   UNL A   1      44.828  29.923  27.942  1.00  0.00    -0.248 NA
ATOM     49  C   UNL A   1      46.949  30.223  27.015  1.00  0.00     0.031 C 
ATOM     50  C   UNL A   1      42.612  33.076  30.161  1.00  0.00     0.029 A 
ATOM     51  C   UNL A   1      43.323  32.105  29.473  1.00  0.00     0.049 A 
ATOM     52  H   UNL A   1      42.736  30.146  28.953  1.00  0.00     0.167 HD
ATOM     53  C   UNL A   1      45.277  31.201  28.240  1.00  0.00     0.074 A 
ATOM     54  C   UNL A   1      46.602  31.322  27.670  1.00  0.00     0.031 C 
ATOM     55  C   UNL A   1      44.650  32.189  28.924  1.00  0.00     0.037 A 
BRANCH  42  56
ATOM     56  C   UNL A   1      39.001  30.710  30.925  1.00  0.00     0.064 A 
ATOM     57  C   UNL A   1      38.900  30.523  32.312  1.00  0.00     0.173 A 
ATOM     58  C   UNL A   1      37.937  31.345  30.268  1.00  0.00     0.173 A 
ATOM     59  F   UNL A   1      39.885  29.907  32.984  1.00  0.00    -0.203 F 
ATOM     60  C   UNL A   1      37.772  30.945  33.011  1.00  0.00     0.198 A 
ATOM     61  C   UNL A   1      36.821  31.787  30.973  1.00  0.00     0.198 A 
ATOM     62  F   UNL A   1      37.986  31.549  28.943  1.00  0.00    -0.203 F 
ATOM     63  F   UNL A   1      37.682  30.729  34.330  1.00  0.00    -0.200 F 
ATOM     64  C   UNL A   1      36.738  31.584  32.341  1.00  0.00     0.200 A 
ATOM     65  F   UNL A   1      35.827  32.413  30.327  1.00  0.00    -0.200 F 
ATOM     66  F   UNL A   1      35.657  32.000  33.017  1.00  0.00    -0.200 F 
ENDBRANCH  42  56
BRANCH  43  67
ATOM     67  C   UNL A   1      47.049  27.506  25.927  1.00  0.00     0.064 A 
ATOM     68  C   UNL A   1      48.157  26.942  26.575  1.00  0.00     0.173 A 
ATOM     69  C   UNL A   1      47.120  27.664  24.535  1.00  0.00     0.173 A 
ATOM     70  F   UNL A   1      48.149  26.795  27.908  1.00  0.00    -0.203 F 
ATOM     71  C   UNL A   1      49.298  26.576  25.863  1.00  0.00     0.198 A 
ATOM     72  C   UNL A   1      48.250  27.270  23.820  1.00  0.00     0.198 A 
ATOM     73  F   UNL A   1      46.089  28.201  23.866  1.00  0.00    -0.203 F 
ATOM     74  F   UNL A   1      50.364  26.091  26.514  1.00  0.00    -0.200 F 
ATOM     75  C   UNL A   1      49.342  26.735  24.486  1.00  0.00     0.200 A 
ATOM     76  F   UNL A   1      48.283  27.417  22.489  1.00  0.00    -0.200 F 
ATOM     77  F   UNL A   1      50.441  26.388  23.804  1.00  0.00    -0.200 F 
ENDBRANCH  43  67
BRANCH  55  78
ATOM     78  C   UNL A   1      45.411  33.462  29.144  1.00  0.00     0.064 A 
ATOM     79  C   UNL A   1      46.253  33.633  30.252  1.00  0.00     0.173 A 
ATOM     80  C   UNL A   1      45.332  34.501  28.205  1.00  0.00     0.173 A 
ATOM     81  F   UNL A   1      46.348  32.674  31.183  1.00  0.00    -0.203 F 
ATOM     82  C   UNL A   1      46.974  34.812  30.422  1.00  0.00     0.198 A 
ATOM     83  C   UNL A   1      46.075  35.667  28.365  1.00  0.00     0.198 A 
ATOM     84  F   UNL A   1      44.546  34.379  27.125  1.00  0.00    -0.203 F 
ATOM     85  F   UNL A   1      47.743  34.974  31.507  1.00  0.00    -0.200 F 
ATOM     86  C   UNL A   1      46.890  35.824  29.476  1.00  0.00     0.200 A 
ATOM     87  F   UNL A   1      46.002  36.638  27.445  1.00  0.00    -0.200 F 
ATOM     88  F   UNL A   1      47.593  36.954  29.638  1.00  0.00    -0.200 F 
ENDBRANCH  55  78
ENDBRANCH  29  30
ENDBRANCH  22  24
ENDBRANCH  21  22
ENDBRANCH  20  21
ENDBRANCH   1  20
TORSDOF 16
ENDMDL
MODEL 2
REMARK VINA RESULT:     -11.1      4.550      9.807
REMARK SMILES CC(C)Oc1ccc([C@H](O)[C@H](F)C(=O)OCCOC(=O)c2ccc(-c3c4nc(c(-c5c(F)c(F)c(F)c(F)c5F)c5ccc([nH]5)c(-c5c(F)c(F)c(F)c(F)c5F)c5nc(c(-c6c(F)c(F)c(F)c(F)c6F)c6ccc3[nH]6)C=C5)C=C4)cc2)cc1
REMARK SMILES IDX 16 1 15 2 13 3 14 4 11 5 12 6 9 7 8 8 5 9 6 10 85 11 7 12
REMARK SMILES IDX 84 13 4 14 2 15 1 16 3 17 10 18 17 20 18 21 19 22 20 23
REMARK SMILES IDX 21 24 22 25 83 26 23 27 82 28 24 29 25 30 26 31 76 32 27 33
REMARK SMILES IDX 81 34 75 35 77 36 28 37 80 38 74 39 73 40 29 42 61 43 41 44
REMARK SMILES IDX 60 45 42 46 45 47 59 48 78 49 43 50 44 51 58 53 79 54 46 55
REMARK SMILES IDX 30 56 31 57 39 58 32 59 33 60 37 61 40 62 34 63 35 64 38 65
REMARK SMILES IDX 36 66 62 67 63 68 71 69 64 70 65 71 69 72 72 73 66 74 67 75
REMARK SMILES IDX 70 76 68 77 47 78 48 79 56 80 49 81 50 82 54 83 57 84 51 85
REMARK SMILES IDX 52 86 55 87 53 88
REMARK H PARENT 10 19 77 41 45 52
REMARK Flexibility Score: inf
ROOT
ATOM      1  C   UNL A   1      31.206  29.344  24.584  1.00  0.00     0.274 C 
ENDROOT
BRANCH   1   2
ATOM      2  O   UNL A   1      30.400  28.168  24.775  1.00  0.00    -0.460 OA
BRANCH   2   3
ATOM      3  C   UNL A   1      30.336  27.276  23.749  1.00  0.00     0.343 C 
ATOM      4  O   UNL A   1      30.462  27.559  22.563  1.00  0.00    -0.249 OA
BRANCH   3   5
ATOM      5  C   UNL A   1      30.045  25.875  24.242  1.00  0.00     0.308 C 
ATOM      6  F   UNL A   1      30.576  24.904  23.438  1.00  0.00    -0.232 F 
BRANCH   5   7
ATOM      7  C   UNL A   1      30.550  25.719  25.679  1.00  0.00     0.190 C 
BRANCH   7   8
ATOM      8  C   UNL A   1      31.901  25.038  25.754  1.00  0.00    -0.016 A 
ATOM      9  C   UNL A   1      34.420  23.853  26.107  1.00  0.00     0.119 A 
ATOM     10  C   UNL A   1      33.263  23.151  26.443  1.00  0.00     0.047 A 
ATOM     11  C   UNL A   1      34.320  25.117  25.534  1.00  0.00     0.047 A 
ATOM     12  C   UNL A   1      32.009  23.740  26.274  1.00  0.00     0.010 A 
ATOM     13  C   UNL A   1      33.069  25.713  25.372  1.00  0.00     0.010 A 
BRANCH   9  14
ATOM     14  O   UNL A   1      35.609  23.204  26.256  1.00  0.00    -0.491 OA
BRANCH  14  15
ATOM     15  C   UNL A   1      36.690  23.577  25.382  1.00  0.00     0.167 C 
ATOM     16  C   UNL A   1      37.934  24.054  26.127  1.00  0.00     0.052 C 
ATOM     17  C   UNL A   1      37.017  22.541  24.307  1.00  0.00     0.052 C 
ENDBRANCH  14  15
ENDBRANCH   9  14
ENDBRANCH   7   8
BRANCH   7  18
ATOM     18  O   UNL A   1      29.580  25.020  26.471  1.00  0.00    -0.385 OA
ATOM     19  H   UNL A   1      29.367  25.545  27.259  1.00  0.00     0.211 HD
ENDBRANCH   7  18
ENDBRANCH   5   7
ENDBRANCH   3   5
ENDBRANCH   2   3
ENDBRANCH   1   2
BRANCH   1  20
ATOM     20  C   UNL A   1      31.516  30.003  25.929  1.00  0.00     0.275 C 
BRANCH  20  21
ATOM     21  O   UNL A   1      32.921  30.297  26.040  1.00  0.00    -0.458 OA
BRANCH  21  22
ATOM     22  C   UNL A   1      33.226  31.292  26.907  1.00  0.00     0.338 C 
ATOM     23  O   UNL A   1      32.527  32.232  27.241  1.00  0.00    -0.246 OA
BRANCH  22  24
ATOM     24  C   UNL A   1      34.522  31.003  27.534  1.00  0.00     0.060 A 
ATOM     25  C   UNL A   1      34.797  29.683  27.898  1.00  0.00     0.016 A 
ATOM     26  C   UNL A   1      35.421  32.028  27.833  1.00  0.00     0.016 A 
ATOM     27  C   UNL A   1      35.979  29.374  28.564  1.00  0.00     0.010 A 
ATOM     28  C   UNL A   1      36.600  31.721  28.516  1.00  0.00     0.010 A 
ATOM     29  C   UNL A   1      36.878  30.394  28.895  1.00  0.00    -0.014 A 
BRANCH  29  30
ATOM     30  C   UNL A   1      38.062  30.091  29.729  1.00  0.00     0.031 A 
ATOM     31  C   UNL A   1      39.119  29.173  29.190  1.00  0.00     0.074 A 
ATOM     32  C   UNL A   1      38.195  30.647  30.946  1.00  0.00     0.049 A 
ATOM     33  N   UNL A   1      40.162  28.662  29.792  1.00  0.00    -0.248 NA
ATOM     34  C   UNL A   1      38.984  28.777  27.778  1.00  0.00     0.031 C 
ATOM     35  C   UNL A   1      37.268  31.608  31.542  1.00  0.00     0.029 A 
ATOM     36  N   UNL A   1      39.163  30.477  31.903  1.00  0.00    -0.354 N 
ATOM     37  C   UNL A   1      40.796  27.873  28.843  1.00  0.00     0.074 A 
ATOM     38  C   UNL A   1      40.017  27.960  27.626  1.00  0.00     0.031 C 
ATOM     39  C   UNL A   1      37.704  31.932  32.770  1.00  0.00     0.029 A 
ATOM     40  C   UNL A   1      38.913  31.165  33.064  1.00  0.00     0.049 A 
ATOM     41  H   UNL A   1      39.961  29.914  31.769  1.00  0.00     0.167 HD
ATOM     42  C   UNL A   1      41.929  27.145  28.978  1.00  0.00     0.037 A 
ATOM     43  C   UNL A   1      39.566  31.145  34.241  1.00  0.00     0.037 A 
ATOM     44  C   UNL A   1      42.701  27.072  30.189  1.00  0.00     0.049 A 
ATOM     45  C   UNL A   1      40.784  30.269  34.387  1.00  0.00     0.074 A 
ATOM     46  C   UNL A   1      43.844  26.336  30.444  1.00  0.00     0.029 A 
ATOM     47  N   UNL A   1      42.409  27.775  31.350  1.00  0.00    -0.354 N 
ATOM     48  N   UNL A   1      41.356  29.492  33.499  1.00  0.00    -0.248 NA
ATOM     49  C   UNL A   1      41.443  30.262  35.701  1.00  0.00     0.031 C 
ATOM     50  C   UNL A   1      44.229  26.571  31.768  1.00  0.00     0.029 A 
ATOM     51  C   UNL A   1      43.350  27.486  32.325  1.00  0.00     0.049 A 
ATOM     52  H   UNL A   1      41.647  28.387  31.463  1.00  0.00     0.167 HD
ATOM     53  C   UNL A   1      42.456  28.931  34.133  1.00  0.00     0.074 A 
ATOM     54  C   UNL A   1      42.477  29.463  35.479  1.00  0.00     0.031 C 
ATOM     55  C   UNL A   1      43.366  28.053  33.647  1.00  0.00     0.037 A 
BRANCH  42  56
ATOM     56  C   UNL A   1      42.389  26.348  27.796  1.00  0.00     0.064 A 
ATOM     57  C   UNL A   1      43.366  26.837  26.917  1.00  0.00     0.173 A 
ATOM     58  C   UNL A   1      41.884  25.060  27.567  1.00  0.00     0.173 A 
ATOM     59  F   UNL A   1      43.869  28.069  27.084  1.00  0.00    -0.203 F 
ATOM     60  C   UNL A   1      43.813  26.069  25.844  1.00  0.00     0.198 A 
ATOM     61  C   UNL A   1      42.348  24.286  26.507  1.00  0.00     0.198 A 
ATOM     62  F   UNL A   1      40.949  24.545  28.380  1.00  0.00    -0.203 F 
ATOM     63  F   UNL A   1      44.724  26.567  24.998  1.00  0.00    -0.200 F 
ATOM     64  C   UNL A   1      43.309  24.791  25.646  1.00  0.00     0.200 A 
ATOM     65  F   UNL A   1      41.869  23.048  26.322  1.00  0.00    -0.200 F 
ATOM     66  F   UNL A   1      43.747  24.049  24.619  1.00  0.00    -0.200 F 
ENDBRANCH  42  56
BRANCH  43  67
ATOM     67  C   UNL A   1      39.068  31.947  35.388  1.00  0.00     0.064 A 
ATOM     68  C   UNL A   1      39.410  33.299  35.529  1.00  0.00     0.173 A 
ATOM     69  C   UNL A   1      38.270  31.369  36.387  1.00  0.00     0.173 A 
ATOM     70  F   UNL A   1      40.194  33.889  34.615  1.00  0.00    -0.203 F 
ATOM     71  C   UNL A   1      38.994  34.035  36.637  1.00  0.00     0.198 A 
ATOM     72  C   UNL A   1      37.829  32.115  37.479  1.00  0.00     0.198 A 
ATOM     73  F   UNL A   1      37.916  30.079  36.302  1.00  0.00    -0.203 F 
ATOM     74  F   UNL A   1      39.382  35.310  36.776  1.00  0.00    -0.200 F 
ATOM     75  C   UNL A   1      38.200  33.444  37.608  1.00  0.00     0.200 A 
ATOM     76  F   UNL A   1      37.053  31.542  38.409  1.00  0.00    -0.200 F 
ATOM     77  F   UNL A   1      37.803  34.152  38.675  1.00  0.00    -0.200 F 
ENDBRANCH  43  67
BRANCH  55  78
ATOM     78  C   UNL A   1      44.493  27.660  34.554  1.00  0.00     0.064 A 
ATOM     79  C   UNL A   1      45.674  28.412  34.630  1.00  0.00     0.173 A 
ATOM     80  C   UNL A   1      44.365  26.544  35.394  1.00  0.00     0.173 A 
ATOM     81  F   UNL A   1      45.847  29.478  33.835  1.00  0.00    -0.203 F 
ATOM     82  C   UNL A   1      46.697  28.047  35.501  1.00  0.00     0.198 A 
ATOM     83  C   UNL A   1      45.379  26.197  36.283  1.00  0.00     0.198 A 
ATOM     84  F   UNL A   1      43.251  25.798  35.364  1.00  0.00    -0.203 F 
ATOM     85  F   UNL A   1      47.834  28.755  35.530  1.00  0.00    -0.200 F 
ATOM     86  C   UNL A   1      46.546  26.945  36.331  1.00  0.00     0.200 A 
ATOM     87  F   UNL A   1      45.226  25.140  37.092  1.00  0.00    -0.200 F 
ATOM     88  F   UNL A   1      47.528  26.601  37.175  1.00  0.00    -0.200 F 
ENDBRANCH  55  78
ENDBRANCH  29  30
ENDBRANCH  22  24
ENDBRANCH  21  22
ENDBRANCH  20  21
ENDBRANCH   1  20
TORSDOF 16
ENDMDL
MODEL 3
REMARK VINA RESULT:     -11.1      5.321     10.457
REMARK SMILES CC(C)Oc1ccc([C@H](O)[C@H](F)C(=O)OCCOC(=O)c2ccc(-c3c4nc(c(-c5c(F)c(F)c(F)c(F)c5F)c5ccc([nH]5)c(-c5c(F)c(F)c(F)c(F)c5F)c5nc(c(-c6c(F)c(F)c(F)c(F)c6F)c6ccc3[nH]6)C=C5)C=C4)cc2)cc1
REMARK SMILES IDX 16 1 15 2 13 3 14 4 11 5 12 6 9 7 8 8 5 9 6 10 85 11 7 12
REMARK SMILES IDX 84 13 4 14 2 15 1 16 3 17 10 18 17 20 18 21 19 22 20 23
REMARK SMILES IDX 21 24 22 25 83 26 23 27 82 28 24 29 25 30 26 31 76 32 27 33
REMARK SMILES IDX 81 34 75 35 77 36 28 37 80 38 74 39 73 40 29 42 61 43 41 44
REMARK SMILES IDX 60 45 42 46 45 47 59 48 78 49 43 50 44 51 58 53 79 54 46 55
REMARK SMILES IDX 30 56 31 57 39 58 32 59 33 60 37 61 40 62 34 63 35 64 38 65
REMARK SMILES IDX 36 66 62 67 63 68 71 69 64 70 65 71 69 72 72 73 66 74 67 75
REMARK SMILES IDX 70 76 68 77 47 78 48 79 56 80 49 81 50 82 54 83 57 84 51 85
REMARK SMILES IDX 52 86 55 87 53 88
REMARK H PARENT 10 19 77 41 45 52
REMARK Flexibility Score: inf
ROOT
ATOM      1  C   UNL A   1      32.109  28.135  27.448  1.00  0.00     0.274 C 
ENDROOT
BRANCH   1   2
ATOM      2  O   UNL A   1      30.885  27.412  27.227  1.00  0.00    -0.460 OA
BRANCH   2   3
ATOM      3  C   UNL A   1      30.947  26.290  26.460  1.00  0.00     0.343 C 
ATOM      4  O   UNL A   1      30.222  25.309  26.588  1.00  0.00    -0.249 OA
BRANCH   3   5
ATOM      5  C   UNL A   1      32.059  26.372  25.436  1.00  0.00     0.308 C 
ATOM      6  F   UNL A   1      32.983  25.372  25.567  1.00  0.00    -0.232 F 
BRANCH   5   7
ATOM      7  C   UNL A   1      31.462  26.371  24.026  1.00  0.00     0.190 C 
BRANCH   7   8
ATOM      8  C   UNL A   1      30.571  27.568  23.766  1.00  0.00    -0.016 A 
ATOM      9  C   UNL A   1      28.973  29.765  23.063  1.00  0.00     0.119 A 
ATOM     10  C   UNL A   1      28.433  28.479  23.067  1.00  0.00     0.047 A 
ATOM     11  C   UNL A   1      30.287  29.964  23.474  1.00  0.00     0.047 A 
ATOM     12  C   UNL A   1      29.228  27.384  23.410  1.00  0.00     0.010 A 
ATOM     13  C   UNL A   1      31.086  28.871  23.809  1.00  0.00     0.010 A 
BRANCH   9  14
ATOM     14  O   UNL A   1      28.131  30.793  22.761  1.00  0.00    -0.491 OA
BRANCH  14  15
ATOM     15  C   UNL A   1      28.665  31.897  22.007  1.00  0.00     0.167 C 
ATOM     16  C   UNL A   1      27.988  32.089  20.653  1.00  0.00     0.052 C 
ATOM     17  C   UNL A   1      28.776  33.203  22.794  1.00  0.00     0.052 C 
ENDBRANCH  14  15
ENDBRANCH   9  14
ENDBRANCH   7   8
BRANCH   7  18
ATOM     18  O   UNL A   1      30.754  25.145  23.789  1.00  0.00    -0.385 OA
ATOM     19  H   UNL A   1      30.337  25.178  22.914  1.00  0.00     0.211 HD
ENDBRANCH   7  18
ENDBRANCH   5   7
ENDBRANCH   3   5
ENDBRANCH   2   3
ENDBRANCH   1   2
BRANCH   1  20
ATOM     20  C   UNL A   1      31.915  29.620  27.140  1.00  0.00     0.275 C 
BRANCH  20  21
ATOM     21  O   UNL A   1      33.104  30.177  26.549  1.00  0.00    -0.458 OA
BRANCH  21  22
ATOM     22  C   UNL A   1      33.579  31.285  27.165  1.00  0.00     0.338 C 
ATOM     23  O   UNL A   1      33.011  32.351  27.327  1.00  0.00    -0.246 OA
BRANCH  22  24
ATOM     24  C   UNL A   1      34.881  30.978  27.770  1.00  0.00     0.060 A 
ATOM     25  C   UNL A   1      35.139  29.656  28.141  1.00  0.00     0.016 A 
ATOM     26  C   UNL A   1      35.805  31.989  28.043  1.00  0.00     0.016 A 
ATOM     27  C   UNL A   1      36.328  29.331  28.788  1.00  0.00     0.010 A 
ATOM     28  C   UNL A   1      36.990  31.666  28.705  1.00  0.00     0.010 A 
ATOM     29  C   UNL A   1      37.251  30.337  29.092  1.00  0.00    -0.014 A 
BRANCH  29  30
ATOM     30  C   UNL A   1      38.445  30.020  29.906  1.00  0.00     0.031 A 
ATOM     31  C   UNL A   1      39.478  29.082  29.353  1.00  0.00     0.074 A 
ATOM     32  C   UNL A   1      38.610  30.581  31.117  1.00  0.00     0.049 A 
ATOM     33  N   UNL A   1      40.523  28.559  29.939  1.00  0.00    -0.248 NA
ATOM     34  C   UNL A   1      39.311  28.681  27.946  1.00  0.00     0.031 C 
ATOM     35  C   UNL A   1      37.709  31.559  31.724  1.00  0.00     0.029 A 
ATOM     36  N   UNL A   1      39.592  30.400  32.057  1.00  0.00    -0.354 N 
ATOM     37  C   UNL A   1      41.127  27.754  28.983  1.00  0.00     0.074 A 
ATOM     38  C   UNL A   1      40.327  27.847  27.780  1.00  0.00     0.031 C 
ATOM     39  C   UNL A   1      38.173  31.883  32.943  1.00  0.00     0.029 A 
ATOM     40  C   UNL A   1      39.374  31.099  33.218  1.00  0.00     0.049 A 
ATOM     41  H   UNL A   1      40.378  29.825  31.912  1.00  0.00     0.167 HD
ATOM     42  C   UNL A   1      42.251  27.009  29.102  1.00  0.00     0.037 A 
ATOM     43  C   UNL A   1      40.048  31.074  34.384  1.00  0.00     0.037 A 
ATOM     44  C   UNL A   1      43.044  26.931  30.299  1.00  0.00     0.049 A 
ATOM     45  C   UNL A   1      41.254  30.180  34.512  1.00  0.00     0.074 A 
ATOM     46  C   UNL A   1      44.180  26.177  30.537  1.00  0.00     0.029 A 
ATOM     47  N   UNL A   1      42.784  27.644  31.460  1.00  0.00    -0.354 N 
ATOM     48  N   UNL A   1      41.798  29.389  33.618  1.00  0.00    -0.248 NA
ATOM     49  C   UNL A   1      41.937  30.169  35.814  1.00  0.00     0.031 C 
ATOM     50  C   UNL A   1      44.592  26.414  31.853  1.00  0.00     0.029 A 
ATOM     51  C   UNL A   1      43.738  27.346  32.420  1.00  0.00     0.049 A 
ATOM     52  H   UNL A   1      42.035  28.269  31.585  1.00  0.00     0.167 HD
ATOM     53  C   UNL A   1      42.900  28.814  34.236  1.00  0.00     0.074 A 
ATOM     54  C   UNL A   1      42.954  29.353  35.579  1.00  0.00     0.031 C 
ATOM     55  C   UNL A   1      43.788  27.919  33.739  1.00  0.00     0.037 A 
BRANCH  42  56
ATOM     56  C   UNL A   1      42.677  26.198  27.916  1.00  0.00     0.064 A 
ATOM     57  C   UNL A   1      42.115  24.941  27.647  1.00  0.00     0.173 A 
ATOM     58  C   UNL A   1      43.621  26.704  27.011  1.00  0.00     0.173 A 
ATOM     59  F   UNL A   1      41.220  24.406  28.491  1.00  0.00    -0.203 F 
ATOM     60  C   UNL A   1      42.493  24.215  26.519  1.00  0.00     0.198 A 
ATOM     61  C   UNL A   1      43.979  25.987  25.873  1.00  0.00     0.198 A 
ATOM     62  F   UNL A   1      44.185  27.903  27.223  1.00  0.00    -0.203 F 
ATOM     63  F   UNL A   1      41.968  23.003  26.297  1.00  0.00    -0.200 F 
ATOM     64  C   UNL A   1      43.418  24.744  25.630  1.00  0.00     0.200 A 
ATOM     65  F   UNL A   1      44.865  26.503  25.009  1.00  0.00    -0.200 F 
ATOM     66  F   UNL A   1      43.773  24.049  24.539  1.00  0.00    -0.200 F 
ENDBRANCH  42  56
BRANCH  43  67
ATOM     67  C   UNL A   1      39.584  31.890  35.535  1.00  0.00     0.064 A 
ATOM     68  C   UNL A   1      38.641  31.390  36.443  1.00  0.00     0.173 A 
ATOM     69  C   UNL A   1      40.046  33.200  35.732  1.00  0.00     0.173 A 
ATOM     70  F   UNL A   1      38.148  30.153  36.283  1.00  0.00    -0.203 F 
ATOM     71  C   UNL A   1      38.159  32.177  37.489  1.00  0.00     0.198 A 
ATOM     72  C   UNL A   1      39.587  33.975  36.796  1.00  0.00     0.198 A 
ATOM     73  F   UNL A   1      40.946  33.728  34.891  1.00  0.00    -0.203 F 
ATOM     74  F   UNL A   1      37.216  31.693  38.309  1.00  0.00    -0.200 F 
ATOM     75  C   UNL A   1      38.636  33.466  37.667  1.00  0.00     0.200 A 
ATOM     76  F   UNL A   1      40.058  35.217  36.969  1.00  0.00    -0.200 F 
ATOM     77  F   UNL A   1      38.170  34.223  38.669  1.00  0.00    -0.200 F 
ENDBRANCH  43  67
BRANCH  55  78
ATOM     78  C   UNL A   1      44.925  27.513  34.627  1.00  0.00     0.064 A 
ATOM     79  C   UNL A   1      46.131  28.226  34.650  1.00  0.00     0.173 A 
ATOM     80  C   UNL A   1      44.781  26.426  35.502  1.00  0.00     0.173 A 
ATOM     81  F   UNL A   1      46.319  29.262  33.822  1.00  0.00    -0.203 F 
ATOM     82  C   UNL A   1      47.164  27.850  35.505  1.00  0.00     0.198 A 
ATOM     83  C   UNL A   1      45.806  26.070  36.374  1.00  0.00     0.198 A 
ATOM     84  F   UNL A   1      43.642  25.719  35.522  1.00  0.00    -0.203 F 
ATOM     85  F   UNL A   1      48.325  28.519  35.485  1.00  0.00    -0.200 F 
ATOM     86  C   UNL A   1      46.998  26.778  36.370  1.00  0.00     0.200 A 
ATOM     87  F   UNL A   1      45.640  25.041  37.217  1.00  0.00    -0.200 F 
ATOM     88  F   UNL A   1      47.991  26.424  37.198  1.00  0.00    -0.200 F 
ENDBRANCH  55  78
ENDBRANCH  29  30
ENDBRANCH  22  24
ENDBRANCH  21  22
ENDBRANCH  20  21
ENDBRANCH   1  20
TORSDOF 16
ENDMDL
