MODEL 1
REMARK VINA RESULT:     -11.5      0.000      0.000
REMARK SMILES CCc1n[nH]c(C(=O)N(C)[C@H]2COC[C@H]2C(=O)OCCOC(=O)c2ccc(-c3c4nc(c(-c5c(F)c(F)c(F)c(F)c5F)c5ccc([nH]5)c(-c5c(F)c(F)c(F)c(F)c5F)c5nc(c(-c6c(F)c(F)c(F)c(F)c6F)c6ccc3[nH]6)C=C5)C=C4)cc2)n1
REMARK SMILES IDX 19 1 18 2 16 3 17 4 15 5 11 6 12 7 13 8 14 9 9 10 10 11 7 12
REMARK SMILES IDX 8 13 6 14 3 15 4 16 87 17 5 18 2 20 1 21 20 22 21 23 22 24
REMARK SMILES IDX 23 25 24 26 25 27 86 28 26 29 85 30 27 31 28 32 29 33 79 34
REMARK SMILES IDX 30 35 84 36 78 37 80 38 31 39 83 40 77 41 76 42 32 44 64 45
REMARK SMILES IDX 44 46 63 47 45 48 48 49 62 50 81 51 46 52 47 53 61 55 82 56
REMARK SMILES IDX 49 57 33 58 34 59 42 60 35 61 36 62 40 63 43 64 37 65 38 66
REMARK SMILES IDX 41 67 39 68 65 69 66 70 74 71 67 72 68 73 72 74 75 75 69 76
REMARK SMILES IDX 70 77 73 78 71 79 50 80 51 81 59 82 52 83 53 84 57 85 60 86
REMARK SMILES IDX 54 87 55 88 58 89 56 90
REMARK H PARENT 5 19 80 43 48 54
REMARK Flexibility Score: inf
ROOT
ATOM      1  C   UNL A   1      32.845  29.328  24.521  1.00  0.00     0.274 C 
ENDROOT
BRANCH   1   2
ATOM      2  O   UNL A   1      33.546  28.281  25.227  1.00  0.00    -0.462 OA
BRANCH   2   3
ATOM      3  C   UNL A   1      33.195  27.011  24.933  1.00  0.00     0.313 C 
ATOM      4  O   UNL A   1      33.800  26.291  24.142  1.00  0.00    -0.252 OA
BRANCH   3   5
ATOM      5  C   UNL A   1      31.997  26.491  25.682  1.00  0.00     0.150 C 
ATOM      6  C   UNL A   1      30.566  26.579  25.170  1.00  0.00     0.127 C 
ATOM      7  C   UNL A   1      29.892  25.591  26.125  1.00  0.00     0.186 C 
ATOM      8  O   UNL A   1      30.844  24.536  26.367  1.00  0.00    -0.378 OA
ATOM      9  C   UNL A   1      32.158  25.036  26.059  1.00  0.00     0.177 C 
BRANCH   6  10
ATOM     10  N   UNL A   1      30.340  26.266  23.746  1.00  0.00    -0.333 N 
ATOM     11  C   UNL A   1      30.278  24.876  23.297  1.00  0.00     0.147 C 
BRANCH  10  12
ATOM     12  C   UNL A   1      30.250  27.351  22.858  1.00  0.00     0.291 C 
ATOM     13  O   UNL A   1      31.024  27.443  21.903  1.00  0.00    -0.265 OA
BRANCH  12  14
ATOM     14  C   UNL A   1      29.205  28.337  23.039  1.00  0.00     0.214 A 
ATOM     15  C   UNL A   1      28.008  30.066  23.222  1.00  0.00     0.151 A 
ATOM     16  N   UNL A   1      27.099  29.084  23.249  1.00  0.00    -0.158 NA
ATOM     17  N   UNL A   1      29.309  29.646  23.169  1.00  0.00    -0.207 NA
ATOM     18  N   UNL A   1      27.885  27.997  23.126  1.00  0.00    -0.255 N 
ATOM     19  H   UNL A   1      27.549  27.072  23.101  1.00  0.00     0.192 HD
BRANCH  15  20
ATOM     20  C   UNL A   1      27.653  31.504  23.127  1.00  0.00     0.076 C 
ATOM     21  C   UNL A   1      28.739  32.283  22.395  1.00  0.00     0.012 C 
ENDBRANCH  15  20
ENDBRANCH  12  14
ENDBRANCH  10  12
ENDBRANCH   6  10
ENDBRANCH   3   5
ENDBRANCH   2   3
ENDBRANCH   1   2
BRANCH   1  22
ATOM     22  C   UNL A   1      31.981  30.150  25.478  1.00  0.00     0.275 C 
BRANCH  22  23
ATOM     23  O   UNL A   1      32.528  30.147  26.811  1.00  0.00    -0.458 OA
BRANCH  23  24
ATOM     24  C   UNL A   1      33.174  31.285  27.149  1.00  0.00     0.338 C 
ATOM     25  O   UNL A   1      32.768  32.426  27.035  1.00  0.00    -0.246 OA
BRANCH  24  26
ATOM     26  C   UNL A   1      34.475  30.973  27.752  1.00  0.00     0.060 A 
ATOM     27  C   UNL A   1      34.741  29.659  28.143  1.00  0.00     0.016 A 
ATOM     28  C   UNL A   1      35.367  32.001  28.050  1.00  0.00     0.016 A 
ATOM     29  C   UNL A   1      35.901  29.368  28.854  1.00  0.00     0.010 A 
ATOM     30  C   UNL A   1      36.545  31.704  28.740  1.00  0.00     0.010 A 
ATOM     31  C   UNL A   1      36.814  30.389  29.156  1.00  0.00    -0.014 A 
BRANCH  31  32
ATOM     32  C   UNL A   1      38.062  30.076  29.890  1.00  0.00     0.031 A 
ATOM     33  C   UNL A   1      39.090  29.163  29.291  1.00  0.00     0.074 A 
ATOM     34  C   UNL A   1      38.252  30.610  31.111  1.00  0.00     0.049 A 
ATOM     35  N   UNL A   1      40.185  28.687  29.826  1.00  0.00    -0.248 NA
ATOM     36  C   UNL A   1      38.854  28.723  27.906  1.00  0.00     0.031 C 
ATOM     37  C   UNL A   1      37.332  31.532  31.778  1.00  0.00     0.029 A 
ATOM     38  N   UNL A   1      39.275  30.447  32.009  1.00  0.00    -0.354 N 
ATOM     39  C   UNL A   1      40.755  27.869  28.858  1.00  0.00     0.074 A 
ATOM     40  C   UNL A   1      39.885  27.912  27.703  1.00  0.00     0.031 C 
ATOM     41  C   UNL A   1      37.834  31.858  32.979  1.00  0.00     0.029 A 
ATOM     42  C   UNL A   1      39.080  31.128  33.186  1.00  0.00     0.049 A 
ATOM     43  H   UNL A   1      40.071  29.896  31.829  1.00  0.00     0.167 HD
ATOM     44  C   UNL A   1      41.899  27.149  28.938  1.00  0.00     0.037 A 
ATOM     45  C   UNL A   1      39.812  31.137  34.316  1.00  0.00     0.037 A 
ATOM     46  C   UNL A   1      42.772  27.135  30.083  1.00  0.00     0.049 A 
ATOM     47  C   UNL A   1      41.058  30.301  34.386  1.00  0.00     0.074 A 
ATOM     48  C   UNL A   1      43.973  26.467  30.247  1.00  0.00     0.029 A 
ATOM     49  N   UNL A   1      42.535  27.825  31.263  1.00  0.00    -0.354 N 
ATOM     50  N   UNL A   1      41.591  29.535  33.465  1.00  0.00    -0.248 NA
ATOM     51  C   UNL A   1      41.799  30.324  35.653  1.00  0.00     0.031 C 
ATOM     52  C   UNL A   1      44.445  26.723  31.540  1.00  0.00     0.029 A 
ATOM     53  C   UNL A   1      43.556  27.581  32.168  1.00  0.00     0.049 A 
ATOM     54  H   UNL A   1      41.756  28.403  31.433  1.00  0.00     0.167 HD
ATOM     55  C   UNL A   1      42.737  28.997  34.034  1.00  0.00     0.074 A 
ATOM     56  C   UNL A   1      42.830  29.537  35.375  1.00  0.00     0.031 C 
ATOM     57  C   UNL A   1      43.630  28.132  33.495  1.00  0.00     0.037 A 
BRANCH  44  58
ATOM     58  C   UNL A   1      42.264  26.288  27.766  1.00  0.00     0.064 A 
ATOM     59  C   UNL A   1      43.205  26.699  26.811  1.00  0.00     0.173 A 
ATOM     60  C   UNL A   1      41.703  25.009  27.628  1.00  0.00     0.173 A 
ATOM     61  F   UNL A   1      43.762  27.917  26.893  1.00  0.00    -0.203 F 
ATOM     62  C   UNL A   1      43.559  25.867  25.752  1.00  0.00     0.198 A 
ATOM     63  C   UNL A   1      42.075  24.171  26.580  1.00  0.00     0.198 A 
ATOM     64  F   UNL A   1      40.800  24.568  28.517  1.00  0.00    -0.203 F 
ATOM     65  F   UNL A   1      44.439  26.289  24.834  1.00  0.00    -0.200 F 
ATOM     66  C   UNL A   1      43.000  24.602  25.641  1.00  0.00     0.200 A 
ATOM     67  F   UNL A   1      41.540  22.947  26.481  1.00  0.00    -0.200 F 
ATOM     68  F   UNL A   1      43.349  23.799  24.627  1.00  0.00    -0.200 F 
ENDBRANCH  44  58
BRANCH  45  69
ATOM     69  C   UNL A   1      39.369  31.951  35.475  1.00  0.00     0.064 A 
ATOM     70  C   UNL A   1      38.512  31.416  36.445  1.00  0.00     0.173 A 
ATOM     71  C   UNL A   1      39.802  33.274  35.643  1.00  0.00     0.173 A 
ATOM     72  F   UNL A   1      38.053  30.163  36.313  1.00  0.00    -0.203 F 
ATOM     73  C   UNL A   1      38.094  32.177  37.534  1.00  0.00     0.198 A 
ATOM     74  C   UNL A   1      39.406  34.026  36.746  1.00  0.00     0.198 A 
ATOM     75  F   UNL A   1      40.625  33.831  34.741  1.00  0.00    -0.203 F 
ATOM     76  F   UNL A   1      37.245  31.653  38.428  1.00  0.00    -0.200 F 
ATOM     77  C   UNL A   1      38.548  33.479  37.688  1.00  0.00     0.200 A 
ATOM     78  F   UNL A   1      39.856  35.280  36.897  1.00  0.00    -0.200 F 
ATOM     79  F   UNL A   1      38.153  34.209  38.740  1.00  0.00    -0.200 F 
ENDBRANCH  45  69
BRANCH  57  80
ATOM     80  C   UNL A   1      44.795  27.741  34.351  1.00  0.00     0.064 A 
ATOM     81  C   UNL A   1      45.971  28.505  34.380  1.00  0.00     0.173 A 
ATOM     82  C   UNL A   1      44.724  26.604  35.170  1.00  0.00     0.173 A 
ATOM     83  F   UNL A   1      46.090  29.589  33.600  1.00  0.00    -0.203 F 
ATOM     84  C   UNL A   1      47.044  28.131  35.184  1.00  0.00     0.198 A 
ATOM     85  C   UNL A   1      45.791  26.247  35.990  1.00  0.00     0.198 A 
ATOM     86  F   UNL A   1      43.619  25.844  35.178  1.00  0.00    -0.203 F 
ATOM     87  F   UNL A   1      48.174  28.852  35.165  1.00  0.00    -0.200 F 
ATOM     88  C   UNL A   1      46.951  27.007  35.991  1.00  0.00     0.200 A 
ATOM     89  F   UNL A   1      45.698  25.164  36.774  1.00  0.00    -0.200 F 
ATOM     90  F   UNL A   1      47.986  26.649  36.765  1.00  0.00    -0.200 F 
ENDBRANCH  57  80
ENDBRANCH  31  32
ENDBRANCH  24  26
ENDBRANCH  23  24
ENDBRANCH  22  23
ENDBRANCH   1  22
TORSDOF 15
ENDMDL
MODEL 2
REMARK VINA RESULT:     -11.2      0.828      2.038
REMARK SMILES CCc1n[nH]c(C(=O)N(C)[C@H]2COC[C@H]2C(=O)OCCOC(=O)c2ccc(-c3c4nc(c(-c5c(F)c(F)c(F)c(F)c5F)c5ccc([nH]5)c(-c5c(F)c(F)c(F)c(F)c5F)c5nc(c(-c6c(F)c(F)c(F)c(F)c6F)c6ccc3[nH]6)C=C5)C=C4)cc2)n1
REMARK SMILES IDX 19 1 18 2 16 3 17 4 15 5 11 6 12 7 13 8 14 9 9 10 10 11 7 12
REMARK SMILES IDX 8 13 6 14 3 15 4 16 87 17 5 18 2 20 1 21 20 22 21 23 22 24
REMARK SMILES IDX 23 25 24 26 25 27 86 28 26 29 85 30 27 31 28 32 29 33 79 34
REMARK SMILES IDX 30 35 84 36 78 37 80 38 31 39 83 40 77 41 76 42 32 44 64 45
REMARK SMILES IDX 44 46 63 47 45 48 48 49 62 50 81 51 46 52 47 53 61 55 82 56
REMARK SMILES IDX 49 57 33 58 34 59 42 60 35 61 36 62 40 63 43 64 37 65 38 66
REMARK SMILES IDX 41 67 39 68 65 69 66 70 74 71 67 72 68 73 72 74 75 75 69 76
REMARK SMILES IDX 70 77 73 78 71 79 50 80 51 81 59 82 52 83 53 84 57 85 60 86
REMARK SMILES IDX 54 87 55 88 58 89 56 90
REMARK H PARENT 5 19 80 43 48 54
REMARK Flexibility Score: inf
ROOT
ATOM      1  C   UNL A   1      31.469  28.729  26.836  1.00  0.00     0.274 C 
ENDROOT
BRANCH   1   2
ATOM      2  O   UNL A   1      32.300  27.603  26.482  1.00  0.00    -0.462 OA
BRANCH   2   3
ATOM      3  C   UNL A   1      31.664  26.479  26.087  1.00  0.00     0.313 C 
ATOM      4  O   UNL A   1      30.472  26.255  26.279  1.00  0.00    -0.252 OA
BRANCH   3   5
ATOM      5  C   UNL A   1      32.519  25.493  25.336  1.00  0.00     0.150 C 
ATOM      6  C   UNL A   1      32.550  25.370  23.819  1.00  0.00     0.127 C 
ATOM      7  C   UNL A   1      33.817  24.528  23.657  1.00  0.00     0.186 C 
ATOM      8  O   UNL A   1      34.735  24.962  24.681  1.00  0.00    -0.378 OA
ATOM      9  C   UNL A   1      33.977  25.608  25.720  1.00  0.00     0.177 C 
BRANCH   6  10
ATOM     10  N   UNL A   1      32.574  26.624  23.042  1.00  0.00    -0.333 N 
ATOM     11  C   UNL A   1      33.648  27.595  23.243  1.00  0.00     0.147 C 
BRANCH  10  12
ATOM     12  C   UNL A   1      31.501  26.854  22.164  1.00  0.00     0.291 C 
ATOM     13  O   UNL A   1      31.382  26.187  21.135  1.00  0.00    -0.265 OA
BRANCH  12  14
ATOM     14  C   UNL A   1      30.501  27.845  22.504  1.00  0.00     0.214 A 
ATOM     15  C   UNL A   1      29.204  29.505  22.643  1.00  0.00     0.151 A 
ATOM     16  N   UNL A   1      28.696  28.666  23.554  1.00  0.00    -0.158 NA
ATOM     17  N   UNL A   1      30.350  29.069  22.034  1.00  0.00    -0.207 NA
ATOM     18  N   UNL A   1      29.535  27.619  23.442  1.00  0.00    -0.255 N 
ATOM     19  H   UNL A   1      29.460  26.792  23.971  1.00  0.00     0.192 HD
BRANCH  15  20
ATOM     20  C   UNL A   1      28.528  30.756  22.217  1.00  0.00     0.076 C 
ATOM     21  C   UNL A   1      27.655  31.309  23.336  1.00  0.00     0.012 C 
ENDBRANCH  15  20
ENDBRANCH  12  14
ENDBRANCH  10  12
ENDBRANCH   6  10
ENDBRANCH   3   5
ENDBRANCH   2   3
ENDBRANCH   1   2
BRANCH   1  22
ATOM     22  C   UNL A   1      31.778  29.937  25.950  1.00  0.00     0.275 C 
BRANCH  22  23
ATOM     23  O   UNL A   1      33.174  30.289  26.014  1.00  0.00    -0.458 OA
BRANCH  23  24
ATOM     24  C   UNL A   1      33.467  31.235  26.933  1.00  0.00     0.338 C 
ATOM     25  O   UNL A   1      32.788  32.193  27.250  1.00  0.00    -0.246 OA
BRANCH  24  26
ATOM     26  C   UNL A   1      34.749  30.936  27.581  1.00  0.00     0.060 A 
ATOM     27  C   UNL A   1      35.019  29.623  27.972  1.00  0.00     0.016 A 
ATOM     28  C   UNL A   1      35.616  31.974  27.920  1.00  0.00     0.016 A 
ATOM     29  C   UNL A   1      36.156  29.342  28.724  1.00  0.00     0.010 A 
ATOM     30  C   UNL A   1      36.771  31.688  28.651  1.00  0.00     0.010 A 
ATOM     31  C   UNL A   1      37.043  30.372  29.067  1.00  0.00    -0.014 A 
BRANCH  31  32
ATOM     32  C   UNL A   1      38.266  30.071  29.845  1.00  0.00     0.031 A 
ATOM     33  C   UNL A   1      39.317  29.156  29.289  1.00  0.00     0.074 A 
ATOM     34  C   UNL A   1      38.414  30.616  31.067  1.00  0.00     0.049 A 
ATOM     35  N   UNL A   1      40.395  28.690  29.864  1.00  0.00    -0.248 NA
ATOM     36  C   UNL A   1      39.129  28.704  27.901  1.00  0.00     0.031 C 
ATOM     37  C   UNL A   1      37.470  31.541  31.695  1.00  0.00     0.029 A 
ATOM     38  N   UNL A   1      39.407  30.465  32.000  1.00  0.00    -0.354 N 
ATOM     39  C   UNL A   1      41.000  27.866  28.923  1.00  0.00     0.074 A 
ATOM     40  C   UNL A   1      40.168  27.894  27.739  1.00  0.00     0.031 C 
ATOM     41  C   UNL A   1      37.930  31.879  32.909  1.00  0.00     0.029 A 
ATOM     42  C   UNL A   1      39.171  31.155  33.163  1.00  0.00     0.049 A 
ATOM     43  H   UNL A   1      40.210  29.916  31.851  1.00  0.00     0.167 HD
ATOM     44  C   UNL A   1      42.144  27.150  29.047  1.00  0.00     0.037 A 
ATOM     45  C   UNL A   1      39.865  31.177  34.317  1.00  0.00     0.037 A 
ATOM     46  C   UNL A   1      42.978  27.150  30.221  1.00  0.00     0.049 A 
ATOM     47  C   UNL A   1      41.111  30.347  34.436  1.00  0.00     0.074 A 
ATOM     48  C   UNL A   1      44.175  26.488  30.430  1.00  0.00     0.029 A 
ATOM     49  N   UNL A   1      42.699  27.849  31.386  1.00  0.00    -0.354 N 
ATOM     50  N   UNL A   1      41.677  29.574  33.540  1.00  0.00    -0.248 NA
ATOM     51  C   UNL A   1      41.810  30.384  35.726  1.00  0.00     0.031 C 
ATOM     52  C   UNL A   1      44.603  26.757  31.736  1.00  0.00     0.029 A 
ATOM     53  C   UNL A   1      43.691  27.617  32.326  1.00  0.00     0.049 A 
ATOM     54  H   UNL A   1      41.913  28.425  31.525  1.00  0.00     0.167 HD
ATOM     55  C   UNL A   1      42.805  29.046  34.151  1.00  0.00     0.074 A 
ATOM     56  C   UNL A   1      42.852  29.598  35.490  1.00  0.00     0.031 C 
ATOM     57  C   UNL A   1      43.718  28.180  33.650  1.00  0.00     0.037 A 
BRANCH  44  58
ATOM     58  C   UNL A   1      42.550  26.280  27.895  1.00  0.00     0.064 A 
ATOM     59  C   UNL A   1      42.032  24.988  27.726  1.00  0.00     0.173 A 
ATOM     60  C   UNL A   1      43.428  26.771  26.917  1.00  0.00     0.173 A 
ATOM     61  F   UNL A   1      41.197  24.470  28.639  1.00  0.00    -0.203 F 
ATOM     62  C   UNL A   1      42.391  24.213  26.626  1.00  0.00     0.198 A 
ATOM     63  C   UNL A   1      43.768  26.001  25.808  1.00  0.00     0.198 A 
ATOM     64  F   UNL A   1      43.948  28.002  27.031  1.00  0.00    -0.203 F 
ATOM     65  F   UNL A   1      41.908  22.970  26.497  1.00  0.00    -0.200 F 
ATOM     66  C   UNL A   1      43.253  24.721  25.665  1.00  0.00     0.200 A 
ATOM     67  F   UNL A   1      44.594  26.498  24.877  1.00  0.00    -0.200 F 
ATOM     68  F   UNL A   1      43.590  23.977  24.603  1.00  0.00    -0.200 F 
ENDBRANCH  44  58
BRANCH  45  69
ATOM     69  C   UNL A   1      39.381  32.001  35.454  1.00  0.00     0.064 A 
ATOM     70  C   UNL A   1      39.766  33.341  35.585  1.00  0.00     0.173 A 
ATOM     71  C   UNL A   1      38.518  31.469  36.422  1.00  0.00     0.173 A 
ATOM     72  F   UNL A   1      40.608  33.885  34.695  1.00  0.00    -0.203 F 
ATOM     73  C   UNL A   1      39.314  34.117  36.650  1.00  0.00     0.198 A 
ATOM     74  C   UNL A   1      38.045  32.253  37.472  1.00  0.00     0.198 A 
ATOM     75  F   UNL A   1      38.121  30.190  36.339  1.00  0.00    -0.203 F 
ATOM     76  F   UNL A   1      39.725  35.386  36.772  1.00  0.00    -0.200 F 
ATOM     77  C   UNL A   1      38.448  33.575  37.588  1.00  0.00     0.200 A 
ATOM     78  F   UNL A   1      37.199  31.728  38.369  1.00  0.00    -0.200 F 
ATOM     79  F   UNL A   1      38.007  34.323  38.608  1.00  0.00    -0.200 F 
ENDBRANCH  45  69
BRANCH  57  80
ATOM     80  C   UNL A   1      44.856  27.801  34.548  1.00  0.00     0.064 A 
ATOM     81  C   UNL A   1      46.034  28.560  34.597  1.00  0.00     0.173 A 
ATOM     82  C   UNL A   1      44.756  26.680  35.386  1.00  0.00     0.173 A 
ATOM     83  F   UNL A   1      46.181  29.629  33.800  1.00  0.00    -0.203 F 
ATOM     84  C   UNL A   1      47.081  28.197  35.440  1.00  0.00     0.198 A 
ATOM     85  C   UNL A   1      45.796  26.334  36.244  1.00  0.00     0.198 A 
ATOM     86  F   UNL A   1      43.648  25.924  35.376  1.00  0.00    -0.203 F 
ATOM     87  F   UNL A   1      48.214  28.913  35.440  1.00  0.00    -0.200 F 
ATOM     88  C   UNL A   1      46.959  27.090  36.265  1.00  0.00     0.200 A 
ATOM     89  F   UNL A   1      45.675  25.267  37.045  1.00  0.00    -0.200 F 
ATOM     90  F   UNL A   1      47.969  26.743  37.076  1.00  0.00    -0.200 F 
ENDBRANCH  57  80
ENDBRANCH  31  32
ENDBRANCH  24  26
ENDBRANCH  23  24
ENDBRANCH  22  23
ENDBRANCH   1  22
TORSDOF 15
ENDMDL
MODEL 3
REMARK VINA RESULT:     -11.1      5.047     10.149
REMARK SMILES CCc1n[nH]c(C(=O)N(C)[C@H]2COC[C@H]2C(=O)OCCOC(=O)c2ccc(-c3c4nc(c(-c5c(F)c(F)c(F)c(F)c5F)c5ccc([nH]5)c(-c5c(F)c(F)c(F)c(F)c5F)c5nc(c(-c6c(F)c(F)c(F)c(F)c6F)c6ccc3[nH]6)C=C5)C=C4)cc2)n1
REMARK SMILES IDX 19 1 18 2 16 3 17 4 15 5 11 6 12 7 13 8 14 9 9 10 10 11 7 12
REMARK SMILES IDX 8 13 6 14 3 15 4 16 87 17 5 18 2 20 1 21 20 22 21 23 22 24
REMARK SMILES IDX 23 25 24 26 25 27 86 28 26 29 85 30 27 31 28 32 29 33 79 34
REMARK SMILES IDX 30 35 84 36 78 37 80 38 31 39 83 40 77 41 76 42 32 44 64 45
REMARK SMILES IDX 44 46 63 47 45 48 48 49 62 50 81 51 46 52 47 53 61 55 82 56
REMARK SMILES IDX 49 57 33 58 34 59 42 60 35 61 36 62 40 63 43 64 37 65 38 66
REMARK SMILES IDX 41 67 39 68 65 69 66 70 74 71 67 72 68 73 72 74 75 75 69 76
REMARK SMILES IDX 70 77 73 78 71 79 50 80 51 81 59 82 52 83 53 84 57 85 60 86
REMARK SMILES IDX 54 87 55 88 58 89 56 90
REMARK H PARENT 5 19 80 43 48 54
REMARK Flexibility Score: inf
ROOT
ATOM      1  C   UNL A   1      36.625  21.816  24.028  1.00  0.00     0.274 C 
ENDROOT
BRANCH   1   2
ATOM      2  O   UNL A   1      36.858  23.225  24.243  1.00  0.00    -0.462 OA
BRANCH   2   3
ATOM      3  C   UNL A   1      35.890  23.907  24.893  1.00  0.00     0.313 C 
ATOM      4  O   UNL A   1      36.023  24.407  26.006  1.00  0.00    -0.252 OA
BRANCH   3   5
ATOM      5  C   UNL A   1      34.598  24.058  24.133  1.00  0.00     0.150 C 
ATOM      6  C   UNL A   1      33.408  23.120  24.276  1.00  0.00     0.127 C 
ATOM      7  C   UNL A   1      32.331  23.967  23.594  1.00  0.00     0.186 C 
ATOM      8  O   UNL A   1      32.615  25.341  23.926  1.00  0.00    -0.378 OA
ATOM      9  C   UNL A   1      33.998  25.434  24.312  1.00  0.00     0.177 C 
BRANCH   6  10
ATOM     10  N   UNL A   1      33.045  22.697  25.643  1.00  0.00    -0.333 N 
ATOM     11  C   UNL A   1      32.164  23.528  26.462  1.00  0.00     0.147 C 
BRANCH  10  12
ATOM     12  C   UNL A   1      33.628  21.512  26.123  1.00  0.00     0.291 C 
ATOM     13  O   UNL A   1      34.450  21.548  27.041  1.00  0.00    -0.265 OA
BRANCH  12  14
ATOM     14  C   UNL A   1      33.215  20.239  25.570  1.00  0.00     0.214 A 
ATOM     15  C   UNL A   1      32.774  18.549  24.384  1.00  0.00     0.151 A 
ATOM     16  N   UNL A   1      32.518  18.107  25.621  1.00  0.00    -0.158 NA
ATOM     17  N   UNL A   1      33.131  19.868  24.307  1.00  0.00    -0.207 NA
ATOM     18  N   UNL A   1      32.811  19.196  26.355  1.00  0.00    -0.255 N 
ATOM     19  H   UNL A   1      32.742  19.237  27.336  1.00  0.00     0.192 HD
BRANCH  15  20
ATOM     20  C   UNL A   1      32.800  17.668  23.190  1.00  0.00     0.076 C 
ATOM     21  C   UNL A   1      34.052  16.800  23.184  1.00  0.00     0.012 C 
ENDBRANCH  15  20
ENDBRANCH  12  14
ENDBRANCH  10  12
ENDBRANCH   6  10
ENDBRANCH   3   5
ENDBRANCH   2   3
ENDBRANCH   1   2
BRANCH   1  22
ATOM     22  C   UNL A   1      37.698  20.972  24.717  1.00  0.00     0.275 C 
BRANCH  22  23
ATOM     23  O   UNL A   1      38.037  21.511  26.009  1.00  0.00    -0.458 OA
BRANCH  23  24
ATOM     24  C   UNL A   1      39.321  21.305  26.378  1.00  0.00     0.338 C 
ATOM     25  O   UNL A   1      39.945  20.262  26.328  1.00  0.00    -0.246 OA
BRANCH  24  26
ATOM     26  C   UNL A   1      39.931  22.562  26.824  1.00  0.00     0.060 A 
ATOM     27  C   UNL A   1      39.478  23.765  26.278  1.00  0.00     0.016 A 
ATOM     28  C   UNL A   1      41.036  22.535  27.674  1.00  0.00     0.016 A 
ATOM     29  C   UNL A   1      40.141  24.953  26.568  1.00  0.00     0.010 A 
ATOM     30  C   UNL A   1      41.686  23.732  27.986  1.00  0.00     0.010 A 
ATOM     31  C   UNL A   1      41.250  24.946  27.427  1.00  0.00    -0.014 A 
BRANCH  31  32
ATOM     32  C   UNL A   1      41.942  26.213  27.757  1.00  0.00     0.031 A 
ATOM     33  C   UNL A   1      41.250  27.271  28.565  1.00  0.00     0.074 A 
ATOM     34  C   UNL A   1      43.195  26.409  27.306  1.00  0.00     0.049 A 
ATOM     35  N   UNL A   1      41.650  28.482  28.857  1.00  0.00    -0.248 NA
ATOM     36  C   UNL A   1      39.930  26.922  29.115  1.00  0.00     0.031 C 
ATOM     37  C   UNL A   1      43.974  25.438  26.537  1.00  0.00     0.029 A 
ATOM     38  N   UNL A   1      44.029  27.492  27.423  1.00  0.00    -0.354 N 
ATOM     39  C   UNL A   1      40.624  29.051  29.599  1.00  0.00     0.074 A 
ATOM     40  C   UNL A   1      39.580  28.055  29.712  1.00  0.00     0.031 C 
ATOM     41  C   UNL A   1      45.174  25.966  26.253  1.00  0.00     0.029 A 
ATOM     42  C   UNL A   1      45.228  27.328  26.774  1.00  0.00     0.049 A 
ATOM     43  H   UNL A   1      43.791  28.306  27.923  1.00  0.00     0.167 HD
ATOM     44  C   UNL A   1      40.564  30.297  30.130  1.00  0.00     0.037 A 
ATOM     45  C   UNL A   1      46.244  28.193  26.595  1.00  0.00     0.037 A 
ATOM     46  C   UNL A   1      41.619  31.271  30.035  1.00  0.00     0.049 A 
ATOM     47  C   UNL A   1      46.134  29.577  27.168  1.00  0.00     0.074 A 
ATOM     48  C   UNL A   1      41.670  32.546  30.571  1.00  0.00     0.029 A 
ATOM     49  N   UNL A   1      42.814  31.076  29.356  1.00  0.00    -0.354 N 
ATOM     50  N   UNL A   1      45.162  30.105  27.870  1.00  0.00    -0.248 NA
ATOM     51  C   UNL A   1      47.258  30.488  26.915  1.00  0.00     0.031 C 
ATOM     52  C   UNL A   1      42.879  33.137  30.186  1.00  0.00     0.029 A 
ATOM     53  C   UNL A   1      43.598  32.215  29.442  1.00  0.00     0.049 A 
ATOM     54  H   UNL A   1      43.067  30.250  28.884  1.00  0.00     0.167 HD
ATOM     55  C   UNL A   1      45.561  31.403  28.158  1.00  0.00     0.074 A 
ATOM     56  C   UNL A   1      46.871  31.577  27.565  1.00  0.00     0.031 C 
ATOM     57  C   UNL A   1      44.900  32.364  28.847  1.00  0.00     0.037 A 
BRANCH  44  58
ATOM     58  C   UNL A   1      39.303  30.692  30.839  1.00  0.00     0.064 A 
ATOM     59  C   UNL A   1      38.210  31.238  30.152  1.00  0.00     0.173 A 
ATOM     60  C   UNL A   1      39.169  30.468  32.218  1.00  0.00     0.173 A 
ATOM     61  F   UNL A   1      38.291  31.481  28.836  1.00  0.00    -0.203 F 
ATOM     62  C   UNL A   1      37.033  31.561  30.824  1.00  0.00     0.198 A 
ATOM     63  C   UNL A   1      37.984  30.771  32.882  1.00  0.00     0.198 A 
ATOM     64  F   UNL A   1      40.186  29.944  32.919  1.00  0.00    -0.203 F 
ATOM     65  F   UNL A   1      36.009  32.109  30.156  1.00  0.00    -0.200 F 
ATOM     66  C   UNL A   1      36.918  31.321  32.186  1.00  0.00     0.200 A 
ATOM     67  F   UNL A   1      37.874  30.531  34.196  1.00  0.00    -0.200 F 
ATOM     68  F   UNL A   1      35.782  31.623  32.829  1.00  0.00    -0.200 F 
ENDBRANCH  44  58
BRANCH  45  69
ATOM     69  C   UNL A   1      47.441  27.774  25.824  1.00  0.00     0.064 A 
ATOM     70  C   UNL A   1      47.439  27.798  24.424  1.00  0.00     0.173 A 
ATOM     71  C   UNL A   1      48.613  27.355  26.470  1.00  0.00     0.173 A 
ATOM     72  F   UNL A   1      46.333  28.169  23.763  1.00  0.00    -0.203 F 
ATOM     73  C   UNL A   1      48.560  27.407  23.696  1.00  0.00     0.198 A 
ATOM     74  C   UNL A   1      49.744  26.990  25.742  1.00  0.00     0.198 A 
ATOM     75  F   UNL A   1      48.665  27.317  27.810  1.00  0.00    -0.203 F 
ATOM     76  F   UNL A   1      48.520  27.404  22.357  1.00  0.00    -0.200 F 
ATOM     77  C   UNL A   1      49.714  27.010  24.356  1.00  0.00     0.200 A 
ATOM     78  F   UNL A   1      50.860  26.619  26.384  1.00  0.00    -0.200 F 
ATOM     79  F   UNL A   1      50.796  26.641  23.657  1.00  0.00    -0.200 F 
ENDBRANCH  45  69
BRANCH  57  80
ATOM     80  C   UNL A   1      45.601  33.678  29.017  1.00  0.00     0.064 A 
ATOM     81  C   UNL A   1      45.420  34.727  28.104  1.00  0.00     0.173 A 
ATOM     82  C   UNL A   1      46.443  33.896  30.118  1.00  0.00     0.173 A 
ATOM     83  F   UNL A   1      44.639  34.556  27.027  1.00  0.00    -0.203 F 
ATOM     84  C   UNL A   1      46.074  35.943  28.278  1.00  0.00     0.198 A 
ATOM     85  C   UNL A   1      47.077  35.122  30.300  1.00  0.00     0.198 A 
ATOM     86  F   UNL A   1      46.645  32.924  31.019  1.00  0.00    -0.203 F 
ATOM     87  F   UNL A   1      45.920  36.918  27.371  1.00  0.00    -0.200 F 
ATOM     88  C   UNL A   1      46.897  36.141  29.376  1.00  0.00     0.200 A 
ATOM     89  F   UNL A   1      47.867  35.314  31.365  1.00  0.00    -0.200 F 
ATOM     90  F   UNL A   1      47.526  37.313  29.541  1.00  0.00    -0.200 F 
ENDBRANCH  57  80
ENDBRANCH  31  32
ENDBRANCH  24  26
ENDBRANCH  23  24
ENDBRANCH  22  23
ENDBRANCH   1  22
TORSDOF 15
ENDMDL
