MODEL 1
REMARK VINA RESULT:     -12.3      0.000      0.000
REMARK SMILES Cc1nsc(NC[C@@H]2C[C@H]3CC[C@@H]2C3)c1C(=O)OCCOC(=O)c1ccc(-c2c3nc(c(-c4c(F)c(F)c(F)c(F)c4F)c4ccc([nH]4)c(-c4c(F)c(F)c(F)c(F)c4F)c4nc(c(-c5c(F)c(F)c(F)c(F)c5F)c5ccc2[nH]5)C=C4)C=C3)cc1
REMARK SMILES IDX 19 1 18 2 16 3 17 4 15 5 1 6 2 7 3 8 4 9 5 10 6 11 7 13 8 14
REMARK SMILES IDX 9 15 13 16 10 17 12 18 14 19 11 20 20 21 21 22 22 23 23 24
REMARK SMILES IDX 24 25 25 26 86 27 26 28 85 29 27 30 28 31 29 32 79 33 30 34
REMARK SMILES IDX 84 35 78 36 80 37 31 38 83 39 77 40 76 41 32 43 64 44 44 45
REMARK SMILES IDX 63 46 45 47 48 48 62 49 81 50 46 51 47 52 61 54 82 55 49 56
REMARK SMILES IDX 33 57 34 58 42 59 35 60 36 61 40 62 43 63 37 64 38 65 41 66
REMARK SMILES IDX 39 67 65 68 66 69 74 70 67 71 68 72 72 73 75 74 69 75 70 76
REMARK SMILES IDX 73 77 71 78 50 79 51 80 59 81 52 82 53 83 57 84 60 85 54 86
REMARK SMILES IDX 55 87 58 88 56 89
REMARK H PARENT 6 12 80 42 48 53
REMARK Flexibility Score: inf
ROOT
ATOM      1  C   UNL A   1      37.109  21.363  25.232  1.00  0.00     0.275 C 
ENDROOT
BRANCH   1   2
ATOM      2  O   UNL A   1      36.376  22.503  25.707  1.00  0.00    -0.458 OA
BRANCH   2   3
ATOM      3  C   UNL A   1      35.052  22.293  25.980  1.00  0.00     0.343 C 
ATOM      4  O   UNL A   1      34.655  21.717  26.983  1.00  0.00    -0.246 OA
BRANCH   3   5
ATOM      5  C   UNL A   1      34.161  22.895  24.990  1.00  0.00     0.117 A 
ATOM      6  C   UNL A   1      34.406  25.442  25.588  1.00  0.00     0.069 C 
ATOM      7  C   UNL A   1      33.870  24.297  24.796  1.00  0.00     0.068 A 
ATOM      8  N   UNL A   1      33.028  24.590  23.807  1.00  0.00    -0.195 NA
ATOM      9  S   UNL A   1      32.504  23.192  23.116  1.00  0.00    -0.018 S 
ATOM     10  C   UNL A   1      33.409  22.119  24.107  1.00  0.00     0.124 A 
BRANCH  10  11
ATOM     11  N   UNL A   1      33.376  20.757  24.056  1.00  0.00    -0.375 N 
ATOM     12  H   UNL A   1      34.042  20.313  23.482  1.00  0.00     0.161 HD
BRANCH  11  13
ATOM     13  C   UNL A   1      32.447  19.904  24.774  1.00  0.00     0.117 C 
BRANCH  13  14
ATOM     14  C   UNL A   1      33.187  18.621  25.192  1.00  0.00     0.012 C 
ATOM     15  C   UNL A   1      34.622  18.539  24.626  1.00  0.00     0.009 C 
ATOM     16  C   UNL A   1      32.537  17.325  24.639  1.00  0.00    -0.006 C 
ATOM     17  C   UNL A   1      34.657  17.149  23.975  1.00  0.00    -0.011 C 
ATOM     18  C   UNL A   1      33.060  16.138  25.468  1.00  0.00     0.004 C 
ATOM     19  C   UNL A   1      33.279  17.101  23.319  1.00  0.00     0.007 C 
ATOM     20  C   UNL A   1      34.542  16.073  25.070  1.00  0.00     0.004 C 
ENDBRANCH  13  14
ENDBRANCH  11  13
ENDBRANCH  10  11
ENDBRANCH   3   5
ENDBRANCH   2   3
ENDBRANCH   1   2
BRANCH   1  21
ATOM     21  C   UNL A   1      38.576  21.451  25.636  1.00  0.00     0.275 C 
BRANCH  21  22
ATOM     22  O   UNL A   1      38.839  22.574  26.482  1.00  0.00    -0.458 OA
BRANCH  22  23
ATOM     23  C   UNL A   1      40.130  22.718  26.854  1.00  0.00     0.338 C 
ATOM     24  O   UNL A   1      40.927  21.829  27.103  1.00  0.00    -0.246 OA
BRANCH  23  25
ATOM     25  C   UNL A   1      40.406  24.136  27.115  1.00  0.00     0.060 A 
ATOM     26  C   UNL A   1      41.348  24.454  28.096  1.00  0.00     0.016 A 
ATOM     27  C   UNL A   1      39.584  25.121  26.547  1.00  0.00     0.016 A 
ATOM     28  C   UNL A   1      41.392  25.751  28.578  1.00  0.00     0.010 A 
ATOM     29  C   UNL A   1      39.637  26.416  27.025  1.00  0.00     0.010 A 
ATOM     30  C   UNL A   1      40.502  26.714  28.075  1.00  0.00    -0.014 A 
BRANCH  30  31
ATOM     31  C   UNL A   1      40.590  28.068  28.608  1.00  0.00     0.031 A 
ATOM     32  C   UNL A   1      41.739  28.851  28.088  1.00  0.00     0.074 A 
ATOM     33  C   UNL A   1      39.663  28.627  29.411  1.00  0.00     0.049 A 
ATOM     34  N   UNL A   1      42.698  29.396  28.761  1.00  0.00    -0.248 NA
ATOM     35  C   UNL A   1      41.894  28.953  26.628  1.00  0.00     0.031 C 
ATOM     36  C   UNL A   1      38.352  28.083  29.776  1.00  0.00     0.029 A 
ATOM     37  N   UNL A   1      39.665  29.861  30.001  1.00  0.00    -0.354 N 
ATOM     38  C   UNL A   1      43.497  30.046  27.826  1.00  0.00     0.074 A 
ATOM     39  C   UNL A   1      43.028  29.646  26.526  1.00  0.00     0.031 C 
ATOM     40  C   UNL A   1      37.608  29.058  30.343  1.00  0.00     0.029 A 
ATOM     41  C   UNL A   1      38.434  30.243  30.510  1.00  0.00     0.049 A 
ATOM     42  H   UNL A   1      40.468  30.427  30.058  1.00  0.00     0.167 HD
ATOM     43  C   UNL A   1      44.339  31.044  28.202  1.00  0.00     0.037 A 
ATOM     44  C   UNL A   1      38.096  31.455  31.007  1.00  0.00     0.037 A 
ATOM     45  C   UNL A   1      44.591  31.018  29.617  1.00  0.00     0.049 A 
ATOM     46  C   UNL A   1      39.336  32.153  31.413  1.00  0.00     0.074 A 
ATOM     47  C   UNL A   1      45.340  30.254  30.482  1.00  0.00     0.029 A 
ATOM     48  N   UNL A   1      43.704  31.736  30.371  1.00  0.00    -0.354 N 
ATOM     49  N   UNL A   1      40.071  31.796  32.428  1.00  0.00    -0.248 NA
ATOM     50  C   UNL A   1      39.947  33.124  30.511  1.00  0.00     0.031 C 
ATOM     51  C   UNL A   1      44.714  30.371  31.758  1.00  0.00     0.029 A 
ATOM     52  C   UNL A   1      43.608  31.208  31.631  1.00  0.00     0.049 A 
ATOM     53  H   UNL A   1      43.204  32.522  30.052  1.00  0.00     0.167 HD
ATOM     54  C   UNL A   1      41.353  32.150  32.059  1.00  0.00     0.074 A 
ATOM     55  C   UNL A   1      41.192  33.125  30.991  1.00  0.00     0.031 C 
ATOM     56  C   UNL A   1      42.415  31.380  32.427  1.00  0.00     0.037 A 
BRANCH  43  57
ATOM     57  C   UNL A   1      44.570  32.302  27.396  1.00  0.00     0.064 A 
ATOM     58  C   UNL A   1      45.794  32.464  26.712  1.00  0.00     0.173 A 
ATOM     59  C   UNL A   1      43.799  33.474  27.547  1.00  0.00     0.173 A 
ATOM     60  F   UNL A   1      46.617  31.419  26.531  1.00  0.00    -0.203 F 
ATOM     61  C   UNL A   1      46.240  33.717  26.285  1.00  0.00     0.198 A 
ATOM     62  C   UNL A   1      44.226  34.715  27.074  1.00  0.00     0.198 A 
ATOM     63  F   UNL A   1      42.664  33.493  28.257  1.00  0.00    -0.203 F 
ATOM     64  F   UNL A   1      47.464  33.841  25.752  1.00  0.00    -0.200 F 
ATOM     65  C   UNL A   1      45.460  34.842  26.473  1.00  0.00     0.200 A 
ATOM     66  F   UNL A   1      43.465  35.798  27.287  1.00  0.00    -0.200 F 
ATOM     67  F   UNL A   1      45.913  36.053  26.123  1.00  0.00    -0.200 F 
ENDBRANCH  43  57
BRANCH  44  68
ATOM     68  C   UNL A   1      36.782  32.132  31.013  1.00  0.00     0.064 A 
ATOM     69  C   UNL A   1      36.008  32.210  32.183  1.00  0.00     0.173 A 
ATOM     70  C   UNL A   1      36.389  32.956  29.941  1.00  0.00     0.173 A 
ATOM     71  F   UNL A   1      36.336  31.482  33.260  1.00  0.00    -0.203 F 
ATOM     72  C   UNL A   1      34.928  33.090  32.287  1.00  0.00     0.198 A 
ATOM     73  C   UNL A   1      35.305  33.828  30.045  1.00  0.00     0.198 A 
ATOM     74  F   UNL A   1      37.108  33.002  28.810  1.00  0.00    -0.203 F 
ATOM     75  F   UNL A   1      34.257  33.188  33.443  1.00  0.00    -0.200 F 
ATOM     76  C   UNL A   1      34.585  33.907  31.223  1.00  0.00     0.200 A 
ATOM     77  F   UNL A   1      35.004  34.637  29.019  1.00  0.00    -0.200 F 
ATOM     78  F   UNL A   1      33.593  34.800  31.347  1.00  0.00    -0.200 F 
ENDBRANCH  44  68
BRANCH  56  79
ATOM     79  C   UNL A   1      42.229  30.508  33.628  1.00  0.00     0.064 A 
ATOM     80  C   UNL A   1      42.404  30.940  34.953  1.00  0.00     0.173 A 
ATOM     81  C   UNL A   1      41.809  29.187  33.423  1.00  0.00     0.173 A 
ATOM     82  F   UNL A   1      42.722  32.212  35.227  1.00  0.00    -0.203 F 
ATOM     83  C   UNL A   1      42.221  30.064  36.021  1.00  0.00     0.198 A 
ATOM     84  C   UNL A   1      41.591  28.327  34.493  1.00  0.00     0.198 A 
ATOM     85  F   UNL A   1      41.584  28.738  32.178  1.00  0.00    -0.203 F 
ATOM     86  F   UNL A   1      42.427  30.486  37.278  1.00  0.00    -0.200 F 
ATOM     87  C   UNL A   1      41.812  28.760  35.791  1.00  0.00     0.200 A 
ATOM     88  F   UNL A   1      41.154  27.080  34.267  1.00  0.00    -0.200 F 
ATOM     89  F   UNL A   1      41.613  27.925  36.819  1.00  0.00    -0.200 F 
ENDBRANCH  56  79
ENDBRANCH  30  31
ENDBRANCH  23  25
ENDBRANCH  22  23
ENDBRANCH  21  22
ENDBRANCH   1  21
TORSDOF 14
ENDMDL
MODEL 2
REMARK VINA RESULT:     -12.3      4.390      9.765
REMARK SMILES Cc1nsc(NC[C@@H]2C[C@H]3CC[C@@H]2C3)c1C(=O)OCCOC(=O)c1ccc(-c2c3nc(c(-c4c(F)c(F)c(F)c(F)c4F)c4ccc([nH]4)c(-c4c(F)c(F)c(F)c(F)c4F)c4nc(c(-c5c(F)c(F)c(F)c(F)c5F)c5ccc2[nH]5)C=C4)C=C3)cc1
REMARK SMILES IDX 19 1 18 2 16 3 17 4 15 5 1 6 2 7 3 8 4 9 5 10 6 11 7 13 8 14
REMARK SMILES IDX 9 15 13 16 10 17 12 18 14 19 11 20 20 21 21 22 22 23 23 24
REMARK SMILES IDX 24 25 25 26 86 27 26 28 85 29 27 30 28 31 29 32 79 33 30 34
REMARK SMILES IDX 84 35 78 36 80 37 31 38 83 39 77 40 76 41 32 43 64 44 44 45
REMARK SMILES IDX 63 46 45 47 48 48 62 49 81 50 46 51 47 52 61 54 82 55 49 56
REMARK SMILES IDX 33 57 34 58 42 59 35 60 36 61 40 62 43 63 37 64 38 65 41 66
REMARK SMILES IDX 39 67 65 68 66 69 74 70 67 71 68 72 72 73 75 74 69 75 70 76
REMARK SMILES IDX 73 77 71 78 50 79 51 80 59 81 52 82 53 83 57 84 60 85 54 86
REMARK SMILES IDX 55 87 58 88 56 89
REMARK H PARENT 6 12 80 42 48 53
REMARK Flexibility Score: inf
ROOT
ATOM      1  C   UNL A   1      33.090  29.457  26.648  1.00  0.00     0.275 C 
ENDROOT
BRANCH   1   2
ATOM      2  O   UNL A   1      32.857  29.539  25.233  1.00  0.00    -0.458 OA
BRANCH   2   3
ATOM      3  C   UNL A   1      33.235  28.446  24.500  1.00  0.00     0.343 C 
ATOM      4  O   UNL A   1      34.171  28.456  23.713  1.00  0.00    -0.246 OA
BRANCH   3   5
ATOM      5  C   UNL A   1      32.453  27.252  24.810  1.00  0.00     0.117 A 
ATOM      6  C   UNL A   1      34.350  25.611  25.595  1.00  0.00     0.069 C 
ATOM      7  C   UNL A   1      32.934  25.983  25.308  1.00  0.00     0.068 A 
ATOM      8  N   UNL A   1      32.009  25.049  25.525  1.00  0.00    -0.195 NA
ATOM      9  S   UNL A   1      30.538  25.636  25.079  1.00  0.00    -0.018 S 
ATOM     10  C   UNL A   1      31.076  27.193  24.589  1.00  0.00     0.124 A 
BRANCH  10  11
ATOM     11  N   UNL A   1      30.302  28.181  24.057  1.00  0.00    -0.375 N 
ATOM     12  H   UNL A   1      29.938  28.850  24.680  1.00  0.00     0.161 HD
BRANCH  11  13
ATOM     13  C   UNL A   1      29.967  28.332  22.653  1.00  0.00     0.117 C 
BRANCH  13  14
ATOM     14  C   UNL A   1      29.640  29.812  22.388  1.00  0.00     0.012 C 
ATOM     15  C   UNL A   1      29.594  30.662  23.678  1.00  0.00     0.009 C 
ATOM     16  C   UNL A   1      28.223  30.035  21.793  1.00  0.00    -0.006 C 
ATOM     17  C   UNL A   1      28.242  31.381  23.568  1.00  0.00    -0.011 C 
ATOM     18  C   UNL A   1      28.186  31.437  21.160  1.00  0.00     0.004 C 
ATOM     19  C   UNL A   1      27.357  30.258  23.035  1.00  0.00     0.007 C 
ATOM     20  C   UNL A   1      28.283  32.363  22.383  1.00  0.00     0.004 C 
ENDBRANCH  13  14
ENDBRANCH  11  13
ENDBRANCH  10  11
ENDBRANCH   3   5
ENDBRANCH   2   3
ENDBRANCH   1   2
BRANCH   1  21
ATOM     21  C   UNL A   1      33.278  30.844  27.250  1.00  0.00     0.275 C 
BRANCH  21  22
ATOM     22  O   UNL A   1      34.657  31.215  27.337  1.00  0.00    -0.458 OA
BRANCH  22  23
ATOM     23  C   UNL A   1      35.040  31.707  28.536  1.00  0.00     0.338 C 
ATOM     24  O   UNL A   1      34.590  32.687  29.107  1.00  0.00    -0.246 OA
BRANCH  23  25
ATOM     25  C   UNL A   1      36.243  30.999  28.991  1.00  0.00     0.060 A 
ATOM     26  C   UNL A   1      37.394  31.749  29.241  1.00  0.00     0.016 A 
ATOM     27  C   UNL A   1      36.280  29.597  28.956  1.00  0.00     0.016 A 
ATOM     28  C   UNL A   1      38.605  31.088  29.356  1.00  0.00     0.010 A 
ATOM     29  C   UNL A   1      37.489  28.941  29.080  1.00  0.00     0.010 A 
ATOM     30  C   UNL A   1      38.654  29.690  29.226  1.00  0.00    -0.014 A 
BRANCH  30  31
ATOM     31  C   UNL A   1      39.949  29.037  29.362  1.00  0.00     0.031 A 
ATOM     32  C   UNL A   1      40.401  28.873  30.766  1.00  0.00     0.074 A 
ATOM     33  C   UNL A   1      40.646  28.515  28.332  1.00  0.00     0.049 A 
ATOM     34  N   UNL A   1      41.483  29.324  31.310  1.00  0.00    -0.248 NA
ATOM     35  C   UNL A   1      39.485  28.208  31.707  1.00  0.00     0.031 C 
ATOM     36  C   UNL A   1      40.202  28.351  26.945  1.00  0.00     0.029 A 
ATOM     37  N   UNL A   1      41.880  27.925  28.338  1.00  0.00    -0.354 N 
ATOM     38  C   UNL A   1      41.465  28.870  32.625  1.00  0.00     0.074 A 
ATOM     39  C   UNL A   1      40.167  28.292  32.850  1.00  0.00     0.031 C 
ATOM     40  C   UNL A   1      41.056  27.528  26.298  1.00  0.00     0.029 A 
ATOM     41  C   UNL A   1      42.173  27.225  27.178  1.00  0.00     0.049 A 
ATOM     42  H   UNL A   1      42.503  27.992  29.096  1.00  0.00     0.167 HD
ATOM     43  C   UNL A   1      42.609  28.802  33.356  1.00  0.00     0.037 A 
ATOM     44  C   UNL A   1      43.240  26.423  26.956  1.00  0.00     0.037 A 
ATOM     45  C   UNL A   1      43.649  29.613  32.784  1.00  0.00     0.049 A 
ATOM     46  C   UNL A   1      44.308  26.796  27.910  1.00  0.00     0.074 A 
ATOM     47  C   UNL A   1      43.941  30.957  32.714  1.00  0.00     0.029 A 
ATOM     48  N   UNL A   1      44.426  28.978  31.855  1.00  0.00    -0.354 N 
ATOM     49  N   UNL A   1      44.972  27.915  27.854  1.00  0.00    -0.248 NA
ATOM     50  C   UNL A   1      44.478  26.030  29.140  1.00  0.00     0.031 C 
ATOM     51  C   UNL A   1      44.753  31.126  31.554  1.00  0.00     0.029 A 
ATOM     52  C   UNL A   1      44.934  29.879  30.957  1.00  0.00     0.049 A 
ATOM     53  H   UNL A   1      44.596  28.009  31.833  1.00  0.00     0.167 HD
ATOM     54  C   UNL A   1      45.279  28.193  29.171  1.00  0.00     0.074 A 
ATOM     55  C   UNL A   1      45.136  26.929  29.875  1.00  0.00     0.031 C 
ATOM     56  C   UNL A   1      45.300  29.480  29.618  1.00  0.00     0.037 A 
BRANCH  43  57
ATOM     57  C   UNL A   1      42.939  27.674  34.306  1.00  0.00     0.064 A 
ATOM     58  C   UNL A   1      43.328  26.424  33.778  1.00  0.00     0.173 A 
ATOM     59  C   UNL A   1      42.563  27.669  35.666  1.00  0.00     0.173 A 
ATOM     60  F   UNL A   1      43.684  26.309  32.490  1.00  0.00    -0.203 F 
ATOM     61  C   UNL A   1      43.268  25.252  34.537  1.00  0.00     0.198 A 
ATOM     62  C   UNL A   1      42.553  26.505  36.433  1.00  0.00     0.198 A 
ATOM     63  F   UNL A   1      42.079  28.759  36.275  1.00  0.00    -0.203 F 
ATOM     64  F   UNL A   1      43.527  24.072  33.958  1.00  0.00    -0.200 F 
ATOM     65  C   UNL A   1      42.873  25.293  35.862  1.00  0.00     0.200 A 
ATOM     66  F   UNL A   1      42.145  26.561  37.709  1.00  0.00    -0.200 F 
ATOM     67  F   UNL A   1      42.753  24.163  36.572  1.00  0.00    -0.200 F 
ENDBRANCH  43  57
BRANCH  44  68
ATOM     68  C   UNL A   1      43.355  25.238  26.080  1.00  0.00     0.064 A 
ATOM     69  C   UNL A   1      44.462  25.062  25.233  1.00  0.00     0.173 A 
ATOM     70  C   UNL A   1      42.519  24.120  26.263  1.00  0.00     0.173 A 
ATOM     71  F   UNL A   1      45.325  26.069  25.033  1.00  0.00    -0.203 F 
ATOM     72  C   UNL A   1      44.738  23.830  24.637  1.00  0.00     0.198 A 
ATOM     73  C   UNL A   1      42.790  22.893  25.659  1.00  0.00     0.198 A 
ATOM     74  F   UNL A   1      41.478  24.172  27.108  1.00  0.00    -0.203 F 
ATOM     75  F   UNL A   1      45.842  23.682  23.891  1.00  0.00    -0.200 F 
ATOM     76  C   UNL A   1      43.909  22.743  24.860  1.00  0.00     0.200 A 
ATOM     77  F   UNL A   1      41.999  21.840  25.910  1.00  0.00    -0.200 F 
ATOM     78  F   UNL A   1      44.211  21.544  24.343  1.00  0.00    -0.200 F 
ENDBRANCH  44  68
BRANCH  56  79
ATOM     79  C   UNL A   1      45.515  30.546  28.591  1.00  0.00     0.064 A 
ATOM     80  C   UNL A   1      44.486  31.142  27.844  1.00  0.00     0.173 A 
ATOM     81  C   UNL A   1      46.820  31.013  28.392  1.00  0.00     0.173 A 
ATOM     82  F   UNL A   1      43.205  30.805  28.042  1.00  0.00    -0.203 F 
ATOM     83  C   UNL A   1      44.767  32.124  26.896  1.00  0.00     0.198 A 
ATOM     84  C   UNL A   1      47.092  32.020  27.472  1.00  0.00     0.198 A 
ATOM     85  F   UNL A   1      47.833  30.507  29.112  1.00  0.00    -0.203 F 
ATOM     86  F   UNL A   1      43.774  32.657  26.168  1.00  0.00    -0.200 F 
ATOM     87  C   UNL A   1      46.068  32.564  26.714  1.00  0.00     0.200 A 
ATOM     88  F   UNL A   1      48.346  32.471  27.330  1.00  0.00    -0.200 F 
ATOM     89  F   UNL A   1      46.334  33.526  25.819  1.00  0.00    -0.200 F 
ENDBRANCH  56  79
ENDBRANCH  30  31
ENDBRANCH  23  25
ENDBRANCH  22  23
ENDBRANCH  21  22
ENDBRANCH   1  21
TORSDOF 14
ENDMDL
MODEL 3
REMARK VINA RESULT:     -12.0      4.558      9.969
REMARK SMILES Cc1nsc(NC[C@@H]2C[C@H]3CC[C@@H]2C3)c1C(=O)OCCOC(=O)c1ccc(-c2c3nc(c(-c4c(F)c(F)c(F)c(F)c4F)c4ccc([nH]4)c(-c4c(F)c(F)c(F)c(F)c4F)c4nc(c(-c5c(F)c(F)c(F)c(F)c5F)c5ccc2[nH]5)C=C4)C=C3)cc1
REMARK SMILES IDX 19 1 18 2 16 3 17 4 15 5 1 6 2 7 3 8 4 9 5 10 6 11 7 13 8 14
REMARK SMILES IDX 9 15 13 16 10 17 12 18 14 19 11 20 20 21 21 22 22 23 23 24
REMARK SMILES IDX 24 25 25 26 86 27 26 28 85 29 27 30 28 31 29 32 79 33 30 34
REMARK SMILES IDX 84 35 78 36 80 37 31 38 83 39 77 40 76 41 32 43 64 44 44 45
REMARK SMILES IDX 63 46 45 47 48 48 62 49 81 50 46 51 47 52 61 54 82 55 49 56
REMARK SMILES IDX 33 57 34 58 42 59 35 60 36 61 40 62 43 63 37 64 38 65 41 66
REMARK SMILES IDX 39 67 65 68 66 69 74 70 67 71 68 72 72 73 75 74 69 75 70 76
REMARK SMILES IDX 73 77 71 78 50 79 51 80 59 81 52 82 53 83 57 84 60 85 54 86
REMARK SMILES IDX 55 87 58 88 56 89
REMARK H PARENT 6 12 80 42 48 53
REMARK Flexibility Score: inf
ROOT
ATOM      1  C   UNL A   1      34.010  29.184  27.071  1.00  0.00     0.275 C 
ENDROOT
BRANCH   1   2
ATOM      2  O   UNL A   1      33.231  28.879  25.903  1.00  0.00    -0.458 OA
BRANCH   2   3
ATOM      3  C   UNL A   1      32.230  27.961  26.074  1.00  0.00     0.343 C 
ATOM      4  O   UNL A   1      31.441  27.993  27.007  1.00  0.00    -0.246 OA
BRANCH   3   5
ATOM      5  C   UNL A   1      32.156  26.987  24.987  1.00  0.00     0.117 A 
ATOM      6  C   UNL A   1      34.318  25.566  25.449  1.00  0.00     0.069 C 
ATOM      7  C   UNL A   1      33.074  25.908  24.701  1.00  0.00     0.068 A 
ATOM      8  N   UNL A   1      32.773  25.146  23.651  1.00  0.00    -0.195 NA
ATOM      9  S   UNL A   1      31.415  25.734  22.931  1.00  0.00    -0.018 S 
ATOM     10  C   UNL A   1      31.153  27.039  24.018  1.00  0.00     0.124 A 
BRANCH  10  11
ATOM     11  N   UNL A   1      30.161  27.970  23.932  1.00  0.00    -0.375 N 
ATOM     12  H   UNL A   1      29.956  28.484  24.747  1.00  0.00     0.161 HD
BRANCH  11  13
ATOM     13  C   UNL A   1      29.380  28.270  22.746  1.00  0.00     0.117 C 
BRANCH  13  14
ATOM     14  C   UNL A   1      29.412  29.791  22.515  1.00  0.00     0.012 C 
ATOM     15  C   UNL A   1      29.787  30.588  23.785  1.00  0.00     0.009 C 
ATOM     16  C   UNL A   1      28.028  30.389  22.145  1.00  0.00    -0.006 C 
ATOM     17  C   UNL A   1      28.668  31.635  23.877  1.00  0.00    -0.011 C 
ATOM     18  C   UNL A   1      28.260  31.770  21.507  1.00  0.00     0.004 C 
ATOM     19  C   UNL A   1      27.450  30.794  23.503  1.00  0.00     0.007 C 
ATOM     20  C   UNL A   1      28.780  32.605  22.687  1.00  0.00     0.004 C 
ENDBRANCH  13  14
ENDBRANCH  11  13
ENDBRANCH  10  11
ENDBRANCH   3   5
ENDBRANCH   2   3
ENDBRANCH   1   2
BRANCH   1  21
ATOM     21  C   UNL A   1      33.949  30.671  27.394  1.00  0.00     0.275 C 
BRANCH  21  22
ATOM     22  O   UNL A   1      35.245  31.231  27.626  1.00  0.00    -0.458 OA
BRANCH  22  23
ATOM     23  C   UNL A   1      35.493  31.585  28.906  1.00  0.00     0.338 C 
ATOM     24  O   UNL A   1      34.979  32.499  29.529  1.00  0.00    -0.246 OA
BRANCH  23  25
ATOM     25  C   UNL A   1      36.642  30.821  29.408  1.00  0.00     0.060 A 
ATOM     26  C   UNL A   1      37.920  31.346  29.210  1.00  0.00     0.016 A 
ATOM     27  C   UNL A   1      36.457  29.509  29.871  1.00  0.00     0.016 A 
ATOM     28  C   UNL A   1      39.014  30.514  29.380  1.00  0.00     0.010 A 
ATOM     29  C   UNL A   1      37.550  28.685  30.049  1.00  0.00     0.010 A 
ATOM     30  C   UNL A   1      38.820  29.174  29.752  1.00  0.00    -0.014 A 
BRANCH  30  31
ATOM     31  C   UNL A   1      40.001  28.337  29.927  1.00  0.00     0.031 A 
ATOM     32  C   UNL A   1      40.466  28.232  31.333  1.00  0.00     0.074 A 
ATOM     33  C   UNL A   1      40.574  27.619  28.941  1.00  0.00     0.049 A 
ATOM     34  N   UNL A   1      41.622  28.554  31.813  1.00  0.00    -0.248 NA
ATOM     35  C   UNL A   1      39.487  27.811  32.348  1.00  0.00     0.031 C 
ATOM     36  C   UNL A   1      40.066  27.403  27.583  1.00  0.00     0.029 A 
ATOM     37  N   UNL A   1      41.700  26.844  28.981  1.00  0.00    -0.354 N 
ATOM     38  C   UNL A   1      41.575  28.230  33.166  1.00  0.00     0.074 A 
ATOM     39  C   UNL A   1      40.210  27.889  33.466  1.00  0.00     0.031 C 
ATOM     40  C   UNL A   1      40.759  26.399  27.003  1.00  0.00     0.029 A 
ATOM     41  C   UNL A   1      41.843  26.003  27.888  1.00  0.00     0.049 A 
ATOM     42  H   UNL A   1      42.349  26.880  29.719  1.00  0.00     0.167 HD
ATOM     43  C   UNL A   1      42.717  28.048  33.880  1.00  0.00     0.037 A 
ATOM     44  C   UNL A   1      42.763  25.024  27.726  1.00  0.00     0.037 A 
ATOM     45  C   UNL A   1      43.852  28.627  33.216  1.00  0.00     0.049 A 
ATOM     46  C   UNL A   1      43.906  25.309  28.622  1.00  0.00     0.074 A 
ATOM     47  C   UNL A   1      44.349  29.895  33.014  1.00  0.00     0.029 A 
ATOM     48  N   UNL A   1      44.490  27.795  32.339  1.00  0.00    -0.354 N 
ATOM     49  N   UNL A   1      44.735  26.298  28.448  1.00  0.00    -0.248 NA
ATOM     50  C   UNL A   1      43.993  24.641  29.916  1.00  0.00     0.031 C 
ATOM     51  C   UNL A   1      45.140  29.826  31.829  1.00  0.00     0.029 A 
ATOM     52  C   UNL A   1      45.105  28.517  31.351  1.00  0.00     0.049 A 
ATOM     53  H   UNL A   1      44.505  26.813  32.406  1.00  0.00     0.167 HD
ATOM     54  C   UNL A   1      45.124  26.642  29.728  1.00  0.00     0.074 A 
ATOM     55  C   UNL A   1      44.807  25.487  30.551  1.00  0.00     0.031 C 
ATOM     56  C   UNL A   1      45.360  27.945  30.050  1.00  0.00     0.037 A 
BRANCH  43  57
ATOM     57  C   UNL A   1      42.895  26.973  34.927  1.00  0.00     0.064 A 
ATOM     58  C   UNL A   1      43.125  27.352  36.267  1.00  0.00     0.173 A 
ATOM     59  C   UNL A   1      43.187  25.627  34.617  1.00  0.00     0.173 A 
ATOM     60  F   UNL A   1      42.902  28.613  36.667  1.00  0.00    -0.203 F 
ATOM     61  C   UNL A   1      43.677  26.469  37.199  1.00  0.00     0.198 A 
ATOM     62  C   UNL A   1      43.691  24.736  35.564  1.00  0.00     0.198 A 
ATOM     63  F   UNL A   1      43.111  25.152  33.368  1.00  0.00    -0.203 F 
ATOM     64  F   UNL A   1      43.994  26.909  38.425  1.00  0.00    -0.200 F 
ATOM     65  C   UNL A   1      43.967  25.164  36.845  1.00  0.00     0.200 A 
ATOM     66  F   UNL A   1      43.987  23.482  35.195  1.00  0.00    -0.200 F 
ATOM     67  F   UNL A   1      44.556  24.336  37.717  1.00  0.00    -0.200 F 
ENDBRANCH  43  57
BRANCH  44  68
ATOM     68  C   UNL A   1      42.663  23.761  26.965  1.00  0.00     0.064 A 
ATOM     69  C   UNL A   1      43.312  23.602  25.729  1.00  0.00     0.173 A 
ATOM     70  C   UNL A   1      42.159  22.593  27.567  1.00  0.00     0.173 A 
ATOM     71  F   UNL A   1      43.849  24.661  25.107  1.00  0.00    -0.203 F 
ATOM     72  C   UNL A   1      43.482  22.342  25.150  1.00  0.00     0.198 A 
ATOM     73  C   UNL A   1      42.322  21.337  26.983  1.00  0.00     0.198 A 
ATOM     74  F   UNL A   1      41.587  22.637  28.779  1.00  0.00    -0.203 F 
ATOM     75  F   UNL A   1      44.168  22.222  24.005  1.00  0.00    -0.200 F 
ATOM     76  C   UNL A   1      42.998  21.209  25.783  1.00  0.00     0.200 A 
ATOM     77  F   UNL A   1      41.878  20.245  27.622  1.00  0.00    -0.200 F 
ATOM     78  F   UNL A   1      43.221  19.995  25.262  1.00  0.00    -0.200 F 
ENDBRANCH  44  68
BRANCH  56  79
ATOM     79  C   UNL A   1      45.707  28.865  28.923  1.00  0.00     0.064 A 
ATOM     80  C   UNL A   1      47.003  29.032  28.410  1.00  0.00     0.173 A 
ATOM     81  C   UNL A   1      44.666  29.572  28.307  1.00  0.00     0.173 A 
ATOM     82  F   UNL A   1      48.033  28.325  28.893  1.00  0.00    -0.203 F 
ATOM     83  C   UNL A   1      47.250  29.917  27.362  1.00  0.00     0.198 A 
ATOM     84  C   UNL A   1      44.910  30.425  27.237  1.00  0.00     0.198 A 
ATOM     85  F   UNL A   1      43.402  29.414  28.730  1.00  0.00    -0.203 F 
ATOM     86  F   UNL A   1      48.501  30.089  26.909  1.00  0.00    -0.200 F 
ATOM     87  C   UNL A   1      46.204  30.610  26.775  1.00  0.00     0.200 A 
ATOM     88  F   UNL A   1      43.889  31.060  26.645  1.00  0.00    -0.200 F 
ATOM     89  F   UNL A   1      46.437  31.442  25.751  1.00  0.00    -0.200 F 
ENDBRANCH  56  79
ENDBRANCH  30  31
ENDBRANCH  23  25
ENDBRANCH  22  23
ENDBRANCH  21  22
ENDBRANCH   1  21
TORSDOF 14
ENDMDL
