MODEL 1
REMARK VINA RESULT:     -13.7      0.000      0.000
REMARK SMILES O=C1CCCC2=C1[C@H](c1ccc([N+](=O)[O-])cc1)CC(=O)N2c1ccccc1C(=O)OCCOC(=O)c1ccc(-c2c3nc(c(-c4c(F)c(F)c(F)c(F)c4F)c4ccc([nH]4)c(-c4c(F)c(F)c(F)c(F)c4F)c4nc(c(-c5c(F)c(F)c(F)c(F)c5F)c5ccc2[nH]5)C=C4)C=C3)cc1
REMARK SMILES IDX 31 1 30 2 28 3 29 4 27 5 22 6 23 7 24 8 26 9 25 10 21 11
REMARK SMILES IDX 1 12 2 13 3 14 7 15 4 16 6 17 8 18 5 19 18 20 19 21 20 22
REMARK SMILES IDX 9 23 10 24 17 25 11 26 16 27 12 28 13 29 14 30 15 31 32 32
REMARK SMILES IDX 33 33 34 34 35 35 36 36 37 37 98 38 38 39 97 40 39 41 40 42
REMARK SMILES IDX 41 43 91 44 42 45 96 46 90 47 92 48 43 49 95 50 89 51 88 52
REMARK SMILES IDX 44 54 76 55 56 56 75 57 57 58 60 59 74 60 93 61 58 62 59 63
REMARK SMILES IDX 73 65 94 66 61 67 45 68 46 69 54 70 47 71 48 72 52 73 55 74
REMARK SMILES IDX 49 75 50 76 53 77 51 78 77 79 78 80 86 81 79 82 80 83 84 84
REMARK SMILES IDX 87 85 81 86 82 87 85 88 83 89 62 90 63 91 71 92 64 93 65 94
REMARK SMILES IDX 69 95 72 96 66 97 67 98 70 99 68 100
REMARK H PARENT 92 53 60 64
REMARK Flexibility Score: inf
ROOT
ATOM      1  C   UNL A   1      32.458  28.301  27.625  1.00  0.00     0.275 C 
ENDROOT
BRANCH   1   2
ATOM      2  O   UNL A   1      32.102  27.288  26.661  1.00  0.00    -0.458 OA
BRANCH   2   3
ATOM      3  C   UNL A   1      32.805  27.301  25.503  1.00  0.00     0.340 C 
ATOM      4  O   UNL A   1      34.018  27.205  25.396  1.00  0.00    -0.246 OA
BRANCH   3   5
ATOM      5  C   UNL A   1      31.931  27.468  24.315  1.00  0.00     0.084 A 
ATOM      6  C   UNL A   1      31.693  26.459  23.365  1.00  0.00     0.063 A 
ATOM      7  C   UNL A   1      30.876  26.767  22.255  1.00  0.00     0.027 A 
ATOM      8  C   UNL A   1      30.290  28.025  22.106  1.00  0.00     0.002 A 
ATOM      9  C   UNL A   1      31.298  28.720  24.173  1.00  0.00     0.018 A 
ATOM     10  C   UNL A   1      30.497  29.002  23.069  1.00  0.00     0.001 A 
BRANCH   6  11
ATOM     11  N   UNL A   1      32.223  25.122  23.457  1.00  0.00    -0.284 N 
ATOM     12  O   UNL A   1      32.526  20.965  25.716  1.00  0.00    -0.294 OA
ATOM     13  C   UNL A   1      32.194  22.146  25.743  1.00  0.00     0.161 C 
ATOM     14  C   UNL A   1      31.396  22.719  26.881  1.00  0.00     0.081 C 
ATOM     15  C   UNL A   1      32.587  23.086  24.651  1.00  0.00     0.023 C 
ATOM     16  C   UNL A   1      30.189  23.402  26.279  1.00  0.00     0.015 C 
ATOM     17  C   UNL A   1      31.860  24.211  24.473  1.00  0.00     0.033 C 
ATOM     18  C   UNL A   1      33.727  22.674  23.757  1.00  0.00     0.064 C 
ATOM     19  C   UNL A   1      30.614  24.506  25.311  1.00  0.00     0.055 C 
ATOM     20  C   UNL A   1      33.558  23.328  22.390  1.00  0.00     0.114 C 
ATOM     21  C   UNL A   1      33.180  24.786  22.475  1.00  0.00     0.232 C 
ATOM     22  O   UNL A   1      33.654  25.577  21.655  1.00  0.00    -0.274 OA
BRANCH  18  23
ATOM     23  C   UNL A   1      35.106  22.842  24.404  1.00  0.00    -0.039 A 
ATOM     24  C   UNL A   1      36.186  21.970  24.184  1.00  0.00     0.011 A 
ATOM     25  C   UNL A   1      35.297  23.911  25.304  1.00  0.00     0.011 A 
ATOM     26  C   UNL A   1      37.403  22.146  24.859  1.00  0.00     0.086 A 
ATOM     27  C   UNL A   1      36.511  24.107  25.967  1.00  0.00     0.086 A 
ATOM     28  C   UNL A   1      37.558  23.212  25.751  1.00  0.00     0.269 A 
BRANCH  28  29
ATOM     29  N   UNL A   1      38.820  23.390  26.478  1.00  0.00     0.062 N 
ATOM     30  O   UNL A   1      39.111  24.532  26.858  1.00  0.00    -0.258 OA
ATOM     31  O   UNL A   1      39.517  22.383  26.673  1.00  0.00    -0.258 OA
ENDBRANCH  28  29
ENDBRANCH  18  23
ENDBRANCH   6  11
ENDBRANCH   3   5
ENDBRANCH   2   3
ENDBRANCH   1   2
BRANCH   1  32
ATOM     32  C   UNL A   1      32.063  29.693  27.149  1.00  0.00     0.275 C 
BRANCH  32  33
ATOM     33  O   UNL A   1      33.211  30.348  26.586  1.00  0.00    -0.458 OA
BRANCH  33  34
ATOM     34  C   UNL A   1      33.661  31.421  27.268  1.00  0.00     0.338 C 
ATOM     35  O   UNL A   1      33.082  32.475  27.485  1.00  0.00    -0.246 OA
BRANCH  34  36
ATOM     36  C   UNL A   1      34.987  31.115  27.812  1.00  0.00     0.060 A 
ATOM     37  C   UNL A   1      35.269  29.797  28.163  1.00  0.00     0.016 A 
ATOM     38  C   UNL A   1      35.893  32.129  28.104  1.00  0.00     0.016 A 
ATOM     39  C   UNL A   1      36.423  29.484  28.869  1.00  0.00     0.010 A 
ATOM     40  C   UNL A   1      37.090  31.807  28.750  1.00  0.00     0.010 A 
ATOM     41  C   UNL A   1      37.349  30.487  29.172  1.00  0.00    -0.014 A 
BRANCH  41  42
ATOM     42  C   UNL A   1      38.534  30.177  30.012  1.00  0.00     0.031 A 
ATOM     43  C   UNL A   1      39.636  29.329  29.441  1.00  0.00     0.074 A 
ATOM     44  C   UNL A   1      38.647  30.672  31.258  1.00  0.00     0.049 A 
ATOM     45  N   UNL A   1      40.642  28.754  30.047  1.00  0.00    -0.248 NA
ATOM     46  C   UNL A   1      39.590  29.086  27.990  1.00  0.00     0.031 C 
ATOM     47  C   UNL A   1      37.697  31.579  31.903  1.00  0.00     0.029 A 
ATOM     48  N   UNL A   1      39.621  30.484  32.208  1.00  0.00    -0.354 N 
ATOM     49  C   UNL A   1      41.300  28.018  29.070  1.00  0.00     0.074 A 
ATOM     50  C   UNL A   1      40.592  28.234  27.826  1.00  0.00     0.031 C 
ATOM     51  C   UNL A   1      38.150  31.895  33.126  1.00  0.00     0.029 A 
ATOM     52  C   UNL A   1      39.370  31.141  33.388  1.00  0.00     0.049 A 
ATOM     53  H   UNL A   1      40.422  29.931  32.057  1.00  0.00     0.167 HD
ATOM     54  C   UNL A   1      42.387  27.224  29.209  1.00  0.00     0.037 A 
ATOM     55  C   UNL A   1      40.025  31.098  34.564  1.00  0.00     0.037 A 
ATOM     56  C   UNL A   1      43.125  27.078  30.436  1.00  0.00     0.049 A 
ATOM     57  C   UNL A   1      41.214  30.190  34.703  1.00  0.00     0.074 A 
ATOM     58  C   UNL A   1      44.252  26.315  30.683  1.00  0.00     0.029 A 
ATOM     59  N   UNL A   1      42.814  27.731  31.621  1.00  0.00    -0.354 N 
ATOM     60  N   UNL A   1      41.782  29.427  33.801  1.00  0.00    -0.248 NA
ATOM     61  C   UNL A   1      41.835  30.113  36.032  1.00  0.00     0.031 C 
ATOM     62  C   UNL A   1      44.608  26.483  32.026  1.00  0.00     0.029 A 
ATOM     63  C   UNL A   1      43.723  27.380  32.606  1.00  0.00     0.049 A 
ATOM     64  H   UNL A   1      42.061  28.350  31.743  1.00  0.00     0.167 HD
ATOM     65  C   UNL A   1      42.829  28.787  34.447  1.00  0.00     0.074 A 
ATOM     66  C   UNL A   1      42.832  29.266  35.814  1.00  0.00     0.031 C 
ATOM     67  C   UNL A   1      43.707  27.877  33.957  1.00  0.00     0.037 A 
BRANCH  54  68
ATOM     68  C   UNL A   1      42.810  26.413  28.020  1.00  0.00     0.064 A 
ATOM     69  C   UNL A   1      42.392  25.090  27.827  1.00  0.00     0.173 A 
ATOM     70  C   UNL A   1      43.644  26.986  27.046  1.00  0.00     0.173 A 
ATOM     71  F   UNL A   1      41.609  24.490  28.736  1.00  0.00    -0.203 F 
ATOM     72  C   UNL A   1      42.813  24.361  26.716  1.00  0.00     0.198 A 
ATOM     73  C   UNL A   1      44.042  26.265  25.925  1.00  0.00     0.198 A 
ATOM     74  F   UNL A   1      44.072  28.251  27.183  1.00  0.00    -0.203 F 
ATOM     75  F   UNL A   1      42.439  23.082  26.575  1.00  0.00    -0.200 F 
ATOM     76  C   UNL A   1      43.632  24.951  25.764  1.00  0.00     0.200 A 
ATOM     77  F   UNL A   1      44.825  26.840  25.001  1.00  0.00    -0.200 F 
ATOM     78  F   UNL A   1      44.033  24.249  24.695  1.00  0.00    -0.200 F 
ENDBRANCH  54  68
BRANCH  55  79
ATOM     79  C   UNL A   1      39.540  31.908  35.713  1.00  0.00     0.064 A 
ATOM     80  C   UNL A   1      40.048  33.191  35.954  1.00  0.00     0.173 A 
ATOM     81  C   UNL A   1      38.555  31.421  36.586  1.00  0.00     0.173 A 
ATOM     82  F   UNL A   1      41.012  33.688  35.165  1.00  0.00    -0.203 F 
ATOM     83  C   UNL A   1      39.592  33.956  37.026  1.00  0.00     0.198 A 
ATOM     84  C   UNL A   1      38.077  32.199  37.638  1.00  0.00     0.198 A 
ATOM     85  F   UNL A   1      38.037  30.198  36.402  1.00  0.00    -0.203 F 
ATOM     86  F   UNL A   1      40.119  35.166  37.255  1.00  0.00    -0.200 F 
ATOM     87  C   UNL A   1      38.601  33.464  37.861  1.00  0.00     0.200 A 
ATOM     88  F   UNL A   1      37.109  31.724  38.435  1.00  0.00    -0.200 F 
ATOM     89  F   UNL A   1      38.153  34.206  38.884  1.00  0.00    -0.200 F 
ENDBRANCH  55  79
BRANCH  67  90
ATOM     90  C   UNL A   1      44.756  27.368  34.898  1.00  0.00     0.064 A 
ATOM     91  C   UNL A   1      45.976  28.039  35.065  1.00  0.00     0.173 A 
ATOM     92  C   UNL A   1      44.524  26.215  35.662  1.00  0.00     0.173 A 
ATOM     93  F   UNL A   1      46.249  29.135  34.342  1.00  0.00    -0.203 F 
ATOM     94  C   UNL A   1      46.937  27.559  35.950  1.00  0.00     0.198 A 
ATOM     95  C   UNL A   1      45.477  25.753  36.563  1.00  0.00     0.198 A 
ATOM     96  F   UNL A   1      43.370  25.543  35.538  1.00  0.00    -0.203 F 
ATOM     97  F   UNL A   1      48.114  28.189  36.065  1.00  0.00    -0.200 F 
ATOM     98  C   UNL A   1      46.684  26.421  36.703  1.00  0.00     0.200 A 
ATOM     99  F   UNL A   1      45.229  24.658  37.295  1.00  0.00    -0.200 F 
ATOM    100  F   UNL A   1      47.610  25.962  37.557  1.00  0.00    -0.200 F 
ENDBRANCH  67  90
ENDBRANCH  41  42
ENDBRANCH  34  36
ENDBRANCH  33  34
ENDBRANCH  32  33
ENDBRANCH   1  32
TORSDOF 14
ENDMDL
MODEL 2
REMARK VINA RESULT:     -13.7      4.025      9.545
REMARK SMILES O=C1CCCC2=C1[C@H](c1ccc([N+](=O)[O-])cc1)CC(=O)N2c1ccccc1C(=O)OCCOC(=O)c1ccc(-c2c3nc(c(-c4c(F)c(F)c(F)c(F)c4F)c4ccc([nH]4)c(-c4c(F)c(F)c(F)c(F)c4F)c4nc(c(-c5c(F)c(F)c(F)c(F)c5F)c5ccc2[nH]5)C=C4)C=C3)cc1
REMARK SMILES IDX 31 1 30 2 28 3 29 4 27 5 22 6 23 7 24 8 26 9 25 10 21 11
REMARK SMILES IDX 1 12 2 13 3 14 7 15 4 16 6 17 8 18 5 19 18 20 19 21 20 22
REMARK SMILES IDX 9 23 10 24 17 25 11 26 16 27 12 28 13 29 14 30 15 31 32 32
REMARK SMILES IDX 33 33 34 34 35 35 36 36 37 37 98 38 38 39 97 40 39 41 40 42
REMARK SMILES IDX 41 43 91 44 42 45 96 46 90 47 92 48 43 49 95 50 89 51 88 52
REMARK SMILES IDX 44 54 76 55 56 56 75 57 57 58 60 59 74 60 93 61 58 62 59 63
REMARK SMILES IDX 73 65 94 66 61 67 45 68 46 69 54 70 47 71 48 72 52 73 55 74
REMARK SMILES IDX 49 75 50 76 53 77 51 78 77 79 78 80 86 81 79 82 80 83 84 84
REMARK SMILES IDX 87 85 81 86 82 87 85 88 83 89 62 90 63 91 71 92 64 93 65 94
REMARK SMILES IDX 69 95 72 96 66 97 67 98 70 99 68 100
REMARK H PARENT 92 53 60 64
REMARK Flexibility Score: inf
ROOT
ATOM      1  C   UNL A   1      37.030  23.334  24.029  1.00  0.00     0.275 C 
ENDROOT
BRANCH   1   2
ATOM      2  O   UNL A   1      35.602  23.534  23.962  1.00  0.00    -0.458 OA
BRANCH   2   3
ATOM      3  C   UNL A   1      34.936  23.439  25.138  1.00  0.00     0.340 C 
ATOM      4  O   UNL A   1      35.144  24.106  26.140  1.00  0.00    -0.246 OA
BRANCH   3   5
ATOM      5  C   UNL A   1      33.889  22.387  25.110  1.00  0.00     0.084 A 
ATOM      6  C   UNL A   1      32.509  22.651  25.053  1.00  0.00     0.063 A 
ATOM      7  C   UNL A   1      31.619  21.556  25.078  1.00  0.00     0.027 A 
ATOM      8  C   UNL A   1      32.080  20.240  25.128  1.00  0.00     0.002 A 
ATOM      9  C   UNL A   1      34.342  21.052  25.116  1.00  0.00     0.018 A 
ATOM     10  C   UNL A   1      33.444  19.986  25.141  1.00  0.00     0.001 A 
BRANCH   6  11
ATOM     11  N   UNL A   1      31.943  23.974  24.960  1.00  0.00    -0.284 N 
ATOM     12  O   UNL A   1      31.326  28.025  22.577  1.00  0.00    -0.294 OA
ATOM     13  C   UNL A   1      31.946  26.974  22.706  1.00  0.00     0.161 C 
ATOM     14  C   UNL A   1      32.931  26.504  21.674  1.00  0.00     0.081 C 
ATOM     15  C   UNL A   1      31.767  26.112  23.914  1.00  0.00     0.023 C 
ATOM     16  C   UNL A   1      32.541  25.094  21.294  1.00  0.00     0.015 C 
ATOM     17  C   UNL A   1      32.089  24.804  23.828  1.00  0.00     0.033 C 
ATOM     18  C   UNL A   1      31.154  26.747  25.135  1.00  0.00     0.064 C 
ATOM     19  C   UNL A   1      32.561  24.175  22.515  1.00  0.00     0.055 C 
ATOM     20  C   UNL A   1      30.445  25.677  25.958  1.00  0.00     0.114 C 
ATOM     21  C   UNL A   1      31.259  24.416  26.113  1.00  0.00     0.232 C 
ATOM     22  O   UNL A   1      31.223  23.809  27.187  1.00  0.00    -0.274 OA
BRANCH  18  23
ATOM     23  C   UNL A   1      32.123  27.644  25.913  1.00  0.00    -0.039 A 
ATOM     24  C   UNL A   1      31.730  28.789  26.627  1.00  0.00     0.011 A 
ATOM     25  C   UNL A   1      33.497  27.328  25.881  1.00  0.00     0.011 A 
ATOM     26  C   UNL A   1      32.679  29.602  27.263  1.00  0.00     0.086 A 
ATOM     27  C   UNL A   1      34.449  28.120  26.528  1.00  0.00     0.086 A 
ATOM     28  C   UNL A   1      34.036  29.265  27.208  1.00  0.00     0.269 A 
BRANCH  28  29
ATOM     29  N   UNL A   1      35.036  30.122  27.853  1.00  0.00     0.062 N 
ATOM     30  O   UNL A   1      34.963  31.343  27.656  1.00  0.00    -0.258 OA
ATOM     31  O   UNL A   1      35.892  29.573  28.562  1.00  0.00    -0.258 OA
ENDBRANCH  28  29
ENDBRANCH  18  23
ENDBRANCH   6  11
ENDBRANCH   3   5
ENDBRANCH   2   3
ENDBRANCH   1   2
BRANCH   1  32
ATOM     32  C   UNL A   1      37.377  21.918  24.471  1.00  0.00     0.275 C 
BRANCH  32  33
ATOM     33  O   UNL A   1      37.686  21.919  25.873  1.00  0.00    -0.458 OA
BRANCH  33  34
ATOM     34  C   UNL A   1      38.968  21.642  26.187  1.00  0.00     0.338 C 
ATOM     35  O   UNL A   1      39.591  20.611  25.978  1.00  0.00    -0.246 OA
BRANCH  34  36
ATOM     36  C   UNL A   1      39.580  22.835  26.780  1.00  0.00     0.060 A 
ATOM     37  C   UNL A   1      39.105  24.084  26.390  1.00  0.00     0.016 A 
ATOM     38  C   UNL A   1      40.696  22.733  27.604  1.00  0.00     0.016 A 
ATOM     39  C   UNL A   1      39.776  25.243  26.757  1.00  0.00     0.010 A 
ATOM     40  C   UNL A   1      41.332  23.901  28.035  1.00  0.00     0.010 A 
ATOM     41  C   UNL A   1      40.900  25.165  27.586  1.00  0.00    -0.014 A 
BRANCH  41  42
ATOM     42  C   UNL A   1      41.680  26.390  27.900  1.00  0.00     0.031 A 
ATOM     43  C   UNL A   1      41.065  27.446  28.775  1.00  0.00     0.074 A 
ATOM     44  C   UNL A   1      42.935  26.547  27.441  1.00  0.00     0.049 A 
ATOM     45  N   UNL A   1      41.459  28.672  28.999  1.00  0.00    -0.248 NA
ATOM     46  C   UNL A   1      39.831  27.071  29.485  1.00  0.00     0.031 C 
ATOM     47  C   UNL A   1      43.684  25.564  26.658  1.00  0.00     0.029 A 
ATOM     48  N   UNL A   1      43.808  27.599  27.573  1.00  0.00    -0.354 N 
ATOM     49  C   UNL A   1      40.482  29.239  29.807  1.00  0.00     0.074 A 
ATOM     50  C   UNL A   1      39.486  28.218  30.051  1.00  0.00     0.031 C 
ATOM     51  C   UNL A   1      44.913  26.043  26.408  1.00  0.00     0.029 A 
ATOM     52  C   UNL A   1      45.006  27.402  26.931  1.00  0.00     0.049 A 
ATOM     53  H   UNL A   1      43.595  28.416  28.080  1.00  0.00     0.167 HD
ATOM     54  C   UNL A   1      40.421  30.504  30.286  1.00  0.00     0.037 A 
ATOM     55  C   UNL A   1      46.042  28.241  26.742  1.00  0.00     0.037 A 
ATOM     56  C   UNL A   1      41.456  31.486  30.097  1.00  0.00     0.049 A 
ATOM     57  C   UNL A   1      45.940  29.649  27.260  1.00  0.00     0.074 A 
ATOM     58  C   UNL A   1      41.505  32.791  30.555  1.00  0.00     0.029 A 
ATOM     59  N   UNL A   1      42.637  31.259  29.405  1.00  0.00    -0.354 N 
ATOM     60  N   UNL A   1      44.977  30.210  27.949  1.00  0.00    -0.248 NA
ATOM     61  C   UNL A   1      47.058  30.549  26.948  1.00  0.00     0.031 C 
ATOM     62  C   UNL A   1      42.704  33.363  30.116  1.00  0.00     0.029 A 
ATOM     63  C   UNL A   1      43.418  32.403  29.416  1.00  0.00     0.049 A 
ATOM     64  H   UNL A   1      42.883  30.411  28.972  1.00  0.00     0.167 HD
ATOM     65  C   UNL A   1      45.373  31.522  28.160  1.00  0.00     0.074 A 
ATOM     66  C   UNL A   1      46.675  31.670  27.543  1.00  0.00     0.031 C 
ATOM     67  C   UNL A   1      44.714  32.520  28.800  1.00  0.00     0.037 A 
BRANCH  54  68
ATOM     68  C   UNL A   1      39.173  30.911  31.013  1.00  0.00     0.064 A 
ATOM     69  C   UNL A   1      38.083  31.501  30.359  1.00  0.00     0.173 A 
ATOM     70  C   UNL A   1      39.068  30.690  32.396  1.00  0.00     0.173 A 
ATOM     71  F   UNL A   1      38.139  31.750  29.042  1.00  0.00    -0.203 F 
ATOM     72  C   UNL A   1      36.943  31.877  31.067  1.00  0.00     0.198 A 
ATOM     73  C   UNL A   1      37.919  31.043  33.095  1.00  0.00     0.198 A 
ATOM     74  F   UNL A   1      40.084  30.128  33.069  1.00  0.00    -0.203 F 
ATOM     75  F   UNL A   1      35.930  32.482  30.431  1.00  0.00    -0.200 F 
ATOM     76  C   UNL A   1      36.859  31.642  32.432  1.00  0.00     0.200 A 
ATOM     77  F   UNL A   1      37.836  30.805  34.412  1.00  0.00    -0.200 F 
ATOM     78  F   UNL A   1      35.760  32.002  33.110  1.00  0.00    -0.200 F 
ENDBRANCH  54  68
BRANCH  55  79
ATOM     79  C   UNL A   1      47.240  27.785  25.991  1.00  0.00     0.064 A 
ATOM     80  C   UNL A   1      47.255  27.787  24.590  1.00  0.00     0.173 A 
ATOM     81  C   UNL A   1      48.396  27.348  26.656  1.00  0.00     0.173 A 
ATOM     82  F   UNL A   1      46.165  28.168  23.909  1.00  0.00    -0.203 F 
ATOM     83  C   UNL A   1      48.380  27.366  23.882  1.00  0.00     0.198 A 
ATOM     84  C   UNL A   1      49.530  26.957  25.948  1.00  0.00     0.198 A 
ATOM     85  F   UNL A   1      48.433  27.323  27.996  1.00  0.00    -0.203 F 
ATOM     86  F   UNL A   1      48.356  27.345  22.543  1.00  0.00    -0.200 F 
ATOM     87  C   UNL A   1      49.519  26.961  24.561  1.00  0.00     0.200 A 
ATOM     88  F   UNL A   1      50.634  26.579  26.608  1.00  0.00    -0.200 F 
ATOM     89  F   UNL A   1      50.605  26.569  23.879  1.00  0.00    -0.200 F 
ENDBRANCH  55  79
BRANCH  67  90
ATOM     90  C   UNL A   1      45.409  33.845  28.888  1.00  0.00     0.064 A 
ATOM     91  C   UNL A   1      46.291  34.140  29.938  1.00  0.00     0.173 A 
ATOM     92  C   UNL A   1      45.212  34.816  27.896  1.00  0.00     0.173 A 
ATOM     93  F   UNL A   1      46.495  33.249  30.919  1.00  0.00    -0.203 F 
ATOM     94  C   UNL A   1      46.936  35.372  30.001  1.00  0.00     0.198 A 
ATOM     95  C   UNL A   1      45.877  36.037  27.950  1.00  0.00     0.198 A 
ATOM     96  F   UNL A   1      44.380  34.577  26.871  1.00  0.00    -0.203 F 
ATOM     97  F   UNL A   1      47.742  35.652  31.034  1.00  0.00    -0.200 F 
ATOM     98  C   UNL A   1      46.733  36.316  29.004  1.00  0.00     0.200 A 
ATOM     99  F   UNL A   1      45.687  36.945  26.983  1.00  0.00    -0.200 F 
ATOM    100  F   UNL A   1      47.357  37.501  29.066  1.00  0.00    -0.200 F 
ENDBRANCH  67  90
ENDBRANCH  41  42
ENDBRANCH  34  36
ENDBRANCH  33  34
ENDBRANCH  32  33
ENDBRANCH   1  32
TORSDOF 14
ENDMDL
MODEL 3
REMARK VINA RESULT:     -13.5      0.461      1.938
REMARK SMILES O=C1CCCC2=C1[C@H](c1ccc([N+](=O)[O-])cc1)CC(=O)N2c1ccccc1C(=O)OCCOC(=O)c1ccc(-c2c3nc(c(-c4c(F)c(F)c(F)c(F)c4F)c4ccc([nH]4)c(-c4c(F)c(F)c(F)c(F)c4F)c4nc(c(-c5c(F)c(F)c(F)c(F)c5F)c5ccc2[nH]5)C=C4)C=C3)cc1
REMARK SMILES IDX 31 1 30 2 28 3 29 4 27 5 22 6 23 7 24 8 26 9 25 10 21 11
REMARK SMILES IDX 1 12 2 13 3 14 7 15 4 16 6 17 8 18 5 19 18 20 19 21 20 22
REMARK SMILES IDX 9 23 10 24 17 25 11 26 16 27 12 28 13 29 14 30 15 31 32 32
REMARK SMILES IDX 33 33 34 34 35 35 36 36 37 37 98 38 38 39 97 40 39 41 40 42
REMARK SMILES IDX 41 43 91 44 42 45 96 46 90 47 92 48 43 49 95 50 89 51 88 52
REMARK SMILES IDX 44 54 76 55 56 56 75 57 57 58 60 59 74 60 93 61 58 62 59 63
REMARK SMILES IDX 73 65 94 66 61 67 45 68 46 69 54 70 47 71 48 72 52 73 55 74
REMARK SMILES IDX 49 75 50 76 53 77 51 78 77 79 78 80 86 81 79 82 80 83 84 84
REMARK SMILES IDX 87 85 81 86 82 87 85 88 83 89 62 90 63 91 71 92 64 93 65 94
REMARK SMILES IDX 69 95 72 96 66 97 67 98 70 99 68 100
REMARK H PARENT 92 53 60 64
REMARK Flexibility Score: inf
ROOT
ATOM      1  C   UNL A   1      31.805  28.271  26.546  1.00  0.00     0.275 C 
ENDROOT
BRANCH   1   2
ATOM      2  O   UNL A   1      33.037  27.733  26.021  1.00  0.00    -0.458 OA
BRANCH   2   3
ATOM      3  C   UNL A   1      33.295  28.005  24.719  1.00  0.00     0.340 C 
ATOM      4  O   UNL A   1      34.397  28.194  24.227  1.00  0.00    -0.246 OA
BRANCH   3   5
ATOM      5  C   UNL A   1      32.057  28.076  23.903  1.00  0.00     0.084 A 
ATOM      6  C   UNL A   1      31.475  26.970  23.258  1.00  0.00     0.063 A 
ATOM      7  C   UNL A   1      30.322  27.187  22.473  1.00  0.00     0.027 A 
ATOM      8  C   UNL A   1      29.745  28.453  22.355  1.00  0.00     0.002 A 
ATOM      9  C   UNL A   1      31.440  29.340  23.809  1.00  0.00     0.018 A 
ATOM     10  C   UNL A   1      30.301  29.531  23.028  1.00  0.00     0.001 A 
BRANCH   6  11
ATOM     11  N   UNL A   1      31.977  25.623  23.355  1.00  0.00    -0.284 N 
ATOM     12  O   UNL A   1      32.264  21.498  25.674  1.00  0.00    -0.294 OA
ATOM     13  C   UNL A   1      31.960  22.687  25.692  1.00  0.00     0.161 C 
ATOM     14  C   UNL A   1      31.216  23.297  26.846  1.00  0.00     0.081 C 
ATOM     15  C   UNL A   1      32.336  23.600  24.571  1.00  0.00     0.023 C 
ATOM     16  C   UNL A   1      30.004  23.998  26.275  1.00  0.00     0.015 C 
ATOM     17  C   UNL A   1      31.630  24.738  24.398  1.00  0.00     0.033 C 
ATOM     18  C   UNL A   1      33.435  23.146  23.646  1.00  0.00     0.064 C 
ATOM     19  C   UNL A   1      30.421  25.076  25.273  1.00  0.00     0.055 C 
ATOM     20  C   UNL A   1      33.234  23.781  22.274  1.00  0.00     0.114 C 
ATOM     21  C   UNL A   1      32.892  25.249  22.347  1.00  0.00     0.232 C 
ATOM     22  O   UNL A   1      33.355  26.015  21.498  1.00  0.00    -0.274 OA
BRANCH  18  23
ATOM     23  C   UNL A   1      34.839  23.293  24.241  1.00  0.00    -0.039 A 
ATOM     24  C   UNL A   1      36.017  22.920  23.571  1.00  0.00     0.011 A 
ATOM     25  C   UNL A   1      34.960  23.794  25.554  1.00  0.00     0.011 A 
ATOM     26  C   UNL A   1      37.267  23.020  24.201  1.00  0.00     0.086 A 
ATOM     27  C   UNL A   1      36.201  23.916  26.184  1.00  0.00     0.086 A 
ATOM     28  C   UNL A   1      37.352  23.516  25.507  1.00  0.00     0.269 A 
BRANCH  28  29
ATOM     29  N   UNL A   1      38.652  23.603  26.180  1.00  0.00     0.062 N 
ATOM     30  O   UNL A   1      39.170  22.549  26.574  1.00  0.00    -0.258 OA
ATOM     31  O   UNL A   1      39.158  24.728  26.308  1.00  0.00    -0.258 OA
ENDBRANCH  28  29
ENDBRANCH  18  23
ENDBRANCH   6  11
ENDBRANCH   3   5
ENDBRANCH   2   3
ENDBRANCH   1   2
BRANCH   1  32
ATOM     32  C   UNL A   1      32.031  29.606  27.247  1.00  0.00     0.275 C 
BRANCH  32  33
ATOM     33  O   UNL A   1      33.115  30.300  26.611  1.00  0.00    -0.458 OA
BRANCH  33  34
ATOM     34  C   UNL A   1      33.572  31.387  27.264  1.00  0.00     0.338 C 
ATOM     35  O   UNL A   1      32.991  32.441  27.476  1.00  0.00    -0.246 OA
BRANCH  34  36
ATOM     36  C   UNL A   1      34.912  31.099  27.784  1.00  0.00     0.060 A 
ATOM     37  C   UNL A   1      35.218  29.785  28.128  1.00  0.00     0.016 A 
ATOM     38  C   UNL A   1      35.809  32.126  28.061  1.00  0.00     0.016 A 
ATOM     39  C   UNL A   1      36.389  29.487  28.813  1.00  0.00     0.010 A 
ATOM     40  C   UNL A   1      37.022  31.819  28.686  1.00  0.00     0.010 A 
ATOM     41  C   UNL A   1      37.306  30.503  29.101  1.00  0.00    -0.014 A 
BRANCH  41  42
ATOM     42  C   UNL A   1      38.510  30.208  29.920  1.00  0.00     0.031 A 
ATOM     43  C   UNL A   1      39.615  29.378  29.327  1.00  0.00     0.074 A 
ATOM     44  C   UNL A   1      38.637  30.701  31.166  1.00  0.00     0.049 A 
ATOM     45  N   UNL A   1      40.640  28.817  29.914  1.00  0.00    -0.248 NA
ATOM     46  C   UNL A   1      39.548  29.139  27.876  1.00  0.00     0.031 C 
ATOM     47  C   UNL A   1      37.685  31.592  31.829  1.00  0.00     0.029 A 
ATOM     48  N   UNL A   1      39.630  30.525  32.098  1.00  0.00    -0.354 N 
ATOM     49  C   UNL A   1      41.291  28.094  28.923  1.00  0.00     0.074 A 
ATOM     50  C   UNL A   1      40.558  28.303  27.693  1.00  0.00     0.031 C 
ATOM     51  C   UNL A   1      38.154  31.911  33.046  1.00  0.00     0.029 A 
ATOM     52  C   UNL A   1      39.390  31.174  33.284  1.00  0.00     0.049 A 
ATOM     53  H   UNL A   1      40.436  29.985  31.932  1.00  0.00     0.167 HD
ATOM     54  C   UNL A   1      42.392  27.316  29.041  1.00  0.00     0.037 A 
ATOM     55  C   UNL A   1      40.065  31.138  34.449  1.00  0.00     0.037 A 
ATOM     56  C   UNL A   1      43.153  27.177  30.255  1.00  0.00     0.049 A 
ATOM     57  C   UNL A   1      41.270  30.247  34.564  1.00  0.00     0.074 A 
ATOM     58  C   UNL A   1      44.296  26.430  30.480  1.00  0.00     0.029 A 
ATOM     59  N   UNL A   1      42.854  27.821  31.447  1.00  0.00    -0.354 N 
ATOM     60  N   UNL A   1      41.834  29.495  33.650  1.00  0.00    -0.248 NA
ATOM     61  C   UNL A   1      41.914  30.175  35.882  1.00  0.00     0.031 C 
ATOM     62  C   UNL A   1      44.672  26.600  31.817  1.00  0.00     0.029 A 
ATOM     63  C   UNL A   1      43.785  27.481  32.415  1.00  0.00     0.049 A 
ATOM     64  H   UNL A   1      42.093  28.429  31.584  1.00  0.00     0.167 HD
ATOM     65  C   UNL A   1      42.901  28.870  34.276  1.00  0.00     0.074 A 
ATOM     66  C   UNL A   1      42.920  29.344  35.644  1.00  0.00     0.031 C 
ATOM     67  C   UNL A   1      43.784  27.974  33.767  1.00  0.00     0.037 A 
BRANCH  54  68
ATOM     68  C   UNL A   1      42.807  26.515  27.842  1.00  0.00     0.064 A 
ATOM     69  C   UNL A   1      43.719  26.999  26.896  1.00  0.00     0.173 A 
ATOM     70  C   UNL A   1      42.285  25.225  27.651  1.00  0.00     0.173 A 
ATOM     71  F   UNL A   1      44.234  28.232  27.023  1.00  0.00    -0.203 F 
ATOM     72  C   UNL A   1      44.075  26.233  25.788  1.00  0.00     0.198 A 
ATOM     73  C   UNL A   1      42.662  24.452  26.557  1.00  0.00     0.198 A 
ATOM     74  F   UNL A   1      41.408  24.714  28.528  1.00  0.00    -0.203 F 
ATOM     75  F   UNL A   1      44.914  26.733  24.870  1.00  0.00    -0.200 F 
ATOM     76  C   UNL A   1      43.552  24.958  25.623  1.00  0.00     0.200 A 
ATOM     77  F   UNL A   1      42.163  23.217  26.406  1.00  0.00    -0.200 F 
ATOM     78  F   UNL A   1      43.899  24.222  24.558  1.00  0.00    -0.200 F 
ENDBRANCH  54  68
BRANCH  55  79
ATOM     79  C   UNL A   1      39.588  31.936  35.608  1.00  0.00     0.064 A 
ATOM     80  C   UNL A   1      38.593  31.441  36.462  1.00  0.00     0.173 A 
ATOM     81  C   UNL A   1      40.122  33.202  35.893  1.00  0.00     0.173 A 
ATOM     82  F   UNL A   1      38.032  30.249  36.215  1.00  0.00    -0.203 F 
ATOM     83  C   UNL A   1      38.148  32.183  37.555  1.00  0.00     0.198 A 
ATOM     84  C   UNL A   1      39.698  33.930  37.003  1.00  0.00     0.198 A 
ATOM     85  F   UNL A   1      41.073  33.724  35.105  1.00  0.00    -0.203 F 
ATOM     86  F   UNL A   1      37.172  31.703  38.335  1.00  0.00    -0.200 F 
ATOM     87  C   UNL A   1      38.707  33.422  37.830  1.00  0.00     0.200 A 
ATOM     88  F   UNL A   1      40.251  35.121  37.272  1.00  0.00    -0.200 F 
ATOM     89  F   UNL A   1      38.288  34.130  38.888  1.00  0.00    -0.200 F 
ENDBRANCH  55  79
BRANCH  67  90
ATOM     90  C   UNL A   1      44.856  27.479  34.689  1.00  0.00     0.064 A 
ATOM     91  C   UNL A   1      44.691  26.307  35.441  1.00  0.00     0.173 A 
ATOM     92  C   UNL A   1      46.073  28.169  34.796  1.00  0.00     0.173 A 
ATOM     93  F   UNL A   1      43.538  25.625  35.384  1.00  0.00    -0.203 F 
ATOM     94  C   UNL A   1      45.701  25.855  36.286  1.00  0.00     0.198 A 
ATOM     95  C   UNL A   1      47.089  27.700  35.622  1.00  0.00     0.198 A 
ATOM     96  F   UNL A   1      46.277  29.292  34.092  1.00  0.00    -0.203 F 
ATOM     97  F   UNL A   1      45.508  24.757  37.029  1.00  0.00    -0.200 F 
ATOM     98  C   UNL A   1      46.900  26.548  36.371  1.00  0.00     0.200 A 
ATOM     99  F   UNL A   1      48.250  28.365  35.698  1.00  0.00    -0.200 F 
ATOM    100  F   UNL A   1      47.873  26.109  37.183  1.00  0.00    -0.200 F 
ENDBRANCH  67  90
ENDBRANCH  41  42
ENDBRANCH  34  36
ENDBRANCH  33  34
ENDBRANCH  32  33
ENDBRANCH   1  32
TORSDOF 14
ENDMDL
