MODEL 1
REMARK VINA RESULT:     -12.4      0.000      0.000
REMARK SMILES COc1ccc([C@H]2CC(c3ccccc3)=NN2C(=O)CCCC(=O)OCCOC(=O)c2ccc(-c3c4nc(c(-c5c(F)c(F)c(F)c(F)c5F)c5ccc([nH]5)c(-c5c(F)c(F)c(F)c(F)c5F)c5nc(c(-c6c(F)c(F)c(F)c(F)c6F)c6ccc3[nH]6)C=C5)C=C4)cc2)cc1
REMARK SMILES IDX 23 1 24 2 22 3 21 4 20 5 18 6 19 7 17 8 7 9 8 10 9 11 16 12
REMARK SMILES IDX 6 13 3 14 4 15 95 16 5 17 94 18 2 19 1 20 10 21 11 22 15 23
REMARK SMILES IDX 12 24 14 25 13 26 25 27 26 28 27 29 28 30 29 31 30 32 31 33
REMARK SMILES IDX 32 34 93 35 33 36 92 37 34 38 35 39 36 40 86 41 37 42 91 43
REMARK SMILES IDX 85 44 87 45 38 46 90 47 84 48 83 49 39 51 71 52 51 53 70 54
REMARK SMILES IDX 52 55 55 56 69 57 88 58 53 59 54 60 68 62 89 63 56 64 40 65
REMARK SMILES IDX 41 66 49 67 42 68 43 69 47 70 50 71 44 72 45 73 48 74 46 75
REMARK SMILES IDX 72 76 73 77 81 78 74 79 75 80 79 81 82 82 76 83 77 84 80 85
REMARK SMILES IDX 78 86 57 87 58 88 66 89 59 90 60 91 64 92 67 93 61 94 62 95
REMARK SMILES IDX 65 96 63 97
REMARK H PARENT 87 50 55 61
REMARK Flexibility Score: inf
ROOT
ATOM      1  C   UNL A   1      32.198  27.304  24.004  1.00  0.00     0.305 C 
ATOM      2  O   UNL A   1      31.909  27.517  22.835  1.00  0.00    -0.252 OA
ENDROOT
BRANCH   1   3
ATOM      3  C   UNL A   1      32.536  25.925  24.518  1.00  0.00     0.123 C 
BRANCH   3   4
ATOM      4  C   UNL A   1      31.542  25.314  25.488  1.00  0.00     0.022 C 
BRANCH   4   5
ATOM      5  C   UNL A   1      30.688  24.208  24.881  1.00  0.00     0.103 C 
BRANCH   5   6
ATOM      6  C   UNL A   1      30.954  22.851  25.499  1.00  0.00     0.243 C 
ATOM      7  O   UNL A   1      30.203  22.474  26.406  1.00  0.00    -0.273 OA
BRANCH   6   8
ATOM      8  N   UNL A   1      31.968  22.063  24.974  1.00  0.00    -0.225 N 
ATOM      9  C   UNL A   1      32.941  22.277  23.874  1.00  0.00     0.147 C 
ATOM     10  C   UNL A   1      33.096  20.876  23.294  1.00  0.00     0.091 C 
ATOM     11  C   UNL A   1      32.647  20.095  24.488  1.00  0.00     0.071 C 
ATOM     12  N   UNL A   1      32.004  20.750  25.399  1.00  0.00    -0.174 NA
BRANCH   9  13
ATOM     13  C   UNL A   1      34.324  22.778  24.299  1.00  0.00    -0.023 A 
ATOM     14  C   UNL A   1      36.883  23.560  25.247  1.00  0.00     0.118 A 
ATOM     15  C   UNL A   1      35.801  23.465  26.119  1.00  0.00     0.047 A 
ATOM     16  C   UNL A   1      36.681  23.292  23.894  1.00  0.00     0.047 A 
ATOM     17  C   UNL A   1      34.535  23.095  25.654  1.00  0.00     0.010 A 
ATOM     18  C   UNL A   1      35.407  22.928  23.421  1.00  0.00     0.010 A 
BRANCH  14  19
ATOM     19  O   UNL A   1      38.064  23.869  25.851  1.00  0.00    -0.497 OA
ATOM     20  C   UNL A   1      38.884  22.818  26.343  1.00  0.00     0.278 C 
ENDBRANCH  14  19
ENDBRANCH   9  13
BRANCH  11  21
ATOM     21  C   UNL A   1      32.862  18.659  24.541  1.00  0.00    -0.002 A 
ATOM     22  C   UNL A   1      32.590  17.980  25.730  1.00  0.00     0.010 A 
ATOM     23  C   UNL A   1      33.339  18.001  23.411  1.00  0.00     0.010 A 
ATOM     24  C   UNL A   1      32.792  16.605  25.781  1.00  0.00     0.001 A 
ATOM     25  C   UNL A   1      33.534  16.625  23.469  1.00  0.00     0.001 A 
ATOM     26  C   UNL A   1      33.260  15.930  24.651  1.00  0.00     0.000 A 
ENDBRANCH  11  21
ENDBRANCH   6   8
ENDBRANCH   5   6
ENDBRANCH   4   5
ENDBRANCH   3   4
ENDBRANCH   1   3
BRANCH   1  27
ATOM     27  O   UNL A   1      32.273  28.280  24.940  1.00  0.00    -0.462 OA
BRANCH  27  28
ATOM     28  C   UNL A   1      31.331  29.360  24.792  1.00  0.00     0.274 C 
BRANCH  28  29
ATOM     29  C   UNL A   1      31.591  30.474  25.811  1.00  0.00     0.275 C 
BRANCH  29  30
ATOM     30  O   UNL A   1      32.948  30.446  26.292  1.00  0.00    -0.458 OA
BRANCH  30  31
ATOM     31  C   UNL A   1      33.335  31.521  27.026  1.00  0.00     0.338 C 
ATOM     32  O   UNL A   1      32.681  32.523  27.256  1.00  0.00    -0.246 OA
BRANCH  31  33
ATOM     33  C   UNL A   1      34.608  31.206  27.710  1.00  0.00     0.060 A 
ATOM     34  C   UNL A   1      34.823  29.879  28.104  1.00  0.00     0.016 A 
ATOM     35  C   UNL A   1      35.585  32.174  27.944  1.00  0.00     0.016 A 
ATOM     36  C   UNL A   1      36.023  29.502  28.689  1.00  0.00     0.010 A 
ATOM     37  C   UNL A   1      36.765  31.813  28.601  1.00  0.00     0.010 A 
ATOM     38  C   UNL A   1      36.980  30.477  28.983  1.00  0.00    -0.014 A 
BRANCH  38  39
ATOM     39  C   UNL A   1      38.099  30.103  29.868  1.00  0.00     0.031 A 
ATOM     40  C   UNL A   1      39.214  29.288  29.282  1.00  0.00     0.074 A 
ATOM     41  C   UNL A   1      38.154  30.542  31.136  1.00  0.00     0.049 A 
ATOM     42  N   UNL A   1      40.303  28.840  29.847  1.00  0.00    -0.248 NA
ATOM     43  C   UNL A   1      39.082  28.934  27.857  1.00  0.00     0.031 C 
ATOM     44  C   UNL A   1      37.159  31.399  31.772  1.00  0.00     0.029 A 
ATOM     45  N   UNL A   1      39.108  30.354  32.104  1.00  0.00    -0.354 N 
ATOM     46  C   UNL A   1      40.964  28.120  28.861  1.00  0.00     0.074 A 
ATOM     47  C   UNL A   1      40.178  28.221  27.652  1.00  0.00     0.031 C 
ATOM     48  C   UNL A   1      37.576  31.702  33.014  1.00  0.00     0.029 A 
ATOM     49  C   UNL A   1      38.845  31.025  33.273  1.00  0.00     0.049 A 
ATOM     50  H   UNL A   1      39.906  29.792  31.974  1.00  0.00     0.167 HD
ATOM     51  C   UNL A   1      42.105  27.402  28.973  1.00  0.00     0.037 A 
ATOM     52  C   UNL A   1      39.558  31.076  34.415  1.00  0.00     0.037 A 
ATOM     53  C   UNL A   1      42.857  27.282  30.190  1.00  0.00     0.049 A 
ATOM     54  C   UNL A   1      40.822  30.256  34.514  1.00  0.00     0.074 A 
ATOM     55  C   UNL A   1      43.986  26.526  30.438  1.00  0.00     0.029 A 
ATOM     56  N   UNL A   1      42.543  27.939  31.373  1.00  0.00    -0.354 N 
ATOM     57  N   UNL A   1      41.422  29.540  33.593  1.00  0.00    -0.248 NA
ATOM     58  C   UNL A   1      41.488  30.224  35.825  1.00  0.00     0.031 C 
ATOM     59  C   UNL A   1      44.329  26.685  31.785  1.00  0.00     0.029 A 
ATOM     60  C   UNL A   1      43.446  27.587  32.361  1.00  0.00     0.049 A 
ATOM     61  H   UNL A   1      41.791  28.562  31.491  1.00  0.00     0.167 HD
ATOM     62  C   UNL A   1      42.525  28.967  34.212  1.00  0.00     0.074 A 
ATOM     63  C   UNL A   1      42.541  29.459  35.575  1.00  0.00     0.031 C 
ATOM     64  C   UNL A   1      43.431  28.091  33.710  1.00  0.00     0.037 A 
BRANCH  51  65
ATOM     65  C   UNL A   1      42.531  26.613  27.773  1.00  0.00     0.064 A 
ATOM     66  C   UNL A   1      42.082  25.305  27.541  1.00  0.00     0.173 A 
ATOM     67  C   UNL A   1      43.428  27.175  26.852  1.00  0.00     0.173 A 
ATOM     68  F   UNL A   1      41.249  24.713  28.410  1.00  0.00    -0.203 F 
ATOM     69  C   UNL A   1      42.535  24.580  26.442  1.00  0.00     0.198 A 
ATOM     70  C   UNL A   1      43.857  26.457  25.740  1.00  0.00     0.198 A 
ATOM     71  F   UNL A   1      43.894  28.419  27.034  1.00  0.00    -0.203 F 
ATOM     72  F   UNL A   1      42.137  23.312  26.268  1.00  0.00    -0.200 F 
ATOM     73  C   UNL A   1      43.417  25.157  25.541  1.00  0.00     0.200 A 
ATOM     74  F   UNL A   1      44.706  27.019  24.868  1.00  0.00    -0.200 F 
ATOM     75  F   UNL A   1      43.855  24.457  24.485  1.00  0.00    -0.200 F 
ENDBRANCH  51  65
BRANCH  52  76
ATOM     76  C   UNL A   1      39.108  31.918  35.557  1.00  0.00     0.064 A 
ATOM     77  C   UNL A   1      39.521  33.254  35.669  1.00  0.00     0.173 A 
ATOM     78  C   UNL A   1      38.287  31.407  36.575  1.00  0.00     0.173 A 
ATOM     79  F   UNL A   1      40.328  33.785  34.738  1.00  0.00    -0.203 F 
ATOM     80  C   UNL A   1      39.150  34.038  36.761  1.00  0.00     0.198 A 
ATOM     81  C   UNL A   1      37.888  32.203  37.648  1.00  0.00     0.198 A 
ATOM     82  F   UNL A   1      37.869  30.135  36.528  1.00  0.00    -0.203 F 
ATOM     83  F   UNL A   1      39.606  35.293  36.866  1.00  0.00    -0.200 F 
ATOM     84  C   UNL A   1      38.328  33.514  37.745  1.00  0.00     0.200 A 
ATOM     85  F   UNL A   1      37.084  31.695  38.592  1.00  0.00    -0.200 F 
ATOM     86  F   UNL A   1      37.969  34.268  38.794  1.00  0.00    -0.200 F 
ENDBRANCH  52  76
BRANCH  64  87
ATOM     87  C   UNL A   1      44.503  27.601  34.639  1.00  0.00     0.064 A 
ATOM     88  C   UNL A   1      45.686  28.329  34.837  1.00  0.00     0.173 A 
ATOM     89  C   UNL A   1      44.317  26.431  35.391  1.00  0.00     0.173 A 
ATOM     90  F   UNL A   1      45.915  29.449  34.133  1.00  0.00    -0.203 F 
ATOM     91  C   UNL A   1      46.652  27.894  35.738  1.00  0.00     0.198 A 
ATOM     92  C   UNL A   1      45.272  26.016  36.313  1.00  0.00     0.198 A 
ATOM     93  F   UNL A   1      43.198  25.706  35.246  1.00  0.00    -0.203 F 
ATOM     94  F   UNL A   1      47.791  28.585  35.883  1.00  0.00    -0.200 F 
ATOM     95  C   UNL A   1      46.440  26.743  36.483  1.00  0.00     0.200 A 
ATOM     96  F   UNL A   1      45.059  24.912  37.044  1.00  0.00    -0.200 F 
ATOM     97  F   UNL A   1      47.365  26.333  37.362  1.00  0.00    -0.200 F 
ENDBRANCH  64  87
ENDBRANCH  38  39
ENDBRANCH  31  33
ENDBRANCH  30  31
ENDBRANCH  29  30
ENDBRANCH  28  29
ENDBRANCH  27  28
ENDBRANCH   1  27
TORSDOF 18
ENDMDL
MODEL 2
REMARK VINA RESULT:     -12.1      4.122     10.228
REMARK SMILES COc1ccc([C@H]2CC(c3ccccc3)=NN2C(=O)CCCC(=O)OCCOC(=O)c2ccc(-c3c4nc(c(-c5c(F)c(F)c(F)c(F)c5F)c5ccc([nH]5)c(-c5c(F)c(F)c(F)c(F)c5F)c5nc(c(-c6c(F)c(F)c(F)c(F)c6F)c6ccc3[nH]6)C=C5)C=C4)cc2)cc1
REMARK SMILES IDX 23 1 24 2 22 3 21 4 20 5 18 6 19 7 17 8 7 9 8 10 9 11 16 12
REMARK SMILES IDX 6 13 3 14 4 15 95 16 5 17 94 18 2 19 1 20 10 21 11 22 15 23
REMARK SMILES IDX 12 24 14 25 13 26 25 27 26 28 27 29 28 30 29 31 30 32 31 33
REMARK SMILES IDX 32 34 93 35 33 36 92 37 34 38 35 39 36 40 86 41 37 42 91 43
REMARK SMILES IDX 85 44 87 45 38 46 90 47 84 48 83 49 39 51 71 52 51 53 70 54
REMARK SMILES IDX 52 55 55 56 69 57 88 58 53 59 54 60 68 62 89 63 56 64 40 65
REMARK SMILES IDX 41 66 49 67 42 68 43 69 47 70 50 71 44 72 45 73 48 74 46 75
REMARK SMILES IDX 72 76 73 77 81 78 74 79 75 80 79 81 82 82 76 83 77 84 80 85
REMARK SMILES IDX 78 86 57 87 58 88 66 89 59 90 60 91 64 92 67 93 61 94 62 95
REMARK SMILES IDX 65 96 63 97
REMARK H PARENT 87 50 55 61
REMARK Flexibility Score: inf
ROOT
ATOM      1  C   UNL A   1      34.367  23.058  23.494  1.00  0.00     0.305 C 
ATOM      2  O   UNL A   1      34.381  23.955  22.663  1.00  0.00    -0.252 OA
ENDROOT
BRANCH   1   3
ATOM      3  C   UNL A   1      33.115  22.279  23.825  1.00  0.00     0.123 C 
BRANCH   3   4
ATOM      4  C   UNL A   1      32.063  23.020  24.627  1.00  0.00     0.022 C 
BRANCH   4   5
ATOM      5  C   UNL A   1      32.626  23.810  25.802  1.00  0.00     0.103 C 
BRANCH   5   6
ATOM      6  C   UNL A   1      31.808  25.042  26.131  1.00  0.00     0.243 C 
ATOM      7  O   UNL A   1      30.816  24.898  26.854  1.00  0.00    -0.273 OA
BRANCH   6   8
ATOM      8  N   UNL A   1      32.247  26.277  25.678  1.00  0.00    -0.225 N 
ATOM      9  C   UNL A   1      32.613  26.784  24.332  1.00  0.00     0.147 C 
ATOM     10  C   UNL A   1      33.736  27.766  24.643  1.00  0.00     0.091 C 
ATOM     11  C   UNL A   1      33.402  28.032  26.076  1.00  0.00     0.071 C 
ATOM     12  N   UNL A   1      32.600  27.194  26.648  1.00  0.00    -0.174 NA
BRANCH   9  13
ATOM     13  C   UNL A   1      31.510  27.536  23.582  1.00  0.00    -0.023 A 
ATOM     14  C   UNL A   1      29.359  28.946  22.381  1.00  0.00     0.118 A 
ATOM     15  C   UNL A   1      29.118  27.833  23.185  1.00  0.00     0.047 A 
ATOM     16  C   UNL A   1      30.676  29.339  22.154  1.00  0.00     0.047 A 
ATOM     17  C   UNL A   1      30.176  27.126  23.765  1.00  0.00     0.010 A 
ATOM     18  C   UNL A   1      31.744  28.625  22.729  1.00  0.00     0.010 A 
BRANCH  14  19
ATOM     19  O   UNL A   1      28.232  29.569  21.937  1.00  0.00    -0.497 OA
ATOM     20  C   UNL A   1      27.651  30.595  22.730  1.00  0.00     0.278 C 
ENDBRANCH  14  19
ENDBRANCH   9  13
BRANCH  11  21
ATOM     21  C   UNL A   1      34.037  29.134  26.780  1.00  0.00    -0.002 A 
ATOM     22  C   UNL A   1      35.342  28.972  27.248  1.00  0.00     0.010 A 
ATOM     23  C   UNL A   1      33.326  30.315  26.974  1.00  0.00     0.010 A 
ATOM     24  C   UNL A   1      35.951  30.028  27.918  1.00  0.00     0.001 A 
ATOM     25  C   UNL A   1      33.944  31.367  27.641  1.00  0.00     0.001 A 
ATOM     26  C   UNL A   1      35.254  31.224  28.111  1.00  0.00     0.000 A 
ENDBRANCH  11  21
ENDBRANCH   6   8
ENDBRANCH   5   6
ENDBRANCH   4   5
ENDBRANCH   3   4
ENDBRANCH   1   3
BRANCH   1  27
ATOM     27  O   UNL A   1      35.468  22.656  24.173  1.00  0.00    -0.462 OA
BRANCH  27  28
ATOM     28  C   UNL A   1      35.453  21.291  24.632  1.00  0.00     0.274 C 
BRANCH  28  29
ATOM     29  C   UNL A   1      36.854  20.820  25.034  1.00  0.00     0.275 C 
BRANCH  29  30
ATOM     30  O   UNL A   1      37.572  21.841  25.752  1.00  0.00    -0.458 OA
BRANCH  30  31
ATOM     31  C   UNL A   1      38.836  21.519  26.126  1.00  0.00     0.338 C 
ATOM     32  O   UNL A   1      39.400  20.452  25.958  1.00  0.00    -0.246 OA
BRANCH  31  33
ATOM     33  C   UNL A   1      39.533  22.744  26.580  1.00  0.00     0.060 A 
ATOM     34  C   UNL A   1      39.085  23.971  26.073  1.00  0.00     0.016 A 
ATOM     35  C   UNL A   1      40.583  22.704  27.497  1.00  0.00     0.016 A 
ATOM     36  C   UNL A   1      39.648  25.162  26.508  1.00  0.00     0.010 A 
ATOM     37  C   UNL A   1      41.202  23.898  27.880  1.00  0.00     0.010 A 
ATOM     38  C   UNL A   1      40.741  25.127  27.378  1.00  0.00    -0.014 A 
BRANCH  38  39
ATOM     39  C   UNL A   1      41.503  26.373  27.581  1.00  0.00     0.031 A 
ATOM     40  C   UNL A   1      40.923  27.407  28.499  1.00  0.00     0.074 A 
ATOM     41  C   UNL A   1      42.712  26.543  27.021  1.00  0.00     0.049 A 
ATOM     42  N   UNL A   1      41.397  28.575  28.842  1.00  0.00    -0.248 NA
ATOM     43  C   UNL A   1      39.628  27.075  29.119  1.00  0.00     0.031 C 
ATOM     44  C   UNL A   1      43.391  25.566  26.177  1.00  0.00     0.029 A 
ATOM     45  N   UNL A   1      43.597  27.588  27.111  1.00  0.00    -0.354 N 
ATOM     46  C   UNL A   1      40.443  29.130  29.685  1.00  0.00     0.074 A 
ATOM     47  C   UNL A   1      39.382  28.161  29.834  1.00  0.00     0.031 C 
ATOM     48  C   UNL A   1      44.610  26.038  25.860  1.00  0.00     0.029 A 
ATOM     49  C   UNL A   1      44.777  27.367  26.444  1.00  0.00     0.049 A 
ATOM     50  H   UNL A   1      43.405  28.416  27.606  1.00  0.00     0.167 HD
ATOM     51  C   UNL A   1      40.439  30.361  30.246  1.00  0.00     0.037 A 
ATOM     52  C   UNL A   1      45.861  28.159  26.328  1.00  0.00     0.037 A 
ATOM     53  C   UNL A   1      41.485  31.327  30.061  1.00  0.00     0.049 A 
ATOM     54  C   UNL A   1      45.823  29.531  26.956  1.00  0.00     0.074 A 
ATOM     55  C   UNL A   1      41.552  32.628  30.522  1.00  0.00     0.029 A 
ATOM     56  N   UNL A   1      42.651  31.093  29.344  1.00  0.00    -0.354 N 
ATOM     57  N   UNL A   1      44.900  30.071  27.717  1.00  0.00    -0.248 NA
ATOM     58  C   UNL A   1      46.964  30.417  26.680  1.00  0.00     0.031 C 
ATOM     59  C   UNL A   1      42.737  33.198  30.043  1.00  0.00     0.029 A 
ATOM     60  C   UNL A   1      43.434  32.233  29.332  1.00  0.00     0.049 A 
ATOM     61  H   UNL A   1      42.885  30.242  28.909  1.00  0.00     0.167 HD
ATOM     62  C   UNL A   1      45.342  31.357  28.000  1.00  0.00     0.074 A 
ATOM     63  C   UNL A   1      46.640  31.500  27.373  1.00  0.00     0.031 C 
ATOM     64  C   UNL A   1      44.721  32.344  28.694  1.00  0.00     0.037 A 
BRANCH  51  65
ATOM     65  C   UNL A   1      39.214  30.752  31.015  1.00  0.00     0.064 A 
ATOM     66  C   UNL A   1      38.206  31.551  30.459  1.00  0.00     0.173 A 
ATOM     67  C   UNL A   1      39.064  30.335  32.347  1.00  0.00     0.173 A 
ATOM     68  F   UNL A   1      38.319  32.001  29.200  1.00  0.00    -0.203 F 
ATOM     69  C   UNL A   1      37.102  31.938  31.216  1.00  0.00     0.198 A 
ATOM     70  C   UNL A   1      37.947  30.700  33.091  1.00  0.00     0.198 A 
ATOM     71  F   UNL A   1      40.006  29.577  32.929  1.00  0.00    -0.203 F 
ATOM     72  F   UNL A   1      36.177  32.748  30.683  1.00  0.00    -0.200 F 
ATOM     73  C   UNL A   1      36.972  31.509  32.528  1.00  0.00     0.200 A 
ATOM     74  F   UNL A   1      37.822  30.281  34.358  1.00  0.00    -0.200 F 
ATOM     75  F   UNL A   1      35.912  31.885  33.256  1.00  0.00    -0.200 F 
ENDBRANCH  51  65
BRANCH  52  76
ATOM     76  C   UNL A   1      47.068  27.695  25.591  1.00  0.00     0.064 A 
ATOM     77  C   UNL A   1      47.179  27.888  24.206  1.00  0.00     0.173 A 
ATOM     78  C   UNL A   1      48.118  27.025  26.237  1.00  0.00     0.173 A 
ATOM     79  F   UNL A   1      46.192  28.500  23.534  1.00  0.00    -0.203 F 
ATOM     80  C   UNL A   1      48.280  27.412  23.494  1.00  0.00     0.198 A 
ATOM     81  C   UNL A   1      49.234  26.581  25.529  1.00  0.00     0.198 A 
ATOM     82  F   UNL A   1      48.063  26.802  27.558  1.00  0.00    -0.203 F 
ATOM     83  F   UNL A   1      48.330  27.564  22.164  1.00  0.00    -0.200 F 
ATOM     84  C   UNL A   1      49.310  26.766  24.157  1.00  0.00     0.200 A 
ATOM     85  F   UNL A   1      50.234  25.965  26.177  1.00  0.00    -0.200 F 
ATOM     86  F   UNL A   1      50.369  26.310  23.474  1.00  0.00    -0.200 F 
ENDBRANCH  52  76
BRANCH  64  87
ATOM     87  C   UNL A   1      45.429  33.663  28.799  1.00  0.00     0.064 A 
ATOM     88  C   UNL A   1      46.408  33.888  29.778  1.00  0.00     0.173 A 
ATOM     89  C   UNL A   1      45.179  34.684  27.870  1.00  0.00     0.173 A 
ATOM     90  F   UNL A   1      46.675  32.946  30.695  1.00  0.00    -0.203 F 
ATOM     91  C   UNL A   1      47.096  35.096  29.836  1.00  0.00     0.198 A 
ATOM     92  C   UNL A   1      45.890  35.879  27.914  1.00  0.00     0.198 A 
ATOM     93  F   UNL A   1      44.260  34.513  26.909  1.00  0.00    -0.203 F 
ATOM     94  F   UNL A   1      48.000  35.304  30.803  1.00  0.00    -0.200 F 
ATOM     95  C   UNL A   1      46.844  36.087  28.899  1.00  0.00     0.200 A 
ATOM     96  F   UNL A   1      45.657  36.829  26.998  1.00  0.00    -0.200 F 
ATOM     97  F   UNL A   1      47.518  37.244  28.948  1.00  0.00    -0.200 F 
ENDBRANCH  64  87
ENDBRANCH  38  39
ENDBRANCH  31  33
ENDBRANCH  30  31
ENDBRANCH  29  30
ENDBRANCH  28  29
ENDBRANCH  27  28
ENDBRANCH   1  27
TORSDOF 18
ENDMDL
MODEL 3
REMARK VINA RESULT:     -11.9      4.121      7.735
REMARK SMILES COc1ccc([C@H]2CC(c3ccccc3)=NN2C(=O)CCCC(=O)OCCOC(=O)c2ccc(-c3c4nc(c(-c5c(F)c(F)c(F)c(F)c5F)c5ccc([nH]5)c(-c5c(F)c(F)c(F)c(F)c5F)c5nc(c(-c6c(F)c(F)c(F)c(F)c6F)c6ccc3[nH]6)C=C5)C=C4)cc2)cc1
REMARK SMILES IDX 23 1 24 2 22 3 21 4 20 5 18 6 19 7 17 8 7 9 8 10 9 11 16 12
REMARK SMILES IDX 6 13 3 14 4 15 95 16 5 17 94 18 2 19 1 20 10 21 11 22 15 23
REMARK SMILES IDX 12 24 14 25 13 26 25 27 26 28 27 29 28 30 29 31 30 32 31 33
REMARK SMILES IDX 32 34 93 35 33 36 92 37 34 38 35 39 36 40 86 41 37 42 91 43
REMARK SMILES IDX 85 44 87 45 38 46 90 47 84 48 83 49 39 51 71 52 51 53 70 54
REMARK SMILES IDX 52 55 55 56 69 57 88 58 53 59 54 60 68 62 89 63 56 64 40 65
REMARK SMILES IDX 41 66 49 67 42 68 43 69 47 70 50 71 44 72 45 73 48 74 46 75
REMARK SMILES IDX 72 76 73 77 81 78 74 79 75 80 79 81 82 82 76 83 77 84 80 85
REMARK SMILES IDX 78 86 57 87 58 88 66 89 59 90 60 91 64 92 67 93 61 94 62 95
REMARK SMILES IDX 65 96 63 97
REMARK H PARENT 87 50 55 61
REMARK Flexibility Score: inf
ROOT
ATOM      1  C   UNL A   1      34.410  22.683  23.757  1.00  0.00     0.305 C 
ATOM      2  O   UNL A   1      34.788  23.263  22.749  1.00  0.00    -0.252 OA
ENDROOT
BRANCH   1   3
ATOM      3  C   UNL A   1      32.989  22.199  23.929  1.00  0.00     0.123 C 
BRANCH   3   4
ATOM      4  C   UNL A   1      31.961  23.261  24.270  1.00  0.00     0.022 C 
BRANCH   4   5
ATOM      5  C   UNL A   1      32.130  23.860  25.660  1.00  0.00     0.103 C 
BRANCH   5   6
ATOM      6  C   UNL A   1      31.202  25.029  25.915  1.00  0.00     0.243 C 
ATOM      7  O   UNL A   1      30.153  24.808  26.532  1.00  0.00    -0.273 OA
BRANCH   6   8
ATOM      8  N   UNL A   1      31.600  26.298  25.523  1.00  0.00    -0.225 N 
ATOM      9  C   UNL A   1      31.799  26.924  24.191  1.00  0.00     0.147 C 
ATOM     10  C   UNL A   1      32.969  27.867  24.442  1.00  0.00     0.091 C 
ATOM     11  C   UNL A   1      32.826  28.004  25.924  1.00  0.00     0.071 C 
ATOM     12  N   UNL A   1      32.089  27.121  26.518  1.00  0.00    -0.174 NA
BRANCH   9  13
ATOM     13  C   UNL A   1      30.622  27.747  23.661  1.00  0.00    -0.023 A 
ATOM     14  C   UNL A   1      28.547  29.290  22.490  1.00  0.00     0.118 A 
ATOM     15  C   UNL A   1      29.869  29.727  22.445  1.00  0.00     0.047 A 
ATOM     16  C   UNL A   1      28.256  28.095  23.145  1.00  0.00     0.047 A 
ATOM     17  C   UNL A   1      30.893  28.978  23.034  1.00  0.00     0.010 A 
ATOM     18  C   UNL A   1      29.282  27.342  23.747  1.00  0.00     0.010 A 
BRANCH  14  19
ATOM     19  O   UNL A   1      27.670  30.090  21.821  1.00  0.00    -0.497 OA
ATOM     20  C   UNL A   1      28.173  31.156  21.030  1.00  0.00     0.278 C 
ENDBRANCH  14  19
ENDBRANCH   9  13
BRANCH  11  21
ATOM     21  C   UNL A   1      33.564  29.033  26.636  1.00  0.00    -0.002 A 
ATOM     22  C   UNL A   1      34.877  28.772  27.029  1.00  0.00     0.010 A 
ATOM     23  C   UNL A   1      32.940  30.247  26.913  1.00  0.00     0.010 A 
ATOM     24  C   UNL A   1      35.585  29.759  27.707  1.00  0.00     0.001 A 
ATOM     25  C   UNL A   1      33.657  31.230  27.587  1.00  0.00     0.001 A 
ATOM     26  C   UNL A   1      34.976  30.986  27.982  1.00  0.00     0.000 A 
ENDBRANCH  11  21
ENDBRANCH   6   8
ENDBRANCH   5   6
ENDBRANCH   4   5
ENDBRANCH   3   4
ENDBRANCH   1   3
BRANCH   1  27
ATOM     27  O   UNL A   1      35.227  22.393  24.798  1.00  0.00    -0.462 OA
BRANCH  27  28
ATOM     28  C   UNL A   1      35.750  21.051  24.824  1.00  0.00     0.274 C 
BRANCH  28  29
ATOM     29  C   UNL A   1      37.281  21.047  24.852  1.00  0.00     0.275 C 
BRANCH  29  30
ATOM     30  O   UNL A   1      37.793  21.827  25.949  1.00  0.00    -0.458 OA
BRANCH  30  31
ATOM     31  C   UNL A   1      39.102  21.631  26.251  1.00  0.00     0.338 C 
ATOM     32  O   UNL A   1      39.785  20.668  25.950  1.00  0.00    -0.246 OA
BRANCH  31  33
ATOM     33  C   UNL A   1      39.659  22.878  26.820  1.00  0.00     0.060 A 
ATOM     34  C   UNL A   1      39.109  24.091  26.389  1.00  0.00     0.016 A 
ATOM     35  C   UNL A   1      40.679  22.869  27.772  1.00  0.00     0.016 A 
ATOM     36  C   UNL A   1      39.538  25.294  26.931  1.00  0.00     0.010 A 
ATOM     37  C   UNL A   1      41.166  24.083  28.266  1.00  0.00     0.010 A 
ATOM     38  C   UNL A   1      40.601  25.297  27.838  1.00  0.00    -0.014 A 
BRANCH  38  39
ATOM     39  C   UNL A   1      41.230  26.591  28.162  1.00  0.00     0.031 A 
ATOM     40  C   UNL A   1      42.615  26.846  27.647  1.00  0.00     0.074 A 
ATOM     41  C   UNL A   1      40.554  27.540  28.831  1.00  0.00     0.049 A 
ATOM     42  N   UNL A   1      43.376  27.898  27.790  1.00  0.00    -0.248 NA
ATOM     43  C   UNL A   1      43.225  25.762  26.855  1.00  0.00     0.031 C 
ATOM     44  C   UNL A   1      39.180  27.416  29.306  1.00  0.00     0.029 A 
ATOM     45  N   UNL A   1      40.925  28.810  29.194  1.00  0.00    -0.354 N 
ATOM     46  C   UNL A   1      44.565  27.587  27.143  1.00  0.00     0.074 A 
ATOM     47  C   UNL A   1      44.414  26.268  26.573  1.00  0.00     0.031 C 
ATOM     48  C   UNL A   1      38.805  28.581  29.861  1.00  0.00     0.029 A 
ATOM     49  C   UNL A   1      39.926  29.517  29.818  1.00  0.00     0.049 A 
ATOM     50  H   UNL A   1      41.821  29.180  29.025  1.00  0.00     0.167 HD
ATOM     51  C   UNL A   1      45.696  28.326  27.073  1.00  0.00     0.037 A 
ATOM     52  C   UNL A   1      39.932  30.777  30.294  1.00  0.00     0.037 A 
ATOM     53  C   UNL A   1      45.842  29.622  27.674  1.00  0.00     0.049 A 
ATOM     54  C   UNL A   1      41.213  31.574  30.212  1.00  0.00     0.074 A 
ATOM     55  C   UNL A   1      46.963  30.429  27.728  1.00  0.00     0.029 A 
ATOM     56  N   UNL A   1      44.826  30.297  28.338  1.00  0.00    -0.354 N 
ATOM     57  N   UNL A   1      42.350  31.261  29.637  1.00  0.00    -0.248 NA
ATOM     58  C   UNL A   1      41.218  32.886  30.875  1.00  0.00     0.031 C 
ATOM     59  C   UNL A   1      46.639  31.572  28.467  1.00  0.00     0.029 A 
ATOM     60  C   UNL A   1      45.302  31.503  28.824  1.00  0.00     0.049 A 
ATOM     61  H   UNL A   1      43.906  29.967  28.447  1.00  0.00     0.167 HD
ATOM     62  C   UNL A   1      43.206  32.328  29.877  1.00  0.00     0.074 A 
ATOM     63  C   UNL A   1      42.442  33.320  30.605  1.00  0.00     0.031 C 
ATOM     64  C   UNL A   1      44.515  32.467  29.550  1.00  0.00     0.037 A 
BRANCH  51  65
ATOM     65  C   UNL A   1      46.882  27.691  26.413  1.00  0.00     0.064 A 
ATOM     66  C   UNL A   1      47.784  26.882  27.118  1.00  0.00     0.173 A 
ATOM     67  C   UNL A   1      47.129  27.921  25.051  1.00  0.00     0.173 A 
ATOM     68  F   UNL A   1      47.608  26.658  28.429  1.00  0.00    -0.203 F 
ATOM     69  C   UNL A   1      48.904  26.346  26.488  1.00  0.00     0.198 A 
ATOM     70  C   UNL A   1      48.234  27.361  24.418  1.00  0.00     0.198 A 
ATOM     71  F   UNL A   1      46.300  28.696  24.335  1.00  0.00    -0.203 F 
ATOM     72  F   UNL A   1      49.784  25.621  27.192  1.00  0.00    -0.200 F 
ATOM     73  C   UNL A   1      49.125  26.582  25.139  1.00  0.00     0.200 A 
ATOM     74  F   UNL A   1      48.442  27.588  23.114  1.00  0.00    -0.200 F 
ATOM     75  F   UNL A   1      50.205  26.068  24.534  1.00  0.00    -0.200 F 
ENDBRANCH  51  65
BRANCH  52  76
ATOM     76  C   UNL A   1      38.707  31.371  30.896  1.00  0.00     0.064 A 
ATOM     77  C   UNL A   1      37.826  32.135  30.117  1.00  0.00     0.173 A 
ATOM     78  C   UNL A   1      38.403  31.219  32.257  1.00  0.00     0.173 A 
ATOM     79  F   UNL A   1      38.083  32.335  28.816  1.00  0.00    -0.203 F 
ATOM     80  C   UNL A   1      36.702  32.741  30.679  1.00  0.00     0.198 A 
ATOM     81  C   UNL A   1      37.260  31.795  32.810  1.00  0.00     0.198 A 
ATOM     82  F   UNL A   1      39.213  30.507  33.053  1.00  0.00    -0.203 F 
ATOM     83  F   UNL A   1      35.910  33.511  29.921  1.00  0.00    -0.200 F 
ATOM     84  C   UNL A   1      36.416  32.564  32.023  1.00  0.00     0.200 A 
ATOM     85  F   UNL A   1      36.982  31.613  34.108  1.00  0.00    -0.200 F 
ATOM     86  F   UNL A   1      35.335  33.144  32.563  1.00  0.00    -0.200 F 
ENDBRANCH  52  76
BRANCH  64  87
ATOM     87  C   UNL A   1      45.204  33.727  29.987  1.00  0.00     0.064 A 
ATOM     88  C   UNL A   1      45.888  33.797  31.209  1.00  0.00     0.173 A 
ATOM     89  C   UNL A   1      45.242  34.849  29.145  1.00  0.00     0.173 A 
ATOM     90  F   UNL A   1      45.873  32.754  32.053  1.00  0.00    -0.203 F 
ATOM     91  C   UNL A   1      46.568  34.952  31.582  1.00  0.00     0.198 A 
ATOM     92  C   UNL A   1      45.947  35.991  29.509  1.00  0.00     0.198 A 
ATOM     93  F   UNL A   1      44.612  34.827  27.961  1.00  0.00    -0.203 F 
ATOM     94  F   UNL A   1      47.183  35.011  32.772  1.00  0.00    -0.200 F 
ATOM     95  C   UNL A   1      46.605  36.045  30.729  1.00  0.00     0.200 A 
ATOM     96  F   UNL A   1      45.995  37.040  28.676  1.00  0.00    -0.200 F 
ATOM     97  F   UNL A   1      47.272  37.152  31.084  1.00  0.00    -0.200 F 
ENDBRANCH  64  87
ENDBRANCH  38  39
ENDBRANCH  31  33
ENDBRANCH  30  31
ENDBRANCH  29  30
ENDBRANCH  28  29
ENDBRANCH  27  28
ENDBRANCH   1  27
TORSDOF 18
ENDMDL
