MODEL 1
REMARK VINA RESULT:     -10.9      0.000      0.000
REMARK SMILES O=C(C[C@@H](NC(=O)C1CC=CC1)C1CC1)OCCOC(=O)c1ccc(-c2c3nc(c(-c4c(F)c(F)c(F)c(F)c4F)c4ccc([nH]4)c(-c4c(F)c(F)c(F)c(F)c4F)c4nc(c(-c5c(F)c(F)c(F)c(F)c5F)c5ccc2[nH]5)C=C4)C=C3)cc1
REMARK SMILES IDX 17 1 16 2 2 3 1 4 3 5 4 6 5 7 6 8 7 10 8 11 9 12 12 13 10 14
REMARK SMILES IDX 11 15 13 16 14 17 15 18 18 19 19 20 20 21 21 22 22 23 23 24
REMARK SMILES IDX 84 25 24 26 83 27 25 28 26 29 27 30 77 31 28 32 82 33 76 34
REMARK SMILES IDX 78 35 29 36 81 37 75 38 74 39 30 41 62 42 42 43 61 44 43 45
REMARK SMILES IDX 46 46 60 47 79 48 44 49 45 50 59 52 80 53 47 54 31 55 32 56
REMARK SMILES IDX 40 57 33 58 34 59 38 60 41 61 35 62 36 63 39 64 37 65 63 66
REMARK SMILES IDX 64 67 72 68 65 69 66 70 70 71 73 72 67 73 68 74 71 75 69 76
REMARK SMILES IDX 48 77 49 78 57 79 50 80 51 81 55 82 58 83 52 84 53 85 56 86
REMARK SMILES IDX 54 87
REMARK H PARENT 5 9 78 40 46 51
REMARK Flexibility Score: inf
ROOT
ATOM      1  C   UNL A   1      38.087  19.981  25.035  1.00  0.00     0.274 C 
ENDROOT
BRANCH   1   2
ATOM      2  O   UNL A   1      38.044  21.410  25.228  1.00  0.00    -0.462 OA
BRANCH   2   3
ATOM      3  C   UNL A   1      37.033  22.195  24.789  1.00  0.00     0.308 C 
ATOM      4  O   UNL A   1      37.081  23.414  24.938  1.00  0.00    -0.252 OA
BRANCH   3   5
ATOM      5  C   UNL A   1      35.803  21.542  24.210  1.00  0.00     0.147 C 
BRANCH   5   6
ATOM      6  C   UNL A   1      34.553  21.869  25.027  1.00  0.00     0.096 C 
BRANCH   6   7
ATOM      7  N   UNL A   1      33.373  21.210  24.462  1.00  0.00    -0.352 N 
ATOM      8  C   UNL A   1      33.049  19.933  24.131  1.00  0.00     0.223 C 
ATOM      9  H   UNL A   1      32.641  21.843  24.277  1.00  0.00     0.163 HD
ATOM     10  O   UNL A   1      32.176  19.810  23.268  1.00  0.00    -0.275 OA
BRANCH   8  11
ATOM     11  C   UNL A   1      33.693  18.729  24.805  1.00  0.00     0.086 C 
ATOM     12  C   UNL A   1      32.697  18.007  25.740  1.00  0.00     0.040 C 
ATOM     13  C   UNL A   1      34.190  17.673  23.810  1.00  0.00     0.040 C 
ATOM     14  C   UNL A   1      32.786  16.574  25.338  1.00  0.00    -0.030 C 
ATOM     15  C   UNL A   1      33.594  16.393  24.293  1.00  0.00    -0.030 C 
ENDBRANCH   8  11
ENDBRANCH   6   7
BRANCH   6  16
ATOM     16  C   UNL A   1      34.687  21.651  26.514  1.00  0.00     0.012 C 
ATOM     17  C   UNL A   1      34.491  22.744  27.545  1.00  0.00     0.006 C 
ATOM     18  C   UNL A   1      33.453  21.674  27.385  1.00  0.00     0.006 C 
ENDBRANCH   6  16
ENDBRANCH   5   6
ENDBRANCH   3   5
ENDBRANCH   2   3
ENDBRANCH   1   2
BRANCH   1  19
ATOM     19  C   UNL A   1      39.287  19.352  25.741  1.00  0.00     0.275 C 
BRANCH  19  20
ATOM     20  O   UNL A   1      40.328  20.329  25.934  1.00  0.00    -0.458 OA
BRANCH  20  21
ATOM     21  C   UNL A   1      40.759  20.474  27.215  1.00  0.00     0.338 C 
ATOM     22  O   UNL A   1      40.981  19.589  28.016  1.00  0.00    -0.246 OA
BRANCH  21  23
ATOM     23  C   UNL A   1      41.085  21.900  27.463  1.00  0.00     0.060 A 
ATOM     24  C   UNL A   1      40.470  22.862  26.651  1.00  0.00     0.016 A 
ATOM     25  C   UNL A   1      41.957  22.299  28.481  1.00  0.00     0.016 A 
ATOM     26  C   UNL A   1      40.734  24.221  26.844  1.00  0.00     0.010 A 
ATOM     27  C   UNL A   1      42.221  23.658  28.674  1.00  0.00     0.010 A 
ATOM     28  C   UNL A   1      41.625  24.627  27.846  1.00  0.00    -0.014 A 
BRANCH  28  29
ATOM     29  C   UNL A   1      42.044  26.046  27.958  1.00  0.00     0.031 A 
ATOM     30  C   UNL A   1      43.392  26.447  27.440  1.00  0.00     0.074 A 
ATOM     31  C   UNL A   1      41.255  26.963  28.545  1.00  0.00     0.049 A 
ATOM     32  N   UNL A   1      43.984  27.612  27.485  1.00  0.00    -0.248 NA
ATOM     33  C   UNL A   1      44.178  25.392  26.784  1.00  0.00     0.031 C 
ATOM     34  C   UNL A   1      39.918  26.710  29.065  1.00  0.00     0.029 A 
ATOM     35  N   UNL A   1      41.479  28.287  28.831  1.00  0.00    -0.354 N 
ATOM     36  C   UNL A   1      45.207  27.435  26.856  1.00  0.00     0.074 A 
ATOM     37  C   UNL A   1      45.293  26.039  26.480  1.00  0.00     0.031 C 
ATOM     38  C   UNL A   1      39.455  27.824  29.656  1.00  0.00     0.029 A 
ATOM     39  C   UNL A   1      40.470  28.871  29.558  1.00  0.00     0.049 A 
ATOM     40  H   UNL A   1      42.286  28.773  28.543  1.00  0.00     0.167 HD
ATOM     41  C   UNL A   1      46.163  28.356  26.597  1.00  0.00     0.037 A 
ATOM     42  C   UNL A   1      40.384  30.102  30.097  1.00  0.00     0.037 A 
ATOM     43  C   UNL A   1      46.083  29.740  26.976  1.00  0.00     0.049 A 
ATOM     44  C   UNL A   1      41.497  31.090  29.870  1.00  0.00     0.074 A 
ATOM     45  C   UNL A   1      46.982  30.760  26.713  1.00  0.00     0.029 A 
ATOM     46  N   UNL A   1      45.052  30.295  27.716  1.00  0.00    -0.354 N 
ATOM     47  N   UNL A   1      42.615  30.935  29.203  1.00  0.00    -0.248 NA
ATOM     48  C   UNL A   1      41.331  32.429  30.456  1.00  0.00     0.031 C 
ATOM     49  C   UNL A   1      46.517  31.922  27.338  1.00  0.00     0.029 A 
ATOM     50  C   UNL A   1      45.307  31.637  27.951  1.00  0.00     0.049 A 
ATOM     51  H   UNL A   1      44.255  29.809  28.030  1.00  0.00     0.167 HD
ATOM     52  C   UNL A   1      43.265  32.161  29.255  1.00  0.00     0.074 A 
ATOM     53  C   UNL A   1      42.418  33.052  30.021  1.00  0.00     0.031 C 
ATOM     54  C   UNL A   1      44.451  32.518  28.706  1.00  0.00     0.037 A 
BRANCH  41  55
ATOM     55  C   UNL A   1      47.387  27.880  25.878  1.00  0.00     0.064 A 
ATOM     56  C   UNL A   1      47.416  27.764  24.480  1.00  0.00     0.173 A 
ATOM     57  C   UNL A   1      48.543  27.535  26.594  1.00  0.00     0.173 A 
ATOM     58  F   UNL A   1      46.328  28.065  23.755  1.00  0.00    -0.203 F 
ATOM     59  C   UNL A   1      48.549  27.288  23.826  1.00  0.00     0.198 A 
ATOM     60  C   UNL A   1      49.682  27.083  25.934  1.00  0.00     0.198 A 
ATOM     61  F   UNL A   1      48.563  27.629  27.931  1.00  0.00    -0.203 F 
ATOM     62  F   UNL A   1      48.537  27.133  22.495  1.00  0.00    -0.200 F 
ATOM     63  C   UNL A   1      49.681  26.952  24.553  1.00  0.00     0.200 A 
ATOM     64  F   UNL A   1      50.778  26.764  26.637  1.00  0.00    -0.200 F 
ATOM     65  F   UNL A   1      50.770  26.489  23.923  1.00  0.00    -0.200 F 
ENDBRANCH  41  55
BRANCH  42  66
ATOM     66  C   UNL A   1      39.198  30.473  30.911  1.00  0.00     0.064 A 
ATOM     67  C   UNL A   1      38.070  31.060  30.323  1.00  0.00     0.173 A 
ATOM     68  C   UNL A   1      39.179  30.263  32.298  1.00  0.00     0.173 A 
ATOM     69  F   UNL A   1      38.052  31.302  29.004  1.00  0.00    -0.203 F 
ATOM     70  C   UNL A   1      36.973  31.440  31.095  1.00  0.00     0.198 A 
ATOM     71  C   UNL A   1      38.073  30.623  33.065  1.00  0.00     0.198 A 
ATOM     72  F   UNL A   1      40.235  29.704  32.907  1.00  0.00    -0.203 F 
ATOM     73  F   UNL A   1      35.923  32.037  30.514  1.00  0.00    -0.200 F 
ATOM     74  C   UNL A   1      36.973  31.217  32.464  1.00  0.00     0.200 A 
ATOM     75  F   UNL A   1      38.075  30.398  34.386  1.00  0.00    -0.200 F 
ATOM     76  F   UNL A   1      35.919  31.584  33.205  1.00  0.00    -0.200 F 
ENDBRANCH  42  66
BRANCH  54  77
ATOM     77  C   UNL A   1      44.898  33.939  28.875  1.00  0.00     0.064 A 
ATOM     78  C   UNL A   1      44.501  34.946  27.984  1.00  0.00     0.173 A 
ATOM     79  C   UNL A   1      45.675  34.309  29.984  1.00  0.00     0.173 A 
ATOM     80  F   UNL A   1      43.772  34.639  26.900  1.00  0.00    -0.203 F 
ATOM     81  C   UNL A   1      44.873  36.272  28.193  1.00  0.00     0.198 A 
ATOM     82  C   UNL A   1      46.024  35.639  30.203  1.00  0.00     0.198 A 
ATOM     83  F   UNL A   1      46.076  33.383  30.867  1.00  0.00    -0.203 F 
ATOM     84  F   UNL A   1      44.508  37.215  27.314  1.00  0.00    -0.200 F 
ATOM     85  C   UNL A   1      45.625  36.619  29.307  1.00  0.00     0.200 A 
ATOM     86  F   UNL A   1      46.740  35.973  31.286  1.00  0.00    -0.200 F 
ATOM     87  F   UNL A   1      45.968  37.897  29.513  1.00  0.00    -0.200 F 
ENDBRANCH  54  77
ENDBRANCH  28  29
ENDBRANCH  21  23
ENDBRANCH  20  21
ENDBRANCH  19  20
ENDBRANCH   1  19
TORSDOF 15
ENDMDL
MODEL 2
REMARK VINA RESULT:     -10.9      5.597     11.302
REMARK SMILES O=C(C[C@@H](NC(=O)C1CC=CC1)C1CC1)OCCOC(=O)c1ccc(-c2c3nc(c(-c4c(F)c(F)c(F)c(F)c4F)c4ccc([nH]4)c(-c4c(F)c(F)c(F)c(F)c4F)c4nc(c(-c5c(F)c(F)c(F)c(F)c5F)c5ccc2[nH]5)C=C4)C=C3)cc1
REMARK SMILES IDX 17 1 16 2 2 3 1 4 3 5 4 6 5 7 6 8 7 10 8 11 9 12 12 13 10 14
REMARK SMILES IDX 11 15 13 16 14 17 15 18 18 19 19 20 20 21 21 22 22 23 23 24
REMARK SMILES IDX 84 25 24 26 83 27 25 28 26 29 27 30 77 31 28 32 82 33 76 34
REMARK SMILES IDX 78 35 29 36 81 37 75 38 74 39 30 41 62 42 42 43 61 44 43 45
REMARK SMILES IDX 46 46 60 47 79 48 44 49 45 50 59 52 80 53 47 54 31 55 32 56
REMARK SMILES IDX 40 57 33 58 34 59 38 60 41 61 35 62 36 63 39 64 37 65 63 66
REMARK SMILES IDX 64 67 72 68 65 69 66 70 70 71 73 72 67 73 68 74 71 75 69 76
REMARK SMILES IDX 48 77 49 78 57 79 50 80 51 81 55 82 58 83 52 84 53 85 56 86
REMARK SMILES IDX 54 87
REMARK H PARENT 5 9 78 40 46 51
REMARK Flexibility Score: inf
ROOT
ATOM      1  C   UNL A   1      34.033  33.682  28.497  1.00  0.00     0.274 C 
ENDROOT
BRANCH   1   2
ATOM      2  O   UNL A   1      33.793  33.831  29.912  1.00  0.00    -0.462 OA
BRANCH   2   3
ATOM      3  C   UNL A   1      34.525  33.211  30.865  1.00  0.00     0.308 C 
ATOM      4  O   UNL A   1      34.074  33.060  31.998  1.00  0.00    -0.252 OA
BRANCH   3   5
ATOM      5  C   UNL A   1      35.942  32.803  30.544  1.00  0.00     0.147 C 
BRANCH   5   6
ATOM      6  C   UNL A   1      36.902  33.990  30.626  1.00  0.00     0.096 C 
BRANCH   6   7
ATOM      7  N   UNL A   1      36.877  34.591  31.962  1.00  0.00    -0.352 N 
ATOM      8  C   UNL A   1      37.201  34.171  33.213  1.00  0.00     0.223 C 
ATOM      9  H   UNL A   1      36.546  35.519  31.951  1.00  0.00     0.163 HD
ATOM     10  O   UNL A   1      36.627  34.754  34.137  1.00  0.00    -0.275 OA
BRANCH   8  11
ATOM     11  C   UNL A   1      38.230  33.079  33.464  1.00  0.00     0.086 C 
ATOM     12  C   UNL A   1      39.075  33.378  34.724  1.00  0.00     0.040 C 
ATOM     13  C   UNL A   1      37.604  31.696  33.686  1.00  0.00     0.040 C 
ATOM     14  C   UNL A   1      39.012  32.118  35.518  1.00  0.00    -0.030 C 
ATOM     15  C   UNL A   1      38.215  31.208  34.957  1.00  0.00    -0.030 C 
ENDBRANCH   8  11
ENDBRANCH   6   7
BRANCH   6  16
ATOM     16  C   UNL A   1      38.303  33.712  30.138  1.00  0.00     0.012 C 
ATOM     17  C   UNL A   1      38.935  34.415  28.953  1.00  0.00     0.006 C 
ATOM     18  C   UNL A   1      39.384  34.747  30.345  1.00  0.00     0.006 C 
ENDBRANCH   6  16
ENDBRANCH   5   6
ENDBRANCH   3   5
ENDBRANCH   2   3
ENDBRANCH   1   2
BRANCH   1  19
ATOM     19  C   UNL A   1      33.523  32.338  27.977  1.00  0.00     0.275 C 
BRANCH  19  20
ATOM     20  O   UNL A   1      34.600  31.581  27.393  1.00  0.00    -0.458 OA
BRANCH  20  21
ATOM     21  C   UNL A   1      34.629  30.263  27.721  1.00  0.00     0.338 C 
ATOM     22  O   UNL A   1      33.764  29.438  27.509  1.00  0.00    -0.246 OA
BRANCH  21  23
ATOM     23  C   UNL A   1      35.973  29.919  28.250  1.00  0.00     0.060 A 
ATOM     24  C   UNL A   1      37.077  30.119  27.410  1.00  0.00     0.016 A 
ATOM     25  C   UNL A   1      36.160  29.431  29.547  1.00  0.00     0.016 A 
ATOM     26  C   UNL A   1      38.366  29.820  27.858  1.00  0.00     0.010 A 
ATOM     27  C   UNL A   1      37.451  29.132  29.995  1.00  0.00     0.010 A 
ATOM     28  C   UNL A   1      38.560  29.307  29.148  1.00  0.00    -0.014 A 
BRANCH  28  29
ATOM     29  C   UNL A   1      39.897  28.830  29.580  1.00  0.00     0.031 A 
ATOM     30  C   UNL A   1      40.725  29.707  30.471  1.00  0.00     0.074 A 
ATOM     31  C   UNL A   1      40.388  27.651  29.161  1.00  0.00     0.049 A 
ATOM     32  N   UNL A   1      41.938  29.519  30.922  1.00  0.00    -0.248 NA
ATOM     33  C   UNL A   1      40.102  30.964  30.910  1.00  0.00     0.031 C 
ATOM     34  C   UNL A   1      39.678  26.699  28.319  1.00  0.00     0.029 A 
ATOM     35  N   UNL A   1      41.615  27.069  29.362  1.00  0.00    -0.354 N 
ATOM     36  C   UNL A   1      42.221  30.628  31.706  1.00  0.00     0.074 A 
ATOM     37  C   UNL A   1      41.072  31.506  31.631  1.00  0.00     0.031 C 
ATOM     38  C   UNL A   1      40.493  25.672  28.026  1.00  0.00     0.029 A 
ATOM     39  C   UNL A   1      41.789  25.900  28.662  1.00  0.00     0.049 A 
ATOM     40  H   UNL A   1      42.304  27.452  29.953  1.00  0.00     0.167 HD
ATOM     41  C   UNL A   1      43.330  30.881  32.438  1.00  0.00     0.037 A 
ATOM     42  C   UNL A   1      42.876  25.115  28.534  1.00  0.00     0.037 A 
ATOM     43  C   UNL A   1      44.474  30.014  32.508  1.00  0.00     0.049 A 
ATOM     44  C   UNL A   1      44.131  25.457  29.291  1.00  0.00     0.074 A 
ATOM     45  C   UNL A   1      45.625  30.164  33.263  1.00  0.00     0.029 A 
ATOM     46  N   UNL A   1      44.621  28.843  31.781  1.00  0.00    -0.354 N 
ATOM     47  N   UNL A   1      44.361  26.468  30.094  1.00  0.00    -0.248 NA
ATOM     48  C   UNL A   1      45.274  24.544  29.138  1.00  0.00     0.031 C 
ATOM     49  C   UNL A   1      46.489  29.107  32.955  1.00  0.00     0.029 A 
ATOM     50  C   UNL A   1      45.858  28.277  32.042  1.00  0.00     0.049 A 
ATOM     51  H   UNL A   1      43.946  28.469  31.169  1.00  0.00     0.167 HD
ATOM     52  C   UNL A   1      45.653  26.292  30.571  1.00  0.00     0.074 A 
ATOM     53  C   UNL A   1      46.162  25.079  29.965  1.00  0.00     0.031 C 
ATOM     54  C   UNL A   1      46.350  27.062  31.442  1.00  0.00     0.037 A 
BRANCH  41  55
ATOM     55  C   UNL A   1      43.354  32.163  33.210  1.00  0.00     0.064 A 
ATOM     56  C   UNL A   1      42.790  32.256  34.492  1.00  0.00     0.173 A 
ATOM     57  C   UNL A   1      43.946  33.311  32.664  1.00  0.00     0.173 A 
ATOM     58  F   UNL A   1      42.197  31.189  35.048  1.00  0.00    -0.203 F 
ATOM     59  C   UNL A   1      42.790  33.463  35.186  1.00  0.00     0.198 A 
ATOM     60  C   UNL A   1      43.966  34.509  33.372  1.00  0.00     0.198 A 
ATOM     61  F   UNL A   1      44.498  33.271  31.442  1.00  0.00    -0.203 F 
ATOM     62  F   UNL A   1      42.197  33.544  36.385  1.00  0.00    -0.200 F 
ATOM     63  C   UNL A   1      43.381  34.587  34.627  1.00  0.00     0.200 A 
ATOM     64  F   UNL A   1      44.542  35.593  32.834  1.00  0.00    -0.200 F 
ATOM     65  F   UNL A   1      43.375  35.749  35.294  1.00  0.00    -0.200 F 
ENDBRANCH  41  55
BRANCH  42  66
ATOM     66  C   UNL A   1      42.829  23.923  27.648  1.00  0.00     0.064 A 
ATOM     67  C   UNL A   1      42.476  22.662  28.147  1.00  0.00     0.173 A 
ATOM     68  C   UNL A   1      43.154  24.021  26.288  1.00  0.00     0.173 A 
ATOM     69  F   UNL A   1      42.180  22.515  29.447  1.00  0.00    -0.203 F 
ATOM     70  C   UNL A   1      42.467  21.539  27.321  1.00  0.00     0.198 A 
ATOM     71  C   UNL A   1      43.124  22.901  25.458  1.00  0.00     0.198 A 
ATOM     72  F   UNL A   1      43.499  25.206  25.763  1.00  0.00    -0.203 F 
ATOM     73  F   UNL A   1      42.165  20.338  27.832  1.00  0.00    -0.200 F 
ATOM     74  C   UNL A   1      42.787  21.660  25.977  1.00  0.00     0.200 A 
ATOM     75  F   UNL A   1      43.426  23.025  24.158  1.00  0.00    -0.200 F 
ATOM     76  F   UNL A   1      42.780  20.580  25.185  1.00  0.00    -0.200 F 
ENDBRANCH  42  66
BRANCH  54  77
ATOM     77  C   UNL A   1      47.725  26.606  31.829  1.00  0.00     0.064 A 
ATOM     78  C   UNL A   1      47.932  25.706  32.883  1.00  0.00     0.173 A 
ATOM     79  C   UNL A   1      48.843  27.022  31.088  1.00  0.00     0.173 A 
ATOM     80  F   UNL A   1      46.898  25.293  33.631  1.00  0.00    -0.203 F 
ATOM     81  C   UNL A   1      49.211  25.245  33.187  1.00  0.00     0.198 A 
ATOM     82  C   UNL A   1      50.116  26.539  31.379  1.00  0.00     0.198 A 
ATOM     83  F   UNL A   1      48.695  27.879  30.066  1.00  0.00    -0.203 F 
ATOM     84  F   UNL A   1      49.391  24.407  34.218  1.00  0.00    -0.200 F 
ATOM     85  C   UNL A   1      50.299  25.653  32.429  1.00  0.00     0.200 A 
ATOM     86  F   UNL A   1      51.163  26.925  30.637  1.00  0.00    -0.200 F 
ATOM     87  F   UNL A   1      51.526  25.195  32.714  1.00  0.00    -0.200 F 
ENDBRANCH  54  77
ENDBRANCH  28  29
ENDBRANCH  21  23
ENDBRANCH  20  21
ENDBRANCH  19  20
ENDBRANCH   1  19
TORSDOF 15
ENDMDL
MODEL 3
REMARK VINA RESULT:     -10.8      1.699      7.904
REMARK SMILES O=C(C[C@@H](NC(=O)C1CC=CC1)C1CC1)OCCOC(=O)c1ccc(-c2c3nc(c(-c4c(F)c(F)c(F)c(F)c4F)c4ccc([nH]4)c(-c4c(F)c(F)c(F)c(F)c4F)c4nc(c(-c5c(F)c(F)c(F)c(F)c5F)c5ccc2[nH]5)C=C4)C=C3)cc1
REMARK SMILES IDX 17 1 16 2 2 3 1 4 3 5 4 6 5 7 6 8 7 10 8 11 9 12 12 13 10 14
REMARK SMILES IDX 11 15 13 16 14 17 15 18 18 19 19 20 20 21 21 22 22 23 23 24
REMARK SMILES IDX 84 25 24 26 83 27 25 28 26 29 27 30 77 31 28 32 82 33 76 34
REMARK SMILES IDX 78 35 29 36 81 37 75 38 74 39 30 41 62 42 42 43 61 44 43 45
REMARK SMILES IDX 46 46 60 47 79 48 44 49 45 50 59 52 80 53 47 54 31 55 32 56
REMARK SMILES IDX 40 57 33 58 34 59 38 60 41 61 35 62 36 63 39 64 37 65 63 66
REMARK SMILES IDX 64 67 72 68 65 69 66 70 70 71 73 72 67 73 68 74 71 75 69 76
REMARK SMILES IDX 48 77 49 78 57 79 50 80 51 81 55 82 58 83 52 84 53 85 56 86
REMARK SMILES IDX 54 87
REMARK H PARENT 5 9 78 40 46 51
REMARK Flexibility Score: inf
ROOT
ATOM      1  C   UNL A   1      38.034  20.641  25.279  1.00  0.00     0.274 C 
ENDROOT
BRANCH   1   2
ATOM      2  O   UNL A   1      38.499  21.865  25.886  1.00  0.00    -0.462 OA
BRANCH   2   3
ATOM      3  C   UNL A   1      37.875  23.056  25.741  1.00  0.00     0.308 C 
ATOM      4  O   UNL A   1      37.929  23.900  26.632  1.00  0.00    -0.252 OA
BRANCH   3   5
ATOM      5  C   UNL A   1      37.028  23.290  24.515  1.00  0.00     0.147 C 
BRANCH   5   6
ATOM      6  C   UNL A   1      35.540  23.353  24.861  1.00  0.00     0.096 C 
BRANCH   6   7
ATOM      7  N   UNL A   1      35.211  22.399  25.924  1.00  0.00    -0.352 N 
ATOM      8  C   UNL A   1      34.354  21.351  26.046  1.00  0.00     0.223 C 
ATOM      9  H   UNL A   1      35.734  22.554  26.744  1.00  0.00     0.163 HD
ATOM     10  O   UNL A   1      34.007  21.077  27.198  1.00  0.00    -0.275 OA
BRANCH   8  11
ATOM     11  C   UNL A   1      33.880  20.543  24.847  1.00  0.00     0.086 C 
ATOM     12  C   UNL A   1      34.761  19.292  24.626  1.00  0.00     0.040 C 
ATOM     13  C   UNL A   1      32.441  20.034  24.991  1.00  0.00     0.040 C 
ATOM     14  C   UNL A   1      33.785  18.171  24.507  1.00  0.00    -0.030 C 
ATOM     15  C   UNL A   1      32.529  18.572  24.705  1.00  0.00    -0.030 C 
ENDBRANCH   8  11
ENDBRANCH   6   7
BRANCH   6  16
ATOM     16  C   UNL A   1      35.007  24.738  25.135  1.00  0.00     0.012 C 
ATOM     17  C   UNL A   1      33.875  25.373  24.352  1.00  0.00     0.006 C 
ATOM     18  C   UNL A   1      33.640  24.902  25.756  1.00  0.00     0.006 C 
ENDBRANCH   6  16
ENDBRANCH   5   6
ENDBRANCH   3   5
ENDBRANCH   2   3
ENDBRANCH   1   2
BRANCH   1  19
ATOM     19  C   UNL A   1      39.130  19.577  25.243  1.00  0.00     0.275 C 
BRANCH  19  20
ATOM     20  O   UNL A   1      39.959  19.666  26.417  1.00  0.00    -0.458 OA
BRANCH  20  21
ATOM     21  C   UNL A   1      41.297  19.581  26.193  1.00  0.00     0.338 C 
ATOM     22  O   UNL A   1      41.905  18.628  25.750  1.00  0.00    -0.246 OA
BRANCH  21  23
ATOM     23  C   UNL A   1      41.917  20.910  26.422  1.00  0.00     0.060 A 
ATOM     24  C   UNL A   1      42.278  21.245  27.734  1.00  0.00     0.016 A 
ATOM     25  C   UNL A   1      42.163  21.807  25.378  1.00  0.00     0.016 A 
ATOM     26  C   UNL A   1      42.872  22.480  28.007  1.00  0.00     0.010 A 
ATOM     27  C   UNL A   1      42.758  23.043  25.652  1.00  0.00     0.010 A 
ATOM     28  C   UNL A   1      43.100  23.394  26.970  1.00  0.00    -0.014 A 
BRANCH  28  29
ATOM     29  C   UNL A   1      43.575  24.769  27.263  1.00  0.00     0.031 A 
ATOM     30  C   UNL A   1      42.596  25.780  27.781  1.00  0.00     0.074 A 
ATOM     31  C   UNL A   1      44.851  25.131  27.039  1.00  0.00     0.049 A 
ATOM     32  N   UNL A   1      42.777  27.047  28.048  1.00  0.00    -0.248 NA
ATOM     33  C   UNL A   1      41.230  25.296  28.029  1.00  0.00     0.031 C 
ATOM     34  C   UNL A   1      45.903  24.242  26.564  1.00  0.00     0.029 A 
ATOM     35  N   UNL A   1      45.470  26.351  27.152  1.00  0.00    -0.354 N 
ATOM     36  C   UNL A   1      41.552  27.511  28.505  1.00  0.00     0.074 A 
ATOM     37  C   UNL A   1      40.624  26.401  28.434  1.00  0.00     0.031 C 
ATOM     38  C   UNL A   1      47.027  24.951  26.373  1.00  0.00     0.029 A 
ATOM     39  C   UNL A   1      46.771  26.350  26.710  1.00  0.00     0.049 A 
ATOM     40  H   UNL A   1      45.024  27.151  27.515  1.00  0.00     0.167 HD
ATOM     41  C   UNL A   1      41.235  28.744  28.961  1.00  0.00     0.037 A 
ATOM     42  C   UNL A   1      47.646  27.364  26.576  1.00  0.00     0.037 A 
ATOM     43  C   UNL A   1      42.153  29.849  29.026  1.00  0.00     0.049 A 
ATOM     44  C   UNL A   1      47.248  28.749  27.012  1.00  0.00     0.074 A 
ATOM     45  C   UNL A   1      41.935  31.123  29.521  1.00  0.00     0.029 A 
ATOM     46  N   UNL A   1      43.459  29.815  28.564  1.00  0.00    -0.354 N 
ATOM     47  N   UNL A   1      46.111  29.161  27.518  1.00  0.00    -0.248 NA
ATOM     48  C   UNL A   1      48.258  29.809  26.872  1.00  0.00     0.031 C 
ATOM     49  C   UNL A   1      43.096  31.876  29.312  1.00  0.00     0.029 A 
ATOM     50  C   UNL A   1      44.051  31.057  28.729  1.00  0.00     0.049 A 
ATOM     51  H   UNL A   1      43.902  29.026  28.176  1.00  0.00     0.167 HD
ATOM     52  C   UNL A   1      46.281  30.511  27.794  1.00  0.00     0.074 A 
ATOM     53  C   UNL A   1      47.630  30.853  27.395  1.00  0.00     0.031 C 
ATOM     54  C   UNL A   1      45.399  31.384  28.339  1.00  0.00     0.037 A 
BRANCH  41  55
ATOM     55  C   UNL A   1      39.824  28.958  29.413  1.00  0.00     0.064 A 
ATOM     56  C   UNL A   1      39.435  28.714  30.739  1.00  0.00     0.173 A 
ATOM     57  C   UNL A   1      38.850  29.411  28.512  1.00  0.00     0.173 A 
ATOM     58  F   UNL A   1      40.328  28.262  31.633  1.00  0.00    -0.203 F 
ATOM     59  C   UNL A   1      38.112  28.885  31.138  1.00  0.00     0.198 A 
ATOM     60  C   UNL A   1      37.534  29.605  28.921  1.00  0.00     0.198 A 
ATOM     61  F   UNL A   1      39.174  29.658  27.234  1.00  0.00    -0.203 F 
ATOM     62  F   UNL A   1      37.751  28.593  32.396  1.00  0.00    -0.200 F 
ATOM     63  C   UNL A   1      37.165  29.333  30.230  1.00  0.00     0.200 A 
ATOM     64  F   UNL A   1      36.620  30.044  28.045  1.00  0.00    -0.200 F 
ATOM     65  F   UNL A   1      35.891  29.493  30.615  1.00  0.00    -0.200 F 
ENDBRANCH  41  55
BRANCH  42  66
ATOM     66  C   UNL A   1      48.992  27.110  25.999  1.00  0.00     0.064 A 
ATOM     67  C   UNL A   1      50.081  26.783  26.817  1.00  0.00     0.173 A 
ATOM     68  C   UNL A   1      49.216  27.209  24.618  1.00  0.00     0.173 A 
ATOM     69  F   UNL A   1      49.920  26.701  28.146  1.00  0.00    -0.203 F 
ATOM     70  C   UNL A   1      51.350  26.580  26.277  1.00  0.00     0.198 A 
ATOM     71  C   UNL A   1      50.480  26.984  24.077  1.00  0.00     0.198 A 
ATOM     72  F   UNL A   1      48.205  27.520  23.794  1.00  0.00    -0.203 F 
ATOM     73  F   UNL A   1      52.383  26.308  27.085  1.00  0.00    -0.200 F 
ATOM     74  C   UNL A   1      51.548  26.677  24.907  1.00  0.00     0.200 A 
ATOM     75  F   UNL A   1      50.665  27.071  22.753  1.00  0.00    -0.200 F 
ATOM     76  F   UNL A   1      52.768  26.484  24.389  1.00  0.00    -0.200 F 
ENDBRANCH  42  66
BRANCH  54  77
ATOM     77  C   UNL A   1      45.867  32.789  28.576  1.00  0.00     0.064 A 
ATOM     78  C   UNL A   1      46.559  33.147  29.741  1.00  0.00     0.173 A 
ATOM     79  C   UNL A   1      45.681  33.773  27.591  1.00  0.00     0.173 A 
ATOM     80  F   UNL A   1      46.748  32.247  30.718  1.00  0.00    -0.203 F 
ATOM     81  C   UNL A   1      47.042  34.442  29.915  1.00  0.00     0.198 A 
ATOM     82  C   UNL A   1      46.186  35.059  27.759  1.00  0.00     0.198 A 
ATOM     83  F   UNL A   1      45.028  33.477  26.458  1.00  0.00    -0.203 F 
ATOM     84  F   UNL A   1      47.676  34.771  31.049  1.00  0.00    -0.200 F 
ATOM     85  C   UNL A   1      46.864  35.393  28.921  1.00  0.00     0.200 A 
ATOM     86  F   UNL A   1      46.024  35.972  26.791  1.00  0.00    -0.200 F 
ATOM     87  F   UNL A   1      47.343  36.634  29.085  1.00  0.00    -0.200 F 
ENDBRANCH  54  77
ENDBRANCH  28  29
ENDBRANCH  21  23
ENDBRANCH  20  21
ENDBRANCH  19  20
ENDBRANCH   1  19
TORSDOF 15
ENDMDL
