MODEL 1
REMARK VINA RESULT:     -12.9      0.000      0.000
REMARK SMILES Cc1cc(C)c2c(c1)C=C(C(=O)OCCOC(=O)c1ccc(-c3c4nc(c(-c5c(F)c(F)c(F)c(F)c5F)c5ccc([nH]5)c(-c5c(F)c(F)c(F)c(F)c5F)c5nc(c(-c6c(F)c(F)c(F)c(F)c6F)c6ccc3[nH]6)C=C5)C=C4)cc1)[C@@H](C(F)(F)F)O2
REMARK SMILES IDX 15 1 14 2 13 3 11 4 12 5 10 6 1 7 2 8 3 9 8 10 4 11 7 12
REMARK SMILES IDX 5 13 6 14 9 15 87 16 82 17 83 18 84 19 85 20 86 21 16 22
REMARK SMILES IDX 17 23 18 24 19 25 20 26 81 27 21 28 80 29 22 30 23 31 24 32
REMARK SMILES IDX 74 33 25 34 79 35 73 36 75 37 26 38 78 39 72 40 71 41 27 43
REMARK SMILES IDX 59 44 39 45 58 46 40 47 43 48 57 49 76 50 41 51 42 52 56 54
REMARK SMILES IDX 77 55 44 56 28 57 29 58 37 59 30 60 31 61 35 62 38 63 32 64
REMARK SMILES IDX 33 65 36 66 34 67 60 68 61 69 69 70 62 71 63 72 67 73 70 74
REMARK SMILES IDX 64 75 65 76 68 77 66 78 45 79 46 80 54 81 47 82 48 83 52 84
REMARK SMILES IDX 55 85 49 86 50 87 53 88 51 89
REMARK H PARENT 75 42 43 53
REMARK Flexibility Score: inf
ROOT
ATOM      1  C   UNL A   1      31.594  30.555  25.748  1.00  0.00     0.275 C 
ENDROOT
BRANCH   1   2
ATOM      2  C   UNL A   1      31.504  29.178  25.092  1.00  0.00     0.275 C 
BRANCH   2   3
ATOM      3  O   UNL A   1      32.417  28.241  25.704  1.00  0.00    -0.459 OA
BRANCH   3   4
ATOM      4  C   UNL A   1      31.840  27.281  26.463  1.00  0.00     0.338 C 
ATOM      5  O   UNL A   1      31.048  27.453  27.377  1.00  0.00    -0.246 OA
BRANCH   4   6
ATOM      6  C   UNL A   1      32.268  25.940  26.024  1.00  0.00     0.087 C 
ATOM      7  C   UNL A   1      37.371  22.796  24.640  1.00  0.00     0.044 C 
ATOM      8  C   UNL A   1      35.894  23.036  24.739  1.00  0.00    -0.050 A 
ATOM      9  C   UNL A   1      34.968  22.114  24.236  1.00  0.00     0.010 A 
ATOM     10  C   UNL A   1      35.420  24.193  25.360  1.00  0.00     0.015 A 
ATOM     11  C   UNL A   1      33.583  22.345  24.338  1.00  0.00    -0.008 A 
ATOM     12  C   UNL A   1      34.044  24.439  25.451  1.00  0.00     0.018 A 
ATOM     13  C   UNL A   1      32.614  21.347  23.773  1.00  0.00     0.048 C 
ATOM     14  C   UNL A   1      33.124  23.519  24.951  1.00  0.00     0.130 A 
ATOM     15  C   UNL A   1      33.578  25.681  26.028  1.00  0.00     0.027 C 
ATOM     16  O   UNL A   1      31.769  23.699  25.045  1.00  0.00    -0.475 OA
ATOM     17  C   UNL A   1      31.250  24.997  25.454  1.00  0.00     0.316 C 
BRANCH  17  18
ATOM     18  C   UNL A   1      30.507  25.632  24.269  1.00  0.00     0.430 C 
ATOM     19  F   UNL A   1      29.909  24.693  23.498  1.00  0.00    -0.167 F 
ATOM     20  F   UNL A   1      29.525  26.467  24.690  1.00  0.00    -0.167 F 
ATOM     21  F   UNL A   1      31.331  26.349  23.472  1.00  0.00    -0.167 F 
ENDBRANCH  17  18
ENDBRANCH   4   6
ENDBRANCH   3   4
ENDBRANCH   2   3
ENDBRANCH   1   2
BRANCH   1  22
ATOM     22  O   UNL A   1      32.393  30.488  26.945  1.00  0.00    -0.458 OA
BRANCH  22  23
ATOM     23  C   UNL A   1      33.085  31.610  27.242  1.00  0.00     0.338 C 
ATOM     24  O   UNL A   1      32.674  32.758  27.249  1.00  0.00    -0.246 OA
BRANCH  23  25
ATOM     25  C   UNL A   1      34.457  31.271  27.650  1.00  0.00     0.060 A 
ATOM     26  C   UNL A   1      34.760  29.945  27.927  1.00  0.00     0.016 A 
ATOM     27  C   UNL A   1      35.370  32.272  27.967  1.00  0.00     0.016 A 
ATOM     28  C   UNL A   1      35.885  29.630  28.682  1.00  0.00     0.010 A 
ATOM     29  C   UNL A   1      36.582  31.932  28.582  1.00  0.00     0.010 A 
ATOM     30  C   UNL A   1      36.831  30.613  29.003  1.00  0.00    -0.014 A 
BRANCH  30  31
ATOM     31  C   UNL A   1      38.048  30.262  29.799  1.00  0.00     0.031 A 
ATOM     32  C   UNL A   1      39.139  29.412  29.194  1.00  0.00     0.074 A 
ATOM     33  C   UNL A   1      38.200  30.725  31.057  1.00  0.00     0.049 A 
ATOM     34  N   UNL A   1      40.167  28.845  29.775  1.00  0.00    -0.248 NA
ATOM     35  C   UNL A   1      39.059  29.154  27.746  1.00  0.00     0.031 C 
ATOM     36  C   UNL A   1      37.263  31.606  31.758  1.00  0.00     0.029 A 
ATOM     37  N   UNL A   1      39.211  30.536  31.970  1.00  0.00    -0.354 N 
ATOM     38  C   UNL A   1      40.815  28.117  28.783  1.00  0.00     0.074 A 
ATOM     39  C   UNL A   1      40.062  28.307  27.561  1.00  0.00     0.031 C 
ATOM     40  C   UNL A   1      37.771  31.934  32.953  1.00  0.00     0.029 A 
ATOM     41  C   UNL A   1      39.007  31.192  33.161  1.00  0.00     0.049 A 
ATOM     42  H   UNL A   1      40.005  29.983  31.789  1.00  0.00     0.167 HD
ATOM     43  C   UNL A   1      41.937  27.364  28.882  1.00  0.00     0.037 A 
ATOM     44  C   UNL A   1      39.700  31.165  34.315  1.00  0.00     0.037 A 
ATOM     45  C   UNL A   1      42.719  27.231  30.086  1.00  0.00     0.049 A 
ATOM     46  C   UNL A   1      40.906  30.277  34.419  1.00  0.00     0.074 A 
ATOM     47  C   UNL A   1      43.874  26.495  30.287  1.00  0.00     0.029 A 
ATOM     48  N   UNL A   1      42.437  27.866  31.286  1.00  0.00    -0.354 N 
ATOM     49  N   UNL A   1      41.463  29.531  33.498  1.00  0.00    -0.248 NA
ATOM     50  C   UNL A   1      41.562  30.204  35.733  1.00  0.00     0.031 C 
ATOM     51  C   UNL A   1      44.268  26.653  31.618  1.00  0.00     0.029 A 
ATOM     52  C   UNL A   1      43.388  27.527  32.236  1.00  0.00     0.049 A 
ATOM     53  H   UNL A   1      41.674  28.469  31.441  1.00  0.00     0.167 HD
ATOM     54  C   UNL A   1      42.537  28.904  34.113  1.00  0.00     0.074 A 
ATOM     55  C   UNL A   1      42.570  29.378  35.482  1.00  0.00     0.031 C 
ATOM     56  C   UNL A   1      43.410  28.010  33.592  1.00  0.00     0.037 A 
BRANCH  43  57
ATOM     57  C   UNL A   1      42.388  26.601  27.669  1.00  0.00     0.064 A 
ATOM     58  C   UNL A   1      43.346  27.115  26.783  1.00  0.00     0.173 A 
ATOM     59  C   UNL A   1      41.904  25.305  27.429  1.00  0.00     0.173 A 
ATOM     60  F   UNL A   1      43.835  28.351  26.959  1.00  0.00    -0.203 F 
ATOM     61  C   UNL A   1      43.790  26.366  25.693  1.00  0.00     0.198 A 
ATOM     62  C   UNL A   1      42.371  24.549  26.357  1.00  0.00     0.198 A 
ATOM     63  F   UNL A   1      40.993  24.761  28.250  1.00  0.00    -0.203 F 
ATOM     64  F   UNL A   1      44.680  26.891  24.839  1.00  0.00    -0.200 F 
ATOM     65  C   UNL A   1      43.310  25.082  25.487  1.00  0.00     0.200 A 
ATOM     66  F   UNL A   1      41.917  23.301  26.170  1.00  0.00    -0.200 F 
ATOM     67  F   UNL A   1      43.750  24.357  24.449  1.00  0.00    -0.200 F 
ENDBRANCH  43  57
BRANCH  44  68
ATOM     68  C   UNL A   1      39.239  31.979  35.473  1.00  0.00     0.064 A 
ATOM     69  C   UNL A   1      38.399  31.426  36.448  1.00  0.00     0.173 A 
ATOM     70  C   UNL A   1      39.654  33.308  35.646  1.00  0.00     0.173 A 
ATOM     71  F   UNL A   1      37.952  30.170  36.315  1.00  0.00    -0.203 F 
ATOM     72  C   UNL A   1      37.995  32.173  37.554  1.00  0.00     0.198 A 
ATOM     73  C   UNL A   1      39.278  34.041  36.769  1.00  0.00     0.198 A 
ATOM     74  F   UNL A   1      40.456  33.886  34.738  1.00  0.00    -0.203 F 
ATOM     75  F   UNL A   1      37.167  31.631  38.458  1.00  0.00    -0.200 F 
ATOM     76  C   UNL A   1      38.445  33.474  37.721  1.00  0.00     0.200 A 
ATOM     77  F   UNL A   1      39.732  35.291  36.933  1.00  0.00    -0.200 F 
ATOM     78  F   UNL A   1      38.074  34.182  38.796  1.00  0.00    -0.200 F 
ENDBRANCH  44  68
BRANCH  56  79
ATOM     79  C   UNL A   1      44.493  27.496  34.494  1.00  0.00     0.064 A 
ATOM     80  C   UNL A   1      45.697  28.195  34.663  1.00  0.00     0.173 A 
ATOM     81  C   UNL A   1      44.298  26.327  35.244  1.00  0.00     0.173 A 
ATOM     82  F   UNL A   1      45.936  29.309  33.955  1.00  0.00    -0.203 F 
ATOM     83  C   UNL A   1      46.672  27.734  35.543  1.00  0.00     0.198 A 
ATOM     84  C   UNL A   1      45.263  25.884  36.143  1.00  0.00     0.198 A 
ATOM     85  F   UNL A   1      43.161  25.626  35.121  1.00  0.00    -0.203 F 
ATOM     86  F   UNL A   1      47.830  28.398  35.663  1.00  0.00    -0.200 F 
ATOM     87  C   UNL A   1      46.451  26.586  36.289  1.00  0.00     0.200 A 
ATOM     88  F   UNL A   1      45.042  24.783  36.874  1.00  0.00    -0.200 F 
ATOM     89  F   UNL A   1      47.385  26.153  37.146  1.00  0.00    -0.200 F 
ENDBRANCH  56  79
ENDBRANCH  30  31
ENDBRANCH  23  25
ENDBRANCH  22  23
ENDBRANCH   1  22
TORSDOF 12
ENDMDL
MODEL 2
REMARK VINA RESULT:     -12.8      0.416      1.276
REMARK SMILES Cc1cc(C)c2c(c1)C=C(C(=O)OCCOC(=O)c1ccc(-c3c4nc(c(-c5c(F)c(F)c(F)c(F)c5F)c5ccc([nH]5)c(-c5c(F)c(F)c(F)c(F)c5F)c5nc(c(-c6c(F)c(F)c(F)c(F)c6F)c6ccc3[nH]6)C=C5)C=C4)cc1)[C@@H](C(F)(F)F)O2
REMARK SMILES IDX 15 1 14 2 13 3 11 4 12 5 10 6 1 7 2 8 3 9 8 10 4 11 7 12
REMARK SMILES IDX 5 13 6 14 9 15 87 16 82 17 83 18 84 19 85 20 86 21 16 22
REMARK SMILES IDX 17 23 18 24 19 25 20 26 81 27 21 28 80 29 22 30 23 31 24 32
REMARK SMILES IDX 74 33 25 34 79 35 73 36 75 37 26 38 78 39 72 40 71 41 27 43
REMARK SMILES IDX 59 44 39 45 58 46 40 47 43 48 57 49 76 50 41 51 42 52 56 54
REMARK SMILES IDX 77 55 44 56 28 57 29 58 37 59 30 60 31 61 35 62 38 63 32 64
REMARK SMILES IDX 33 65 36 66 34 67 60 68 61 69 69 70 62 71 63 72 67 73 70 74
REMARK SMILES IDX 64 75 65 76 68 77 66 78 45 79 46 80 54 81 47 82 48 83 52 84
REMARK SMILES IDX 55 85 49 86 50 87 53 88 51 89
REMARK H PARENT 75 42 43 53
REMARK Flexibility Score: inf
ROOT
ATOM      1  C   UNL A   1      32.022  30.055  25.331  1.00  0.00     0.275 C 
ENDROOT
BRANCH   1   2
ATOM      2  C   UNL A   1      31.447  28.684  24.977  1.00  0.00     0.275 C 
BRANCH   2   3
ATOM      3  O   UNL A   1      32.310  27.617  25.428  1.00  0.00    -0.459 OA
BRANCH   3   4
ATOM      4  C   UNL A   1      31.723  26.689  26.217  1.00  0.00     0.338 C 
ATOM      5  O   UNL A   1      30.871  26.891  27.069  1.00  0.00    -0.246 OA
BRANCH   4   6
ATOM      6  C   UNL A   1      32.224  25.340  25.898  1.00  0.00     0.087 C 
ATOM      7  C   UNL A   1      37.511  22.292  25.128  1.00  0.00     0.044 C 
ATOM      8  C   UNL A   1      36.024  22.488  25.092  1.00  0.00    -0.050 A 
ATOM      9  C   UNL A   1      35.170  21.506  24.574  1.00  0.00     0.010 A 
ATOM     10  C   UNL A   1      35.468  23.663  25.599  1.00  0.00     0.015 A 
ATOM     11  C   UNL A   1      33.776  21.696  24.549  1.00  0.00    -0.008 A 
ATOM     12  C   UNL A   1      34.083  23.868  25.564  1.00  0.00     0.018 A 
ATOM     13  C   UNL A   1      32.885  20.634  23.971  1.00  0.00     0.048 C 
ATOM     14  C   UNL A   1      33.234  22.889  25.049  1.00  0.00     0.130 A 
ATOM     15  C   UNL A   1      33.536  25.126  26.024  1.00  0.00     0.027 C 
ATOM     16  O   UNL A   1      31.872  23.029  25.022  1.00  0.00    -0.475 OA
ATOM     17  C   UNL A   1      31.284  24.330  25.307  1.00  0.00     0.316 C 
BRANCH  17  18
ATOM     18  C   UNL A   1      30.623  24.869  24.029  1.00  0.00     0.430 C 
ATOM     19  F   UNL A   1      29.592  25.700  24.317  1.00  0.00    -0.167 F 
ATOM     20  F   UNL A   1      31.498  25.586  23.283  1.00  0.00    -0.167 F 
ATOM     21  F   UNL A   1      30.141  23.878  23.245  1.00  0.00    -0.167 F 
ENDBRANCH  17  18
ENDBRANCH   4   6
ENDBRANCH   3   4
ENDBRANCH   2   3
ENDBRANCH   1   2
BRANCH   1  22
ATOM     22  O   UNL A   1      32.431  30.086  26.711  1.00  0.00    -0.458 OA
BRANCH  22  23
ATOM     23  C   UNL A   1      33.013  31.236  27.116  1.00  0.00     0.338 C 
ATOM     24  O   UNL A   1      32.500  32.339  27.207  1.00  0.00    -0.246 OA
BRANCH  23  25
ATOM     25  C   UNL A   1      34.402  30.987  27.530  1.00  0.00     0.060 A 
ATOM     26  C   UNL A   1      34.802  29.679  27.765  1.00  0.00     0.016 A 
ATOM     27  C   UNL A   1      35.233  32.043  27.893  1.00  0.00     0.016 A 
ATOM     28  C   UNL A   1      35.940  29.423  28.523  1.00  0.00     0.010 A 
ATOM     29  C   UNL A   1      36.462  31.773  28.511  1.00  0.00     0.010 A 
ATOM     30  C   UNL A   1      36.806  30.463  28.890  1.00  0.00    -0.014 A 
BRANCH  30  31
ATOM     31  C   UNL A   1      38.037  30.177  29.688  1.00  0.00     0.031 A 
ATOM     32  C   UNL A   1      39.156  29.352  29.100  1.00  0.00     0.074 A 
ATOM     33  C   UNL A   1      38.177  30.676  30.934  1.00  0.00     0.049 A 
ATOM     34  N   UNL A   1      40.207  28.837  29.690  1.00  0.00    -0.248 NA
ATOM     35  C   UNL A   1      39.081  29.054  27.660  1.00  0.00     0.031 C 
ATOM     36  C   UNL A   1      37.211  31.540  31.617  1.00  0.00     0.029 A 
ATOM     37  N   UNL A   1      39.198  30.547  31.847  1.00  0.00    -0.354 N 
ATOM     38  C   UNL A   1      40.877  28.109  28.714  1.00  0.00     0.074 A 
ATOM     39  C   UNL A   1      40.114  28.240  27.492  1.00  0.00     0.031 C 
ATOM     40  C   UNL A   1      37.711  31.917  32.801  1.00  0.00     0.029 A 
ATOM     41  C   UNL A   1      38.974  31.225  33.022  1.00  0.00     0.049 A 
ATOM     42  H   UNL A   1      40.010  30.019  31.676  1.00  0.00     0.167 HD
ATOM     43  C   UNL A   1      42.026  27.400  28.827  1.00  0.00     0.037 A 
ATOM     44  C   UNL A   1      39.672  31.253  34.173  1.00  0.00     0.037 A 
ATOM     45  C   UNL A   1      42.817  27.326  30.030  1.00  0.00     0.049 A 
ATOM     46  C   UNL A   1      40.910  30.413  34.294  1.00  0.00     0.074 A 
ATOM     47  C   UNL A   1      43.999  26.638  30.244  1.00  0.00     0.029 A 
ATOM     48  N   UNL A   1      42.516  27.981  31.215  1.00  0.00    -0.354 N 
ATOM     49  N   UNL A   1      41.490  29.664  33.390  1.00  0.00    -0.248 NA
ATOM     50  C   UNL A   1      41.573  30.396  35.606  1.00  0.00     0.031 C 
ATOM     51  C   UNL A   1      44.392  26.844  31.569  1.00  0.00     0.029 A 
ATOM     52  C   UNL A   1      43.483  27.701  32.168  1.00  0.00     0.049 A 
ATOM     53  H   UNL A   1      41.733  28.559  31.358  1.00  0.00     0.167 HD
ATOM     54  C   UNL A   1      42.589  29.093  34.015  1.00  0.00     0.074 A 
ATOM     55  C   UNL A   1      42.609  29.601  35.372  1.00  0.00     0.031 C 
ATOM     56  C   UNL A   1      43.492  28.218  33.512  1.00  0.00     0.037 A 
BRANCH  43  57
ATOM     57  C   UNL A   1      42.501  26.624  27.631  1.00  0.00     0.064 A 
ATOM     58  C   UNL A   1      43.467  27.133  26.751  1.00  0.00     0.173 A 
ATOM     59  C   UNL A   1      42.030  25.321  27.403  1.00  0.00     0.173 A 
ATOM     60  F   UNL A   1      43.944  28.375  26.916  1.00  0.00    -0.203 F 
ATOM     61  C   UNL A   1      43.932  26.372  25.679  1.00  0.00     0.198 A 
ATOM     62  C   UNL A   1      42.518  24.553  26.348  1.00  0.00     0.198 A 
ATOM     63  F   UNL A   1      41.111  24.781  28.219  1.00  0.00    -0.203 F 
ATOM     64  F   UNL A   1      44.830  26.892  24.830  1.00  0.00    -0.200 F 
ATOM     65  C   UNL A   1      43.465  25.081  25.485  1.00  0.00     0.200 A 
ATOM     66  F   UNL A   1      42.077  23.299  26.173  1.00  0.00    -0.200 F 
ATOM     67  F   UNL A   1      43.925  24.346  24.463  1.00  0.00    -0.200 F 
ENDBRANCH  43  57
BRANCH  44  68
ATOM     68  C   UNL A   1      39.185  32.078  35.312  1.00  0.00     0.064 A 
ATOM     69  C   UNL A   1      38.405  31.510  36.327  1.00  0.00     0.173 A 
ATOM     70  C   UNL A   1      39.518  33.437  35.427  1.00  0.00     0.173 A 
ATOM     71  F   UNL A   1      38.037  30.224  36.250  1.00  0.00    -0.203 F 
ATOM     72  C   UNL A   1      37.979  32.270  37.416  1.00  0.00     0.198 A 
ATOM     73  C   UNL A   1      39.121  34.185  36.532  1.00  0.00     0.198 A 
ATOM     74  F   UNL A   1      40.261  34.030  34.480  1.00  0.00    -0.203 F 
ATOM     75  F   UNL A   1      37.208  31.711  38.358  1.00  0.00    -0.200 F 
ATOM     76  C   UNL A   1      38.348  33.603  37.525  1.00  0.00     0.200 A 
ATOM     77  F   UNL A   1      39.497  35.467  36.640  1.00  0.00    -0.200 F 
ATOM     78  F   UNL A   1      37.957  34.325  38.582  1.00  0.00    -0.200 F 
ENDBRANCH  44  68
BRANCH  56  79
ATOM     79  C   UNL A   1      44.597  27.767  34.422  1.00  0.00     0.064 A 
ATOM     80  C   UNL A   1      44.483  26.595  35.183  1.00  0.00     0.173 A 
ATOM     81  C   UNL A   1      45.803  28.479  34.483  1.00  0.00     0.173 A 
ATOM     82  F   UNL A   1      43.343  25.888  35.170  1.00  0.00    -0.203 F 
ATOM     83  C   UNL A   1      45.536  26.160  35.983  1.00  0.00     0.198 A 
ATOM     84  C   UNL A   1      46.863  28.026  35.262  1.00  0.00     0.198 A 
ATOM     85  F   UNL A   1      45.962  29.604  33.769  1.00  0.00    -0.203 F 
ATOM     86  F   UNL A   1      45.394  25.055  36.730  1.00  0.00    -0.200 F 
ATOM     87  C   UNL A   1      46.728  26.869  36.014  1.00  0.00     0.200 A 
ATOM     88  F   UNL A   1      48.019  28.705  35.280  1.00  0.00    -0.200 F 
ATOM     89  F   UNL A   1      47.744  26.439  36.774  1.00  0.00    -0.200 F 
ENDBRANCH  56  79
ENDBRANCH  30  31
ENDBRANCH  23  25
ENDBRANCH  22  23
ENDBRANCH   1  22
TORSDOF 12
ENDMDL
MODEL 3
REMARK VINA RESULT:     -12.7      5.333     11.524
REMARK SMILES Cc1cc(C)c2c(c1)C=C(C(=O)OCCOC(=O)c1ccc(-c3c4nc(c(-c5c(F)c(F)c(F)c(F)c5F)c5ccc([nH]5)c(-c5c(F)c(F)c(F)c(F)c5F)c5nc(c(-c6c(F)c(F)c(F)c(F)c6F)c6ccc3[nH]6)C=C5)C=C4)cc1)[C@@H](C(F)(F)F)O2
REMARK SMILES IDX 15 1 14 2 13 3 11 4 12 5 10 6 1 7 2 8 3 9 8 10 4 11 7 12
REMARK SMILES IDX 5 13 6 14 9 15 87 16 82 17 83 18 84 19 85 20 86 21 16 22
REMARK SMILES IDX 17 23 18 24 19 25 20 26 81 27 21 28 80 29 22 30 23 31 24 32
REMARK SMILES IDX 74 33 25 34 79 35 73 36 75 37 26 38 78 39 72 40 71 41 27 43
REMARK SMILES IDX 59 44 39 45 58 46 40 47 43 48 57 49 76 50 41 51 42 52 56 54
REMARK SMILES IDX 77 55 44 56 28 57 29 58 37 59 30 60 31 61 35 62 38 63 32 64
REMARK SMILES IDX 33 65 36 66 34 67 60 68 61 69 69 70 62 71 63 72 67 73 70 74
REMARK SMILES IDX 64 75 65 76 68 77 66 78 45 79 46 80 54 81 47 82 48 83 52 84
REMARK SMILES IDX 55 85 49 86 50 87 53 88 51 89
REMARK H PARENT 75 42 43 53
REMARK Flexibility Score: inf
ROOT
ATOM      1  C   UNL A   1      40.810  20.006  26.179  1.00  0.00     0.275 C 
ENDROOT
BRANCH   1   2
ATOM      2  C   UNL A   1      42.182  19.803  26.821  1.00  0.00     0.275 C 
BRANCH   2   3
ATOM      3  O   UNL A   1      43.242  20.275  25.961  1.00  0.00    -0.459 OA
BRANCH   3   4
ATOM      4  C   UNL A   1      43.223  21.600  25.691  1.00  0.00     0.338 C 
ATOM      5  O   UNL A   1      42.405  22.192  25.001  1.00  0.00    -0.246 OA
BRANCH   4   6
ATOM      6  C   UNL A   1      44.330  22.290  26.377  1.00  0.00     0.087 C 
ATOM      7  C   UNL A   1      45.370  26.021  31.156  1.00  0.00     0.044 C 
ATOM      8  C   UNL A   1      45.715  25.265  29.907  1.00  0.00    -0.050 A 
ATOM      9  C   UNL A   1      46.973  25.385  29.304  1.00  0.00     0.010 A 
ATOM     10  C   UNL A   1      44.774  24.408  29.334  1.00  0.00     0.015 A 
ATOM     11  C   UNL A   1      47.289  24.668  28.134  1.00  0.00    -0.008 A 
ATOM     12  C   UNL A   1      45.074  23.703  28.161  1.00  0.00     0.018 A 
ATOM     13  C   UNL A   1      48.640  24.830  27.499  1.00  0.00     0.048 C 
ATOM     14  C   UNL A   1      46.327  23.823  27.563  1.00  0.00     0.130 A 
ATOM     15  C   UNL A   1      44.057  22.881  27.543  1.00  0.00     0.027 C 
ATOM     16  O   UNL A   1      46.680  23.130  26.435  1.00  0.00    -0.475 OA
ATOM     17  C   UNL A   1      45.651  22.430  25.679  1.00  0.00     0.316 C 
BRANCH  17  18
ATOM     18  C   UNL A   1      45.486  23.113  24.313  1.00  0.00     0.430 C 
ATOM     19  F   UNL A   1      44.602  24.138  24.375  1.00  0.00    -0.167 F 
ATOM     20  F   UNL A   1      46.656  23.640  23.877  1.00  0.00    -0.167 F 
ATOM     21  F   UNL A   1      45.050  22.257  23.361  1.00  0.00    -0.167 F 
ENDBRANCH  17  18
ENDBRANCH   4   6
ENDBRANCH   3   4
ENDBRANCH   2   3
ENDBRANCH   1   2
BRANCH   1  22
ATOM     22  O   UNL A   1      39.981  20.833  27.017  1.00  0.00    -0.458 OA
BRANCH  22  23
ATOM     23  C   UNL A   1      39.327  21.829  26.381  1.00  0.00     0.338 C 
ATOM     24  O   UNL A   1      38.482  21.726  25.508  1.00  0.00    -0.246 OA
BRANCH  23  25
ATOM     25  C   UNL A   1      39.715  23.134  26.939  1.00  0.00     0.060 A 
ATOM     26  C   UNL A   1      39.362  24.284  26.248  1.00  0.00     0.016 A 
ATOM     27  C   UNL A   1      40.601  23.211  28.010  1.00  0.00     0.016 A 
ATOM     28  C   UNL A   1      40.027  25.481  26.500  1.00  0.00     0.010 A 
ATOM     29  C   UNL A   1      41.144  24.453  28.368  1.00  0.00     0.010 A 
ATOM     30  C   UNL A   1      40.912  25.595  27.580  1.00  0.00    -0.014 A 
BRANCH  30  31
ATOM     31  C   UNL A   1      41.607  26.890  27.856  1.00  0.00     0.031 A 
ATOM     32  C   UNL A   1      40.941  27.953  28.696  1.00  0.00     0.074 A 
ATOM     33  C   UNL A   1      42.851  27.114  27.383  1.00  0.00     0.049 A 
ATOM     34  N   UNL A   1      41.291  29.201  28.886  1.00  0.00    -0.248 NA
ATOM     35  C   UNL A   1      39.710  27.567  29.407  1.00  0.00     0.031 C 
ATOM     36  C   UNL A   1      43.649  26.162  26.608  1.00  0.00     0.029 A 
ATOM     37  N   UNL A   1      43.675  28.209  27.499  1.00  0.00    -0.354 N 
ATOM     38  C   UNL A   1      40.298  29.761  29.682  1.00  0.00     0.074 A 
ATOM     39  C   UNL A   1      39.324  28.721  29.935  1.00  0.00     0.031 C 
ATOM     40  C   UNL A   1      44.863  26.681  26.379  1.00  0.00     0.029 A 
ATOM     41  C   UNL A   1      44.892  28.049  26.878  1.00  0.00     0.049 A 
ATOM     42  H   UNL A   1      43.418  29.028  27.979  1.00  0.00     0.167 HD
ATOM     43  C   UNL A   1      40.210  31.026  30.159  1.00  0.00     0.037 A 
ATOM     44  C   UNL A   1      45.903  28.916  26.680  1.00  0.00     0.037 A 
ATOM     45  C   UNL A   1      41.215  32.039  29.958  1.00  0.00     0.049 A 
ATOM     46  C   UNL A   1      45.757  30.329  27.167  1.00  0.00     0.074 A 
ATOM     47  C   UNL A   1      41.220  33.350  30.405  1.00  0.00     0.029 A 
ATOM     48  N   UNL A   1      42.403  31.849  29.268  1.00  0.00    -0.354 N 
ATOM     49  N   UNL A   1      44.777  30.869  27.848  1.00  0.00    -0.248 NA
ATOM     50  C   UNL A   1      46.843  31.260  26.831  1.00  0.00     0.031 C 
ATOM     51  C   UNL A   1      42.392  33.962  29.953  1.00  0.00     0.029 A 
ATOM     52  C   UNL A   1      43.142  33.021  29.266  1.00  0.00     0.049 A 
ATOM     53  H   UNL A   1      42.681  31.005  28.844  1.00  0.00     0.167 HD
ATOM     54  C   UNL A   1      45.128  32.199  28.030  1.00  0.00     0.074 A 
ATOM     55  C   UNL A   1      46.424  32.379  27.408  1.00  0.00     0.031 C 
ATOM     56  C   UNL A   1      44.432  33.183  28.647  1.00  0.00     0.037 A 
BRANCH  43  57
ATOM     57  C   UNL A   1      38.979  31.407  30.933  1.00  0.00     0.064 A 
ATOM     58  C   UNL A   1      37.836  31.921  30.303  1.00  0.00     0.173 A 
ATOM     59  C   UNL A   1      38.919  31.186  32.318  1.00  0.00     0.173 A 
ATOM     60  F   UNL A   1      37.842  32.160  28.984  1.00  0.00    -0.203 F 
ATOM     61  C   UNL A   1      36.687  32.217  31.035  1.00  0.00     0.198 A 
ATOM     62  C   UNL A   1      37.760  31.455  33.041  1.00  0.00     0.198 A 
ATOM     63  F   UNL A   1      39.981  30.688  32.970  1.00  0.00    -0.203 F 
ATOM     64  F   UNL A   1      35.618  32.741  30.418  1.00  0.00    -0.200 F 
ATOM     65  C   UNL A   1      36.646  31.975  32.400  1.00  0.00     0.200 A 
ATOM     66  F   UNL A   1      37.718  31.204  34.358  1.00  0.00    -0.200 F 
ATOM     67  F   UNL A   1      35.534  32.244  33.098  1.00  0.00    -0.200 F 
ENDBRANCH  43  57
BRANCH  44  68
ATOM     68  C   UNL A   1      47.122  28.474  25.951  1.00  0.00     0.064 A 
ATOM     69  C   UNL A   1      48.333  28.279  26.629  1.00  0.00     0.173 A 
ATOM     70  C   UNL A   1      47.096  28.203  24.574  1.00  0.00     0.173 A 
ATOM     71  F   UNL A   1      48.418  28.550  27.939  1.00  0.00    -0.203 F 
ATOM     72  C   UNL A   1      49.467  27.827  25.958  1.00  0.00     0.198 A 
ATOM     73  C   UNL A   1      48.220  27.719  23.912  1.00  0.00     0.198 A 
ATOM     74  F   UNL A   1      45.962  28.376  23.877  1.00  0.00    -0.203 F 
ATOM     75  F   UNL A   1      50.621  27.678  26.623  1.00  0.00    -0.200 F 
ATOM     76  C   UNL A   1      49.408  27.535  24.603  1.00  0.00     0.200 A 
ATOM     77  F   UNL A   1      48.150  27.421  22.607  1.00  0.00    -0.200 F 
ATOM     78  F   UNL A   1      50.494  27.080  23.964  1.00  0.00    -0.200 F 
ENDBRANCH  44  68
BRANCH  56  79
ATOM     79  C   UNL A   1      45.063  34.543  28.705  1.00  0.00     0.064 A 
ATOM     80  C   UNL A   1      44.798  35.514  27.729  1.00  0.00     0.173 A 
ATOM     81  C   UNL A   1      45.889  34.898  29.782  1.00  0.00     0.173 A 
ATOM     82  F   UNL A   1      44.027  35.216  26.672  1.00  0.00    -0.203 F 
ATOM     83  C   UNL A   1      45.350  36.789  27.822  1.00  0.00     0.198 A 
ATOM     84  C   UNL A   1      46.416  36.182  29.886  1.00  0.00     0.198 A 
ATOM     85  F   UNL A   1      46.168  34.006  30.744  1.00  0.00    -0.203 F 
ATOM     86  F   UNL A   1      45.112  37.691  26.859  1.00  0.00    -0.200 F 
ATOM     87  C   UNL A   1      46.148  37.125  28.905  1.00  0.00     0.200 A 
ATOM     88  F   UNL A   1      47.175  36.510  30.941  1.00  0.00    -0.200 F 
ATOM     89  F   UNL A   1      46.665  38.358  29.000  1.00  0.00    -0.200 F 
ENDBRANCH  56  79
ENDBRANCH  30  31
ENDBRANCH  23  25
ENDBRANCH  22  23
ENDBRANCH   1  22
TORSDOF 12
ENDMDL
