MODEL 1
REMARK VINA RESULT:     -12.6      0.000      0.000
REMARK SMILES Cc1[nH]cnc1C[NH+]1CCC(Oc2cccc(F)c2)(C(=O)OCCOC(=O)c2ccc(-c3c4nc(c(-c5c(F)c(F)c(F)c(F)c5F)c5ccc([nH]5)c(-c5c(F)c(F)c(F)c(F)c5F)c5nc(c(-c6c(F)c(F)c(F)c(F)c6F)c6ccc3[nH]6)C=C5)C=C4)cc2)CC1
REMARK SMILES IDX 23 1 22 2 20 3 21 4 11 5 8 6 9 7 92 8 10 10 91 11 7 12 6 13
REMARK SMILES IDX 1 14 2 15 3 16 4 17 5 19 12 20 13 21 14 22 19 23 15 24 17 25
REMARK SMILES IDX 16 26 18 27 24 28 25 29 26 30 27 31 28 32 29 33 90 34 30 35
REMARK SMILES IDX 89 36 31 37 32 38 33 39 83 40 34 41 88 42 82 43 84 44 35 45
REMARK SMILES IDX 87 46 81 47 80 48 36 50 68 51 48 52 67 53 49 54 52 55 66 56
REMARK SMILES IDX 85 57 50 58 51 59 65 61 86 62 53 63 37 64 38 65 46 66 39 67
REMARK SMILES IDX 40 68 44 69 47 70 41 71 42 72 45 73 43 74 69 75 70 76 78 77
REMARK SMILES IDX 71 78 72 79 76 80 79 81 73 82 74 83 77 84 75 85 54 86 55 87
REMARK SMILES IDX 63 88 56 89 57 90 61 91 64 92 58 93 59 94 62 95 60 96
REMARK H PARENT 8 9 3 18 84 49 52 60
REMARK Flexibility Score: inf
ROOT
ATOM      1  C   UNL A   1      36.926  22.774  23.715  1.00  0.00     0.274 C 
ENDROOT
BRANCH   1   2
ATOM      2  O   UNL A   1      35.880  23.471  24.422  1.00  0.00    -0.459 OA
BRANCH   2   3
ATOM      3  C   UNL A   1      34.701  23.597  23.749  1.00  0.00     0.351 C 
ATOM      4  O   UNL A   1      34.599  24.152  22.656  1.00  0.00    -0.247 OA
BRANCH   3   5
ATOM      5  C   UNL A   1      33.484  23.090  24.542  1.00  0.00     0.216 C 
ATOM      6  N   UNL A   1      32.486  20.445  23.843  1.00  0.00    -0.330 N 
ATOM      7  C   UNL A   1      33.733  20.539  24.604  1.00  0.00     0.267 C 
ATOM      8  C   UNL A   1      32.417  21.507  22.845  1.00  0.00     0.267 C 
ATOM      9  H   UNL A   1      31.730  20.581  24.514  1.00  0.00     0.348 HD
ATOM     10  C   UNL A   1      33.742  21.843  25.402  1.00  0.00     0.122 C 
ATOM     11  C   UNL A   1      32.313  22.856  23.558  1.00  0.00     0.122 C 
BRANCH   6  12
ATOM     12  C   UNL A   1      32.221  19.113  23.271  1.00  0.00     0.321 C 
BRANCH  12  13
ATOM     13  C   UNL A   1      32.594  17.957  24.152  1.00  0.00     0.115 A 
ATOM     14  C   UNL A   1      34.376  16.619  22.763  1.00  0.00     0.066 C 
ATOM     15  C   UNL A   1      33.495  16.932  23.908  1.00  0.00     0.040 A 
ATOM     16  N   UNL A   1      33.447  16.143  25.027  1.00  0.00    -0.348 N 
ATOM     17  C   UNL A   1      32.609  16.742  25.919  1.00  0.00     0.197 A 
ATOM     18  H   UNL A   1      33.929  15.296  25.164  1.00  0.00     0.167 HD
ATOM     19  N   UNL A   1      32.072  17.832  25.423  1.00  0.00    -0.236 NA
ENDBRANCH  12  13
ENDBRANCH   6  12
BRANCH   5  20
ATOM     20  O   UNL A   1      33.366  24.241  25.439  1.00  0.00    -0.475 OA
BRANCH  20  21
ATOM     21  C   UNL A   1      32.235  24.989  25.337  1.00  0.00     0.123 A 
ATOM     22  C   UNL A   1      32.190  26.045  24.429  1.00  0.00     0.047 A 
ATOM     23  C   UNL A   1      31.104  24.628  26.064  1.00  0.00     0.085 A 
ATOM     24  C   UNL A   1      31.019  26.789  24.287  1.00  0.00     0.007 A 
ATOM     25  C   UNL A   1      29.944  25.377  25.917  1.00  0.00     0.126 A 
ATOM     26  C   UNL A   1      29.893  26.459  25.042  1.00  0.00     0.039 A 
ATOM     27  F   UNL A   1      28.855  25.055  26.628  1.00  0.00    -0.207 F 
ENDBRANCH  20  21
ENDBRANCH   5  20
ENDBRANCH   3   5
ENDBRANCH   2   3
ENDBRANCH   1   2
BRANCH   1  28
ATOM     28  C   UNL A   1      37.279  21.459  24.403  1.00  0.00     0.275 C 
BRANCH  28  29
ATOM     29  O   UNL A   1      37.608  21.709  25.778  1.00  0.00    -0.458 OA
BRANCH  29  30
ATOM     30  C   UNL A   1      38.911  21.577  26.102  1.00  0.00     0.338 C 
ATOM     31  O   UNL A   1      39.607  20.581  25.941  1.00  0.00    -0.246 OA
BRANCH  30  32
ATOM     32  C   UNL A   1      39.427  22.822  26.711  1.00  0.00     0.060 A 
ATOM     33  C   UNL A   1      38.957  24.080  26.328  1.00  0.00     0.016 A 
ATOM     34  C   UNL A   1      40.504  22.724  27.596  1.00  0.00     0.016 A 
ATOM     35  C   UNL A   1      39.644  25.231  26.717  1.00  0.00     0.010 A 
ATOM     36  C   UNL A   1      41.147  23.879  28.044  1.00  0.00     0.010 A 
ATOM     37  C   UNL A   1      40.745  25.139  27.580  1.00  0.00    -0.014 A 
BRANCH  37  38
ATOM     38  C   UNL A   1      41.448  26.350  28.062  1.00  0.00     0.031 A 
ATOM     39  C   UNL A   1      40.725  27.403  28.850  1.00  0.00     0.074 A 
ATOM     40  C   UNL A   1      42.740  26.525  27.729  1.00  0.00     0.049 A 
ATOM     41  N   UNL A   1      41.098  28.629  29.125  1.00  0.00    -0.248 NA
ATOM     42  C   UNL A   1      39.414  27.036  29.400  1.00  0.00     0.031 C 
ATOM     43  C   UNL A   1      43.564  25.549  27.016  1.00  0.00     0.029 A 
ATOM     44  N   UNL A   1      43.576  27.594  27.924  1.00  0.00    -0.354 N 
ATOM     45  C   UNL A   1      40.059  29.185  29.860  1.00  0.00     0.074 A 
ATOM     46  C   UNL A   1      39.038  28.166  29.988  1.00  0.00     0.031 C 
ATOM     47  C   UNL A   1      44.787  26.064  26.829  1.00  0.00     0.029 A 
ATOM     48  C   UNL A   1      44.802  27.434  27.330  1.00  0.00     0.049 A 
ATOM     49  H   UNL A   1      43.323  28.395  28.438  1.00  0.00     0.167 HD
ATOM     50  C   UNL A   1      39.979  30.434  30.378  1.00  0.00     0.037 A 
ATOM     51  C   UNL A   1      45.807  28.309  27.146  1.00  0.00     0.037 A 
ATOM     52  C   UNL A   1      41.016  31.428  30.268  1.00  0.00     0.049 A 
ATOM     53  C   UNL A   1      45.655  29.715  27.637  1.00  0.00     0.074 A 
ATOM     54  C   UNL A   1      41.037  32.715  30.779  1.00  0.00     0.029 A 
ATOM     55  N   UNL A   1      42.220  31.242  29.605  1.00  0.00    -0.354 N 
ATOM     56  N   UNL A   1      44.646  30.258  28.271  1.00  0.00    -0.248 NA
ATOM     57  C   UNL A   1      46.766  30.635  27.367  1.00  0.00     0.031 C 
ATOM     58  C   UNL A   1      42.239  33.320  30.395  1.00  0.00     0.029 A 
ATOM     59  C   UNL A   1      42.981  32.397  29.675  1.00  0.00     0.049 A 
ATOM     60  H   UNL A   1      42.493  30.412  29.153  1.00  0.00     0.167 HD
ATOM     61  C   UNL A   1      44.997  31.582  28.479  1.00  0.00     0.074 A 
ATOM     62  C   UNL A   1      46.319  31.759  27.911  1.00  0.00     0.031 C 
ATOM     63  C   UNL A   1      44.284  32.561  29.086  1.00  0.00     0.037 A 
BRANCH  50  64
ATOM     64  C   UNL A   1      38.726  30.822  31.104  1.00  0.00     0.064 A 
ATOM     65  C   UNL A   1      37.650  31.388  30.402  1.00  0.00     0.173 A 
ATOM     66  C   UNL A   1      38.632  30.742  32.500  1.00  0.00     0.173 A 
ATOM     67  F   UNL A   1      37.696  31.494  29.066  1.00  0.00    -0.203 F 
ATOM     68  C   UNL A   1      36.534  31.878  31.074  1.00  0.00     0.198 A 
ATOM     69  C   UNL A   1      37.505  31.218  33.169  1.00  0.00     0.198 A 
ATOM     70  F   UNL A   1      39.633  30.208  33.216  1.00  0.00    -0.203 F 
ATOM     71  F   UNL A   1      35.533  32.445  30.386  1.00  0.00    -0.200 F 
ATOM     72  C   UNL A   1      36.462  31.794  32.457  1.00  0.00     0.200 A 
ATOM     73  F   UNL A   1      37.431  31.129  34.504  1.00  0.00    -0.200 F 
ATOM     74  F   UNL A   1      35.390  32.274  33.103  1.00  0.00    -0.200 F 
ENDBRANCH  50  64
BRANCH  51  75
ATOM     75  C   UNL A   1      47.011  27.859  26.408  1.00  0.00     0.064 A 
ATOM     76  C   UNL A   1      47.036  27.856  25.005  1.00  0.00     0.173 A 
ATOM     77  C   UNL A   1      48.112  27.329  27.089  1.00  0.00     0.173 A 
ATOM     78  F   UNL A   1      45.999  28.350  24.313  1.00  0.00    -0.203 F 
ATOM     79  C   UNL A   1      48.106  27.298  24.310  1.00  0.00     0.198 A 
ATOM     80  C   UNL A   1      49.192  26.792  26.392  1.00  0.00     0.198 A 
ATOM     81  F   UNL A   1      48.135  27.331  28.429  1.00  0.00    -0.203 F 
ATOM     82  F   UNL A   1      48.082  27.256  22.971  1.00  0.00    -0.200 F 
ATOM     83  C   UNL A   1      49.181  26.764  25.004  1.00  0.00     0.200 A 
ATOM     84  F   UNL A   1      50.237  26.291  27.063  1.00  0.00    -0.200 F 
ATOM     85  F   UNL A   1      50.205  26.217  24.335  1.00  0.00    -0.200 F 
ENDBRANCH  51  75
BRANCH  63  86
ATOM     86  C   UNL A   1      44.922  33.913  29.169  1.00  0.00     0.064 A 
ATOM     87  C   UNL A   1      44.714  34.863  28.159  1.00  0.00     0.173 A 
ATOM     88  C   UNL A   1      45.775  34.248  30.229  1.00  0.00     0.173 A 
ATOM     89  F   UNL A   1      43.908  34.583  27.124  1.00  0.00    -0.203 F 
ATOM     90  C   UNL A   1      45.343  36.103  28.205  1.00  0.00     0.198 A 
ATOM     91  C   UNL A   1      46.389  35.496  30.282  1.00  0.00     0.198 A 
ATOM     92  F   UNL A   1      45.990  33.375  31.224  1.00  0.00    -0.203 F 
ATOM     93  F   UNL A   1      45.145  36.992  27.222  1.00  0.00    -0.200 F 
ATOM     94  C   UNL A   1      46.178  36.419  29.267  1.00  0.00     0.200 A 
ATOM     95  F   UNL A   1      47.179  35.809  31.318  1.00  0.00    -0.200 F 
ATOM     96  F   UNL A   1      46.773  37.619  29.317  1.00  0.00    -0.200 F 
ENDBRANCH  63  86
ENDBRANCH  37  38
ENDBRANCH  30  32
ENDBRANCH  29  30
ENDBRANCH  28  29
ENDBRANCH   1  28
TORSDOF 15
ENDMDL
MODEL 2
REMARK VINA RESULT:     -12.5      4.806     10.241
REMARK SMILES Cc1[nH]cnc1C[NH+]1CCC(Oc2cccc(F)c2)(C(=O)OCCOC(=O)c2ccc(-c3c4nc(c(-c5c(F)c(F)c(F)c(F)c5F)c5ccc([nH]5)c(-c5c(F)c(F)c(F)c(F)c5F)c5nc(c(-c6c(F)c(F)c(F)c(F)c6F)c6ccc3[nH]6)C=C5)C=C4)cc2)CC1
REMARK SMILES IDX 23 1 22 2 20 3 21 4 11 5 8 6 9 7 92 8 10 10 91 11 7 12 6 13
REMARK SMILES IDX 1 14 2 15 3 16 4 17 5 19 12 20 13 21 14 22 19 23 15 24 17 25
REMARK SMILES IDX 16 26 18 27 24 28 25 29 26 30 27 31 28 32 29 33 90 34 30 35
REMARK SMILES IDX 89 36 31 37 32 38 33 39 83 40 34 41 88 42 82 43 84 44 35 45
REMARK SMILES IDX 87 46 81 47 80 48 36 50 68 51 48 52 67 53 49 54 52 55 66 56
REMARK SMILES IDX 85 57 50 58 51 59 65 61 86 62 53 63 37 64 38 65 46 66 39 67
REMARK SMILES IDX 40 68 44 69 47 70 41 71 42 72 45 73 43 74 69 75 70 76 78 77
REMARK SMILES IDX 71 78 72 79 76 80 79 81 73 82 74 83 77 84 75 85 54 86 55 87
REMARK SMILES IDX 63 88 56 89 57 90 61 91 64 92 58 93 59 94 62 95 60 96
REMARK H PARENT 8 9 3 18 84 49 52 60
REMARK Flexibility Score: inf
ROOT
ATOM      1  C   UNL A   1      31.741  29.076  27.286  1.00  0.00     0.274 C 
ENDROOT
BRANCH   1   2
ATOM      2  O   UNL A   1      32.353  28.118  26.397  1.00  0.00    -0.459 OA
BRANCH   2   3
ATOM      3  C   UNL A   1      31.530  27.129  25.945  1.00  0.00     0.351 C 
ATOM      4  O   UNL A   1      30.930  26.353  26.686  1.00  0.00    -0.247 OA
BRANCH   3   5
ATOM      5  C   UNL A   1      31.517  26.993  24.413  1.00  0.00     0.216 C 
ATOM      6  N   UNL A   1      29.168  28.023  23.034  1.00  0.00    -0.330 N 
ATOM      7  C   UNL A   1      30.136  28.982  23.569  1.00  0.00     0.267 C 
ATOM      8  C   UNL A   1      29.008  26.897  23.948  1.00  0.00     0.267 C 
ATOM      9  H   UNL A   1      29.560  27.677  22.159  1.00  0.00     0.348 HD
ATOM     10  C   UNL A   1      31.514  28.324  23.642  1.00  0.00     0.122 C 
ATOM     11  C   UNL A   1      30.316  26.108  24.002  1.00  0.00     0.122 C 
BRANCH   6  12
ATOM     12  C   UNL A   1      27.878  28.617  22.637  1.00  0.00     0.321 C 
BRANCH  12  13
ATOM     13  C   UNL A   1      27.963  30.009  22.082  1.00  0.00     0.115 A 
ATOM     14  C   UNL A   1      27.390  31.566  24.117  1.00  0.00     0.066 C 
ATOM     15  C   UNL A   1      27.751  31.218  22.726  1.00  0.00     0.040 A 
ATOM     16  N   UNL A   1      27.947  32.172  21.763  1.00  0.00    -0.348 N 
ATOM     17  C   UNL A   1      28.342  31.537  20.625  1.00  0.00     0.197 A 
ATOM     18  H   UNL A   1      27.824  33.143  21.873  1.00  0.00     0.167 HD
ATOM     19  N   UNL A   1      28.357  30.233  20.778  1.00  0.00    -0.236 NA
ENDBRANCH  12  13
ENDBRANCH   6  12
BRANCH   5  20
ATOM     20  O   UNL A   1      32.847  26.397  24.278  1.00  0.00    -0.475 OA
BRANCH  20  21
ATOM     21  C   UNL A   1      32.907  25.117  23.821  1.00  0.00     0.123 A 
ATOM     22  C   UNL A   1      32.726  24.062  24.713  1.00  0.00     0.047 A 
ATOM     23  C   UNL A   1      33.042  24.880  22.456  1.00  0.00     0.085 A 
ATOM     24  C   UNL A   1      32.741  22.748  24.245  1.00  0.00     0.007 A 
ATOM     25  C   UNL A   1      33.059  23.567  22.002  1.00  0.00     0.126 A 
ATOM     26  C   UNL A   1      32.917  22.500  22.884  1.00  0.00     0.039 A 
ATOM     27  F   UNL A   1      33.212  23.323  20.694  1.00  0.00    -0.207 F 
ENDBRANCH  20  21
ENDBRANCH   5  20
ENDBRANCH   3   5
ENDBRANCH   2   3
ENDBRANCH   1   2
BRANCH   1  28
ATOM     28  C   UNL A   1      31.710  30.468  26.664  1.00  0.00     0.275 C 
BRANCH  28  29
ATOM     29  O   UNL A   1      33.052  30.914  26.416  1.00  0.00    -0.458 OA
BRANCH  29  30
ATOM     30  C   UNL A   1      33.542  31.815  27.293  1.00  0.00     0.338 C 
ATOM     31  O   UNL A   1      33.007  32.861  27.642  1.00  0.00    -0.246 OA
BRANCH  30  32
ATOM     32  C   UNL A   1      34.861  31.383  27.804  1.00  0.00     0.060 A 
ATOM     33  C   UNL A   1      35.103  30.067  28.203  1.00  0.00     0.016 A 
ATOM     34  C   UNL A   1      35.839  32.360  28.007  1.00  0.00     0.016 A 
ATOM     35  C   UNL A   1      36.256  29.757  28.925  1.00  0.00     0.010 A 
ATOM     36  C   UNL A   1      37.026  32.034  28.664  1.00  0.00     0.010 A 
ATOM     37  C   UNL A   1      37.229  30.739  29.160  1.00  0.00    -0.014 A 
BRANCH  37  38
ATOM     38  C   UNL A   1      38.493  30.418  29.862  1.00  0.00     0.031 A 
ATOM     39  C   UNL A   1      39.499  29.484  29.258  1.00  0.00     0.074 A 
ATOM     40  C   UNL A   1      38.700  30.931  31.088  1.00  0.00     0.049 A 
ATOM     41  N   UNL A   1      40.519  28.889  29.826  1.00  0.00    -0.248 NA
ATOM     42  C   UNL A   1      39.342  29.174  27.830  1.00  0.00     0.031 C 
ATOM     43  C   UNL A   1      37.825  31.893  31.757  1.00  0.00     0.029 A 
ATOM     44  N   UNL A   1      39.700  30.697  31.998  1.00  0.00    -0.354 N 
ATOM     45  C   UNL A   1      41.111  28.119  28.833  1.00  0.00     0.074 A 
ATOM     46  C   UNL A   1      40.337  28.318  27.626  1.00  0.00     0.031 C 
ATOM     47  C   UNL A   1      38.320  32.165  32.972  1.00  0.00     0.029 A 
ATOM     48  C   UNL A   1      39.496  31.331  33.197  1.00  0.00     0.049 A 
ATOM     49  H   UNL A   1      40.483  30.130  31.810  1.00  0.00     0.167 HD
ATOM     50  C   UNL A   1      42.203  27.325  28.933  1.00  0.00     0.037 A 
ATOM     51  C   UNL A   1      40.140  31.210  34.372  1.00  0.00     0.037 A 
ATOM     52  C   UNL A   1      42.981  27.160  30.135  1.00  0.00     0.049 A 
ATOM     53  C   UNL A   1      41.281  30.248  34.488  1.00  0.00     0.074 A 
ATOM     54  C   UNL A   1      44.118  26.394  30.330  1.00  0.00     0.029 A 
ATOM     55  N   UNL A   1      42.704  27.777  31.345  1.00  0.00    -0.354 N 
ATOM     56  N   UNL A   1      41.796  29.471  33.568  1.00  0.00    -0.248 NA
ATOM     57  C   UNL A   1      41.914  30.127  35.806  1.00  0.00     0.031 C 
ATOM     58  C   UNL A   1      44.509  26.520  31.667  1.00  0.00     0.029 A 
ATOM     59  C   UNL A   1      43.635  27.393  32.296  1.00  0.00     0.049 A 
ATOM     60  H   UNL A   1      41.956  28.397  31.504  1.00  0.00     0.167 HD
ATOM     61  C   UNL A   1      42.815  28.769  34.191  1.00  0.00     0.074 A 
ATOM     62  C   UNL A   1      42.852  29.220  35.568  1.00  0.00     0.031 C 
ATOM     63  C   UNL A   1      43.643  27.834  33.666  1.00  0.00     0.037 A 
BRANCH  50  64
ATOM     64  C   UNL A   1      42.632  26.551  27.723  1.00  0.00     0.064 A 
ATOM     65  C   UNL A   1      42.178  25.236  27.529  1.00  0.00     0.173 A 
ATOM     66  C   UNL A   1      43.573  27.062  26.820  1.00  0.00     0.173 A 
ATOM     67  F   UNL A   1      41.283  24.699  28.372  1.00  0.00    -0.203 F 
ATOM     68  C   UNL A   1      42.668  24.455  26.486  1.00  0.00     0.198 A 
ATOM     69  C   UNL A   1      44.049  26.284  25.767  1.00  0.00     0.198 A 
ATOM     70  F   UNL A   1      44.036  28.313  26.962  1.00  0.00    -0.203 F 
ATOM     71  F   UNL A   1      42.247  23.192  26.340  1.00  0.00    -0.200 F 
ATOM     72  C   UNL A   1      43.604  24.978  25.606  1.00  0.00     0.200 A 
ATOM     73  F   UNL A   1      44.947  26.791  24.910  1.00  0.00    -0.200 F 
ATOM     74  F   UNL A   1      44.081  24.222  24.607  1.00  0.00    -0.200 F 
ENDBRANCH  50  64
BRANCH  51  75
ATOM     75  C   UNL A   1      39.654  31.997  35.530  1.00  0.00     0.064 A 
ATOM     76  C   UNL A   1      40.261  33.212  35.881  1.00  0.00     0.173 A 
ATOM     77  C   UNL A   1      38.647  31.497  36.362  1.00  0.00     0.173 A 
ATOM     78  F   UNL A   1      41.235  33.724  35.114  1.00  0.00    -0.203 F 
ATOM     79  C   UNL A   1      39.906  33.877  37.052  1.00  0.00     0.198 A 
ATOM     80  C   UNL A   1      38.277  32.177  37.521  1.00  0.00     0.198 A 
ATOM     81  F   UNL A   1      38.029  30.350  36.052  1.00  0.00    -0.203 F 
ATOM     82  F   UNL A   1      40.539  35.007  37.396  1.00  0.00    -0.200 F 
ATOM     83  C   UNL A   1      38.916  33.357  37.872  1.00  0.00     0.200 A 
ATOM     84  F   UNL A   1      37.309  31.682  38.304  1.00  0.00    -0.200 F 
ATOM     85  F   UNL A   1      38.582  33.993  39.003  1.00  0.00    -0.200 F 
ENDBRANCH  51  75
BRANCH  63  86
ATOM     86  C   UNL A   1      44.662  27.237  34.585  1.00  0.00     0.064 A 
ATOM     87  C   UNL A   1      44.383  26.057  35.289  1.00  0.00     0.173 A 
ATOM     88  C   UNL A   1      45.898  27.861  34.800  1.00  0.00     0.173 A 
ATOM     89  F   UNL A   1      43.210  25.429  35.117  1.00  0.00    -0.203 F 
ATOM     90  C   UNL A   1      45.306  25.524  36.183  1.00  0.00     0.198 A 
ATOM     91  C   UNL A   1      46.828  27.315  35.682  1.00  0.00     0.198 A 
ATOM     92  F   UNL A   1      46.213  28.983  34.136  1.00  0.00    -0.203 F 
ATOM     93  F   UNL A   1      45.015  24.404  36.859  1.00  0.00    -0.200 F 
ATOM     94  C   UNL A   1      46.528  26.152  36.376  1.00  0.00     0.200 A 
ATOM     95  F   UNL A   1      48.016  27.911  35.853  1.00  0.00    -0.200 F 
ATOM     96  F   UNL A   1      47.422  25.630  37.227  1.00  0.00    -0.200 F 
ENDBRANCH  63  86
ENDBRANCH  37  38
ENDBRANCH  30  32
ENDBRANCH  29  30
ENDBRANCH  28  29
ENDBRANCH   1  28
TORSDOF 15
ENDMDL
MODEL 3
REMARK VINA RESULT:     -12.4      4.455      9.340
REMARK SMILES Cc1[nH]cnc1C[NH+]1CCC(Oc2cccc(F)c2)(C(=O)OCCOC(=O)c2ccc(-c3c4nc(c(-c5c(F)c(F)c(F)c(F)c5F)c5ccc([nH]5)c(-c5c(F)c(F)c(F)c(F)c5F)c5nc(c(-c6c(F)c(F)c(F)c(F)c6F)c6ccc3[nH]6)C=C5)C=C4)cc2)CC1
REMARK SMILES IDX 23 1 22 2 20 3 21 4 11 5 8 6 9 7 92 8 10 10 91 11 7 12 6 13
REMARK SMILES IDX 1 14 2 15 3 16 4 17 5 19 12 20 13 21 14 22 19 23 15 24 17 25
REMARK SMILES IDX 16 26 18 27 24 28 25 29 26 30 27 31 28 32 29 33 90 34 30 35
REMARK SMILES IDX 89 36 31 37 32 38 33 39 83 40 34 41 88 42 82 43 84 44 35 45
REMARK SMILES IDX 87 46 81 47 80 48 36 50 68 51 48 52 67 53 49 54 52 55 66 56
REMARK SMILES IDX 85 57 50 58 51 59 65 61 86 62 53 63 37 64 38 65 46 66 39 67
REMARK SMILES IDX 40 68 44 69 47 70 41 71 42 72 45 73 43 74 69 75 70 76 78 77
REMARK SMILES IDX 71 78 72 79 76 80 79 81 73 82 74 83 77 84 75 85 54 86 55 87
REMARK SMILES IDX 63 88 56 89 57 90 61 91 64 92 58 93 59 94 62 95 60 96
REMARK H PARENT 8 9 3 18 84 49 52 60
REMARK Flexibility Score: inf
ROOT
ATOM      1  C   UNL A   1      32.826  29.299  24.701  1.00  0.00     0.274 C 
ENDROOT
BRANCH   1   2
ATOM      2  O   UNL A   1      32.625  27.876  24.830  1.00  0.00    -0.459 OA
BRANCH   2   3
ATOM      3  C   UNL A   1      32.495  27.194  23.656  1.00  0.00     0.351 C 
ATOM      4  O   UNL A   1      33.378  27.139  22.802  1.00  0.00    -0.247 OA
BRANCH   3   5
ATOM      5  C   UNL A   1      31.092  26.602  23.442  1.00  0.00     0.216 C 
ATOM      6  N   UNL A   1      30.376  24.321  25.105  1.00  0.00    -0.330 N 
ATOM      7  C   UNL A   1      30.406  25.648  25.721  1.00  0.00     0.267 C 
ATOM      8  C   UNL A   1      31.470  24.177  24.151  1.00  0.00     0.267 C 
ATOM      9  H   UNL A   1      29.493  24.260  24.598  1.00  0.00     0.348 HD
ATOM     10  C   UNL A   1      30.149  26.710  24.651  1.00  0.00     0.122 C 
ATOM     11  C   UNL A   1      31.239  25.132  22.979  1.00  0.00     0.122 C 
BRANCH   6  12
ATOM     12  C   UNL A   1      30.313  23.205  26.067  1.00  0.00     0.321 C 
BRANCH  12  13
ATOM     13  C   UNL A   1      31.643  22.667  26.504  1.00  0.00     0.115 A 
ATOM     14  C   UNL A   1      32.158  20.727  24.812  1.00  0.00     0.066 C 
ATOM     15  C   UNL A   1      32.385  21.630  25.960  1.00  0.00     0.040 A 
ATOM     16  N   UNL A   1      33.507  21.548  26.742  1.00  0.00    -0.348 N 
ATOM     17  C   UNL A   1      33.452  22.559  27.653  1.00  0.00     0.197 A 
ATOM     18  H   UNL A   1      34.224  20.878  26.662  1.00  0.00     0.167 HD
ATOM     19  N   UNL A   1      32.340  23.250  27.543  1.00  0.00    -0.236 NA
ENDBRANCH  12  13
ENDBRANCH   6  12
BRANCH   5  20
ATOM     20  O   UNL A   1      30.646  27.564  22.434  1.00  0.00    -0.475 OA
BRANCH  20  21
ATOM     21  C   UNL A   1      29.623  28.392  22.780  1.00  0.00     0.123 A 
ATOM     22  C   UNL A   1      29.794  29.771  22.685  1.00  0.00     0.047 A 
ATOM     23  C   UNL A   1      28.387  27.850  23.124  1.00  0.00     0.085 A 
ATOM     24  C   UNL A   1      28.736  30.625  22.996  1.00  0.00     0.007 A 
ATOM     25  C   UNL A   1      27.341  28.710  23.434  1.00  0.00     0.126 A 
ATOM     26  C   UNL A   1      27.506  30.091  23.380  1.00  0.00     0.039 A 
ATOM     27  F   UNL A   1      26.153  28.203  23.790  1.00  0.00    -0.207 F 
ENDBRANCH  20  21
ENDBRANCH   5  20
ENDBRANCH   3   5
ENDBRANCH   2   3
ENDBRANCH   1   2
BRANCH   1  28
ATOM     28  C   UNL A   1      31.843  30.078  25.569  1.00  0.00     0.275 C 
BRANCH  28  29
ATOM     29  O   UNL A   1      32.351  30.169  26.909  1.00  0.00    -0.458 OA
BRANCH  29  30
ATOM     30  C   UNL A   1      33.039  31.292  27.200  1.00  0.00     0.338 C 
ATOM     31  O   UNL A   1      32.642  32.446  27.076  1.00  0.00    -0.246 OA
BRANCH  30  32
ATOM     32  C   UNL A   1      34.392  30.963  27.699  1.00  0.00     0.060 A 
ATOM     33  C   UNL A   1      34.768  29.652  28.000  1.00  0.00     0.016 A 
ATOM     34  C   UNL A   1      35.259  32.018  27.995  1.00  0.00     0.016 A 
ATOM     35  C   UNL A   1      35.941  29.408  28.716  1.00  0.00     0.010 A 
ATOM     36  C   UNL A   1      36.467  31.767  28.646  1.00  0.00     0.010 A 
ATOM     37  C   UNL A   1      36.801  30.465  29.044  1.00  0.00    -0.014 A 
BRANCH  37  38
ATOM     38  C   UNL A   1      38.085  30.225  29.742  1.00  0.00     0.031 A 
ATOM     39  C   UNL A   1      39.126  29.316  29.157  1.00  0.00     0.074 A 
ATOM     40  C   UNL A   1      38.281  30.787  30.948  1.00  0.00     0.049 A 
ATOM     41  N   UNL A   1      40.177  28.787  29.733  1.00  0.00    -0.248 NA
ATOM     42  C   UNL A   1      38.969  28.952  27.743  1.00  0.00     0.031 C 
ATOM     43  C   UNL A   1      37.371  31.731  31.595  1.00  0.00     0.029 A 
ATOM     44  N   UNL A   1      39.299  30.628  31.854  1.00  0.00    -0.354 N 
ATOM     45  C   UNL A   1      40.793  28.011  28.760  1.00  0.00     0.074 A 
ATOM     46  C   UNL A   1      39.999  28.135  27.555  1.00  0.00     0.031 C 
ATOM     47  C   UNL A   1      37.865  32.065  32.794  1.00  0.00     0.029 A 
ATOM     48  C   UNL A   1      39.079  31.292  33.033  1.00  0.00     0.049 A 
ATOM     49  H   UNL A   1      40.105  30.090  31.676  1.00  0.00     0.167 HD
ATOM     50  C   UNL A   1      41.920  27.270  28.873  1.00  0.00     0.037 A 
ATOM     51  C   UNL A   1      39.739  31.240  34.204  1.00  0.00     0.037 A 
ATOM     52  C   UNL A   1      42.717  27.179  30.071  1.00  0.00     0.049 A 
ATOM     53  C   UNL A   1      40.924  30.333  34.338  1.00  0.00     0.074 A 
ATOM     54  C   UNL A   1      43.889  26.472  30.278  1.00  0.00     0.029 A 
ATOM     55  N   UNL A   1      42.424  27.824  31.263  1.00  0.00    -0.354 N 
ATOM     56  N   UNL A   1      41.464  29.550  33.439  1.00  0.00    -0.248 NA
ATOM     57  C   UNL A   1      41.574  30.285  35.653  1.00  0.00     0.031 C 
ATOM     58  C   UNL A   1      44.287  26.659  31.606  1.00  0.00     0.029 A 
ATOM     59  C   UNL A   1      43.381  27.513  32.215  1.00  0.00     0.049 A 
ATOM     60  H   UNL A   1      41.651  28.415  31.410  1.00  0.00     0.167 HD
ATOM     61  C   UNL A   1      42.519  28.915  34.074  1.00  0.00     0.074 A 
ATOM     62  C   UNL A   1      42.550  29.412  35.434  1.00  0.00     0.031 C 
ATOM     63  C   UNL A   1      43.383  28.000  33.570  1.00  0.00     0.037 A 
BRANCH  50  64
ATOM     64  C   UNL A   1      42.371  26.475  27.684  1.00  0.00     0.064 A 
ATOM     65  C   UNL A   1      41.887  25.173  27.482  1.00  0.00     0.173 A 
ATOM     66  C   UNL A   1      43.360  26.953  26.814  1.00  0.00     0.173 A 
ATOM     67  F   UNL A   1      40.947  24.667  28.294  1.00  0.00    -0.203 F 
ATOM     68  C   UNL A   1      42.394  24.371  26.462  1.00  0.00     0.198 A 
ATOM     69  C   UNL A   1      43.852  26.154  25.784  1.00  0.00     0.198 A 
ATOM     70  F   UNL A   1      43.852  28.192  26.965  1.00  0.00    -0.203 F 
ATOM     71  F   UNL A   1      41.943  23.118  26.309  1.00  0.00    -0.200 F 
ATOM     72  C   UNL A   1      43.376  24.861  25.615  1.00  0.00     0.200 A 
ATOM     73  F   UNL A   1      44.794  26.630  24.958  1.00  0.00    -0.200 F 
ATOM     74  F   UNL A   1      43.868  24.085  24.639  1.00  0.00    -0.200 F 
ENDBRANCH  50  64
BRANCH  51  75
ATOM     75  C   UNL A   1      39.230  32.042  35.341  1.00  0.00     0.064 A 
ATOM     76  C   UNL A   1      39.613  33.382  35.505  1.00  0.00     0.173 A 
ATOM     77  C   UNL A   1      38.441  31.455  36.334  1.00  0.00     0.173 A 
ATOM     78  F   UNL A   1      40.375  33.982  34.579  1.00  0.00    -0.203 F 
ATOM     79  C   UNL A   1      39.257  34.093  36.648  1.00  0.00     0.198 A 
ATOM     80  C   UNL A   1      38.065  32.175  37.467  1.00  0.00     0.198 A 
ATOM     81  F   UNL A   1      38.038  30.183  36.206  1.00  0.00    -0.203 F 
ATOM     82  F   UNL A   1      39.681  35.353  36.810  1.00  0.00    -0.200 F 
ATOM     83  C   UNL A   1      38.486  33.487  37.629  1.00  0.00     0.200 A 
ATOM     84  F   UNL A   1      37.307  31.594  38.406  1.00  0.00    -0.200 F 
ATOM     85  F   UNL A   1      38.152  34.168  38.734  1.00  0.00    -0.200 F 
ENDBRANCH  51  75
BRANCH  63  86
ATOM     86  C   UNL A   1      44.437  27.480  34.497  1.00  0.00     0.064 A 
ATOM     87  C   UNL A   1      45.662  28.148  34.630  1.00  0.00     0.173 A 
ATOM     88  C   UNL A   1      44.247  26.293  35.217  1.00  0.00     0.173 A 
ATOM     89  F   UNL A   1      45.888  29.285  33.955  1.00  0.00    -0.203 F 
ATOM     90  C   UNL A   1      46.665  27.642  35.451  1.00  0.00     0.198 A 
ATOM     91  C   UNL A   1      45.245  25.799  36.052  1.00  0.00     0.198 A 
ATOM     92  F   UNL A   1      43.084  25.629  35.131  1.00  0.00    -0.203 F 
ATOM     93  F   UNL A   1      47.835  28.287  35.553  1.00  0.00    -0.200 F 
ATOM     94  C   UNL A   1      46.455  26.470  36.163  1.00  0.00     0.200 A 
ATOM     95  F   UNL A   1      45.034  24.678  36.755  1.00  0.00    -0.200 F 
ATOM     96  F   UNL A   1      47.416  25.991  36.964  1.00  0.00    -0.200 F 
ENDBRANCH  63  86
ENDBRANCH  37  38
ENDBRANCH  30  32
ENDBRANCH  29  30
ENDBRANCH  28  29
ENDBRANCH   1  28
TORSDOF 15
ENDMDL
