MODEL 1
REMARK VINA RESULT:     -13.5      0.000      0.000
REMARK SMILES COc1cc([C@H]2CC(c3ccc(S(C)(=O)=O)cc3)=NN2c2ccc(C(=O)OCCOC(=O)c3ccc(-c4c5nc(c(-c6c(F)c(F)c(F)c(F)c6F)c6ccc([nH]6)c(-c6c(F)c(F)c(F)c(F)c6F)c6nc(c(-c7c(F)c(F)c(F)c(F)c7F)c7ccc4[nH]7)C=C6)C=C5)cc3)cc2)cc(OC)c1OC
REMARK SMILES IDX 28 1 27 2 25 3 26 4 24 5 21 6 22 7 97 8 23 9 96 10 20 11
REMARK SMILES IDX 6 12 7 13 8 14 19 15 5 16 3 17 4 18 102 19 99 20 98 21 2 22
REMARK SMILES IDX 1 23 103 24 104 25 100 26 101 27 9 28 10 29 18 30 11 31
REMARK SMILES IDX 17 32 12 33 13 34 14 35 15 36 16 37 29 38 30 39 31 40 32 41
REMARK SMILES IDX 33 42 34 43 95 44 35 45 94 46 36 47 37 48 38 49 88 50 39 51
REMARK SMILES IDX 93 52 87 53 89 54 40 55 92 56 86 57 85 58 41 60 73 61 53 62
REMARK SMILES IDX 72 63 54 64 57 65 71 66 90 67 55 68 56 69 70 71 91 72 58 73
REMARK SMILES IDX 42 74 43 75 51 76 44 77 45 78 49 79 52 80 46 81 47 82 50 83
REMARK SMILES IDX 48 84 74 85 75 86 83 87 76 88 77 89 81 90 84 91 78 92 79 93
REMARK SMILES IDX 82 94 80 95 59 96 60 97 68 98 61 99 62 100 66 101 69 102
REMARK SMILES IDX 63 103 64 104 67 105 65 106
REMARK H PARENT 89 59 57 70
REMARK Flexibility Score: inf
ROOT
ATOM      1  C   UNL A   1      32.423  31.941  26.994  1.00  0.00     0.275 C 
ENDROOT
BRANCH   1   2
ATOM      2  O   UNL A   1      33.276  31.268  27.945  1.00  0.00    -0.458 OA
BRANCH   2   3
ATOM      3  C   UNL A   1      34.161  30.389  27.409  1.00  0.00     0.338 C 
ATOM      4  O   UNL A   1      35.352  30.567  27.245  1.00  0.00    -0.246 OA
BRANCH   3   5
ATOM      5  C   UNL A   1      33.500  29.099  27.115  1.00  0.00     0.060 A 
ATOM      6  C   UNL A   1      32.274  26.683  26.350  1.00  0.00     0.060 A 
ATOM      7  C   UNL A   1      33.608  26.939  26.028  1.00  0.00     0.029 A 
ATOM      8  C   UNL A   1      31.568  27.645  27.088  1.00  0.00     0.029 A 
ATOM      9  C   UNL A   1      34.200  28.151  26.365  1.00  0.00     0.018 A 
ATOM     10  C   UNL A   1      32.182  28.840  27.493  1.00  0.00     0.018 A 
BRANCH   6  11
ATOM     11  N   UNL A   1      31.672  25.519  25.895  1.00  0.00    -0.257 N 
ATOM     12  C   UNL A   1      30.400  25.504  25.158  1.00  0.00     0.144 C 
ATOM     13  C   UNL A   1      30.379  24.078  24.573  1.00  0.00     0.091 C 
ATOM     14  C   UNL A   1      31.738  23.586  24.992  1.00  0.00     0.071 C 
ATOM     15  N   UNL A   1      32.436  24.410  25.706  1.00  0.00    -0.176 NA
BRANCH  12  16
ATOM     16  C   UNL A   1      30.297  26.633  24.132  1.00  0.00    -0.015 A 
ATOM     17  C   UNL A   1      28.918  28.223  22.875  1.00  0.00     0.164 A 
ATOM     18  C   UNL A   1      29.040  27.123  23.744  1.00  0.00     0.056 A 
ATOM     19  C   UNL A   1      30.054  28.881  22.368  1.00  0.00     0.203 A 
ATOM     20  C   UNL A   1      31.321  28.391  22.748  1.00  0.00     0.164 A 
ATOM     21  C   UNL A   1      31.424  27.289  23.621  1.00  0.00     0.056 A 
BRANCH  17  22
ATOM     22  O   UNL A   1      27.655  28.720  22.666  1.00  0.00    -0.493 OA
ATOM     23  C   UNL A   1      26.726  28.264  23.648  1.00  0.00     0.278 C 
ENDBRANCH  17  22
BRANCH  19  24
ATOM     24  O   UNL A   1      30.040  29.990  21.567  1.00  0.00    -0.490 OA
ATOM     25  C   UNL A   1      29.216  31.100  21.881  1.00  0.00     0.278 C 
ENDBRANCH  19  24
BRANCH  20  26
ATOM     26  O   UNL A   1      32.562  28.851  22.380  1.00  0.00    -0.493 OA
ATOM     27  C   UNL A   1      33.674  27.971  22.431  1.00  0.00     0.278 C 
ENDBRANCH  20  26
ENDBRANCH  12  16
BRANCH  14  28
ATOM     28  C   UNL A   1      32.208  22.220  24.696  1.00  0.00    -0.002 A 
ATOM     29  C   UNL A   1      32.779  21.483  25.743  1.00  0.00     0.011 A 
ATOM     30  C   UNL A   1      32.085  21.658  23.423  1.00  0.00     0.011 A 
ATOM     31  C   UNL A   1      33.195  20.168  25.532  1.00  0.00     0.021 A 
ATOM     32  C   UNL A   1      32.527  20.348  23.202  1.00  0.00     0.021 A 
ATOM     33  C   UNL A   1      33.070  19.607  24.258  1.00  0.00     0.067 A 
BRANCH  33  34
ATOM     34  S   UNL A   1      33.543  17.909  24.011  1.00  0.00     0.175 S 
ATOM     35  C   UNL A   1      32.601  16.996  25.205  1.00  0.00     0.163 C 
ATOM     36  O   UNL A   1      33.081  17.541  22.687  1.00  0.00    -0.224 OA
ATOM     37  O   UNL A   1      34.943  17.788  24.373  1.00  0.00    -0.224 OA
ENDBRANCH  33  34
ENDBRANCH  14  28
ENDBRANCH   6  11
ENDBRANCH   3   5
ENDBRANCH   2   3
ENDBRANCH   1   2
BRANCH   1  38
ATOM     38  C   UNL A   1      32.490  33.460  27.154  1.00  0.00     0.275 C 
BRANCH  38  39
ATOM     39  O   UNL A   1      32.308  33.826  28.534  1.00  0.00    -0.458 OA
BRANCH  39  40
ATOM     40  C   UNL A   1      32.926  34.962  28.923  1.00  0.00     0.338 C 
ATOM     41  O   UNL A   1      32.566  36.113  28.732  1.00  0.00    -0.246 OA
BRANCH  40  42
ATOM     42  C   UNL A   1      34.147  34.642  29.679  1.00  0.00     0.060 A 
ATOM     43  C   UNL A   1      35.363  34.612  29.007  1.00  0.00     0.016 A 
ATOM     44  C   UNL A   1      34.071  34.198  30.997  1.00  0.00     0.016 A 
ATOM     45  C   UNL A   1      36.472  34.002  29.588  1.00  0.00     0.010 A 
ATOM     46  C   UNL A   1      35.224  33.715  31.629  1.00  0.00     0.010 A 
ATOM     47  C   UNL A   1      36.429  33.560  30.917  1.00  0.00    -0.014 A 
BRANCH  47  48
ATOM     48  C   UNL A   1      37.622  32.919  31.546  1.00  0.00     0.031 A 
ATOM     49  C   UNL A   1      38.328  31.777  30.859  1.00  0.00     0.074 A 
ATOM     50  C   UNL A   1      38.087  33.353  32.735  1.00  0.00     0.049 A 
ATOM     51  N   UNL A   1      39.250  30.968  31.322  1.00  0.00    -0.248 NA
ATOM     52  C   UNL A   1      37.929  31.491  29.472  1.00  0.00     0.031 C 
ATOM     53  C   UNL A   1      37.535  34.469  33.505  1.00  0.00     0.029 A 
ATOM     54  N   UNL A   1      39.134  32.907  33.508  1.00  0.00    -0.354 N 
ATOM     55  C   UNL A   1      39.486  30.040  30.315  1.00  0.00     0.074 A 
ATOM     56  C   UNL A   1      38.609  30.383  29.215  1.00  0.00     0.031 C 
ATOM     57  C   UNL A   1      38.269  34.648  34.611  1.00  0.00     0.029 A 
ATOM     58  C   UNL A   1      39.277  33.599  34.686  1.00  0.00     0.049 A 
ATOM     59  H   UNL A   1      39.723  32.164  33.242  1.00  0.00     0.167 HD
ATOM     60  C   UNL A   1      40.351  28.996  30.310  1.00  0.00     0.037 A 
ATOM     61  C   UNL A   1      40.090  33.389  35.738  1.00  0.00     0.037 A 
ATOM     62  C   UNL A   1      41.272  28.700  31.378  1.00  0.00     0.049 A 
ATOM     63  C   UNL A   1      41.035  32.223  35.717  1.00  0.00     0.074 A 
ATOM     64  C   UNL A   1      42.222  27.693  31.446  1.00  0.00     0.029 A 
ATOM     65  N   UNL A   1      41.369  29.417  32.563  1.00  0.00    -0.354 N 
ATOM     66  N   UNL A   1      41.219  31.326  34.781  1.00  0.00    -0.248 NA
ATOM     67  C   UNL A   1      41.873  32.030  36.910  1.00  0.00     0.031 C 
ATOM     68  C   UNL A   1      42.860  27.774  32.689  1.00  0.00     0.029 A 
ATOM     69  C   UNL A   1      42.346  28.863  33.376  1.00  0.00     0.049 A 
ATOM     70  H   UNL A   1      40.823  30.204  32.791  1.00  0.00     0.167 HD
ATOM     71  C   UNL A   1      42.194  30.465  35.263  1.00  0.00     0.074 A 
ATOM     72  C   UNL A   1      42.580  30.960  36.569  1.00  0.00     0.031 C 
ATOM     73  C   UNL A   1      42.716  29.360  34.676  1.00  0.00     0.037 A 
BRANCH  60  74
ATOM     74  C   UNL A   1      40.312  28.065  29.130  1.00  0.00     0.064 A 
ATOM     75  C   UNL A   1      39.569  26.875  29.136  1.00  0.00     0.173 A 
ATOM     76  C   UNL A   1      41.022  28.386  27.961  1.00  0.00     0.173 A 
ATOM     77  F   UNL A   1      38.879  26.516  30.228  1.00  0.00    -0.203 F 
ATOM     78  C   UNL A   1      39.572  26.024  28.033  1.00  0.00     0.198 A 
ATOM     79  C   UNL A   1      40.996  27.548  26.849  1.00  0.00     0.198 A 
ATOM     80  F   UNL A   1      41.739  29.518  27.895  1.00  0.00    -0.203 F 
ATOM     81  F   UNL A   1      38.902  24.864  28.083  1.00  0.00    -0.200 F 
ATOM     82  C   UNL A   1      40.280  26.362  26.889  1.00  0.00     0.200 A 
ATOM     83  F   UNL A   1      41.668  27.887  25.740  1.00  0.00    -0.200 F 
ATOM     84  F   UNL A   1      40.280  25.541  25.830  1.00  0.00    -0.200 F 
ENDBRANCH  60  74
BRANCH  61  85
ATOM     85  C   UNL A   1      40.001  34.292  36.916  1.00  0.00     0.064 A 
ATOM     86  C   UNL A   1      39.136  34.007  37.981  1.00  0.00     0.173 A 
ATOM     87  C   UNL A   1      40.815  35.430  37.021  1.00  0.00     0.173 A 
ATOM     88  F   UNL A   1      38.319  32.947  37.915  1.00  0.00    -0.203 F 
ATOM     89  C   UNL A   1      39.095  34.824  39.109  1.00  0.00     0.198 A 
ATOM     90  C   UNL A   1      40.796  36.227  38.161  1.00  0.00     0.198 A 
ATOM     91  F   UNL A   1      41.659  35.745  36.027  1.00  0.00    -0.203 F 
ATOM     92  F   UNL A   1      38.241  34.546  40.104  1.00  0.00    -0.200 F 
ATOM     93  C   UNL A   1      39.933  35.926  39.204  1.00  0.00     0.200 A 
ATOM     94  F   UNL A   1      41.620  37.279  38.256  1.00  0.00    -0.200 F 
ATOM     95  F   UNL A   1      39.908  36.697  40.299  1.00  0.00    -0.200 F 
ENDBRANCH  61  85
BRANCH  73  96
ATOM     96  C   UNL A   1      43.779  28.623  35.437  1.00  0.00     0.064 A 
ATOM     97  C   UNL A   1      43.458  27.604  36.346  1.00  0.00     0.173 A 
ATOM     98  C   UNL A   1      45.135  28.921  35.232  1.00  0.00     0.173 A 
ATOM     99  F   UNL A   1      42.176  27.294  36.589  1.00  0.00    -0.203 F 
ATOM    100  C   UNL A   1      44.457  26.926  37.042  1.00  0.00     0.198 A 
ATOM    101  C   UNL A   1      46.131  28.223  35.908  1.00  0.00     0.198 A 
ATOM    102  F   UNL A   1      45.492  29.884  34.371  1.00  0.00    -0.203 F 
ATOM    103  F   UNL A   1      44.127  25.989  37.941  1.00  0.00    -0.200 F 
ATOM    104  C   UNL A   1      45.791  27.231  36.818  1.00  0.00     0.200 A 
ATOM    105  F   UNL A   1      47.420  28.512  35.684  1.00  0.00    -0.200 F 
ATOM    106  F   UNL A   1      46.751  26.576  37.484  1.00  0.00    -0.200 F 
ENDBRANCH  73  96
ENDBRANCH  47  48
ENDBRANCH  40  42
ENDBRANCH  39  40
ENDBRANCH  38  39
ENDBRANCH   1  38
TORSDOF 18
ENDMDL
MODEL 2
REMARK VINA RESULT:     -13.0      4.392      8.398
REMARK SMILES COc1cc([C@H]2CC(c3ccc(S(C)(=O)=O)cc3)=NN2c2ccc(C(=O)OCCOC(=O)c3ccc(-c4c5nc(c(-c6c(F)c(F)c(F)c(F)c6F)c6ccc([nH]6)c(-c6c(F)c(F)c(F)c(F)c6F)c6nc(c(-c7c(F)c(F)c(F)c(F)c7F)c7ccc4[nH]7)C=C6)C=C5)cc3)cc2)cc(OC)c1OC
REMARK SMILES IDX 28 1 27 2 25 3 26 4 24 5 21 6 22 7 97 8 23 9 96 10 20 11
REMARK SMILES IDX 6 12 7 13 8 14 19 15 5 16 3 17 4 18 102 19 99 20 98 21 2 22
REMARK SMILES IDX 1 23 103 24 104 25 100 26 101 27 9 28 10 29 18 30 11 31
REMARK SMILES IDX 17 32 12 33 13 34 14 35 15 36 16 37 29 38 30 39 31 40 32 41
REMARK SMILES IDX 33 42 34 43 95 44 35 45 94 46 36 47 37 48 38 49 88 50 39 51
REMARK SMILES IDX 93 52 87 53 89 54 40 55 92 56 86 57 85 58 41 60 73 61 53 62
REMARK SMILES IDX 72 63 54 64 57 65 71 66 90 67 55 68 56 69 70 71 91 72 58 73
REMARK SMILES IDX 42 74 43 75 51 76 44 77 45 78 49 79 52 80 46 81 47 82 50 83
REMARK SMILES IDX 48 84 74 85 75 86 83 87 76 88 77 89 81 90 84 91 78 92 79 93
REMARK SMILES IDX 82 94 80 95 59 96 60 97 68 98 61 99 62 100 66 101 69 102
REMARK SMILES IDX 63 103 64 104 67 105 65 106
REMARK H PARENT 89 59 57 70
REMARK Flexibility Score: inf
ROOT
ATOM      1  C   UNL A   1      34.092  32.881  27.910  1.00  0.00     0.275 C 
ENDROOT
BRANCH   1   2
ATOM      2  O   UNL A   1      33.583  31.532  27.975  1.00  0.00    -0.458 OA
BRANCH   2   3
ATOM      3  C   UNL A   1      34.435  30.569  27.539  1.00  0.00     0.338 C 
ATOM      4  O   UNL A   1      35.644  30.655  27.452  1.00  0.00    -0.246 OA
BRANCH   3   5
ATOM      5  C   UNL A   1      33.702  29.316  27.252  1.00  0.00     0.060 A 
ATOM      6  C   UNL A   1      32.336  26.973  26.501  1.00  0.00     0.060 A 
ATOM      7  C   UNL A   1      33.671  27.166  26.142  1.00  0.00     0.029 A 
ATOM      8  C   UNL A   1      31.700  27.961  27.269  1.00  0.00     0.029 A 
ATOM      9  C   UNL A   1      34.331  28.343  26.473  1.00  0.00     0.018 A 
ATOM     10  C   UNL A   1      32.384  29.119  27.667  1.00  0.00     0.018 A 
BRANCH   6  11
ATOM     11  N   UNL A   1      31.663  25.845  26.054  1.00  0.00    -0.257 N 
ATOM     12  C   UNL A   1      30.356  25.899  25.384  1.00  0.00     0.144 C 
ATOM     13  C   UNL A   1      30.245  24.489  24.770  1.00  0.00     0.091 C 
ATOM     14  C   UNL A   1      31.602  23.933  25.107  1.00  0.00     0.071 C 
ATOM     15  N   UNL A   1      32.370  24.711  25.801  1.00  0.00    -0.176 NA
BRANCH  12  16
ATOM     16  C   UNL A   1      30.247  27.054  24.389  1.00  0.00    -0.015 A 
ATOM     17  C   UNL A   1      31.335  28.626  22.853  1.00  0.00     0.164 A 
ATOM     18  C   UNL A   1      31.406  27.627  23.842  1.00  0.00     0.056 A 
ATOM     19  C   UNL A   1      30.095  29.084  22.368  1.00  0.00     0.203 A 
ATOM     20  C   UNL A   1      28.926  28.517  22.916  1.00  0.00     0.164 A 
ATOM     21  C   UNL A   1      29.017  27.516  23.904  1.00  0.00     0.056 A 
BRANCH  17  22
ATOM     22  O   UNL A   1      32.515  29.024  22.276  1.00  0.00    -0.493 OA
ATOM     23  C   UNL A   1      33.576  28.102  22.525  1.00  0.00     0.278 C 
ENDBRANCH  17  22
BRANCH  19  24
ATOM     24  O   UNL A   1      29.922  30.005  21.371  1.00  0.00    -0.490 OA
ATOM     25  C   UNL A   1      29.093  31.138  21.566  1.00  0.00     0.278 C 
ENDBRANCH  19  24
BRANCH  20  26
ATOM     26  O   UNL A   1      27.615  28.803  22.618  1.00  0.00    -0.493 OA
ATOM     27  C   UNL A   1      26.588  28.337  23.480  1.00  0.00     0.278 C 
ENDBRANCH  20  26
ENDBRANCH  12  16
BRANCH  14  28
ATOM     28  C   UNL A   1      32.000  22.556  24.757  1.00  0.00    -0.002 A 
ATOM     29  C   UNL A   1      32.449  21.722  25.791  1.00  0.00     0.011 A 
ATOM     30  C   UNL A   1      31.926  22.079  23.447  1.00  0.00     0.011 A 
ATOM     31  C   UNL A   1      32.789  20.395  25.525  1.00  0.00     0.021 A 
ATOM     32  C   UNL A   1      32.294  20.756  23.173  1.00  0.00     0.021 A 
ATOM     33  C   UNL A   1      32.714  19.919  24.214  1.00  0.00     0.067 A 
BRANCH  33  34
ATOM     34  S   UNL A   1      33.088  18.209  23.893  1.00  0.00     0.175 S 
ATOM     35  C   UNL A   1      34.817  18.045  24.254  1.00  0.00     0.163 C 
ATOM     36  O   UNL A   1      32.343  17.434  24.867  1.00  0.00    -0.224 OA
ATOM     37  O   UNL A   1      32.915  17.983  22.470  1.00  0.00    -0.224 OA
ENDBRANCH  33  34
ENDBRANCH  14  28
ENDBRANCH   6  11
ENDBRANCH   3   5
ENDBRANCH   2   3
ENDBRANCH   1   2
BRANCH   1  38
ATOM     38  C   UNL A   1      33.771  33.666  29.182  1.00  0.00     0.275 C 
BRANCH  38  39
ATOM     39  O   UNL A   1      34.956  33.822  29.985  1.00  0.00    -0.458 OA
BRANCH  39  40
ATOM     40  C   UNL A   1      35.216  32.813  30.844  1.00  0.00     0.338 C 
ATOM     41  O   UNL A   1      34.445  32.276  31.623  1.00  0.00    -0.246 OA
BRANCH  40  42
ATOM     42  C   UNL A   1      36.617  32.382  30.710  1.00  0.00     0.060 A 
ATOM     43  C   UNL A   1      37.335  32.774  29.587  1.00  0.00     0.016 A 
ATOM     44  C   UNL A   1      37.160  31.451  31.592  1.00  0.00     0.016 A 
ATOM     45  C   UNL A   1      38.525  32.133  29.256  1.00  0.00     0.010 A 
ATOM     46  C   UNL A   1      38.426  30.912  31.331  1.00  0.00     0.010 A 
ATOM     47  C   UNL A   1      39.104  31.204  30.131  1.00  0.00    -0.014 A 
BRANCH  47  48
ATOM     48  C   UNL A   1      40.388  30.526  29.783  1.00  0.00     0.031 A 
ATOM     49  C   UNL A   1      41.698  31.263  29.896  1.00  0.00     0.074 A 
ATOM     50  C   UNL A   1      40.395  29.244  29.363  1.00  0.00     0.049 A 
ATOM     51  N   UNL A   1      42.888  30.921  29.464  1.00  0.00    -0.248 NA
ATOM     52  C   UNL A   1      41.665  32.571  30.569  1.00  0.00     0.031 C 
ATOM     53  C   UNL A   1      39.215  28.388  29.235  1.00  0.00     0.029 A 
ATOM     54  N   UNL A   1      41.433  28.433  28.966  1.00  0.00    -0.354 N 
ATOM     55  C   UNL A   1      43.722  31.997  29.745  1.00  0.00     0.074 A 
ATOM     56  C   UNL A   1      42.903  33.005  30.384  1.00  0.00     0.031 C 
ATOM     57  C   UNL A   1      39.595  27.167  28.836  1.00  0.00     0.029 A 
ATOM     58  C   UNL A   1      41.030  27.179  28.576  1.00  0.00     0.049 A 
ATOM     59  H   UNL A   1      42.374  28.725  28.962  1.00  0.00     0.167 HD
ATOM     60  C   UNL A   1      45.046  32.131  29.489  1.00  0.00     0.037 A 
ATOM     61  C   UNL A   1      41.719  26.164  28.022  1.00  0.00     0.037 A 
ATOM     62  C   UNL A   1      45.872  31.098  28.917  1.00  0.00     0.049 A 
ATOM     63  C   UNL A   1      43.183  26.336  27.740  1.00  0.00     0.074 A 
ATOM     64  C   UNL A   1      47.234  31.121  28.665  1.00  0.00     0.029 A 
ATOM     65  N   UNL A   1      45.416  29.849  28.519  1.00  0.00    -0.354 N 
ATOM     66  N   UNL A   1      43.952  27.371  27.968  1.00  0.00    -0.248 NA
ATOM     67  C   UNL A   1      43.870  25.203  27.105  1.00  0.00     0.031 C 
ATOM     68  C   UNL A   1      47.593  29.905  28.073  1.00  0.00     0.029 A 
ATOM     69  C   UNL A   1      46.464  29.102  28.003  1.00  0.00     0.049 A 
ATOM     70  H   UNL A   1      44.485  29.540  28.593  1.00  0.00     0.167 HD
ATOM     71  C   UNL A   1      45.213  27.018  27.512  1.00  0.00     0.074 A 
ATOM     72  C   UNL A   1      45.112  25.661  27.014  1.00  0.00     0.031 C 
ATOM     73  C   UNL A   1      46.350  27.756  27.503  1.00  0.00     0.037 A 
BRANCH  60  74
ATOM     74  C   UNL A   1      45.680  33.463  29.785  1.00  0.00     0.064 A 
ATOM     75  C   UNL A   1      45.612  34.542  28.891  1.00  0.00     0.173 A 
ATOM     76  C   UNL A   1      46.354  33.663  31.001  1.00  0.00     0.173 A 
ATOM     77  F   UNL A   1      44.988  34.403  27.712  1.00  0.00    -0.203 F 
ATOM     78  C   UNL A   1      46.230  35.755  29.185  1.00  0.00     0.198 A 
ATOM     79  C   UNL A   1      46.941  34.888  31.306  1.00  0.00     0.198 A 
ATOM     80  F   UNL A   1      46.439  32.670  31.899  1.00  0.00    -0.203 F 
ATOM     81  F   UNL A   1      46.202  36.753  28.291  1.00  0.00    -0.200 F 
ATOM     82  C   UNL A   1      46.889  35.930  30.393  1.00  0.00     0.200 A 
ATOM     83  F   UNL A   1      47.563  35.058  32.481  1.00  0.00    -0.200 F 
ATOM     84  F   UNL A   1      47.480  37.100  30.674  1.00  0.00    -0.200 F 
ENDBRANCH  60  74
BRANCH  61  85
ATOM     85  C   UNL A   1      41.002  24.913  27.662  1.00  0.00     0.064 A 
ATOM     86  C   UNL A   1      39.991  24.912  26.693  1.00  0.00     0.173 A 
ATOM     87  C   UNL A   1      41.350  23.684  28.246  1.00  0.00     0.173 A 
ATOM     88  F   UNL A   1      39.604  26.064  26.128  1.00  0.00    -0.203 F 
ATOM     89  C   UNL A   1      39.360  23.728  26.316  1.00  0.00     0.198 A 
ATOM     90  C   UNL A   1      40.741  22.498  27.846  1.00  0.00     0.198 A 
ATOM     91  F   UNL A   1      42.313  23.633  29.179  1.00  0.00    -0.203 F 
ATOM     92  F   UNL A   1      38.377  23.756  25.405  1.00  0.00    -0.200 F 
ATOM     93  C   UNL A   1      39.743  22.521  26.883  1.00  0.00     0.200 A 
ATOM     94  F   UNL A   1      41.129  21.334  28.383  1.00  0.00    -0.200 F 
ATOM     95  F   UNL A   1      39.152  21.381  26.503  1.00  0.00    -0.200 F 
ENDBRANCH  61  85
BRANCH  73  96
ATOM     96  C   UNL A   1      47.583  27.101  26.954  1.00  0.00     0.064 A 
ATOM     97  C   UNL A   1      48.419  26.316  27.762  1.00  0.00     0.173 A 
ATOM     98  C   UNL A   1      47.916  27.235  25.597  1.00  0.00     0.173 A 
ATOM     99  F   UNL A   1      48.154  26.172  29.069  1.00  0.00    -0.203 F 
ATOM    100  C   UNL A   1      49.558  25.711  27.237  1.00  0.00     0.198 A 
ATOM    101  C   UNL A   1      49.039  26.606  25.070  1.00  0.00     0.198 A 
ATOM    102  F   UNL A   1      47.146  27.971  24.783  1.00  0.00    -0.203 F 
ATOM    103  F   UNL A   1      50.369  25.005  28.037  1.00  0.00    -0.200 F 
ATOM    104  C   UNL A   1      49.864  25.850  25.891  1.00  0.00     0.200 A 
ATOM    105  F   UNL A   1      49.327  26.733  23.767  1.00  0.00    -0.200 F 
ATOM    106  F   UNL A   1      50.957  25.264  25.386  1.00  0.00    -0.200 F 
ENDBRANCH  73  96
ENDBRANCH  47  48
ENDBRANCH  40  42
ENDBRANCH  39  40
ENDBRANCH  38  39
ENDBRANCH   1  38
TORSDOF 18
ENDMDL
MODEL 3
REMARK VINA RESULT:     -12.2      5.950     11.155
REMARK SMILES COc1cc([C@H]2CC(c3ccc(S(C)(=O)=O)cc3)=NN2c2ccc(C(=O)OCCOC(=O)c3ccc(-c4c5nc(c(-c6c(F)c(F)c(F)c(F)c6F)c6ccc([nH]6)c(-c6c(F)c(F)c(F)c(F)c6F)c6nc(c(-c7c(F)c(F)c(F)c(F)c7F)c7ccc4[nH]7)C=C6)C=C5)cc3)cc2)cc(OC)c1OC
REMARK SMILES IDX 28 1 27 2 25 3 26 4 24 5 21 6 22 7 97 8 23 9 96 10 20 11
REMARK SMILES IDX 6 12 7 13 8 14 19 15 5 16 3 17 4 18 102 19 99 20 98 21 2 22
REMARK SMILES IDX 1 23 103 24 104 25 100 26 101 27 9 28 10 29 18 30 11 31
REMARK SMILES IDX 17 32 12 33 13 34 14 35 15 36 16 37 29 38 30 39 31 40 32 41
REMARK SMILES IDX 33 42 34 43 95 44 35 45 94 46 36 47 37 48 38 49 88 50 39 51
REMARK SMILES IDX 93 52 87 53 89 54 40 55 92 56 86 57 85 58 41 60 73 61 53 62
REMARK SMILES IDX 72 63 54 64 57 65 71 66 90 67 55 68 56 69 70 71 91 72 58 73
REMARK SMILES IDX 42 74 43 75 51 76 44 77 45 78 49 79 52 80 46 81 47 82 50 83
REMARK SMILES IDX 48 84 74 85 75 86 83 87 76 88 77 89 81 90 84 91 78 92 79 93
REMARK SMILES IDX 82 94 80 95 59 96 60 97 68 98 61 99 62 100 66 101 69 102
REMARK SMILES IDX 63 103 64 104 67 105 65 106
REMARK H PARENT 89 59 57 70
REMARK Flexibility Score: inf
ROOT
ATOM      1  C   UNL A   1      48.698  25.256  25.373  1.00  0.00     0.275 C 
ENDROOT
BRANCH   1   2
ATOM      2  O   UNL A   1      47.527  25.055  26.192  1.00  0.00    -0.458 OA
BRANCH   2   3
ATOM      3  C   UNL A   1      46.511  24.381  25.596  1.00  0.00     0.338 C 
ATOM      4  O   UNL A   1      46.606  23.381  24.913  1.00  0.00    -0.246 OA
BRANCH   3   5
ATOM      5  C   UNL A   1      45.206  24.977  25.960  1.00  0.00     0.060 A 
ATOM      6  C   UNL A   1      42.704  25.958  26.795  1.00  0.00     0.060 A 
ATOM      7  C   UNL A   1      43.769  25.865  27.693  1.00  0.00     0.029 A 
ATOM      8  C   UNL A   1      42.918  25.577  25.462  1.00  0.00     0.029 A 
ATOM      9  C   UNL A   1      44.991  25.338  27.292  1.00  0.00     0.018 A 
ATOM     10  C   UNL A   1      44.171  25.112  25.034  1.00  0.00     0.018 A 
BRANCH   6  11
ATOM     11  N   UNL A   1      41.460  26.372  27.250  1.00  0.00    -0.257 N 
ATOM     12  C   UNL A   1      40.221  25.619  27.007  1.00  0.00     0.144 C 
ATOM     13  C   UNL A   1      39.243  26.267  28.007  1.00  0.00     0.091 C 
ATOM     14  C   UNL A   1      40.172  27.200  28.737  1.00  0.00     0.071 C 
ATOM     15  N   UNL A   1      41.394  27.223  28.309  1.00  0.00    -0.176 NA
BRANCH  12  16
ATOM     16  C   UNL A   1      40.406  24.109  27.159  1.00  0.00    -0.015 A 
ATOM     17  C   UNL A   1      39.753  21.829  26.535  1.00  0.00     0.164 A 
ATOM     18  C   UNL A   1      39.549  23.222  26.490  1.00  0.00     0.056 A 
ATOM     19  C   UNL A   1      40.833  21.275  27.248  1.00  0.00     0.203 A 
ATOM     20  C   UNL A   1      41.695  22.159  27.927  1.00  0.00     0.164 A 
ATOM     21  C   UNL A   1      41.476  23.551  27.869  1.00  0.00     0.056 A 
BRANCH  17  22
ATOM     22  O   UNL A   1      38.952  21.051  25.737  1.00  0.00    -0.493 OA
ATOM     23  C   UNL A   1      37.725  21.701  25.405  1.00  0.00     0.278 C 
ENDBRANCH  17  22
BRANCH  19  24
ATOM     24  O   UNL A   1      41.149  19.945  27.303  1.00  0.00    -0.490 OA
ATOM     25  C   UNL A   1      41.916  19.338  26.278  1.00  0.00     0.278 C 
ENDBRANCH  19  24
BRANCH  20  26
ATOM     26  O   UNL A   1      42.799  21.862  28.691  1.00  0.00    -0.493 OA
ATOM     27  C   UNL A   1      43.373  22.871  29.507  1.00  0.00     0.278 C 
ENDBRANCH  20  26
ENDBRANCH  12  16
BRANCH  14  28
ATOM     28  C   UNL A   1      39.704  28.103  29.805  1.00  0.00    -0.002 A 
ATOM     29  C   UNL A   1      40.371  28.059  31.038  1.00  0.00     0.011 A 
ATOM     30  C   UNL A   1      38.642  28.988  29.609  1.00  0.00     0.011 A 
ATOM     31  C   UNL A   1      40.004  28.927  32.067  1.00  0.00     0.021 A 
ATOM     32  C   UNL A   1      38.253  29.840  30.650  1.00  0.00     0.021 A 
ATOM     33  C   UNL A   1      38.941  29.812  31.869  1.00  0.00     0.067 A 
BRANCH  33  34
ATOM     34  S   UNL A   1      38.519  30.959  33.163  1.00  0.00     0.175 S 
ATOM     35  C   UNL A   1      36.825  31.385  32.859  1.00  0.00     0.163 C 
ATOM     36  O   UNL A   1      38.588  30.219  34.408  1.00  0.00    -0.224 OA
ATOM     37  O   UNL A   1      39.315  32.156  32.962  1.00  0.00    -0.224 OA
ENDBRANCH  33  34
ENDBRANCH  14  28
ENDBRANCH   6  11
ENDBRANCH   3   5
ENDBRANCH   2   3
ENDBRANCH   1   2
BRANCH   1  38
ATOM     38  C   UNL A   1      48.414  26.206  24.209  1.00  0.00     0.275 C 
BRANCH  38  39
ATOM     39  O   UNL A   1      48.330  27.563  24.680  1.00  0.00    -0.458 OA
BRANCH  39  40
ATOM     40  C   UNL A   1      47.147  28.181  24.473  1.00  0.00     0.338 C 
ATOM     41  O   UNL A   1      46.643  28.493  23.405  1.00  0.00    -0.246 OA
BRANCH  40  42
ATOM     42  C   UNL A   1      46.471  28.427  25.756  1.00  0.00     0.060 A 
ATOM     43  C   UNL A   1      45.100  28.652  25.761  1.00  0.00     0.016 A 
ATOM     44  C   UNL A   1      47.209  28.614  26.922  1.00  0.00     0.016 A 
ATOM     45  C   UNL A   1      44.483  29.208  26.878  1.00  0.00     0.010 A 
ATOM     46  C   UNL A   1      46.559  29.038  28.089  1.00  0.00     0.010 A 
ATOM     47  C   UNL A   1      45.197  29.392  28.070  1.00  0.00    -0.014 A 
BRANCH  47  48
ATOM     48  C   UNL A   1      44.532  29.976  29.274  1.00  0.00     0.031 A 
ATOM     49  C   UNL A   1      44.129  31.428  29.297  1.00  0.00     0.074 A 
ATOM     50  C   UNL A   1      44.281  29.211  30.356  1.00  0.00     0.049 A 
ATOM     51  N   UNL A   1      43.722  32.164  30.304  1.00  0.00    -0.248 NA
ATOM     52  C   UNL A   1      44.214  32.159  28.023  1.00  0.00     0.031 C 
ATOM     53  C   UNL A   1      44.578  27.782  30.472  1.00  0.00     0.029 A 
ATOM     54  N   UNL A   1      43.715  29.527  31.569  1.00  0.00    -0.354 N 
ATOM     55  C   UNL A   1      43.575  33.452  29.801  1.00  0.00     0.074 A 
ATOM     56  C   UNL A   1      43.938  33.399  28.401  1.00  0.00     0.031 C 
ATOM     57  C   UNL A   1      44.156  27.338  31.663  1.00  0.00     0.029 A 
ATOM     58  C   UNL A   1      43.655  28.466  32.439  1.00  0.00     0.049 A 
ATOM     59  H   UNL A   1      43.386  30.429  31.792  1.00  0.00     0.167 HD
ATOM     60  C   UNL A   1      43.178  34.574  30.450  1.00  0.00     0.037 A 
ATOM     61  C   UNL A   1      43.288  28.406  33.733  1.00  0.00     0.037 A 
ATOM     62  C   UNL A   1      42.750  34.608  31.826  1.00  0.00     0.049 A 
ATOM     63  C   UNL A   1      42.859  29.661  34.435  1.00  0.00     0.074 A 
ATOM     64  C   UNL A   1      42.284  35.688  32.559  1.00  0.00     0.029 A 
ATOM     65  N   UNL A   1      42.724  33.511  32.675  1.00  0.00    -0.354 N 
ATOM     66  N   UNL A   1      42.766  30.880  33.965  1.00  0.00    -0.248 NA
ATOM     67  C   UNL A   1      42.502  29.534  35.855  1.00  0.00     0.031 C 
ATOM     68  C   UNL A   1      42.019  35.252  33.862  1.00  0.00     0.029 A 
ATOM     69  C   UNL A   1      42.271  33.891  33.929  1.00  0.00     0.049 A 
ATOM     70  H   UNL A   1      42.989  32.597  32.422  1.00  0.00     0.167 HD
ATOM     71  C   UNL A   1      42.337  31.666  35.024  1.00  0.00     0.074 A 
ATOM     72  C   UNL A   1      42.164  30.781  36.158  1.00  0.00     0.031 C 
ATOM     73  C   UNL A   1      42.111  33.003  35.052  1.00  0.00     0.037 A 
BRANCH  60  74
ATOM     74  C   UNL A   1      43.231  35.871  29.691  1.00  0.00     0.064 A 
ATOM     75  C   UNL A   1      42.212  36.272  28.815  1.00  0.00     0.173 A 
ATOM     76  C   UNL A   1      44.323  36.739  29.864  1.00  0.00     0.173 A 
ATOM     77  F   UNL A   1      41.151  35.478  28.607  1.00  0.00    -0.203 F 
ATOM     78  C   UNL A   1      42.302  37.470  28.110  1.00  0.00     0.198 A 
ATOM     79  C   UNL A   1      44.393  37.952  29.183  1.00  0.00     0.198 A 
ATOM     80  F   UNL A   1      45.321  36.413  30.700  1.00  0.00    -0.203 F 
ATOM     81  F   UNL A   1      41.344  37.804  27.235  1.00  0.00    -0.200 F 
ATOM     82  C   UNL A   1      43.389  38.311  28.298  1.00  0.00     0.200 A 
ATOM     83  F   UNL A   1      45.438  38.770  29.379  1.00  0.00    -0.200 F 
ATOM     84  F   UNL A   1      43.473  39.464  27.620  1.00  0.00    -0.200 F 
ENDBRANCH  60  74
BRANCH  61  85
ATOM     85  C   UNL A   1      43.359  27.105  34.447  1.00  0.00     0.064 A 
ATOM     86  C   UNL A   1      42.206  26.342  34.678  1.00  0.00     0.173 A 
ATOM     87  C   UNL A   1      44.589  26.575  34.869  1.00  0.00     0.173 A 
ATOM     88  F   UNL A   1      41.006  26.818  34.318  1.00  0.00    -0.203 F 
ATOM     89  C   UNL A   1      42.283  25.096  35.297  1.00  0.00     0.198 A 
ATOM     90  C   UNL A   1      44.667  25.317  35.458  1.00  0.00     0.198 A 
ATOM     91  F   UNL A   1      45.721  27.267  34.671  1.00  0.00    -0.203 F 
ATOM     92  F   UNL A   1      41.164  24.397  35.530  1.00  0.00    -0.200 F 
ATOM     93  C   UNL A   1      43.513  24.579  35.676  1.00  0.00     0.200 A 
ATOM     94  F   UNL A   1      45.860  24.814  35.805  1.00  0.00    -0.200 F 
ATOM     95  F   UNL A   1      43.587  23.372  36.250  1.00  0.00    -0.200 F 
ENDBRANCH  61  85
BRANCH  73  96
ATOM     96  C   UNL A   1      41.633  33.585  36.349  1.00  0.00     0.064 A 
ATOM     97  C   UNL A   1      40.270  33.622  36.679  1.00  0.00     0.173 A 
ATOM     98  C   UNL A   1      42.551  34.085  37.285  1.00  0.00     0.173 A 
ATOM     99  F   UNL A   1      39.353  33.173  35.810  1.00  0.00    -0.203 F 
ATOM    100  C   UNL A   1      39.841  34.162  37.889  1.00  0.00     0.198 A 
ATOM    101  C   UNL A   1      42.121  34.599  38.505  1.00  0.00     0.198 A 
ATOM    102  F   UNL A   1      43.865  34.069  37.019  1.00  0.00    -0.203 F 
ATOM    103  F   UNL A   1      38.531  34.232  38.164  1.00  0.00    -0.200 F 
ATOM    104  C   UNL A   1      40.766  34.644  38.803  1.00  0.00     0.200 A 
ATOM    105  F   UNL A   1      43.017  35.054  39.392  1.00  0.00    -0.200 F 
ATOM    106  F   UNL A   1      40.353  35.159  39.968  1.00  0.00    -0.200 F 
ENDBRANCH  73  96
ENDBRANCH  47  48
ENDBRANCH  40  42
ENDBRANCH  39  40
ENDBRANCH  38  39
ENDBRANCH   1  38
TORSDOF 18
ENDMDL
