MODEL 1
REMARK VINA RESULT:     -12.3      0.000      0.000
REMARK SMILES CC(=O)N1CC[NH+](C[C@@H](CC(=O)Nc2ccccc2F)C(=O)OCCOC(=O)c2ccc(-c3c4nc(c(-c5c(F)c(F)c(F)c(F)c5F)c5ccc([nH]5)c(-c5c(F)c(F)c(F)c(F)c5F)c5nc(c(-c6c(F)c(F)c(F)c(F)c6F)c6ccc3[nH]6)C=C5)C=C4)cc2)CC1
REMARK SMILES IDX 24 1 23 2 21 3 22 4 9 5 8 6 7 7 1 8 2 9 3 10 4 11 5 12 93 13
REMARK SMILES IDX 6 14 92 15 10 17 11 18 12 19 13 20 14 22 15 23 19 24 16 25
REMARK SMILES IDX 18 26 20 27 17 28 25 29 26 30 27 31 28 32 29 33 30 34 91 35
REMARK SMILES IDX 31 36 90 37 32 38 33 39 34 40 84 41 35 42 89 43 83 44 85 45
REMARK SMILES IDX 36 46 88 47 82 48 81 49 37 51 69 52 49 53 68 54 50 55 53 56
REMARK SMILES IDX 67 57 86 58 51 59 52 60 66 62 87 63 54 64 38 65 39 66 47 67
REMARK SMILES IDX 40 68 41 69 45 70 48 71 42 72 43 73 46 74 44 75 70 76 71 77
REMARK SMILES IDX 79 78 72 79 73 80 77 81 80 82 74 83 75 84 78 85 76 86 55 87
REMARK SMILES IDX 56 88 64 89 57 90 58 91 62 92 65 93 59 94 60 95 63 96 61 97
REMARK H PARENT 7 16 13 21 85 50 53 61
REMARK Flexibility Score: inf
ROOT
ATOM      1  C   UNL A   1      31.691  28.917  26.969  1.00  0.00     0.274 C 
ENDROOT
BRANCH   1   2
ATOM      2  O   UNL A   1      31.593  28.077  25.799  1.00  0.00    -0.462 OA
BRANCH   2   3
ATOM      3  C   UNL A   1      31.855  26.761  25.972  1.00  0.00     0.315 C 
ATOM      4  O   UNL A   1      31.176  25.996  26.649  1.00  0.00    -0.252 OA
BRANCH   3   5
ATOM      5  C   UNL A   1      33.079  26.285  25.195  1.00  0.00     0.163 C 
BRANCH   5   6
ATOM      6  C   UNL A   1      33.017  24.756  25.028  1.00  0.00     0.278 C 
BRANCH   6   7
ATOM      7  N   UNL A   1      33.411  23.779  26.061  1.00  0.00    -0.331 N 
ATOM      8  C   UNL A   1      34.353  18.849  24.585  1.00  0.00     0.114 C 
ATOM      9  C   UNL A   1      33.108  19.609  24.950  1.00  0.00     0.219 C 
ATOM     10  O   UNL A   1      32.029  19.023  25.040  1.00  0.00    -0.275 OA
ATOM     11  N   UNL A   1      33.245  20.961  25.222  1.00  0.00    -0.332 N 
ATOM     12  C   UNL A   1      32.063  21.673  25.701  1.00  0.00     0.181 C 
ATOM     13  C   UNL A   1      34.376  21.797  24.792  1.00  0.00     0.181 C 
ATOM     14  C   UNL A   1      32.432  22.845  26.615  1.00  0.00     0.284 C 
ATOM     15  C   UNL A   1      34.629  23.016  25.710  1.00  0.00     0.284 C 
ATOM     16  H   UNL A   1      33.564  24.448  26.816  1.00  0.00     0.348 HD
ENDBRANCH   6   7
ENDBRANCH   5   6
BRANCH   5  17
ATOM     17  C   UNL A   1      33.377  27.191  23.997  1.00  0.00     0.121 C 
BRANCH  17  18
ATOM     18  C   UNL A   1      33.090  26.717  22.586  1.00  0.00     0.225 C 
ATOM     19  O   UNL A   1      34.005  26.278  21.883  1.00  0.00    -0.275 OA
ATOM     20  N   UNL A   1      31.811  26.633  22.106  1.00  0.00    -0.324 N 
ATOM     21  H   UNL A   1      31.611  25.879  21.504  1.00  0.00     0.170 HD
BRANCH  20  22
ATOM     22  C   UNL A   1      30.759  27.516  22.389  1.00  0.00     0.077 A 
ATOM     23  C   UNL A   1      30.850  28.868  22.065  1.00  0.00     0.029 A 
ATOM     24  C   UNL A   1      29.682  27.065  23.159  1.00  0.00     0.146 A 
ATOM     25  C   UNL A   1      29.822  29.741  22.448  1.00  0.00     0.002 A 
ATOM     26  C   UNL A   1      28.645  27.919  23.516  1.00  0.00     0.041 A 
ATOM     27  F   UNL A   1      29.619  25.775  23.521  1.00  0.00    -0.205 F 
ATOM     28  C   UNL A   1      28.713  29.263  23.155  1.00  0.00     0.003 A 
ENDBRANCH  20  22
ENDBRANCH  17  18
ENDBRANCH   5  17
ENDBRANCH   3   5
ENDBRANCH   2   3
ENDBRANCH   1   2
BRANCH   1  29
ATOM     29  C   UNL A   1      31.783  30.400  26.609  1.00  0.00     0.275 C 
BRANCH  29  30
ATOM     30  O   UNL A   1      33.145  30.808  26.385  1.00  0.00    -0.458 OA
BRANCH  30  31
ATOM     31  C   UNL A   1      33.590  31.756  27.235  1.00  0.00     0.338 C 
ATOM     32  O   UNL A   1      33.001  32.750  27.624  1.00  0.00    -0.246 OA
BRANCH  31  33
ATOM     33  C   UNL A   1      34.911  31.392  27.759  1.00  0.00     0.060 A 
ATOM     34  C   UNL A   1      35.094  30.077  28.177  1.00  0.00     0.016 A 
ATOM     35  C   UNL A   1      35.892  32.354  27.996  1.00  0.00     0.016 A 
ATOM     36  C   UNL A   1      36.204  29.729  28.929  1.00  0.00     0.010 A 
ATOM     37  C   UNL A   1      37.052  31.985  28.686  1.00  0.00     0.010 A 
ATOM     38  C   UNL A   1      37.199  30.679  29.189  1.00  0.00    -0.014 A 
BRANCH  38  39
ATOM     39  C   UNL A   1      38.382  30.288  29.994  1.00  0.00     0.031 A 
ATOM     40  C   UNL A   1      39.420  29.370  29.418  1.00  0.00     0.074 A 
ATOM     41  C   UNL A   1      38.536  30.794  31.233  1.00  0.00     0.049 A 
ATOM     42  N   UNL A   1      40.456  28.826  30.005  1.00  0.00    -0.248 NA
ATOM     43  C   UNL A   1      39.280  29.013  27.998  1.00  0.00     0.031 C 
ATOM     44  C   UNL A   1      37.618  31.735  31.880  1.00  0.00     0.029 A 
ATOM     45  N   UNL A   1      39.518  30.593  32.169  1.00  0.00    -0.354 N 
ATOM     46  C   UNL A   1      41.062  28.030  29.043  1.00  0.00     0.074 A 
ATOM     47  C   UNL A   1      40.285  28.164  27.829  1.00  0.00     0.031 C 
ATOM     48  C   UNL A   1      38.088  32.040  33.098  1.00  0.00     0.029 A 
ATOM     49  C   UNL A   1      39.297  31.263  33.347  1.00  0.00     0.049 A 
ATOM     50  H   UNL A   1      40.307  30.025  32.010  1.00  0.00     0.167 HD
ATOM     51  C   UNL A   1      42.166  27.258  29.170  1.00  0.00     0.037 A 
ATOM     52  C   UNL A   1      39.966  31.221  34.514  1.00  0.00     0.037 A 
ATOM     53  C   UNL A   1      42.960  27.168  30.367  1.00  0.00     0.049 A 
ATOM     54  C   UNL A   1      41.171  30.334  34.634  1.00  0.00     0.074 A 
ATOM     55  C   UNL A   1      44.112  26.433  30.584  1.00  0.00     0.029 A 
ATOM     56  N   UNL A   1      42.688  27.844  31.547  1.00  0.00    -0.354 N 
ATOM     57  N   UNL A   1      41.718  29.561  33.728  1.00  0.00    -0.248 NA
ATOM     58  C   UNL A   1      41.847  30.304  35.939  1.00  0.00     0.031 C 
ATOM     59  C   UNL A   1      44.518  26.636  31.905  1.00  0.00     0.029 A 
ATOM     60  C   UNL A   1      43.643  27.530  32.500  1.00  0.00     0.049 A 
ATOM     61  H   UNL A   1      41.930  28.456  31.687  1.00  0.00     0.167 HD
ATOM     62  C   UNL A   1      42.801  28.956  34.348  1.00  0.00     0.074 A 
ATOM     63  C   UNL A   1      42.848  29.467  35.702  1.00  0.00     0.031 C 
ATOM     64  C   UNL A   1      43.673  28.052  33.841  1.00  0.00     0.037 A 
BRANCH  51  65
ATOM     65  C   UNL A   1      42.583  26.421  27.999  1.00  0.00     0.064 A 
ATOM     66  C   UNL A   1      43.450  26.950  27.031  1.00  0.00     0.173 A 
ATOM     67  C   UNL A   1      42.055  25.142  27.781  1.00  0.00     0.173 A 
ATOM     68  F   UNL A   1      43.978  28.173  27.194  1.00  0.00    -0.203 F 
ATOM     69  C   UNL A   1      43.760  26.236  25.878  1.00  0.00     0.198 A 
ATOM     70  C   UNL A   1      42.381  24.420  26.635  1.00  0.00     0.198 A 
ATOM     71  F   UNL A   1      41.230  24.589  28.683  1.00  0.00    -0.203 F 
ATOM     72  F   UNL A   1      44.565  26.775  24.952  1.00  0.00    -0.200 F 
ATOM     73  C   UNL A   1      43.225  24.972  25.680  1.00  0.00     0.200 A 
ATOM     74  F   UNL A   1      41.879  23.192  26.452  1.00  0.00    -0.200 F 
ATOM     75  F   UNL A   1      43.521  24.284  24.569  1.00  0.00    -0.200 F 
ENDBRANCH  51  65
BRANCH  52  76
ATOM     76  C   UNL A   1      39.471  32.014  35.668  1.00  0.00     0.064 A 
ATOM     77  C   UNL A   1      39.968  33.301  35.927  1.00  0.00     0.173 A 
ATOM     78  C   UNL A   1      38.519  31.491  36.550  1.00  0.00     0.173 A 
ATOM     79  F   UNL A   1      40.884  33.844  35.112  1.00  0.00    -0.203 F 
ATOM     80  C   UNL A   1      39.545  34.026  37.038  1.00  0.00     0.198 A 
ATOM     81  C   UNL A   1      38.076  32.229  37.647  1.00  0.00     0.198 A 
ATOM     82  F   UNL A   1      37.999  30.274  36.331  1.00  0.00    -0.203 F 
ATOM     83  F   UNL A   1      40.061  35.238  37.281  1.00  0.00    -0.200 F 
ATOM     84  C   UNL A   1      38.595  33.491  37.895  1.00  0.00     0.200 A 
ATOM     85  F   UNL A   1      37.139  31.719  38.459  1.00  0.00    -0.200 F 
ATOM     86  F   UNL A   1      38.178  34.193  38.957  1.00  0.00    -0.200 F 
ENDBRANCH  52  76
BRANCH  64  87
ATOM     87  C   UNL A   1      44.762  27.563  34.746  1.00  0.00     0.064 A 
ATOM     88  C   UNL A   1      44.562  26.435  35.554  1.00  0.00     0.173 A 
ATOM     89  C   UNL A   1      45.973  28.258  34.868  1.00  0.00     0.173 A 
ATOM     90  F   UNL A   1      43.416  25.743  35.477  1.00  0.00    -0.203 F 
ATOM     91  C   UNL A   1      45.533  26.026  36.462  1.00  0.00     0.198 A 
ATOM     92  C   UNL A   1      46.952  27.833  35.762  1.00  0.00     0.198 A 
ATOM     93  F   UNL A   1      46.213  29.336  34.106  1.00  0.00    -0.203 F 
ATOM     94  F   UNL A   1      45.310  24.962  37.246  1.00  0.00    -0.200 F 
ATOM     95  C   UNL A   1      46.727  26.724  36.565  1.00  0.00     0.200 A 
ATOM     96  F   UNL A   1      48.114  28.495  35.845  1.00  0.00    -0.200 F 
ATOM     97  F   UNL A   1      47.665  26.325  37.436  1.00  0.00    -0.200 F 
ENDBRANCH  64  87
ENDBRANCH  38  39
ENDBRANCH  31  33
ENDBRANCH  30  31
ENDBRANCH  29  30
ENDBRANCH   1  29
TORSDOF 16
ENDMDL
MODEL 2
REMARK VINA RESULT:     -12.0      0.636      2.052
REMARK SMILES CC(=O)N1CC[NH+](C[C@@H](CC(=O)Nc2ccccc2F)C(=O)OCCOC(=O)c2ccc(-c3c4nc(c(-c5c(F)c(F)c(F)c(F)c5F)c5ccc([nH]5)c(-c5c(F)c(F)c(F)c(F)c5F)c5nc(c(-c6c(F)c(F)c(F)c(F)c6F)c6ccc3[nH]6)C=C5)C=C4)cc2)CC1
REMARK SMILES IDX 24 1 23 2 21 3 22 4 9 5 8 6 7 7 1 8 2 9 3 10 4 11 5 12 93 13
REMARK SMILES IDX 6 14 92 15 10 17 11 18 12 19 13 20 14 22 15 23 19 24 16 25
REMARK SMILES IDX 18 26 20 27 17 28 25 29 26 30 27 31 28 32 29 33 30 34 91 35
REMARK SMILES IDX 31 36 90 37 32 38 33 39 34 40 84 41 35 42 89 43 83 44 85 45
REMARK SMILES IDX 36 46 88 47 82 48 81 49 37 51 69 52 49 53 68 54 50 55 53 56
REMARK SMILES IDX 67 57 86 58 51 59 52 60 66 62 87 63 54 64 38 65 39 66 47 67
REMARK SMILES IDX 40 68 41 69 45 70 48 71 42 72 43 73 46 74 44 75 70 76 71 77
REMARK SMILES IDX 79 78 72 79 73 80 77 81 80 82 74 83 75 84 78 85 76 86 55 87
REMARK SMILES IDX 56 88 64 89 57 90 58 91 62 92 65 93 59 94 60 95 63 96 61 97
REMARK H PARENT 7 16 13 21 85 50 53 61
REMARK Flexibility Score: inf
ROOT
ATOM      1  C   UNL A   1      31.786  28.652  26.928  1.00  0.00     0.274 C 
ENDROOT
BRANCH   1   2
ATOM      2  O   UNL A   1      31.442  27.718  25.882  1.00  0.00    -0.462 OA
BRANCH   2   3
ATOM      3  C   UNL A   1      31.774  26.423  26.092  1.00  0.00     0.315 C 
ATOM      4  O   UNL A   1      31.195  25.670  26.869  1.00  0.00    -0.252 OA
BRANCH   3   5
ATOM      5  C   UNL A   1      32.935  25.952  25.222  1.00  0.00     0.163 C 
BRANCH   5   6
ATOM      6  C   UNL A   1      32.752  24.460  24.887  1.00  0.00     0.278 C 
BRANCH   6   7
ATOM      7  N   UNL A   1      33.702  23.650  24.102  1.00  0.00    -0.331 N 
ATOM      8  C   UNL A   1      32.484  18.660  23.111  1.00  0.00     0.114 C 
ATOM      9  C   UNL A   1      33.140  19.364  24.266  1.00  0.00     0.219 C 
ATOM     10  O   UNL A   1      33.612  18.715  25.200  1.00  0.00    -0.275 OA
ATOM     11  N   UNL A   1      33.227  20.745  24.203  1.00  0.00    -0.332 N 
ATOM     12  C   UNL A   1      33.975  21.422  25.259  1.00  0.00     0.181 C 
ATOM     13  C   UNL A   1      32.393  21.604  23.347  1.00  0.00     0.181 C 
ATOM     14  C   UNL A   1      34.616  22.721  24.765  1.00  0.00     0.284 C 
ATOM     15  C   UNL A   1      33.069  22.943  22.967  1.00  0.00     0.284 C 
ATOM     16  H   UNL A   1      34.307  24.417  23.805  1.00  0.00     0.348 HD
ENDBRANCH   6   7
ENDBRANCH   5   6
BRANCH   5  17
ATOM     17  C   UNL A   1      33.268  26.964  24.124  1.00  0.00     0.121 C 
BRANCH  17  18
ATOM     18  C   UNL A   1      33.071  26.607  22.663  1.00  0.00     0.225 C 
ATOM     19  O   UNL A   1      34.025  26.201  21.993  1.00  0.00    -0.275 OA
ATOM     20  N   UNL A   1      31.828  26.590  22.093  1.00  0.00    -0.324 N 
ATOM     21  H   UNL A   1      31.656  25.890  21.422  1.00  0.00     0.170 HD
BRANCH  20  22
ATOM     22  C   UNL A   1      30.774  27.474  22.372  1.00  0.00     0.077 A 
ATOM     23  C   UNL A   1      30.865  28.824  22.042  1.00  0.00     0.029 A 
ATOM     24  C   UNL A   1      29.698  27.026  23.144  1.00  0.00     0.146 A 
ATOM     25  C   UNL A   1      29.836  29.698  22.420  1.00  0.00     0.002 A 
ATOM     26  C   UNL A   1      28.661  27.881  23.496  1.00  0.00     0.041 A 
ATOM     27  F   UNL A   1      29.636  25.737  23.512  1.00  0.00    -0.205 F 
ATOM     28  C   UNL A   1      28.728  29.224  23.130  1.00  0.00     0.003 A 
ENDBRANCH  20  22
ENDBRANCH  17  18
ENDBRANCH   5  17
ENDBRANCH   3   5
ENDBRANCH   2   3
ENDBRANCH   1   2
BRANCH   1  29
ATOM     29  C   UNL A   1      31.827  30.095  26.422  1.00  0.00     0.275 C 
BRANCH  29  30
ATOM     30  O   UNL A   1      33.179  30.561  26.258  1.00  0.00    -0.458 OA
BRANCH  30  31
ATOM     31  C   UNL A   1      33.571  31.467  27.176  1.00  0.00     0.338 C 
ATOM     32  O   UNL A   1      32.931  32.400  27.630  1.00  0.00    -0.246 OA
BRANCH  31  33
ATOM     33  C   UNL A   1      34.907  31.134  27.684  1.00  0.00     0.060 A 
ATOM     34  C   UNL A   1      35.155  29.802  28.005  1.00  0.00     0.016 A 
ATOM     35  C   UNL A   1      35.834  32.125  28.002  1.00  0.00     0.016 A 
ATOM     36  C   UNL A   1      36.279  29.457  28.740  1.00  0.00     0.010 A 
ATOM     37  C   UNL A   1      37.008  31.766  28.673  1.00  0.00     0.010 A 
ATOM     38  C   UNL A   1      37.221  30.435  29.079  1.00  0.00    -0.014 A 
BRANCH  38  39
ATOM     39  C   UNL A   1      38.418  30.047  29.864  1.00  0.00     0.031 A 
ATOM     40  C   UNL A   1      39.444  29.124  29.273  1.00  0.00     0.074 A 
ATOM     41  C   UNL A   1      38.595  30.558  31.097  1.00  0.00     0.049 A 
ATOM     42  N   UNL A   1      40.490  28.582  29.844  1.00  0.00    -0.248 NA
ATOM     43  C   UNL A   1      39.277  28.760  27.858  1.00  0.00     0.031 C 
ATOM     44  C   UNL A   1      37.691  31.504  31.756  1.00  0.00     0.029 A 
ATOM     45  N   UNL A   1      39.595  30.361  32.015  1.00  0.00    -0.354 N 
ATOM     46  C   UNL A   1      41.077  27.780  28.874  1.00  0.00     0.074 A 
ATOM     47  C   UNL A   1      40.278  27.908  27.675  1.00  0.00     0.031 C 
ATOM     48  C   UNL A   1      38.184  31.814  32.963  1.00  0.00     0.029 A 
ATOM     49  C   UNL A   1      39.396  31.037  33.194  1.00  0.00     0.049 A 
ATOM     50  H   UNL A   1      40.379  29.791  31.845  1.00  0.00     0.167 HD
ATOM     51  C   UNL A   1      42.182  27.006  28.985  1.00  0.00     0.037 A 
ATOM     52  C   UNL A   1      40.087  31.000  34.349  1.00  0.00     0.037 A 
ATOM     53  C   UNL A   1      42.998  26.922  30.168  1.00  0.00     0.049 A 
ATOM     54  C   UNL A   1      41.293  30.113  34.451  1.00  0.00     0.074 A 
ATOM     55  C   UNL A   1      44.153  26.187  30.366  1.00  0.00     0.029 A 
ATOM     56  N   UNL A   1      42.749  27.604  31.349  1.00  0.00    -0.354 N 
ATOM     57  N   UNL A   1      41.822  29.334  33.539  1.00  0.00    -0.248 NA
ATOM     58  C   UNL A   1      41.993  30.088  35.743  1.00  0.00     0.031 C 
ATOM     59  C   UNL A   1      44.584  26.395  31.679  1.00  0.00     0.029 A 
ATOM     60  C   UNL A   1      43.721  27.294  32.286  1.00  0.00     0.049 A 
ATOM     61  H   UNL A   1      41.994  28.218  31.500  1.00  0.00     0.167 HD
ATOM     62  C   UNL A   1      42.916  28.731  34.141  1.00  0.00     0.074 A 
ATOM     63  C   UNL A   1      42.988  29.248  35.492  1.00  0.00     0.031 C 
ATOM     64  C   UNL A   1      43.777  27.823  33.623  1.00  0.00     0.037 A 
BRANCH  51  65
ATOM     65  C   UNL A   1      42.575  26.164  27.811  1.00  0.00     0.064 A 
ATOM     66  C   UNL A   1      42.043  24.874  27.661  1.00  0.00     0.173 A 
ATOM     67  C   UNL A   1      43.543  26.588  26.890  1.00  0.00     0.173 A 
ATOM     68  F   UNL A   1      41.117  24.422  28.520  1.00  0.00    -0.203 F 
ATOM     69  C   UNL A   1      42.480  24.031  26.644  1.00  0.00     0.198 A 
ATOM     70  C   UNL A   1      43.964  25.749  25.860  1.00  0.00     0.198 A 
ATOM     71  F   UNL A   1      44.072  27.817  26.984  1.00  0.00    -0.203 F 
ATOM     72  F   UNL A   1      41.981  22.791  26.542  1.00  0.00    -0.200 F 
ATOM     73  C   UNL A   1      43.440  24.469  25.745  1.00  0.00     0.200 A 
ATOM     74  F   UNL A   1      44.879  26.178  24.981  1.00  0.00    -0.200 F 
ATOM     75  F   UNL A   1      43.863  23.657  24.766  1.00  0.00    -0.200 F 
ENDBRANCH  51  65
BRANCH  52  76
ATOM     76  C   UNL A   1      39.615  31.800  35.508  1.00  0.00     0.064 A 
ATOM     77  C   UNL A   1      38.631  31.303  36.376  1.00  0.00     0.173 A 
ATOM     78  C   UNL A   1      40.116  33.083  35.753  1.00  0.00     0.173 A 
ATOM     79  F   UNL A   1      38.119  30.078  36.182  1.00  0.00    -0.203 F 
ATOM     80  C   UNL A   1      38.150  32.071  37.433  1.00  0.00     0.198 A 
ATOM     81  C   UNL A   1      39.652  33.841  36.828  1.00  0.00     0.198 A 
ATOM     82  F   UNL A   1      41.073  33.592  34.963  1.00  0.00    -0.203 F 
ATOM     83  F   UNL A   1      37.184  31.586  38.226  1.00  0.00    -0.200 F 
ATOM     84  C   UNL A   1      38.664  33.338  37.661  1.00  0.00     0.200 A 
ATOM     85  F   UNL A   1      40.170  35.055  37.061  1.00  0.00    -0.200 F 
ATOM     86  F   UNL A   1      38.211  34.072  38.686  1.00  0.00    -0.200 F 
ENDBRANCH  52  76
BRANCH  64  87
ATOM     87  C   UNL A   1      44.882  27.337  34.510  1.00  0.00     0.064 A 
ATOM     88  C   UNL A   1      46.122  27.993  34.524  1.00  0.00     0.173 A 
ATOM     89  C   UNL A   1      44.737  26.180  35.286  1.00  0.00     0.173 A 
ATOM     90  F   UNL A   1      46.309  29.101  33.791  1.00  0.00    -0.203 F 
ATOM     91  C   UNL A   1      47.183  27.498  35.275  1.00  0.00     0.198 A 
ATOM     92  C   UNL A   1      45.794  25.700  36.055  1.00  0.00     0.198 A 
ATOM     93  F   UNL A   1      43.566  25.527  35.313  1.00  0.00    -0.203 F 
ATOM     94  F   UNL A   1      48.368  28.124  35.251  1.00  0.00    -0.200 F 
ATOM     95  C   UNL A   1      47.018  26.353  36.041  1.00  0.00     0.200 A 
ATOM     96  F   UNL A   1      45.628  24.606  36.811  1.00  0.00    -0.200 F 
ATOM     97  F   UNL A   1      48.039  25.881  36.770  1.00  0.00    -0.200 F 
ENDBRANCH  64  87
ENDBRANCH  38  39
ENDBRANCH  31  33
ENDBRANCH  30  31
ENDBRANCH  29  30
ENDBRANCH   1  29
TORSDOF 16
ENDMDL
MODEL 3
REMARK VINA RESULT:     -12.0      4.133      9.657
REMARK SMILES CC(=O)N1CC[NH+](C[C@@H](CC(=O)Nc2ccccc2F)C(=O)OCCOC(=O)c2ccc(-c3c4nc(c(-c5c(F)c(F)c(F)c(F)c5F)c5ccc([nH]5)c(-c5c(F)c(F)c(F)c(F)c5F)c5nc(c(-c6c(F)c(F)c(F)c(F)c6F)c6ccc3[nH]6)C=C5)C=C4)cc2)CC1
REMARK SMILES IDX 24 1 23 2 21 3 22 4 9 5 8 6 7 7 1 8 2 9 3 10 4 11 5 12 93 13
REMARK SMILES IDX 6 14 92 15 10 17 11 18 12 19 13 20 14 22 15 23 19 24 16 25
REMARK SMILES IDX 18 26 20 27 17 28 25 29 26 30 27 31 28 32 29 33 30 34 91 35
REMARK SMILES IDX 31 36 90 37 32 38 33 39 34 40 84 41 35 42 89 43 83 44 85 45
REMARK SMILES IDX 36 46 88 47 82 48 81 49 37 51 69 52 49 53 68 54 50 55 53 56
REMARK SMILES IDX 67 57 86 58 51 59 52 60 66 62 87 63 54 64 38 65 39 66 47 67
REMARK SMILES IDX 40 68 41 69 45 70 48 71 42 72 43 73 46 74 44 75 70 76 71 77
REMARK SMILES IDX 79 78 72 79 73 80 77 81 80 82 74 83 75 84 78 85 76 86 55 87
REMARK SMILES IDX 56 88 64 89 57 90 58 91 62 92 65 93 59 94 60 95 63 96 61 97
REMARK H PARENT 7 16 13 21 85 50 53 61
REMARK Flexibility Score: inf
ROOT
ATOM      1  C   UNL A   1      36.394  22.726  23.458  1.00  0.00     0.274 C 
ENDROOT
BRANCH   1   2
ATOM      2  O   UNL A   1      35.900  23.760  24.336  1.00  0.00    -0.462 OA
BRANCH   2   3
ATOM      3  C   UNL A   1      34.770  24.397  23.948  1.00  0.00     0.315 C 
ATOM      4  O   UNL A   1      34.394  24.508  22.786  1.00  0.00    -0.252 OA
BRANCH   3   5
ATOM      5  C   UNL A   1      33.958  24.944  25.118  1.00  0.00     0.163 C 
BRANCH   5   6
ATOM      6  C   UNL A   1      32.857  25.879  24.584  1.00  0.00     0.278 C 
BRANCH   6   7
ATOM      7  N   UNL A   1      33.099  27.094  23.783  1.00  0.00    -0.331 N 
ATOM      8  C   UNL A   1      29.355  30.744  23.616  1.00  0.00     0.114 C 
ATOM      9  C   UNL A   1      29.615  29.479  22.845  1.00  0.00     0.219 C 
ATOM     10  O   UNL A   1      28.905  29.184  21.882  1.00  0.00    -0.275 OA
ATOM     11  N   UNL A   1      30.698  28.709  23.233  1.00  0.00    -0.332 N 
ATOM     12  C   UNL A   1      31.029  27.550  22.409  1.00  0.00     0.181 C 
ATOM     13  C   UNL A   1      31.351  28.775  24.549  1.00  0.00     0.181 C 
ATOM     14  C   UNL A   1      32.526  27.230  22.445  1.00  0.00     0.284 C 
ATOM     15  C   UNL A   1      32.837  28.347  24.526  1.00  0.00     0.284 C 
ATOM     16  H   UNL A   1      34.092  26.935  23.608  1.00  0.00     0.348 HD
ENDBRANCH   6   7
ENDBRANCH   5   6
BRANCH   5  17
ATOM     17  C   UNL A   1      33.628  23.853  26.140  1.00  0.00     0.121 C 
BRANCH  17  18
ATOM     18  C   UNL A   1      32.189  23.559  26.514  1.00  0.00     0.225 C 
ATOM     19  O   UNL A   1      31.735  23.963  27.589  1.00  0.00    -0.275 OA
ATOM     20  N   UNL A   1      31.325  22.972  25.630  1.00  0.00    -0.324 N 
ATOM     21  H   UNL A   1      30.391  23.280  25.650  1.00  0.00     0.170 HD
BRANCH  20  22
ATOM     22  C   UNL A   1      31.646  21.973  24.697  1.00  0.00     0.077 A 
ATOM     23  C   UNL A   1      32.082  20.717  25.112  1.00  0.00     0.029 A 
ATOM     24  C   UNL A   1      31.690  22.302  23.338  1.00  0.00     0.146 A 
ATOM     25  C   UNL A   1      32.484  19.775  24.156  1.00  0.00     0.002 A 
ATOM     26  C   UNL A   1      32.059  21.363  22.383  1.00  0.00     0.041 A 
ATOM     27  F   UNL A   1      31.324  23.529  22.940  1.00  0.00    -0.205 F 
ATOM     28  C   UNL A   1      32.455  20.091  22.793  1.00  0.00     0.003 A 
ENDBRANCH  20  22
ENDBRANCH  17  18
ENDBRANCH   5  17
ENDBRANCH   3   5
ENDBRANCH   2   3
ENDBRANCH   1   2
BRANCH   1  29
ATOM     29  C   UNL A   1      37.116  21.616  24.224  1.00  0.00     0.275 C 
BRANCH  29  30
ATOM     30  O   UNL A   1      37.394  22.003  25.583  1.00  0.00    -0.458 OA
BRANCH  30  31
ATOM     31  C   UNL A   1      38.622  21.659  26.020  1.00  0.00     0.338 C 
ATOM     32  O   UNL A   1      39.209  20.603  25.856  1.00  0.00    -0.246 OA
BRANCH  31  33
ATOM     33  C   UNL A   1      39.269  22.802  26.675  1.00  0.00     0.060 A 
ATOM     34  C   UNL A   1      38.755  24.068  26.408  1.00  0.00     0.016 A 
ATOM     35  C   UNL A   1      40.454  22.656  27.394  1.00  0.00     0.016 A 
ATOM     36  C   UNL A   1      39.469  25.203  26.759  1.00  0.00     0.010 A 
ATOM     37  C   UNL A   1      41.135  23.801  27.820  1.00  0.00     0.010 A 
ATOM     38  C   UNL A   1      40.666  25.082  27.474  1.00  0.00    -0.014 A 
BRANCH  38  39
ATOM     39  C   UNL A   1      41.416  26.308  27.843  1.00  0.00     0.031 A 
ATOM     40  C   UNL A   1      40.762  27.374  28.673  1.00  0.00     0.074 A 
ATOM     41  C   UNL A   1      42.700  26.439  27.459  1.00  0.00     0.049 A 
ATOM     42  N   UNL A   1      41.214  28.559  28.997  1.00  0.00    -0.248 NA
ATOM     43  C   UNL A   1      39.427  27.074  29.213  1.00  0.00     0.031 C 
ATOM     44  C   UNL A   1      43.457  25.446  26.693  1.00  0.00     0.029 A 
ATOM     45  N   UNL A   1      43.598  27.456  27.662  1.00  0.00    -0.354 N 
ATOM     46  C   UNL A   1      40.204  29.161  29.734  1.00  0.00     0.074 A 
ATOM     47  C   UNL A   1      39.115  28.212  29.820  1.00  0.00     0.031 C 
ATOM     48  C   UNL A   1      44.706  25.896  26.504  1.00  0.00     0.029 A 
ATOM     49  C   UNL A   1      44.817  27.235  27.069  1.00  0.00     0.049 A 
ATOM     50  H   UNL A   1      43.389  28.264  28.184  1.00  0.00     0.167 HD
ATOM     51  C   UNL A   1      40.193  30.398  30.285  1.00  0.00     0.037 A 
ATOM     52  C   UNL A   1      45.890  28.040  26.953  1.00  0.00     0.037 A 
ATOM     53  C   UNL A   1      41.299  31.318  30.235  1.00  0.00     0.049 A 
ATOM     54  C   UNL A   1      45.839  29.416  27.551  1.00  0.00     0.074 A 
ATOM     55  C   UNL A   1      41.392  32.582  30.787  1.00  0.00     0.029 A 
ATOM     56  N   UNL A   1      42.507  31.066  29.603  1.00  0.00    -0.354 N 
ATOM     57  N   UNL A   1      44.867  29.988  28.220  1.00  0.00    -0.248 NA
ATOM     58  C   UNL A   1      47.025  30.264  27.370  1.00  0.00     0.031 C 
ATOM     59  C   UNL A   1      42.643  33.111  30.460  1.00  0.00     0.029 A 
ATOM     60  C   UNL A   1      43.346  32.159  29.739  1.00  0.00     0.049 A 
ATOM     61  H   UNL A   1      42.736  30.233  29.129  1.00  0.00     0.167 HD
ATOM     62  C   UNL A   1      45.324  31.258  28.543  1.00  0.00     0.074 A 
ATOM     63  C   UNL A   1      46.668  31.366  28.015  1.00  0.00     0.031 C 
ATOM     64  C   UNL A   1      44.682  32.246  29.210  1.00  0.00     0.037 A 
BRANCH  51  65
ATOM     65  C   UNL A   1      38.943  30.854  30.974  1.00  0.00     0.064 A 
ATOM     66  C   UNL A   1      37.945  31.523  30.249  1.00  0.00     0.173 A 
ATOM     67  C   UNL A   1      38.772  30.716  32.357  1.00  0.00     0.173 A 
ATOM     68  F   UNL A   1      38.067  31.683  28.922  1.00  0.00    -0.203 F 
ATOM     69  C   UNL A   1      36.830  32.056  30.888  1.00  0.00     0.198 A 
ATOM     70  C   UNL A   1      37.645  31.233  32.992  1.00  0.00     0.198 A 
ATOM     71  F   UNL A   1      39.692  30.073  33.091  1.00  0.00    -0.203 F 
ATOM     72  F   UNL A   1      35.907  32.721  30.179  1.00  0.00    -0.200 F 
ATOM     73  C   UNL A   1      36.681  31.912  32.259  1.00  0.00     0.200 A 
ATOM     74  F   UNL A   1      37.491  31.079  34.314  1.00  0.00    -0.200 F 
ATOM     75  F   UNL A   1      35.608  32.427  32.875  1.00  0.00    -0.200 F 
ENDBRANCH  51  65
BRANCH  52  76
ATOM     76  C   UNL A   1      47.079  27.569  26.199  1.00  0.00     0.064 A 
ATOM     77  C   UNL A   1      48.170  26.985  26.861  1.00  0.00     0.173 A 
ATOM     78  C   UNL A   1      47.161  27.718  24.810  1.00  0.00     0.173 A 
ATOM     79  F   UNL A   1      48.140  26.822  28.192  1.00  0.00    -0.203 F 
ATOM     80  C   UNL A   1      49.308  26.590  26.163  1.00  0.00     0.198 A 
ATOM     81  C   UNL A   1      48.289  27.297  24.108  1.00  0.00     0.198 A 
ATOM     82  F   UNL A   1      46.133  28.250  24.132  1.00  0.00    -0.203 F 
ATOM     83  F   UNL A   1      50.351  26.068  26.824  1.00  0.00    -0.200 F 
ATOM     84  C   UNL A   1      49.365  26.742  24.785  1.00  0.00     0.200 A 
ATOM     85  F   UNL A   1      48.331  27.422  22.775  1.00  0.00    -0.200 F 
ATOM     86  F   UNL A   1      50.454  26.350  24.111  1.00  0.00    -0.200 F 
ENDBRANCH  52  76
BRANCH  64  87
ATOM     87  C   UNL A   1      45.425  33.529  29.422  1.00  0.00     0.064 A 
ATOM     88  C   UNL A   1      46.190  33.724  30.580  1.00  0.00     0.173 A 
ATOM     89  C   UNL A   1      45.316  34.591  28.515  1.00  0.00     0.173 A 
ATOM     90  F   UNL A   1      46.317  32.738  31.481  1.00  0.00    -0.203 F 
ATOM     91  C   UNL A   1      46.811  34.944  30.829  1.00  0.00     0.198 A 
ATOM     92  C   UNL A   1      45.957  35.804  28.756  1.00  0.00     0.198 A 
ATOM     93  F   UNL A   1      44.605  34.446  27.387  1.00  0.00    -0.203 F 
ATOM     94  F   UNL A   1      47.514  35.118  31.958  1.00  0.00    -0.200 F 
ATOM     95  C   UNL A   1      46.695  35.982  29.917  1.00  0.00     0.200 A 
ATOM     96  F   UNL A   1      45.863  36.799  27.863  1.00  0.00    -0.200 F 
ATOM     97  F   UNL A   1      47.299  37.155  30.155  1.00  0.00    -0.200 F 
ENDBRANCH  64  87
ENDBRANCH  38  39
ENDBRANCH  31  33
ENDBRANCH  30  31
ENDBRANCH  29  30
ENDBRANCH   1  29
TORSDOF 16
ENDMDL
