MODEL 1
REMARK VINA RESULT:     -13.3      0.000      0.000
REMARK SMILES Cc1ccc([N+](=O)[O-])c(O[C@@H]2CCC[C@]([NH3+])(C(=O)OCCOC(=O)c3ccc(-c4c5nc(c(-c6c(F)c(F)c(F)c(F)c6F)c6ccc([nH]6)c(-c6c(F)c(F)c(F)c(F)c6F)c6nc(c(-c7c(F)c(F)c(F)c(F)c7F)c7ccc4[nH]7)C=C6)C=C5)cc3)C2)c1
REMARK SMILES IDX 20 1 19 2 17 3 18 4 15 5 11 6 12 7 88 8 13 9 14 10 10 11
REMARK SMILES IDX 9 12 1 13 2 14 3 15 89 16 4 17 5 18 6 19 7 20 8 21 16 22
REMARK SMILES IDX 21 26 22 27 23 28 24 29 25 30 26 31 87 32 27 33 86 34 28 35
REMARK SMILES IDX 29 36 30 37 80 38 31 39 85 40 79 41 81 42 32 43 84 44 78 45
REMARK SMILES IDX 77 46 33 48 65 49 45 50 64 51 46 52 49 53 63 54 82 55 47 56
REMARK SMILES IDX 48 57 62 59 83 60 50 61 34 62 35 63 43 64 36 65 37 66 41 67
REMARK SMILES IDX 44 68 38 69 39 70 42 71 40 72 66 73 67 74 75 75 68 76 69 77
REMARK SMILES IDX 73 78 76 79 70 80 71 81 74 82 72 83 51 84 52 85 60 86 53 87
REMARK SMILES IDX 54 88 58 89 61 90 55 91 56 92 59 93 57 94
REMARK H PARENT 16 23 16 24 16 25 81 47 49 58
REMARK Flexibility Score: inf
ROOT
ATOM      1  C   UNL A   1      32.730  29.129  26.600  1.00  0.00     0.274 C 
ENDROOT
BRANCH   1   2
ATOM      2  O   UNL A   1      32.279  27.998  25.841  1.00  0.00    -0.457 OA
BRANCH   2   3
ATOM      3  C   UNL A   1      31.393  27.227  26.552  1.00  0.00     0.368 C 
ATOM      4  O   UNL A   1      31.091  27.477  27.716  1.00  0.00    -0.245 OA
BRANCH   3   5
ATOM      5  C   UNL A   1      30.913  25.960  25.779  1.00  0.00     0.196 C 
ATOM      6  C   UNL A   1      32.148  24.069  24.432  1.00  0.00     0.180 C 
ATOM      7  C   UNL A   1      31.464  24.572  23.158  1.00  0.00     0.046 C 
ATOM      8  C   UNL A   1      32.086  24.952  25.692  1.00  0.00     0.126 C 
ATOM      9  C   UNL A   1      30.167  25.306  23.435  1.00  0.00     0.011 C 
ATOM     10  C   UNL A   1      30.417  26.444  24.408  1.00  0.00     0.081 C 
BRANCH   6  11
ATOM     11  O   UNL A   1      33.474  23.586  24.137  1.00  0.00    -0.483 OA
BRANCH  11  12
ATOM     12  C   UNL A   1      33.850  22.290  24.370  1.00  0.00     0.197 A 
ATOM     13  C   UNL A   1      32.467  18.730  24.327  1.00  0.00     0.044 C 
ATOM     14  C   UNL A   1      33.424  19.876  24.491  1.00  0.00    -0.047 A 
ATOM     15  C   UNL A   1      34.753  19.649  24.851  1.00  0.00     0.011 A 
ATOM     16  C   UNL A   1      32.978  21.194  24.303  1.00  0.00     0.057 A 
ATOM     17  C   UNL A   1      35.636  20.722  24.964  1.00  0.00     0.090 A 
ATOM     18  C   UNL A   1      35.185  22.029  24.704  1.00  0.00     0.310 A 
BRANCH  18  19
ATOM     19  N   UNL A   1      36.173  23.104  24.770  1.00  0.00     0.066 N 
ATOM     20  O   UNL A   1      36.311  23.673  25.864  1.00  0.00    -0.258 OA
ATOM     21  O   UNL A   1      36.853  23.342  23.762  1.00  0.00    -0.258 OA
ENDBRANCH  18  19
ENDBRANCH  11  12
ENDBRANCH   6  11
BRANCH   5  22
ATOM     22  N   UNL A   1      29.805  25.276  26.476  1.00  0.00    -0.343 N 
ATOM     23  H   UNL A   1      29.584  25.775  27.337  1.00  0.00     0.345 HD
ATOM     24  H   UNL A   1      30.081  24.320  26.699  1.00  0.00     0.345 HD
ATOM     25  H   UNL A   1      28.983  25.259  25.873  1.00  0.00     0.345 HD
ENDBRANCH   5  22
ENDBRANCH   3   5
ENDBRANCH   2   3
ENDBRANCH   1   2
BRANCH   1  26
ATOM     26  C   UNL A   1      34.207  29.065  27.011  1.00  0.00     0.275 C 
BRANCH  26  27
ATOM     27  O   UNL A   1      34.746  29.869  28.093  1.00  0.00    -0.458 OA
BRANCH  27  28
ATOM     28  C   UNL A   1      35.918  30.538  28.061  1.00  0.00     0.338 C 
ATOM     29  O   UNL A   1      35.995  31.746  27.864  1.00  0.00    -0.246 OA
BRANCH  28  30
ATOM     30  C   UNL A   1      37.116  29.695  28.207  1.00  0.00     0.060 A 
ATOM     31  C   UNL A   1      38.093  29.748  27.205  1.00  0.00     0.016 A 
ATOM     32  C   UNL A   1      37.331  28.981  29.384  1.00  0.00     0.016 A 
ATOM     33  C   UNL A   1      39.358  29.224  27.438  1.00  0.00     0.010 A 
ATOM     34  C   UNL A   1      38.595  28.496  29.635  1.00  0.00     0.010 A 
ATOM     35  C   UNL A   1      39.604  28.617  28.665  1.00  0.00    -0.014 A 
BRANCH  35  36
ATOM     36  C   UNL A   1      40.778  27.799  28.915  1.00  0.00     0.031 A 
ATOM     37  C   UNL A   1      40.865  26.363  28.601  1.00  0.00     0.074 A 
ATOM     38  C   UNL A   1      41.812  28.547  29.348  1.00  0.00     0.049 A 
ATOM     39  N   UNL A   1      41.863  25.617  28.928  1.00  0.00    -0.248 NA
ATOM     40  C   UNL A   1      39.804  25.615  27.940  1.00  0.00     0.031 C 
ATOM     41  C   UNL A   1      43.231  28.259  29.407  1.00  0.00     0.029 A 
ATOM     42  N   UNL A   1      41.670  29.766  30.040  1.00  0.00    -0.354 N 
ATOM     43  C   UNL A   1      41.711  24.391  28.309  1.00  0.00     0.074 A 
ATOM     44  C   UNL A   1      40.366  24.408  27.799  1.00  0.00     0.031 C 
ATOM     45  C   UNL A   1      43.786  29.079  30.322  1.00  0.00     0.029 A 
ATOM     46  C   UNL A   1      42.685  29.758  31.001  1.00  0.00     0.049 A 
ATOM     47  H   UNL A   1      41.001  30.470  29.881  1.00  0.00     0.167 HD
ATOM     48  C   UNL A   1      42.814  23.591  28.199  1.00  0.00     0.037 A 
ATOM     49  C   UNL A   1      42.350  29.570  32.312  1.00  0.00     0.037 A 
ATOM     50  C   UNL A   1      43.871  24.112  29.065  1.00  0.00     0.049 A 
ATOM     51  C   UNL A   1      43.027  28.346  32.868  1.00  0.00     0.074 A 
ATOM     52  C   UNL A   1      44.936  24.960  28.815  1.00  0.00     0.029 A 
ATOM     53  N   UNL A   1      43.690  24.088  30.446  1.00  0.00    -0.354 N 
ATOM     54  N   UNL A   1      43.190  27.230  32.209  1.00  0.00    -0.248 NA
ATOM     55  C   UNL A   1      43.651  28.342  34.184  1.00  0.00     0.031 C 
ATOM     56  C   UNL A   1      45.305  25.556  30.049  1.00  0.00     0.029 A 
ATOM     57  C   UNL A   1      44.502  25.027  31.048  1.00  0.00     0.049 A 
ATOM     58  H   UNL A   1      43.072  23.488  30.923  1.00  0.00     0.167 HD
ATOM     59  C   UNL A   1      44.006  26.410  32.945  1.00  0.00     0.074 A 
ATOM     60  C   UNL A   1      44.241  27.137  34.182  1.00  0.00     0.031 C 
ATOM     61  C   UNL A   1      44.493  25.219  32.488  1.00  0.00     0.037 A 
BRANCH  48  62
ATOM     62  C   UNL A   1      43.070  22.543  27.123  1.00  0.00     0.064 A 
ATOM     63  C   UNL A   1      42.346  21.324  27.144  1.00  0.00     0.173 A 
ATOM     64  C   UNL A   1      44.075  22.594  26.136  1.00  0.00     0.173 A 
ATOM     65  F   UNL A   1      41.310  21.140  27.975  1.00  0.00    -0.203 F 
ATOM     66  C   UNL A   1      42.666  20.233  26.325  1.00  0.00     0.198 A 
ATOM     67  C   UNL A   1      44.395  21.501  25.318  1.00  0.00     0.198 A 
ATOM     68  F   UNL A   1      44.791  23.695  25.904  1.00  0.00    -0.203 F 
ATOM     69  F   UNL A   1      41.970  19.092  26.434  1.00  0.00    -0.200 F 
ATOM     70  C   UNL A   1      43.705  20.315  25.425  1.00  0.00     0.200 A 
ATOM     71  F   UNL A   1      45.396  21.611  24.431  1.00  0.00    -0.200 F 
ATOM     72  F   UNL A   1      44.033  19.265  24.661  1.00  0.00    -0.200 F 
ENDBRANCH  48  62
BRANCH  49  73
ATOM     73  C   UNL A   1      40.976  30.032  32.695  1.00  0.00     0.064 A 
ATOM     74  C   UNL A   1      40.685  31.414  32.683  1.00  0.00     0.173 A 
ATOM     75  C   UNL A   1      39.885  29.161  32.824  1.00  0.00     0.173 A 
ATOM     76  F   UNL A   1      41.682  32.308  32.580  1.00  0.00    -0.203 F 
ATOM     77  C   UNL A   1      39.374  31.893  32.690  1.00  0.00     0.198 A 
ATOM     78  C   UNL A   1      38.571  29.645  32.851  1.00  0.00     0.198 A 
ATOM     79  F   UNL A   1      40.071  27.835  32.856  1.00  0.00    -0.203 F 
ATOM     80  F   UNL A   1      39.141  33.209  32.579  1.00  0.00    -0.200 F 
ATOM     81  C   UNL A   1      38.316  31.006  32.758  1.00  0.00     0.200 A 
ATOM     82  F   UNL A   1      37.541  28.787  32.901  1.00  0.00    -0.200 F 
ATOM     83  F   UNL A   1      37.053  31.454  32.701  1.00  0.00    -0.200 F 
ENDBRANCH  49  73
BRANCH  61  84
ATOM     84  C   UNL A   1      45.138  24.176  33.361  1.00  0.00     0.064 A 
ATOM     85  C   UNL A   1      44.510  22.966  33.697  1.00  0.00     0.173 A 
ATOM     86  C   UNL A   1      46.490  24.297  33.756  1.00  0.00     0.173 A 
ATOM     87  F   UNL A   1      43.274  22.678  33.266  1.00  0.00    -0.203 F 
ATOM     88  C   UNL A   1      45.158  21.984  34.446  1.00  0.00     0.198 A 
ATOM     89  C   UNL A   1      47.154  23.287  34.447  1.00  0.00     0.198 A 
ATOM     90  F   UNL A   1      47.215  25.385  33.460  1.00  0.00    -0.203 F 
ATOM     91  F   UNL A   1      44.496  20.870  34.788  1.00  0.00    -0.200 F 
ATOM     92  C   UNL A   1      46.482  22.139  34.810  1.00  0.00     0.200 A 
ATOM     93  F   UNL A   1      48.454  23.427  34.743  1.00  0.00    -0.200 F 
ATOM     94  F   UNL A   1      47.114  21.174  35.490  1.00  0.00    -0.200 F 
ENDBRANCH  61  84
ENDBRANCH  35  36
ENDBRANCH  28  30
ENDBRANCH  27  28
ENDBRANCH  26  27
ENDBRANCH   1  26
TORSDOF 15
ENDMDL
MODEL 2
REMARK VINA RESULT:     -13.3      1.343      2.166
REMARK SMILES Cc1ccc([N+](=O)[O-])c(O[C@@H]2CCC[C@]([NH3+])(C(=O)OCCOC(=O)c3ccc(-c4c5nc(c(-c6c(F)c(F)c(F)c(F)c6F)c6ccc([nH]6)c(-c6c(F)c(F)c(F)c(F)c6F)c6nc(c(-c7c(F)c(F)c(F)c(F)c7F)c7ccc4[nH]7)C=C6)C=C5)cc3)C2)c1
REMARK SMILES IDX 20 1 19 2 17 3 18 4 15 5 11 6 12 7 88 8 13 9 14 10 10 11
REMARK SMILES IDX 9 12 1 13 2 14 3 15 89 16 4 17 5 18 6 19 7 20 8 21 16 22
REMARK SMILES IDX 21 26 22 27 23 28 24 29 25 30 26 31 87 32 27 33 86 34 28 35
REMARK SMILES IDX 29 36 30 37 80 38 31 39 85 40 79 41 81 42 32 43 84 44 78 45
REMARK SMILES IDX 77 46 33 48 65 49 45 50 64 51 46 52 49 53 63 54 82 55 47 56
REMARK SMILES IDX 48 57 62 59 83 60 50 61 34 62 35 63 43 64 36 65 37 66 41 67
REMARK SMILES IDX 44 68 38 69 39 70 42 71 40 72 66 73 67 74 75 75 68 76 69 77
REMARK SMILES IDX 73 78 76 79 70 80 71 81 74 82 72 83 51 84 52 85 60 86 53 87
REMARK SMILES IDX 54 88 58 89 61 90 55 91 56 92 59 93 57 94
REMARK H PARENT 16 23 16 24 16 25 81 47 49 58
REMARK Flexibility Score: inf
ROOT
ATOM      1  C   UNL A   1      32.473  30.399  26.472  1.00  0.00     0.274 C 
ENDROOT
BRANCH   1   2
ATOM      2  O   UNL A   1      32.785  29.630  25.302  1.00  0.00    -0.457 OA
BRANCH   2   3
ATOM      3  C   UNL A   1      31.653  29.249  24.625  1.00  0.00     0.368 C 
ATOM      4  O   UNL A   1      30.672  29.982  24.520  1.00  0.00    -0.245 OA
BRANCH   3   5
ATOM      5  C   UNL A   1      31.699  27.776  24.115  1.00  0.00     0.196 C 
ATOM      6  C   UNL A   1      32.944  25.606  24.923  1.00  0.00     0.180 C 
ATOM      7  C   UNL A   1      33.753  25.622  23.622  1.00  0.00     0.046 C 
ATOM      8  C   UNL A   1      32.119  26.854  25.286  1.00  0.00     0.126 C 
ATOM      9  C   UNL A   1      33.041  26.344  22.495  1.00  0.00     0.011 C 
ATOM     10  C   UNL A   1      32.679  27.751  22.932  1.00  0.00     0.081 C 
BRANCH   6  11
ATOM     11  O   UNL A   1      33.751  25.115  26.013  1.00  0.00    -0.483 OA
BRANCH  11  12
ATOM     12  C   UNL A   1      34.385  23.903  25.967  1.00  0.00     0.197 A 
ATOM     13  C   UNL A   1      37.843  22.364  25.456  1.00  0.00     0.044 C 
ATOM     14  C   UNL A   1      36.365  22.478  25.697  1.00  0.00    -0.047 A 
ATOM     15  C   UNL A   1      35.590  21.340  25.924  1.00  0.00     0.011 A 
ATOM     16  C   UNL A   1      35.746  23.737  25.673  1.00  0.00     0.057 A 
ATOM     17  C   UNL A   1      34.226  21.468  26.181  1.00  0.00     0.090 A 
ATOM     18  C   UNL A   1      33.638  22.745  26.220  1.00  0.00     0.310 A 
BRANCH  18  19
ATOM     19  N   UNL A   1      32.220  22.820  26.564  1.00  0.00     0.066 N 
ATOM     20  O   UNL A   1      31.409  22.551  25.663  1.00  0.00    -0.258 OA
ATOM     21  O   UNL A   1      31.910  23.080  27.734  1.00  0.00    -0.258 OA
ENDBRANCH  18  19
ENDBRANCH  11  12
ENDBRANCH   6  11
BRANCH   5  22
ATOM     22  N   UNL A   1      30.376  27.311  23.651  1.00  0.00    -0.343 N 
ATOM     23  H   UNL A   1      29.955  26.715  24.363  1.00  0.00     0.345 HD
ATOM     24  H   UNL A   1      30.486  26.782  22.786  1.00  0.00     0.345 HD
ATOM     25  H   UNL A   1      29.773  28.116  23.482  1.00  0.00     0.345 HD
ENDBRANCH   5  22
ENDBRANCH   3   5
ENDBRANCH   2   3
ENDBRANCH   1   2
BRANCH   1  26
ATOM     26  C   UNL A   1      33.495  30.262  27.608  1.00  0.00     0.275 C 
BRANCH  26  27
ATOM     27  O   UNL A   1      34.910  30.051  27.357  1.00  0.00    -0.458 OA
BRANCH  27  28
ATOM     28  C   UNL A   1      35.911  30.814  27.844  1.00  0.00     0.338 C 
ATOM     29  O   UNL A   1      35.831  32.032  27.960  1.00  0.00    -0.246 OA
BRANCH  28  30
ATOM     30  C   UNL A   1      37.148  30.082  28.163  1.00  0.00     0.060 A 
ATOM     31  C   UNL A   1      37.184  29.316  29.336  1.00  0.00     0.016 A 
ATOM     32  C   UNL A   1      38.194  30.039  27.244  1.00  0.00     0.016 A 
ATOM     33  C   UNL A   1      38.189  28.376  29.522  1.00  0.00     0.010 A 
ATOM     34  C   UNL A   1      39.170  29.081  27.405  1.00  0.00     0.010 A 
ATOM     35  C   UNL A   1      39.167  28.253  28.541  1.00  0.00    -0.014 A 
BRANCH  35  36
ATOM     36  C   UNL A   1      40.402  27.518  28.750  1.00  0.00     0.031 A 
ATOM     37  C   UNL A   1      40.562  26.080  28.482  1.00  0.00     0.074 A 
ATOM     38  C   UNL A   1      41.411  28.345  29.094  1.00  0.00     0.049 A 
ATOM     39  N   UNL A   1      41.622  25.408  28.774  1.00  0.00    -0.248 NA
ATOM     40  C   UNL A   1      39.514  25.243  27.912  1.00  0.00     0.031 C 
ATOM     41  C   UNL A   1      42.846  28.145  29.078  1.00  0.00     0.029 A 
ATOM     42  N   UNL A   1      41.233  29.578  29.750  1.00  0.00    -0.354 N 
ATOM     43  C   UNL A   1      41.511  24.153  28.209  1.00  0.00     0.074 A 
ATOM     44  C   UNL A   1      40.140  24.068  27.780  1.00  0.00     0.031 C 
ATOM     45  C   UNL A   1      43.400  29.032  29.928  1.00  0.00     0.029 A 
ATOM     46  C   UNL A   1      42.300  29.669  30.648  1.00  0.00     0.049 A 
ATOM     47  H   UNL A   1      40.513  30.234  29.607  1.00  0.00     0.167 HD
ATOM     48  C   UNL A   1      42.654  23.417  28.062  1.00  0.00     0.037 A 
ATOM     49  C   UNL A   1      42.053  29.512  31.983  1.00  0.00     0.037 A 
ATOM     50  C   UNL A   1      43.724  24.034  28.844  1.00  0.00     0.049 A 
ATOM     51  C   UNL A   1      42.837  28.353  32.540  1.00  0.00     0.074 A 
ATOM     52  C   UNL A   1      44.717  24.935  28.501  1.00  0.00     0.029 A 
ATOM     53  N   UNL A   1      43.625  24.053  30.233  1.00  0.00    -0.354 N 
ATOM     54  N   UNL A   1      43.031  27.225  31.912  1.00  0.00    -0.248 NA
ATOM     55  C   UNL A   1      43.534  28.439  33.815  1.00  0.00     0.031 C 
ATOM     56  C   UNL A   1      45.119  25.600  29.689  1.00  0.00     0.029 A 
ATOM     57  C   UNL A   1      44.410  25.062  30.753  1.00  0.00     0.049 A 
ATOM     58  H   UNL A   1      43.074  23.436  30.767  1.00  0.00     0.167 HD
ATOM     59  C   UNL A   1      43.938  26.485  32.626  1.00  0.00     0.074 A 
ATOM     60  C   UNL A   1      44.197  27.272  33.821  1.00  0.00     0.031 C 
ATOM     61  C   UNL A   1      44.471  25.309  32.183  1.00  0.00     0.037 A 
BRANCH  48  62
ATOM     62  C   UNL A   1      42.913  22.346  27.010  1.00  0.00     0.064 A 
ATOM     63  C   UNL A   1      42.240  21.101  27.095  1.00  0.00     0.173 A 
ATOM     64  C   UNL A   1      43.879  22.404  25.985  1.00  0.00     0.173 A 
ATOM     65  F   UNL A   1      41.244  20.903  27.971  1.00  0.00    -0.203 F 
ATOM     66  C   UNL A   1      42.574  19.997  26.300  1.00  0.00     0.198 A 
ATOM     67  C   UNL A   1      44.213  21.299  25.189  1.00  0.00     0.198 A 
ATOM     68  F   UNL A   1      44.540  23.524  25.692  1.00  0.00    -0.203 F 
ATOM     69  F   UNL A   1      41.930  18.833  26.470  1.00  0.00    -0.200 F 
ATOM     70  C   UNL A   1      43.575  20.091  25.359  1.00  0.00     0.200 A 
ATOM     71  F   UNL A   1      45.176  21.419  24.262  1.00  0.00    -0.200 F 
ATOM     72  F   UNL A   1      43.917  19.030  24.616  1.00  0.00    -0.200 F 
ENDBRANCH  48  62
BRANCH  49  73
ATOM     73  C   UNL A   1      40.677  29.904  32.431  1.00  0.00     0.064 A 
ATOM     74  C   UNL A   1      40.286  31.259  32.350  1.00  0.00     0.173 A 
ATOM     75  C   UNL A   1      39.663  28.972  32.691  1.00  0.00     0.173 A 
ATOM     76  F   UNL A   1      41.207  32.210  32.120  1.00  0.00    -0.203 F 
ATOM     77  C   UNL A   1      38.947  31.647  32.418  1.00  0.00     0.198 A 
ATOM     78  C   UNL A   1      38.322  29.366  32.779  1.00  0.00     0.198 A 
ATOM     79  F   UNL A   1      39.947  27.667  32.795  1.00  0.00    -0.203 F 
ATOM     80  F   UNL A   1      38.612  32.933  32.240  1.00  0.00    -0.200 F 
ATOM     81  C   UNL A   1      37.963  30.696  32.617  1.00  0.00     0.200 A 
ATOM     82  F   UNL A   1      37.363  28.444  32.956  1.00  0.00    -0.200 F 
ATOM     83  F   UNL A   1      36.670  31.052  32.620  1.00  0.00    -0.200 F 
ENDBRANCH  49  73
BRANCH  61  84
ATOM     84  C   UNL A   1      45.229  24.341  33.051  1.00  0.00     0.064 A 
ATOM     85  C   UNL A   1      46.517  24.603  33.547  1.00  0.00     0.173 A 
ATOM     86  C   UNL A   1      44.605  23.173  33.549  1.00  0.00     0.173 A 
ATOM     87  F   UNL A   1      47.158  25.742  33.252  1.00  0.00    -0.203 F 
ATOM     88  C   UNL A   1      47.166  23.722  34.410  1.00  0.00     0.198 A 
ATOM     89  C   UNL A   1      45.232  22.329  34.462  1.00  0.00     0.198 A 
ATOM     90  F   UNL A   1      43.360  22.832  33.188  1.00  0.00    -0.203 F 
ATOM     91  F   UNL A   1      48.417  23.990  34.810  1.00  0.00    -0.200 F 
ATOM     92  C   UNL A   1      46.521  22.593  34.877  1.00  0.00     0.200 A 
ATOM     93  F   UNL A   1      44.572  21.270  34.951  1.00  0.00    -0.200 F 
ATOM     94  F   UNL A   1      47.132  21.773  35.741  1.00  0.00    -0.200 F 
ENDBRANCH  61  84
ENDBRANCH  35  36
ENDBRANCH  28  30
ENDBRANCH  27  28
ENDBRANCH  26  27
ENDBRANCH   1  26
TORSDOF 15
ENDMDL
MODEL 3
REMARK VINA RESULT:     -13.2      4.021     10.328
REMARK SMILES Cc1ccc([N+](=O)[O-])c(O[C@@H]2CCC[C@]([NH3+])(C(=O)OCCOC(=O)c3ccc(-c4c5nc(c(-c6c(F)c(F)c(F)c(F)c6F)c6ccc([nH]6)c(-c6c(F)c(F)c(F)c(F)c6F)c6nc(c(-c7c(F)c(F)c(F)c(F)c7F)c7ccc4[nH]7)C=C6)C=C5)cc3)C2)c1
REMARK SMILES IDX 20 1 19 2 17 3 18 4 15 5 11 6 12 7 88 8 13 9 14 10 10 11
REMARK SMILES IDX 9 12 1 13 2 14 3 15 89 16 4 17 5 18 6 19 7 20 8 21 16 22
REMARK SMILES IDX 21 26 22 27 23 28 24 29 25 30 26 31 87 32 27 33 86 34 28 35
REMARK SMILES IDX 29 36 30 37 80 38 31 39 85 40 79 41 81 42 32 43 84 44 78 45
REMARK SMILES IDX 77 46 33 48 65 49 45 50 64 51 46 52 49 53 63 54 82 55 47 56
REMARK SMILES IDX 48 57 62 59 83 60 50 61 34 62 35 63 43 64 36 65 37 66 41 67
REMARK SMILES IDX 44 68 38 69 39 70 42 71 40 72 66 73 67 74 75 75 68 76 69 77
REMARK SMILES IDX 73 78 76 79 70 80 71 81 74 82 72 83 51 84 52 85 60 86 53 87
REMARK SMILES IDX 54 88 58 89 61 90 55 91 56 92 59 93 57 94
REMARK H PARENT 16 23 16 24 16 25 81 47 49 58
REMARK Flexibility Score: inf
ROOT
ATOM      1  C   UNL A   1      37.409  21.849  24.606  1.00  0.00     0.274 C 
ENDROOT
BRANCH   1   2
ATOM      2  O   UNL A   1      35.984  21.898  24.445  1.00  0.00    -0.457 OA
BRANCH   2   3
ATOM      3  C   UNL A   1      35.365  20.839  25.063  1.00  0.00     0.368 C 
ATOM      4  O   UNL A   1      35.784  19.688  24.971  1.00  0.00    -0.245 OA
BRANCH   3   5
ATOM      5  C   UNL A   1      34.036  21.229  25.780  1.00  0.00     0.196 C 
ATOM      6  C   UNL A   1      32.501  23.364  25.741  1.00  0.00     0.180 C 
ATOM      7  C   UNL A   1      32.858  23.610  27.210  1.00  0.00     0.046 C 
ATOM      8  C   UNL A   1      33.324  22.328  24.953  1.00  0.00     0.126 C 
ATOM      9  C   UNL A   1      33.272  22.345  27.936  1.00  0.00     0.011 C 
ATOM     10  C   UNL A   1      34.419  21.680  27.198  1.00  0.00     0.081 C 
BRANCH   6  11
ATOM     11  O   UNL A   1      32.338  24.615  25.044  1.00  0.00    -0.483 OA
BRANCH  11  12
ATOM     12  C   UNL A   1      32.350  25.821  25.691  1.00  0.00     0.197 A 
ATOM     13  C   UNL A   1      34.724  28.632  26.716  1.00  0.00     0.044 C 
ATOM     14  C   UNL A   1      33.463  27.832  26.551  1.00  0.00    -0.047 A 
ATOM     15  C   UNL A   1      32.244  28.319  27.023  1.00  0.00     0.011 A 
ATOM     16  C   UNL A   1      33.509  26.571  25.936  1.00  0.00     0.057 A 
ATOM     17  C   UNL A   1      31.079  27.578  26.829  1.00  0.00     0.090 A 
ATOM     18  C   UNL A   1      31.136  26.348  26.150  1.00  0.00     0.310 A 
BRANCH  18  19
ATOM     19  N   UNL A   1      29.873  25.652  25.915  1.00  0.00     0.066 N 
ATOM     20  O   UNL A   1      29.292  25.889  24.844  1.00  0.00    -0.258 OA
ATOM     21  O   UNL A   1      29.488  24.829  26.757  1.00  0.00    -0.258 OA
ENDBRANCH  18  19
ENDBRANCH  11  12
ENDBRANCH   6  11
BRANCH   5  22
ATOM     22  N   UNL A   1      33.105  20.086  25.876  1.00  0.00    -0.343 N 
ATOM     23  H   UNL A   1      33.555  19.249  25.507  1.00  0.00     0.345 HD
ATOM     24  H   UNL A   1      32.264  20.287  25.335  1.00  0.00     0.345 HD
ATOM     25  H   UNL A   1      32.852  19.934  26.852  1.00  0.00     0.345 HD
ENDBRANCH   5  22
ENDBRANCH   3   5
ENDBRANCH   2   3
ENDBRANCH   1   2
BRANCH   1  26
ATOM     26  C   UNL A   1      37.915  22.439  25.928  1.00  0.00     0.275 C 
BRANCH  26  27
ATOM     27  O   UNL A   1      38.609  23.714  25.993  1.00  0.00    -0.458 OA
BRANCH  27  28
ATOM     28  C   UNL A   1      39.626  24.008  26.829  1.00  0.00     0.338 C 
ATOM     29  O   UNL A   1      40.500  23.203  27.130  1.00  0.00    -0.246 OA
BRANCH  28  30
ATOM     30  C   UNL A   1      39.574  25.356  27.418  1.00  0.00     0.060 A 
ATOM     31  C   UNL A   1      39.148  25.485  28.746  1.00  0.00     0.016 A 
ATOM     32  C   UNL A   1      40.076  26.449  26.715  1.00  0.00     0.016 A 
ATOM     33  C   UNL A   1      39.372  26.669  29.437  1.00  0.00     0.010 A 
ATOM     34  C   UNL A   1      40.337  27.611  27.406  1.00  0.00     0.010 A 
ATOM     35  C   UNL A   1      39.985  27.720  28.762  1.00  0.00    -0.014 A 
BRANCH  35  36
ATOM     36  C   UNL A   1      40.018  29.075  29.282  1.00  0.00     0.031 A 
ATOM     37  C   UNL A   1      38.962  30.074  29.050  1.00  0.00     0.074 A 
ATOM     38  C   UNL A   1      41.069  29.257  30.107  1.00  0.00     0.049 A 
ATOM     39  N   UNL A   1      39.047  31.306  29.416  1.00  0.00    -0.248 NA
ATOM     40  C   UNL A   1      37.730  29.793  28.326  1.00  0.00     0.031 C 
ATOM     41  C   UNL A   1      41.333  30.285  31.093  1.00  0.00     0.029 A 
ATOM     42  N   UNL A   1      42.272  28.529  30.026  1.00  0.00    -0.354 N 
ATOM     43  C   UNL A   1      37.816  31.903  29.225  1.00  0.00     0.074 A 
ATOM     44  C   UNL A   1      37.069  30.950  28.447  1.00  0.00     0.031 C 
ATOM     45  C   UNL A   1      42.662  30.325  31.311  1.00  0.00     0.029 A 
ATOM     46  C   UNL A   1      43.278  29.457  30.310  1.00  0.00     0.049 A 
ATOM     47  H   UNL A   1      42.381  27.574  29.816  1.00  0.00     0.167 HD
ATOM     48  C   UNL A   1      37.564  33.073  29.886  1.00  0.00     0.037 A 
ATOM     49  C   UNL A   1      44.077  29.894  29.292  1.00  0.00     0.037 A 
ATOM     50  C   UNL A   1      38.819  33.596  30.426  1.00  0.00     0.049 A 
ATOM     51  C   UNL A   1      43.970  31.387  29.130  1.00  0.00     0.074 A 
ATOM     52  C   UNL A   1      39.414  33.468  31.669  1.00  0.00     0.029 A 
ATOM     53  N   UNL A   1      39.809  34.023  29.545  1.00  0.00    -0.354 N 
ATOM     54  N   UNL A   1      42.859  32.063  29.243  1.00  0.00    -0.248 NA
ATOM     55  C   UNL A   1      45.143  32.224  28.920  1.00  0.00     0.031 C 
ATOM     56  C   UNL A   1      40.806  33.688  31.498  1.00  0.00     0.029 A 
ATOM     57  C   UNL A   1      41.041  34.003  30.168  1.00  0.00     0.049 A 
ATOM     58  H   UNL A   1      39.653  34.300  28.613  1.00  0.00     0.167 HD
ATOM     59  C   UNL A   1      43.163  33.400  29.225  1.00  0.00     0.074 A 
ATOM     60  C   UNL A   1      44.597  33.449  28.990  1.00  0.00     0.031 C 
ATOM     61  C   UNL A   1      42.250  34.386  29.461  1.00  0.00     0.037 A 
BRANCH  48  62
ATOM     62  C   UNL A   1      36.199  33.596  30.316  1.00  0.00     0.064 A 
ATOM     63  C   UNL A   1      35.307  34.112  29.342  1.00  0.00     0.173 A 
ATOM     64  C   UNL A   1      35.747  33.747  31.643  1.00  0.00     0.173 A 
ATOM     65  F   UNL A   1      35.554  33.985  28.031  1.00  0.00    -0.203 F 
ATOM     66  C   UNL A   1      34.131  34.798  29.672  1.00  0.00     0.198 A 
ATOM     67  C   UNL A   1      34.570  34.435  31.972  1.00  0.00     0.198 A 
ATOM     68  F   UNL A   1      36.406  33.236  32.682  1.00  0.00    -0.203 F 
ATOM     69  F   UNL A   1      33.360  35.305  28.700  1.00  0.00    -0.200 F 
ATOM     70  C   UNL A   1      33.772  34.977  30.990  1.00  0.00     0.200 A 
ATOM     71  F   UNL A   1      34.227  34.577  33.262  1.00  0.00    -0.200 F 
ATOM     72  F   UNL A   1      32.664  35.658  31.311  1.00  0.00    -0.200 F 
ENDBRANCH  48  62
BRANCH  49  73
ATOM     73  C   UNL A   1      44.265  28.926  28.163  1.00  0.00     0.064 A 
ATOM     74  C   UNL A   1      45.018  27.750  28.381  1.00  0.00     0.173 A 
ATOM     75  C   UNL A   1      43.531  28.988  26.971  1.00  0.00     0.173 A 
ATOM     76  F   UNL A   1      45.761  27.627  29.494  1.00  0.00    -0.203 F 
ATOM     77  C   UNL A   1      44.955  26.660  27.513  1.00  0.00     0.198 A 
ATOM     78  C   UNL A   1      43.483  27.901  26.091  1.00  0.00     0.198 A 
ATOM     79  F   UNL A   1      42.797  30.071  26.679  1.00  0.00    -0.203 F 
ATOM     80  F   UNL A   1      45.610  25.528  27.809  1.00  0.00    -0.200 F 
ATOM     81  C   UNL A   1      44.173  26.731  26.374  1.00  0.00     0.200 A 
ATOM     82  F   UNL A   1      42.714  27.959  24.993  1.00  0.00    -0.200 F 
ATOM     83  F   UNL A   1      44.056  25.665  25.568  1.00  0.00    -0.200 F 
ENDBRANCH  49  73
BRANCH  61  84
ATOM     84  C   UNL A   1      42.481  35.844  29.164  1.00  0.00     0.064 A 
ATOM     85  C   UNL A   1      43.354  36.649  29.913  1.00  0.00     0.173 A 
ATOM     86  C   UNL A   1      41.944  36.440  27.999  1.00  0.00     0.173 A 
ATOM     87  F   UNL A   1      44.026  36.157  30.964  1.00  0.00    -0.203 F 
ATOM     88  C   UNL A   1      43.607  37.977  29.572  1.00  0.00     0.198 A 
ATOM     89  C   UNL A   1      42.250  37.746  27.625  1.00  0.00     0.198 A 
ATOM     90  F   UNL A   1      41.130  35.765  27.174  1.00  0.00    -0.203 F 
ATOM     91  F   UNL A   1      44.404  38.720  30.351  1.00  0.00    -0.200 F 
ATOM     92  C   UNL A   1      43.065  38.521  28.423  1.00  0.00     0.200 A 
ATOM     93  F   UNL A   1      41.764  38.241  26.478  1.00  0.00    -0.200 F 
ATOM     94  F   UNL A   1      43.347  39.783  28.075  1.00  0.00    -0.200 F 
ENDBRANCH  61  84
ENDBRANCH  35  36
ENDBRANCH  28  30
ENDBRANCH  27  28
ENDBRANCH  26  27
ENDBRANCH   1  26
TORSDOF 15
ENDMDL
