MODEL 1
REMARK VINA RESULT:     -13.1      0.000      0.000
REMARK SMILES O=C(OCCOC(=O)[C@H]1[C@@H]2CC[C@@H](C2)[C@@H]1C(=O)Nc1ccc([N+](=O)[O-])cc1)c1ccc(-c2c3nc(c(-c4c(F)c(F)c(F)c(F)c4F)c4ccc([nH]4)c(-c4c(F)c(F)c(F)c(F)c4F)c4nc(c(-c5c(F)c(F)c(F)c(F)c5F)c5ccc2[nH]5)C=C4)C=C3)cc1
REMARK SMILES IDX 5 1 4 2 3 3 2 4 1 5 28 6 29 7 90 8 30 9 89 10 31 11 32 12
REMARK SMILES IDX 33 13 83 14 34 15 88 16 82 17 84 18 35 19 87 20 81 21 80 22
REMARK SMILES IDX 36 24 68 25 48 26 67 27 49 28 52 29 66 30 85 31 50 32 51 33
REMARK SMILES IDX 65 35 86 36 53 37 37 38 38 39 46 40 39 41 40 42 44 43 47 44
REMARK SMILES IDX 41 45 42 46 45 47 43 48 69 49 70 50 78 51 71 52 72 53 76 54
REMARK SMILES IDX 79 55 73 56 74 57 77 58 75 59 54 60 55 61 63 62 56 63 57 64
REMARK SMILES IDX 61 65 64 66 58 67 59 68 62 69 60 70 6 71 7 72 8 73 9 74
REMARK SMILES IDX 10 75 15 76 11 77 14 78 13 79 12 80 16 81 17 82 18 83 19 85
REMARK SMILES IDX 20 86 27 87 21 88 26 89 22 90 23 91 24 92 25 93
REMARK H PARENT 84 23 52 34 18 84
REMARK Flexibility Score: inf
ROOT
ATOM      1  C   UNL A   1      38.045  20.219  24.717  1.00  0.00     0.274 C 
ENDROOT
BRANCH   1   2
ATOM      2  C   UNL A   1      38.968  19.366  25.591  1.00  0.00     0.275 C 
BRANCH   2   3
ATOM      3  O   UNL A   1      40.262  19.931  25.846  1.00  0.00    -0.458 OA
BRANCH   3   4
ATOM      4  C   UNL A   1      40.796  20.411  26.990  1.00  0.00     0.338 C 
ATOM      5  O   UNL A   1      41.039  19.625  27.904  1.00  0.00    -0.246 OA
BRANCH   4   6
ATOM      6  C   UNL A   1      41.033  21.869  27.249  1.00  0.00     0.060 A 
ATOM      7  C   UNL A   1      40.538  22.943  26.502  1.00  0.00     0.016 A 
ATOM      8  C   UNL A   1      41.823  22.172  28.367  1.00  0.00     0.016 A 
ATOM      9  C   UNL A   1      40.750  24.268  26.894  1.00  0.00     0.010 A 
ATOM     10  C   UNL A   1      42.046  23.494  28.759  1.00  0.00     0.010 A 
ATOM     11  C   UNL A   1      41.515  24.555  28.019  1.00  0.00    -0.014 A 
BRANCH  11  12
ATOM     12  C   UNL A   1      41.957  25.946  28.262  1.00  0.00     0.031 A 
ATOM     13  C   UNL A   1      43.317  26.333  27.753  1.00  0.00     0.074 A 
ATOM     14  C   UNL A   1      41.164  26.845  28.875  1.00  0.00     0.049 A 
ATOM     15  N   UNL A   1      43.928  27.486  27.808  1.00  0.00    -0.248 NA
ATOM     16  C   UNL A   1      44.105  25.266  27.108  1.00  0.00     0.031 C 
ATOM     17  C   UNL A   1      39.830  26.579  29.416  1.00  0.00     0.029 A 
ATOM     18  N   UNL A   1      41.377  28.171  29.160  1.00  0.00    -0.354 N 
ATOM     19  C   UNL A   1      45.152  27.281  27.186  1.00  0.00     0.074 A 
ATOM     20  C   UNL A   1      45.253  25.876  26.878  1.00  0.00     0.031 C 
ATOM     21  C   UNL A   1      39.347  27.704  29.974  1.00  0.00     0.029 A 
ATOM     22  C   UNL A   1      40.333  28.770  29.825  1.00  0.00     0.049 A 
ATOM     23  H   UNL A   1      42.201  28.648  28.912  1.00  0.00     0.167 HD
ATOM     24  C   UNL A   1      46.085  28.194  26.836  1.00  0.00     0.037 A 
ATOM     25  C   UNL A   1      40.202  30.040  30.256  1.00  0.00     0.037 A 
ATOM     26  C   UNL A   1      45.971  29.592  27.133  1.00  0.00     0.049 A 
ATOM     27  C   UNL A   1      41.303  31.023  29.954  1.00  0.00     0.074 A 
ATOM     28  C   UNL A   1      46.832  30.621  26.805  1.00  0.00     0.029 A 
ATOM     29  N   UNL A   1      44.918  30.153  27.843  1.00  0.00    -0.354 N 
ATOM     30  N   UNL A   1      42.431  30.831  29.312  1.00  0.00    -0.248 NA
ATOM     31  C   UNL A   1      41.100  32.401  30.416  1.00  0.00     0.031 C 
ATOM     32  C   UNL A   1      46.329  31.799  27.368  1.00  0.00     0.029 A 
ATOM     33  C   UNL A   1      45.120  31.514  27.986  1.00  0.00     0.049 A 
ATOM     34  H   UNL A   1      44.143  29.658  28.193  1.00  0.00     0.167 HD
ATOM     35  C   UNL A   1      43.046  32.074  29.244  1.00  0.00     0.074 A 
ATOM     36  C   UNL A   1      42.171  33.008  29.925  1.00  0.00     0.031 C 
ATOM     37  C   UNL A   1      44.218  32.418  28.654  1.00  0.00     0.037 A 
BRANCH  24  38
ATOM     38  C   UNL A   1      47.285  27.684  26.095  1.00  0.00     0.064 A 
ATOM     39  C   UNL A   1      48.473  27.341  26.765  1.00  0.00     0.173 A 
ATOM     40  C   UNL A   1      47.271  27.588  24.698  1.00  0.00     0.173 A 
ATOM     41  F   UNL A   1      48.549  27.443  28.102  1.00  0.00    -0.203 F 
ATOM     42  C   UNL A   1      49.615  26.973  26.059  1.00  0.00     0.198 A 
ATOM     43  C   UNL A   1      48.404  27.182  23.998  1.00  0.00     0.198 A 
ATOM     44  F   UNL A   1      46.166  27.908  24.009  1.00  0.00    -0.203 F 
ATOM     45  F   UNL A   1      50.759  26.735  26.716  1.00  0.00    -0.200 F 
ATOM     46  C   UNL A   1      49.579  26.890  24.677  1.00  0.00     0.200 A 
ATOM     47  F   UNL A   1      48.366  27.096  22.661  1.00  0.00    -0.200 F 
ATOM     48  F   UNL A   1      50.680  26.545  23.996  1.00  0.00    -0.200 F 
ENDBRANCH  24  38
BRANCH  25  49
ATOM     49  C   UNL A   1      39.002  30.466  31.023  1.00  0.00     0.064 A 
ATOM     50  C   UNL A   1      37.890  31.045  30.396  1.00  0.00     0.173 A 
ATOM     51  C   UNL A   1      38.979  30.360  32.419  1.00  0.00     0.173 A 
ATOM     52  F   UNL A   1      37.877  31.197  29.064  1.00  0.00    -0.203 F 
ATOM     53  C   UNL A   1      36.810  31.519  31.141  1.00  0.00     0.198 A 
ATOM     54  C   UNL A   1      37.895  30.820  33.164  1.00  0.00     0.198 A 
ATOM     55  F   UNL A   1      40.028  29.820  33.055  1.00  0.00    -0.203 F 
ATOM     56  F   UNL A   1      35.779  32.110  30.521  1.00  0.00    -0.200 F 
ATOM     57  C   UNL A   1      36.813  31.406  32.524  1.00  0.00     0.200 A 
ATOM     58  F   UNL A   1      37.903  30.712  34.498  1.00  0.00    -0.200 F 
ATOM     59  F   UNL A   1      35.781  31.874  33.238  1.00  0.00    -0.200 F 
ENDBRANCH  25  49
BRANCH  37  60
ATOM     60  C   UNL A   1      44.577  33.875  28.643  1.00  0.00     0.064 A 
ATOM     61  C   UNL A   1      45.414  34.446  29.611  1.00  0.00     0.173 A 
ATOM     62  C   UNL A   1      44.095  34.702  27.616  1.00  0.00     0.173 A 
ATOM     63  F   UNL A   1      45.886  33.699  30.621  1.00  0.00    -0.203 F 
ATOM     64  C   UNL A   1      45.732  35.801  29.568  1.00  0.00     0.198 A 
ATOM     65  C   UNL A   1      44.446  36.046  27.554  1.00  0.00     0.198 A 
ATOM     66  F   UNL A   1      43.297  34.200  26.661  1.00  0.00    -0.203 F 
ATOM     67  F   UNL A   1      46.486  36.340  30.535  1.00  0.00    -0.200 F 
ATOM     68  C   UNL A   1      45.255  36.596  28.536  1.00  0.00     0.200 A 
ATOM     69  F   UNL A   1      44.000  36.807  26.546  1.00  0.00    -0.200 F 
ATOM     70  F   UNL A   1      45.570  37.898  28.493  1.00  0.00    -0.200 F 
ENDBRANCH  37  60
ENDBRANCH  11  12
ENDBRANCH   4   6
ENDBRANCH   3   4
ENDBRANCH   2   3
ENDBRANCH   1   2
BRANCH   1  71
ATOM     71  O   UNL A   1      36.997  20.908  25.427  1.00  0.00    -0.462 OA
BRANCH  71  72
ATOM     72  C   UNL A   1      36.059  21.546  24.660  1.00  0.00     0.310 C 
ATOM     73  O   UNL A   1      36.326  22.218  23.669  1.00  0.00    -0.252 OA
BRANCH  72  74
ATOM     74  C   UNL A   1      34.676  21.424  25.299  1.00  0.00     0.115 C 
ATOM     75  C   UNL A   1      34.820  22.243  26.618  1.00  0.00     0.004 C 
ATOM     76  C   UNL A   1      33.518  22.170  24.557  1.00  0.00     0.096 C 
ATOM     77  C   UNL A   1      33.697  21.869  27.571  1.00  0.00     0.005 C 
ATOM     78  C   UNL A   1      34.399  23.653  26.177  1.00  0.00     0.009 C 
ATOM     79  C   UNL A   1      33.049  23.180  25.624  1.00  0.00     0.003 C 
ATOM     80  C   UNL A   1      32.508  22.538  26.904  1.00  0.00     0.005 C 
BRANCH  76  81
ATOM     81  C   UNL A   1      32.511  21.399  23.651  1.00  0.00     0.228 C 
ATOM     82  O   UNL A   1      31.647  22.071  23.063  1.00  0.00    -0.274 OA
ATOM     83  N   UNL A   1      32.492  20.084  23.299  1.00  0.00    -0.326 N 
ATOM     84  H   UNL A   1      32.118  19.918  22.404  1.00  0.00     0.169 HD
BRANCH  83  85
ATOM     85  C   UNL A   1      32.898  18.927  23.958  1.00  0.00     0.041 A 
ATOM     86  C   UNL A   1      32.569  18.777  25.310  1.00  0.00     0.033 A 
ATOM     87  C   UNL A   1      33.582  17.917  23.276  1.00  0.00     0.033 A 
ATOM     88  C   UNL A   1      32.644  17.515  25.899  1.00  0.00     0.088 A 
ATOM     89  C   UNL A   1      33.685  16.652  23.861  1.00  0.00     0.088 A 
ATOM     90  C   UNL A   1      33.127  16.454  25.130  1.00  0.00     0.269 A 
BRANCH  90  91
ATOM     91  N   UNL A   1      32.766  15.104  25.520  1.00  0.00     0.062 N 
ATOM     92  O   UNL A   1      31.599  14.900  25.867  1.00  0.00    -0.258 OA
ATOM     93  O   UNL A   1      33.668  14.255  25.450  1.00  0.00    -0.258 OA
ENDBRANCH  90  91
ENDBRANCH  83  85
ENDBRANCH  76  81
ENDBRANCH  72  74
ENDBRANCH  71  72
ENDBRANCH   1  71
TORSDOF 14
ENDMDL
MODEL 2
REMARK VINA RESULT:     -13.0      5.766     11.267
REMARK SMILES O=C(OCCOC(=O)[C@H]1[C@@H]2CC[C@@H](C2)[C@@H]1C(=O)Nc1ccc([N+](=O)[O-])cc1)c1ccc(-c2c3nc(c(-c4c(F)c(F)c(F)c(F)c4F)c4ccc([nH]4)c(-c4c(F)c(F)c(F)c(F)c4F)c4nc(c(-c5c(F)c(F)c(F)c(F)c5F)c5ccc2[nH]5)C=C4)C=C3)cc1
REMARK SMILES IDX 5 1 4 2 3 3 2 4 1 5 28 6 29 7 90 8 30 9 89 10 31 11 32 12
REMARK SMILES IDX 33 13 83 14 34 15 88 16 82 17 84 18 35 19 87 20 81 21 80 22
REMARK SMILES IDX 36 24 68 25 48 26 67 27 49 28 52 29 66 30 85 31 50 32 51 33
REMARK SMILES IDX 65 35 86 36 53 37 37 38 38 39 46 40 39 41 40 42 44 43 47 44
REMARK SMILES IDX 41 45 42 46 45 47 43 48 69 49 70 50 78 51 71 52 72 53 76 54
REMARK SMILES IDX 79 55 73 56 74 57 77 58 75 59 54 60 55 61 63 62 56 63 57 64
REMARK SMILES IDX 61 65 64 66 58 67 59 68 62 69 60 70 6 71 7 72 8 73 9 74
REMARK SMILES IDX 10 75 15 76 11 77 14 78 13 79 12 80 16 81 17 82 18 83 19 85
REMARK SMILES IDX 20 86 27 87 21 88 26 89 22 90 23 91 24 92 25 93
REMARK H PARENT 84 23 52 34 18 84
REMARK Flexibility Score: inf
ROOT
ATOM      1  C   UNL A   1      32.213  30.309  27.171  1.00  0.00     0.274 C 
ENDROOT
BRANCH   1   2
ATOM      2  C   UNL A   1      32.181  31.730  26.603  1.00  0.00     0.275 C 
BRANCH   2   3
ATOM      3  O   UNL A   1      32.522  32.767  27.535  1.00  0.00    -0.458 OA
BRANCH   3   4
ATOM      4  C   UNL A   1      33.718  33.324  27.823  1.00  0.00     0.338 C 
ATOM      5  O   UNL A   1      33.893  34.515  27.570  1.00  0.00    -0.246 OA
BRANCH   4   6
ATOM      6  C   UNL A   1      34.887  32.552  28.358  1.00  0.00     0.060 A 
ATOM      7  C   UNL A   1      34.866  31.250  28.870  1.00  0.00     0.016 A 
ATOM      8  C   UNL A   1      36.124  33.211  28.325  1.00  0.00     0.016 A 
ATOM      9  C   UNL A   1      36.039  30.595  29.257  1.00  0.00     0.010 A 
ATOM     10  C   UNL A   1      37.298  32.566  28.719  1.00  0.00     0.010 A 
ATOM     11  C   UNL A   1      37.264  31.252  29.196  1.00  0.00    -0.014 A 
BRANCH  11  12
ATOM     12  C   UNL A   1      38.443  30.654  29.860  1.00  0.00     0.031 A 
ATOM     13  C   UNL A   1      38.706  31.055  31.284  1.00  0.00     0.074 A 
ATOM     14  C   UNL A   1      39.228  29.755  29.236  1.00  0.00     0.049 A 
ATOM     15  N   UNL A   1      39.647  30.660  32.099  1.00  0.00    -0.248 NA
ATOM     16  C   UNL A   1      37.791  32.054  31.864  1.00  0.00     0.031 C 
ATOM     17  C   UNL A   1      39.072  29.298  27.854  1.00  0.00     0.029 A 
ATOM     18  N   UNL A   1      40.331  29.074  29.685  1.00  0.00    -0.354 N 
ATOM     19  C   UNL A   1      39.417  31.344  33.283  1.00  0.00     0.074 A 
ATOM     20  C   UNL A   1      38.335  32.269  33.047  1.00  0.00     0.031 C 
ATOM     21  C   UNL A   1      40.048  28.417  27.566  1.00  0.00     0.029 A 
ATOM     22  C   UNL A   1      40.893  28.244  28.743  1.00  0.00     0.049 A 
ATOM     23  H   UNL A   1      40.688  29.170  30.598  1.00  0.00     0.167 HD
ATOM     24  C   UNL A   1      40.006  31.171  34.488  1.00  0.00     0.037 A 
ATOM     25  C   UNL A   1      41.970  27.439  28.838  1.00  0.00     0.037 A 
ATOM     26  C   UNL A   1      41.070  30.239  34.718  1.00  0.00     0.049 A 
ATOM     27  C   UNL A   1      42.685  27.339  30.160  1.00  0.00     0.074 A 
ATOM     28  C   UNL A   1      41.728  29.949  35.897  1.00  0.00     0.029 A 
ATOM     29  N   UNL A   1      41.639  29.447  33.730  1.00  0.00    -0.354 N 
ATOM     30  N   UNL A   1      42.421  27.948  31.292  1.00  0.00    -0.248 NA
ATOM     31  C   UNL A   1      43.831  26.425  30.221  1.00  0.00     0.031 C 
ATOM     32  C   UNL A   1      42.735  29.021  35.611  1.00  0.00     0.029 A 
ATOM     33  C   UNL A   1      42.659  28.683  34.268  1.00  0.00     0.049 A 
ATOM     34  H   UNL A   1      41.358  29.430  32.787  1.00  0.00     0.167 HD
ATOM     35  C   UNL A   1      43.331  27.449  32.214  1.00  0.00     0.074 A 
ATOM     36  C   UNL A   1      44.164  26.500  31.502  1.00  0.00     0.031 C 
ATOM     37  C   UNL A   1      43.456  27.733  33.534  1.00  0.00     0.037 A 
BRANCH  24  38
ATOM     38  C   UNL A   1      39.490  32.010  35.619  1.00  0.00     0.064 A 
ATOM     39  C   UNL A   1      40.010  33.289  35.884  1.00  0.00     0.173 A 
ATOM     40  C   UNL A   1      38.505  31.512  36.483  1.00  0.00     0.173 A 
ATOM     41  F   UNL A   1      40.975  33.801  35.104  1.00  0.00    -0.203 F 
ATOM     42  C   UNL A   1      39.601  34.014  37.001  1.00  0.00     0.198 A 
ATOM     43  C   UNL A   1      38.071  32.256  37.577  1.00  0.00     0.198 A 
ATOM     44  F   UNL A   1      37.980  30.295  36.279  1.00  0.00    -0.203 F 
ATOM     45  F   UNL A   1      40.174  35.192  37.279  1.00  0.00    -0.200 F 
ATOM     46  C   UNL A   1      38.629  33.498  37.844  1.00  0.00     0.200 A 
ATOM     47  F   UNL A   1      37.128  31.759  38.388  1.00  0.00    -0.200 F 
ATOM     48  F   UNL A   1      38.243  34.190  38.924  1.00  0.00    -0.200 F 
ENDBRANCH  24  38
BRANCH  25  49
ATOM     49  C   UNL A   1      42.451  26.668  27.662  1.00  0.00     0.064 A 
ATOM     50  C   UNL A   1      42.046  25.347  27.426  1.00  0.00     0.173 A 
ATOM     51  C   UNL A   1      43.388  27.227  26.784  1.00  0.00     0.173 A 
ATOM     52  F   UNL A   1      41.174  24.756  28.256  1.00  0.00    -0.203 F 
ATOM     53  C   UNL A   1      42.576  24.610  26.367  1.00  0.00     0.198 A 
ATOM     54  C   UNL A   1      43.908  26.497  25.717  1.00  0.00     0.198 A 
ATOM     55  F   UNL A   1      43.806  28.485  26.981  1.00  0.00    -0.203 F 
ATOM     56  F   UNL A   1      42.207  23.334  26.190  1.00  0.00    -0.200 F 
ATOM     57  C   UNL A   1      43.506  25.185  25.512  1.00  0.00     0.200 A 
ATOM     58  F   UNL A   1      44.808  27.055  24.897  1.00  0.00    -0.200 F 
ATOM     59  F   UNL A   1      44.024  24.472  24.504  1.00  0.00    -0.200 F 
ENDBRANCH  25  49
BRANCH  37  60
ATOM     60  C   UNL A   1      44.470  26.946  34.310  1.00  0.00     0.064 A 
ATOM     61  C   UNL A   1      45.791  27.382  34.470  1.00  0.00     0.173 A 
ATOM     62  C   UNL A   1      44.090  25.747  34.935  1.00  0.00     0.173 A 
ATOM     63  F   UNL A   1      46.206  28.513  33.879  1.00  0.00    -0.203 F 
ATOM     64  C   UNL A   1      46.706  26.630  35.202  1.00  0.00     0.198 A 
ATOM     65  C   UNL A   1      44.995  25.019  35.698  1.00  0.00     0.198 A 
ATOM     66  F   UNL A   1      42.833  25.293  34.819  1.00  0.00    -0.203 F 
ATOM     67  F   UNL A   1      47.980  27.034  35.294  1.00  0.00    -0.200 F 
ATOM     68  C   UNL A   1      46.305  25.456  35.822  1.00  0.00     0.200 A 
ATOM     69  F   UNL A   1      44.600  23.895  36.311  1.00  0.00    -0.200 F 
ATOM     70  F   UNL A   1      47.186  24.738  36.533  1.00  0.00    -0.200 F 
ENDBRANCH  37  60
ENDBRANCH  11  12
ENDBRANCH   4   6
ENDBRANCH   3   4
ENDBRANCH   2   3
ENDBRANCH   1   2
BRANCH   1  71
ATOM     71  O   UNL A   1      31.761  29.280  26.268  1.00  0.00    -0.462 OA
BRANCH  71  72
ATOM     72  C   UNL A   1      31.558  28.039  26.811  1.00  0.00     0.310 C 
ATOM     73  O   UNL A   1      31.327  27.840  27.998  1.00  0.00    -0.252 OA
BRANCH  72  74
ATOM     74  C   UNL A   1      31.810  26.953  25.765  1.00  0.00     0.115 C 
ATOM     75  C   UNL A   1      31.286  25.660  26.462  1.00  0.00     0.004 C 
ATOM     76  C   UNL A   1      30.923  27.033  24.478  1.00  0.00     0.096 C 
ATOM     77  C   UNL A   1      31.849  24.441  25.753  1.00  0.00     0.005 C 
ATOM     78  C   UNL A   1      29.814  25.624  26.022  1.00  0.00     0.009 C 
ATOM     79  C   UNL A   1      30.159  25.695  24.529  1.00  0.00     0.003 C 
ATOM     80  C   UNL A   1      31.054  24.455  24.460  1.00  0.00     0.005 C 
BRANCH  76  81
ATOM     81  C   UNL A   1      31.486  27.611  23.145  1.00  0.00     0.228 C 
ATOM     82  O   UNL A   1      32.596  27.196  22.769  1.00  0.00    -0.274 OA
ATOM     83  N   UNL A   1      30.893  28.438  22.239  1.00  0.00    -0.326 N 
ATOM     84  H   UNL A   1      31.189  28.288  21.312  1.00  0.00     0.169 HD
BRANCH  83  85
ATOM     85  C   UNL A   1      29.951  29.454  22.368  1.00  0.00     0.041 A 
ATOM     86  C   UNL A   1      29.879  30.151  23.579  1.00  0.00     0.033 A 
ATOM     87  C   UNL A   1      29.121  29.801  21.297  1.00  0.00     0.033 A 
ATOM     88  C   UNL A   1      29.213  31.376  23.629  1.00  0.00     0.088 A 
ATOM     89  C   UNL A   1      28.429  31.014  21.340  1.00  0.00     0.088 A 
ATOM     90  C   UNL A   1      28.566  31.823  22.475  1.00  0.00     0.269 A 
BRANCH  90  91
ATOM     91  N   UNL A   1      28.306  33.244  22.343  1.00  0.00     0.062 N 
ATOM     92  O   UNL A   1      28.778  33.996  23.201  1.00  0.00    -0.258 OA
ATOM     93  O   UNL A   1      27.641  33.589  21.354  1.00  0.00    -0.258 OA
ENDBRANCH  90  91
ENDBRANCH  83  85
ENDBRANCH  76  81
ENDBRANCH  72  74
ENDBRANCH  71  72
ENDBRANCH   1  71
TORSDOF 14
ENDMDL
MODEL 3
REMARK VINA RESULT:     -12.8      6.152     11.492
REMARK SMILES O=C(OCCOC(=O)[C@H]1[C@@H]2CC[C@@H](C2)[C@@H]1C(=O)Nc1ccc([N+](=O)[O-])cc1)c1ccc(-c2c3nc(c(-c4c(F)c(F)c(F)c(F)c4F)c4ccc([nH]4)c(-c4c(F)c(F)c(F)c(F)c4F)c4nc(c(-c5c(F)c(F)c(F)c(F)c5F)c5ccc2[nH]5)C=C4)C=C3)cc1
REMARK SMILES IDX 5 1 4 2 3 3 2 4 1 5 28 6 29 7 90 8 30 9 89 10 31 11 32 12
REMARK SMILES IDX 33 13 83 14 34 15 88 16 82 17 84 18 35 19 87 20 81 21 80 22
REMARK SMILES IDX 36 24 68 25 48 26 67 27 49 28 52 29 66 30 85 31 50 32 51 33
REMARK SMILES IDX 65 35 86 36 53 37 37 38 38 39 46 40 39 41 40 42 44 43 47 44
REMARK SMILES IDX 41 45 42 46 45 47 43 48 69 49 70 50 78 51 71 52 72 53 76 54
REMARK SMILES IDX 79 55 73 56 74 57 77 58 75 59 54 60 55 61 63 62 56 63 57 64
REMARK SMILES IDX 61 65 64 66 58 67 59 68 62 69 60 70 6 71 7 72 8 73 9 74
REMARK SMILES IDX 10 75 15 76 11 77 14 78 13 79 12 80 16 81 17 82 18 83 19 85
REMARK SMILES IDX 20 86 27 87 21 88 26 89 22 90 23 91 24 92 25 93
REMARK H PARENT 84 23 52 34 18 84
REMARK Flexibility Score: inf
ROOT
ATOM      1  C   UNL A   1      31.955  31.547  26.996  1.00  0.00     0.274 C 
ENDROOT
BRANCH   1   2
ATOM      2  C   UNL A   1      32.096  33.062  26.828  1.00  0.00     0.275 C 
BRANCH   2   3
ATOM      3  O   UNL A   1      32.158  33.808  28.052  1.00  0.00    -0.458 OA
BRANCH   3   4
ATOM      4  C   UNL A   1      33.151  34.570  28.562  1.00  0.00     0.338 C 
ATOM      5  O   UNL A   1      33.046  35.794  28.507  1.00  0.00    -0.246 OA
BRANCH   4   6
ATOM      6  C   UNL A   1      34.426  34.008  29.118  1.00  0.00     0.060 A 
ATOM      7  C   UNL A   1      35.727  34.350  28.736  1.00  0.00     0.016 A 
ATOM      8  C   UNL A   1      34.282  33.053  30.134  1.00  0.00     0.016 A 
ATOM      9  C   UNL A   1      36.845  33.826  29.392  1.00  0.00     0.010 A 
ATOM     10  C   UNL A   1      35.395  32.519  30.787  1.00  0.00     0.010 A 
ATOM     11  C   UNL A   1      36.689  32.897  30.416  1.00  0.00    -0.014 A 
BRANCH  11  12
ATOM     12  C   UNL A   1      37.869  32.152  30.907  1.00  0.00     0.031 A 
ATOM     13  C   UNL A   1      38.377  32.497  32.278  1.00  0.00     0.074 A 
ATOM     14  C   UNL A   1      38.444  31.176  30.179  1.00  0.00     0.049 A 
ATOM     15  N   UNL A   1      39.370  31.980  32.951  1.00  0.00    -0.248 NA
ATOM     16  C   UNL A   1      37.680  33.590  32.980  1.00  0.00     0.031 C 
ATOM     17  C   UNL A   1      38.040  30.761  28.834  1.00  0.00     0.029 A 
ATOM     18  N   UNL A   1      39.510  30.360  30.468  1.00  0.00    -0.354 N 
ATOM     19  C   UNL A   1      39.393  32.669  34.155  1.00  0.00     0.074 A 
ATOM     20  C   UNL A   1      38.408  33.720  34.073  1.00  0.00     0.031 C 
ATOM     21  C   UNL A   1      38.852  29.775  28.412  1.00  0.00     0.029 A 
ATOM     22  C   UNL A   1      39.829  29.484  29.457  1.00  0.00     0.049 A 
ATOM     23  H   UNL A   1      40.001  30.400  31.320  1.00  0.00     0.167 HD
ATOM     24  C   UNL A   1      40.121  32.408  35.264  1.00  0.00     0.037 A 
ATOM     25  C   UNL A   1      40.803  28.555  29.399  1.00  0.00     0.037 A 
ATOM     26  C   UNL A   1      41.087  31.352  35.343  1.00  0.00     0.049 A 
ATOM     27  C   UNL A   1      41.680  28.350  30.606  1.00  0.00     0.074 A 
ATOM     28  C   UNL A   1      41.865  30.968  36.417  1.00  0.00     0.029 A 
ATOM     29  N   UNL A   1      41.410  30.513  34.285  1.00  0.00    -0.354 N 
ATOM     30  N   UNL A   1      41.654  28.969  31.763  1.00  0.00    -0.248 NA
ATOM     31  C   UNL A   1      42.705  27.304  30.506  1.00  0.00     0.031 C 
ATOM     32  C   UNL A   1      42.703  29.931  35.992  1.00  0.00     0.029 A 
ATOM     33  C   UNL A   1      42.397  29.625  34.674  1.00  0.00     0.049 A 
ATOM     34  H   UNL A   1      41.000  30.544  33.391  1.00  0.00     0.167 HD
ATOM     35  C   UNL A   1      42.619  28.351  32.548  1.00  0.00     0.074 A 
ATOM     36  C   UNL A   1      43.222  27.320  31.726  1.00  0.00     0.031 C 
ATOM     37  C   UNL A   1      42.962  28.598  33.836  1.00  0.00     0.037 A 
BRANCH  24  38
ATOM     38  C   UNL A   1      39.875  33.285  36.456  1.00  0.00     0.064 A 
ATOM     39  C   UNL A   1      38.881  32.979  37.403  1.00  0.00     0.173 A 
ATOM     40  C   UNL A   1      40.599  34.472  36.627  1.00  0.00     0.173 A 
ATOM     41  F   UNL A   1      38.140  31.868  37.269  1.00  0.00    -0.203 F 
ATOM     42  C   UNL A   1      38.587  33.855  38.444  1.00  0.00     0.198 A 
ATOM     43  C   UNL A   1      40.328  35.327  37.693  1.00  0.00     0.198 A 
ATOM     44  F   UNL A   1      41.554  34.814  35.751  1.00  0.00    -0.203 F 
ATOM     45  F   UNL A   1      37.579  33.583  39.282  1.00  0.00    -0.200 F 
ATOM     46  C   UNL A   1      39.314  35.026  38.590  1.00  0.00     0.200 A 
ATOM     47  F   UNL A   1      41.035  36.456  37.837  1.00  0.00    -0.200 F 
ATOM     48  F   UNL A   1      39.025  35.874  39.587  1.00  0.00    -0.200 F 
ENDBRANCH  24  38
BRANCH  25  49
ATOM     49  C   UNL A   1      41.017  27.749  28.169  1.00  0.00     0.064 A 
ATOM     50  C   UNL A   1      40.427  26.489  27.996  1.00  0.00     0.173 A 
ATOM     51  C   UNL A   1      41.880  28.207  27.164  1.00  0.00     0.173 A 
ATOM     52  F   UNL A   1      39.619  25.994  28.944  1.00  0.00    -0.203 F 
ATOM     53  C   UNL A   1      40.710  25.711  26.873  1.00  0.00     0.198 A 
ATOM     54  C   UNL A   1      42.151  27.437  26.036  1.00  0.00     0.198 A 
ATOM     55  F   UNL A   1      42.469  29.403  27.297  1.00  0.00    -0.203 F 
ATOM     56  F   UNL A   1      40.170  24.490  26.754  1.00  0.00    -0.200 F 
ATOM     57  C   UNL A   1      41.571  26.185  25.894  1.00  0.00     0.200 A 
ATOM     58  F   UNL A   1      42.986  27.896  25.094  1.00  0.00    -0.200 F 
ATOM     59  F   UNL A   1      41.851  25.430  24.823  1.00  0.00    -0.200 F 
ENDBRANCH  25  49
BRANCH  37  60
ATOM     60  C   UNL A   1      43.973  27.683  34.462  1.00  0.00     0.064 A 
ATOM     61  C   UNL A   1      45.340  27.989  34.492  1.00  0.00     0.173 A 
ATOM     62  C   UNL A   1      43.550  26.494  35.076  1.00  0.00     0.173 A 
ATOM     63  F   UNL A   1      45.795  29.108  33.905  1.00  0.00    -0.203 F 
ATOM     64  C   UNL A   1      46.252  27.121  35.086  1.00  0.00     0.198 A 
ATOM     65  C   UNL A   1      44.458  25.648  35.702  1.00  0.00     0.198 A 
ATOM     66  F   UNL A   1      42.250  26.161  35.081  1.00  0.00    -0.203 F 
ATOM     67  F   UNL A   1      47.561  27.403  35.053  1.00  0.00    -0.200 F 
ATOM     68  C   UNL A   1      45.809  25.958  35.698  1.00  0.00     0.200 A 
ATOM     69  F   UNL A   1      44.025  24.534  36.309  1.00  0.00    -0.200 F 
ATOM     70  F   UNL A   1      46.688  25.128  36.277  1.00  0.00    -0.200 F 
ENDBRANCH  37  60
ENDBRANCH  11  12
ENDBRANCH   4   6
ENDBRANCH   3   4
ENDBRANCH   2   3
ENDBRANCH   1   2
BRANCH   1  71
ATOM     71  O   UNL A   1      31.517  30.840  25.819  1.00  0.00    -0.462 OA
BRANCH  71  72
ATOM     72  C   UNL A   1      31.562  29.473  25.877  1.00  0.00     0.310 C 
ATOM     73  O   UNL A   1      31.591  28.832  26.922  1.00  0.00    -0.252 OA
BRANCH  72  74
ATOM     74  C   UNL A   1      31.721  28.885  24.474  1.00  0.00     0.115 C 
ATOM     75  C   UNL A   1      33.237  29.090  24.173  1.00  0.00     0.004 C 
ATOM     76  C   UNL A   1      31.557  27.332  24.367  1.00  0.00     0.096 C 
ATOM     77  C   UNL A   1      33.476  28.965  22.678  1.00  0.00     0.005 C 
ATOM     78  C   UNL A   1      33.856  27.786  24.698  1.00  0.00     0.009 C 
ATOM     79  C   UNL A   1      32.942  26.897  23.846  1.00  0.00     0.003 C 
ATOM     80  C   UNL A   1      33.307  27.471  22.475  1.00  0.00     0.005 C 
BRANCH  76  81
ATOM     81  C   UNL A   1      30.238  26.695  23.837  1.00  0.00     0.228 C 
ATOM     82  O   UNL A   1      30.172  25.454  23.824  1.00  0.00    -0.274 OA
ATOM     83  N   UNL A   1      29.067  27.293  23.481  1.00  0.00    -0.326 N 
ATOM     84  H   UNL A   1      28.272  26.738  23.648  1.00  0.00     0.169 HD
BRANCH  83  85
ATOM     85  C   UNL A   1      28.776  28.535  22.926  1.00  0.00     0.041 A 
ATOM     86  C   UNL A   1      27.596  29.180  23.312  1.00  0.00     0.033 A 
ATOM     87  C   UNL A   1      29.664  29.148  22.036  1.00  0.00     0.033 A 
ATOM     88  C   UNL A   1      27.444  30.544  23.061  1.00  0.00     0.088 A 
ATOM     89  C   UNL A   1      29.513  30.509  21.757  1.00  0.00     0.088 A 
ATOM     90  C   UNL A   1      28.453  31.202  22.354  1.00  0.00     0.269 A 
BRANCH  90  91
ATOM     91  N   UNL A   1      28.568  32.641  22.503  1.00  0.00     0.062 N 
ATOM     92  O   UNL A   1      29.271  33.068  23.423  1.00  0.00    -0.258 OA
ATOM     93  O   UNL A   1      27.958  33.327  21.669  1.00  0.00    -0.258 OA
ENDBRANCH  90  91
ENDBRANCH  83  85
ENDBRANCH  76  81
ENDBRANCH  72  74
ENDBRANCH  71  72
ENDBRANCH   1  71
TORSDOF 14
ENDMDL
