MODEL 1
REMARK VINA RESULT:     -15.8      0.000      0.000
REMARK SMILES Cc1ccc([C@@]23C[C@@H]4C[C@@H](C[C@@](C(=O)N5CCC(C(=O)OCCOC(=O)c6ccc(-c7c8nc(c(-c9c(F)c(F)c(F)c(F)c9F)c9ccc([nH]9)c(-c9c(F)c(F)c(F)c(F)c9F)c9nc(c(-c%10c(F)c(F)c(F)c(F)c%10F)c%10ccc7[nH]%10)C=C9)C=C8)cc6)CC5)(C4)C2)C3)cc1
REMARK SMILES IDX 22 1 21 2 19 3 20 4 18 5 13 6 14 7 15 8 16 9 91 10 17 11
REMARK SMILES IDX 90 12 12 13 6 14 7 15 93 16 94 17 8 18 10 19 9 20 92 21
REMARK SMILES IDX 11 22 5 23 1 24 2 25 3 26 96 27 4 28 95 29 23 30 24 31 25 32
REMARK SMILES IDX 26 33 27 34 28 35 89 36 29 37 88 38 30 39 31 40 32 41 82 42
REMARK SMILES IDX 33 43 87 44 81 45 83 46 34 47 86 48 80 49 79 50 35 52 67 53
REMARK SMILES IDX 47 54 66 55 48 56 51 57 65 58 84 59 49 60 50 61 64 63 85 64
REMARK SMILES IDX 52 65 36 66 37 67 45 68 38 69 39 70 43 71 46 72 40 73 41 74
REMARK SMILES IDX 44 75 42 76 68 77 69 78 77 79 70 80 71 81 75 82 78 83 72 84
REMARK SMILES IDX 73 85 76 86 74 87 53 88 54 89 62 90 55 91 56 92 60 93 63 94
REMARK SMILES IDX 57 95 58 96 61 97 59 98
REMARK H PARENT 83 51 51 62
REMARK Flexibility Score: inf
ROOT
ATOM      1  C   UNL A   1      32.605  30.135  26.049  1.00  0.00     0.274 C 
ENDROOT
BRANCH   1   2
ATOM      2  O   UNL A   1      32.901  29.390  24.869  1.00  0.00    -0.462 OA
BRANCH   2   3
ATOM      3  C   UNL A   1      31.803  29.021  24.154  1.00  0.00     0.309 C 
ATOM      4  O   UNL A   1      30.659  29.354  24.433  1.00  0.00    -0.252 OA
BRANCH   3   5
ATOM      5  C   UNL A   1      32.213  28.139  22.993  1.00  0.00     0.103 C 
ATOM      6  C   UNL A   1      32.464  24.439  23.457  1.00  0.00     0.228 C 
ATOM      7  O   UNL A   1      31.308  24.055  23.657  1.00  0.00    -0.274 OA
ATOM      8  N   UNL A   1      32.735  25.428  22.504  1.00  0.00    -0.342 N 
ATOM      9  C   UNL A   1      31.606  25.979  21.782  1.00  0.00     0.120 C 
ATOM     10  C   UNL A   1      33.883  26.331  22.481  1.00  0.00     0.120 C 
ATOM     11  C   UNL A   1      31.091  27.157  22.591  1.00  0.00     0.037 C 
ATOM     12  C   UNL A   1      33.553  27.515  23.369  1.00  0.00     0.037 C 
BRANCH   6  13
ATOM     13  C   UNL A   1      33.631  23.784  24.212  1.00  0.00     0.051 C 
ATOM     14  C   UNL A   1      34.410  21.461  24.960  1.00  0.00    -0.003 C 
ATOM     15  C   UNL A   1      35.749  21.777  24.226  1.00  0.00     0.015 C 
ATOM     16  C   UNL A   1      33.302  22.290  24.294  1.00  0.00     0.028 C 
ATOM     17  C   UNL A   1      34.520  21.975  26.418  1.00  0.00     0.015 C 
ATOM     18  C   UNL A   1      36.101  23.276  24.305  1.00  0.00    -0.009 C 
ATOM     19  C   UNL A   1      34.817  23.494  26.443  1.00  0.00    -0.009 C 
ATOM     20  C   UNL A   1      36.171  23.740  25.760  1.00  0.00     0.007 C 
ATOM     21  C   UNL A   1      35.011  24.069  23.589  1.00  0.00     0.020 C 
ATOM     22  C   UNL A   1      33.717  24.274  25.685  1.00  0.00     0.020 C 
BRANCH  14  23
ATOM     23  C   UNL A   1      34.069  19.962  24.871  1.00  0.00    -0.042 A 
ATOM     24  C   UNL A   1      33.165  15.717  24.883  1.00  0.00     0.044 C 
ATOM     25  C   UNL A   1      33.455  17.185  24.867  1.00  0.00    -0.051 A 
ATOM     26  C   UNL A   1      34.749  17.620  24.594  1.00  0.00     0.004 A 
ATOM     27  C   UNL A   1      32.466  18.139  25.124  1.00  0.00     0.004 A 
ATOM     28  C   UNL A   1      35.043  18.982  24.585  1.00  0.00     0.004 A 
ATOM     29  C   UNL A   1      32.767  19.508  25.123  1.00  0.00     0.004 A 
ENDBRANCH  14  23
ENDBRANCH   6  13
ENDBRANCH   3   5
ENDBRANCH   2   3
ENDBRANCH   1   2
BRANCH   1  30
ATOM     30  C   UNL A   1      33.436  29.632  27.239  1.00  0.00     0.275 C 
BRANCH  30  31
ATOM     31  O   UNL A   1      34.894  29.691  27.228  1.00  0.00    -0.458 OA
BRANCH  31  32
ATOM     32  C   UNL A   1      35.610  30.533  28.014  1.00  0.00     0.338 C 
ATOM     33  O   UNL A   1      35.259  31.662  28.313  1.00  0.00    -0.246 OA
BRANCH  32  34
ATOM     34  C   UNL A   1      36.918  29.958  28.411  1.00  0.00     0.060 A 
ATOM     35  C   UNL A   1      37.020  29.170  29.568  1.00  0.00     0.016 A 
ATOM     36  C   UNL A   1      37.976  30.026  27.510  1.00  0.00     0.016 A 
ATOM     37  C   UNL A   1      38.106  28.300  29.716  1.00  0.00     0.010 A 
ATOM     38  C   UNL A   1      38.980  29.092  27.594  1.00  0.00     0.010 A 
ATOM     39  C   UNL A   1      39.043  28.214  28.683  1.00  0.00    -0.014 A 
BRANCH  39  40
ATOM     40  C   UNL A   1      40.297  27.479  28.766  1.00  0.00     0.031 A 
ATOM     41  C   UNL A   1      40.508  26.077  28.351  1.00  0.00     0.074 A 
ATOM     42  C   UNL A   1      41.318  28.279  29.126  1.00  0.00     0.049 A 
ATOM     43  N   UNL A   1      41.360  25.283  28.913  1.00  0.00    -0.248 NA
ATOM     44  C   UNL A   1      39.765  25.431  27.275  1.00  0.00     0.031 C 
ATOM     45  C   UNL A   1      42.746  28.064  29.037  1.00  0.00     0.029 A 
ATOM     46  N   UNL A   1      41.183  29.503  29.800  1.00  0.00    -0.354 N 
ATOM     47  C   UNL A   1      41.462  24.161  28.111  1.00  0.00     0.074 A 
ATOM     48  C   UNL A   1      40.339  24.223  27.211  1.00  0.00     0.031 C 
ATOM     49  C   UNL A   1      43.351  28.939  29.863  1.00  0.00     0.029 A 
ATOM     50  C   UNL A   1      42.302  29.611  30.625  1.00  0.00     0.049 A 
ATOM     51  H   UNL A   1      40.448  30.152  29.708  1.00  0.00     0.167 HD
ATOM     52  C   UNL A   1      42.603  23.410  28.113  1.00  0.00     0.037 A 
ATOM     53  C   UNL A   1      42.133  29.544  31.978  1.00  0.00     0.037 A 
ATOM     54  C   UNL A   1      43.617  24.059  28.924  1.00  0.00     0.049 A 
ATOM     55  C   UNL A   1      42.912  28.398  32.557  1.00  0.00     0.074 A 
ATOM     56  C   UNL A   1      44.595  24.971  28.566  1.00  0.00     0.029 A 
ATOM     57  N   UNL A   1      43.489  24.119  30.303  1.00  0.00    -0.354 N 
ATOM     58  N   UNL A   1      43.067  27.248  31.962  1.00  0.00    -0.248 NA
ATOM     59  C   UNL A   1      43.642  28.502  33.813  1.00  0.00     0.031 C 
ATOM     60  C   UNL A   1      45.032  25.623  29.738  1.00  0.00     0.029 A 
ATOM     61  C   UNL A   1      44.334  25.089  30.806  1.00  0.00     0.049 A 
ATOM     62  H   UNL A   1      42.888  23.557  30.842  1.00  0.00     0.167 HD
ATOM     63  C   UNL A   1      43.975  26.507  32.676  1.00  0.00     0.074 A 
ATOM     64  C   UNL A   1      44.279  27.319  33.839  1.00  0.00     0.031 C 
ATOM     65  C   UNL A   1      44.461  25.311  32.230  1.00  0.00     0.037 A 
BRANCH  52  66
ATOM     66  C   UNL A   1      42.926  22.335  27.099  1.00  0.00     0.064 A 
ATOM     67  C   UNL A   1      42.262  21.086  27.118  1.00  0.00     0.173 A 
ATOM     68  C   UNL A   1      43.882  22.483  26.078  1.00  0.00     0.173 A 
ATOM     69  F   UNL A   1      41.268  20.830  27.977  1.00  0.00    -0.203 F 
ATOM     70  C   UNL A   1      42.596  20.041  26.255  1.00  0.00     0.198 A 
ATOM     71  C   UNL A   1      44.236  21.425  25.229  1.00  0.00     0.198 A 
ATOM     72  F   UNL A   1      44.480  23.665  25.866  1.00  0.00    -0.203 F 
ATOM     73  F   UNL A   1      41.942  18.873  26.342  1.00  0.00    -0.200 F 
ATOM     74  C   UNL A   1      43.601  20.200  25.327  1.00  0.00     0.200 A 
ATOM     75  F   UNL A   1      45.200  21.596  24.312  1.00  0.00    -0.200 F 
ATOM     76  F   UNL A   1      43.945  19.186  24.522  1.00  0.00    -0.200 F 
ENDBRANCH  52  66
BRANCH  53  77
ATOM     77  C   UNL A   1      40.790  30.004  32.458  1.00  0.00     0.064 A 
ATOM     78  C   UNL A   1      40.447  31.367  32.314  1.00  0.00     0.173 A 
ATOM     79  C   UNL A   1      39.747  29.119  32.761  1.00  0.00     0.173 A 
ATOM     80  F   UNL A   1      41.397  32.269  32.018  1.00  0.00    -0.203 F 
ATOM     81  C   UNL A   1      39.123  31.802  32.365  1.00  0.00     0.198 A 
ATOM     82  C   UNL A   1      38.421  29.563  32.831  1.00  0.00     0.198 A 
ATOM     83  F   UNL A   1      39.986  27.810  32.913  1.00  0.00    -0.203 F 
ATOM     84  F   UNL A   1      38.830  33.087  32.115  1.00  0.00    -0.200 F 
ATOM     85  C   UNL A   1      38.108  30.896  32.606  1.00  0.00     0.200 A 
ATOM     86  F   UNL A   1      37.431  28.683  33.042  1.00  0.00    -0.200 F 
ATOM     87  F   UNL A   1      36.827  31.296  32.585  1.00  0.00    -0.200 F 
ENDBRANCH  53  77
BRANCH  65  88
ATOM     88  C   UNL A   1      45.237  24.299  33.033  1.00  0.00     0.064 A 
ATOM     89  C   UNL A   1      46.533  24.528  33.517  1.00  0.00     0.173 A 
ATOM     90  C   UNL A   1      44.612  23.114  33.499  1.00  0.00     0.173 A 
ATOM     91  F   UNL A   1      47.190  25.664  33.248  1.00  0.00    -0.203 F 
ATOM     92  C   UNL A   1      47.177  23.616  34.355  1.00  0.00     0.198 A 
ATOM     93  C   UNL A   1      45.233  22.241  34.387  1.00  0.00     0.198 A 
ATOM     94  F   UNL A   1      43.364  22.779  33.138  1.00  0.00    -0.203 F 
ATOM     95  F   UNL A   1      48.432  23.862  34.756  1.00  0.00    -0.200 F 
ATOM     96  C   UNL A   1      46.523  22.483  34.803  1.00  0.00     0.200 A 
ATOM     97  F   UNL A   1      44.562  21.178  34.854  1.00  0.00    -0.200 F 
ATOM     98  F   UNL A   1      47.127  21.643  35.653  1.00  0.00    -0.200 F 
ENDBRANCH  65  88
ENDBRANCH  39  40
ENDBRANCH  32  34
ENDBRANCH  31  32
ENDBRANCH  30  31
ENDBRANCH   1  30
TORSDOF 13
ENDMDL
MODEL 2
REMARK VINA RESULT:     -15.6      3.822     10.352
REMARK SMILES Cc1ccc([C@@]23C[C@@H]4C[C@@H](C[C@@](C(=O)N5CCC(C(=O)OCCOC(=O)c6ccc(-c7c8nc(c(-c9c(F)c(F)c(F)c(F)c9F)c9ccc([nH]9)c(-c9c(F)c(F)c(F)c(F)c9F)c9nc(c(-c%10c(F)c(F)c(F)c(F)c%10F)c%10ccc7[nH]%10)C=C9)C=C8)cc6)CC5)(C4)C2)C3)cc1
REMARK SMILES IDX 22 1 21 2 19 3 20 4 18 5 13 6 14 7 15 8 16 9 91 10 17 11
REMARK SMILES IDX 90 12 12 13 6 14 7 15 93 16 94 17 8 18 10 19 9 20 92 21
REMARK SMILES IDX 11 22 5 23 1 24 2 25 3 26 96 27 4 28 95 29 23 30 24 31 25 32
REMARK SMILES IDX 26 33 27 34 28 35 89 36 29 37 88 38 30 39 31 40 32 41 82 42
REMARK SMILES IDX 33 43 87 44 81 45 83 46 34 47 86 48 80 49 79 50 35 52 67 53
REMARK SMILES IDX 47 54 66 55 48 56 51 57 65 58 84 59 49 60 50 61 64 63 85 64
REMARK SMILES IDX 52 65 36 66 37 67 45 68 38 69 39 70 43 71 46 72 40 73 41 74
REMARK SMILES IDX 44 75 42 76 68 77 69 78 77 79 70 80 71 81 75 82 78 83 72 84
REMARK SMILES IDX 73 85 76 86 74 87 53 88 54 89 62 90 55 91 56 92 60 93 63 94
REMARK SMILES IDX 57 95 58 96 61 97 59 98
REMARK H PARENT 83 51 51 62
REMARK Flexibility Score: inf
ROOT
ATOM      1  C   UNL A   1      36.552  22.257  24.420  1.00  0.00     0.274 C 
ENDROOT
BRANCH   1   2
ATOM      2  O   UNL A   1      35.162  22.535  24.582  1.00  0.00    -0.462 OA
BRANCH   2   3
ATOM      3  C   UNL A   1      34.419  21.458  24.960  1.00  0.00     0.309 C 
ATOM      4  O   UNL A   1      34.655  20.307  24.615  1.00  0.00    -0.252 OA
BRANCH   3   5
ATOM      5  C   UNL A   1      33.272  21.903  25.842  1.00  0.00     0.103 C 
ATOM      6  C   UNL A   1      31.345  24.987  24.982  1.00  0.00     0.228 C 
ATOM      7  O   UNL A   1      30.753  24.722  23.932  1.00  0.00    -0.274 OA
ATOM      8  N   UNL A   1      31.457  24.034  26.001  1.00  0.00    -0.342 N 
ATOM      9  C   UNL A   1      30.863  22.734  25.760  1.00  0.00     0.120 C 
ATOM     10  C   UNL A   1      32.488  23.972  27.034  1.00  0.00     0.120 C 
ATOM     11  C   UNL A   1      31.923  21.877  25.091  1.00  0.00     0.037 C 
ATOM     12  C   UNL A   1      33.680  23.241  26.449  1.00  0.00     0.037 C 
BRANCH   6  13
ATOM     13  C   UNL A   1      31.909  26.398  25.209  1.00  0.00     0.051 C 
ATOM     14  C   UNL A   1      31.472  28.815  24.479  1.00  0.00    -0.003 C 
ATOM     15  C   UNL A   1      31.411  29.163  25.997  1.00  0.00     0.015 C 
ATOM     16  C   UNL A   1      31.088  27.336  24.321  1.00  0.00     0.028 C 
ATOM     17  C   UNL A   1      32.945  28.932  24.010  1.00  0.00     0.015 C 
ATOM     18  C   UNL A   1      32.371  28.283  26.822  1.00  0.00    -0.009 C 
ATOM     19  C   UNL A   1      33.857  27.988  24.830  1.00  0.00    -0.009 C 
ATOM     20  C   UNL A   1      33.804  28.413  26.305  1.00  0.00     0.007 C 
ATOM     21  C   UNL A   1      31.931  26.827  26.689  1.00  0.00     0.020 C 
ATOM     22  C   UNL A   1      33.375  26.524  24.706  1.00  0.00     0.020 C 
BRANCH  14  23
ATOM     23  C   UNL A   1      30.507  29.698  23.667  1.00  0.00    -0.042 A 
ATOM     24  C   UNL A   1      27.992  32.355  21.331  1.00  0.00     0.044 C 
ATOM     25  C   UNL A   1      28.850  31.418  22.124  1.00  0.00    -0.051 A 
ATOM     26  C   UNL A   1      28.979  31.612  23.496  1.00  0.00     0.004 A 
ATOM     27  C   UNL A   1      29.534  30.356  21.527  1.00  0.00     0.004 A 
ATOM     28  C   UNL A   1      29.783  30.759  24.251  1.00  0.00     0.004 A 
ATOM     29  C   UNL A   1      30.348  29.505  22.288  1.00  0.00     0.004 A 
ENDBRANCH  14  23
ENDBRANCH   6  13
ENDBRANCH   3   5
ENDBRANCH   2   3
ENDBRANCH   1   2
BRANCH   1  30
ATOM     30  C   UNL A   1      37.303  22.420  25.750  1.00  0.00     0.275 C 
BRANCH  30  31
ATOM     31  O   UNL A   1      38.081  23.619  26.041  1.00  0.00    -0.458 OA
BRANCH  31  32
ATOM     32  C   UNL A   1      39.290  23.590  26.657  1.00  0.00     0.338 C 
ATOM     33  O   UNL A   1      39.985  22.594  26.762  1.00  0.00    -0.246 OA
BRANCH  32  34
ATOM     34  C   UNL A   1      39.643  24.895  27.268  1.00  0.00     0.060 A 
ATOM     35  C   UNL A   1      40.114  25.944  26.465  1.00  0.00     0.016 A 
ATOM     36  C   UNL A   1      39.291  25.127  28.594  1.00  0.00     0.016 A 
ATOM     37  C   UNL A   1      40.044  27.259  26.937  1.00  0.00     0.010 A 
ATOM     38  C   UNL A   1      39.112  26.421  29.016  1.00  0.00     0.010 A 
ATOM     39  C   UNL A   1      39.469  27.494  28.188  1.00  0.00    -0.014 A 
BRANCH  39  40
ATOM     40  C   UNL A   1      39.473  28.779  28.872  1.00  0.00     0.031 A 
ATOM     41  C   UNL A   1      38.418  29.809  28.786  1.00  0.00     0.074 A 
ATOM     42  C   UNL A   1      40.496  28.874  29.741  1.00  0.00     0.049 A 
ATOM     43  N   UNL A   1      38.645  31.078  28.881  1.00  0.00    -0.248 NA
ATOM     44  C   UNL A   1      37.008  29.507  28.564  1.00  0.00     0.031 C 
ATOM     45  C   UNL A   1      40.713  29.808  30.825  1.00  0.00     0.029 A 
ATOM     46  N   UNL A   1      41.672  28.110  29.688  1.00  0.00    -0.354 N 
ATOM     47  C   UNL A   1      37.418  31.704  29.011  1.00  0.00     0.074 A 
ATOM     48  C   UNL A   1      36.438  30.716  28.639  1.00  0.00     0.031 C 
ATOM     49  C   UNL A   1      42.019  29.774  31.149  1.00  0.00     0.029 A 
ATOM     50  C   UNL A   1      42.690  28.942  30.154  1.00  0.00     0.049 A 
ATOM     51  H   UNL A   1      41.760  27.177  29.384  1.00  0.00     0.167 HD
ATOM     52  C   UNL A   1      37.319  32.910  29.644  1.00  0.00     0.037 A 
ATOM     53  C   UNL A   1      43.650  29.363  29.279  1.00  0.00     0.037 A 
ATOM     54  C   UNL A   1      38.603  33.271  30.217  1.00  0.00     0.049 A 
ATOM     55  C   UNL A   1      43.670  30.863  29.191  1.00  0.00     0.074 A 
ATOM     56  C   UNL A   1      39.122  33.010  31.474  1.00  0.00     0.029 A 
ATOM     57  N   UNL A   1      39.666  33.629  29.403  1.00  0.00    -0.354 N 
ATOM     58  N   UNL A   1      42.602  31.610  29.242  1.00  0.00    -0.248 NA
ATOM     59  C   UNL A   1      44.907  31.628  29.123  1.00  0.00     0.031 C 
ATOM     60  C   UNL A   1      40.521  33.170  31.408  1.00  0.00     0.029 A 
ATOM     61  C   UNL A   1      40.846  33.548  30.117  1.00  0.00     0.049 A 
ATOM     62  H   UNL A   1      39.593  33.899  28.460  1.00  0.00     0.167 HD
ATOM     63  C   UNL A   1      42.993  32.924  29.319  1.00  0.00     0.074 A 
ATOM     64  C   UNL A   1      44.439  32.884  29.207  1.00  0.00     0.031 C 
ATOM     65  C   UNL A   1      42.108  33.942  29.532  1.00  0.00     0.037 A 
BRANCH  52  66
ATOM     66  C   UNL A   1      36.018  33.551  30.074  1.00  0.00     0.064 A 
ATOM     67  C   UNL A   1      35.174  34.195  29.139  1.00  0.00     0.173 A 
ATOM     68  C   UNL A   1      35.548  33.555  31.399  1.00  0.00     0.173 A 
ATOM     69  F   UNL A   1      35.447  34.199  27.829  1.00  0.00    -0.203 F 
ATOM     70  C   UNL A   1      34.013  34.873  29.514  1.00  0.00     0.198 A 
ATOM     71  C   UNL A   1      34.395  34.257  31.779  1.00  0.00     0.198 A 
ATOM     72  F   UNL A   1      36.183  32.859  32.353  1.00  0.00    -0.203 F 
ATOM     73  F   UNL A   1      33.269  35.484  28.579  1.00  0.00    -0.200 F 
ATOM     74  C   UNL A   1      33.635  34.927  30.838  1.00  0.00     0.200 A 
ATOM     75  F   UNL A   1      34.022  34.285  33.068  1.00  0.00    -0.200 F 
ATOM     76  F   UNL A   1      32.539  35.605  31.200  1.00  0.00    -0.200 F 
ENDBRANCH  52  66
BRANCH  53  77
ATOM     77  C   UNL A   1      43.899  28.429  28.135  1.00  0.00     0.064 A 
ATOM     78  C   UNL A   1      44.451  27.157  28.404  1.00  0.00     0.173 A 
ATOM     79  C   UNL A   1      43.343  28.620  26.863  1.00  0.00     0.173 A 
ATOM     80  F   UNL A   1      44.996  26.905  29.606  1.00  0.00    -0.203 F 
ATOM     81  C   UNL A   1      44.358  26.105  27.493  1.00  0.00     0.198 A 
ATOM     82  C   UNL A   1      43.268  27.566  25.943  1.00  0.00     0.198 A 
ATOM     83  F   UNL A   1      42.796  29.795  26.527  1.00  0.00    -0.203 F 
ATOM     84  F   UNL A   1      44.798  24.885  27.831  1.00  0.00    -0.200 F 
ATOM     85  C   UNL A   1      43.750  26.307  26.268  1.00  0.00     0.200 A 
ATOM     86  F   UNL A   1      42.659  27.752  24.763  1.00  0.00    -0.200 F 
ATOM     87  F   UNL A   1      43.593  25.282  25.417  1.00  0.00    -0.200 F 
ENDBRANCH  53  77
BRANCH  65  88
ATOM     88  C   UNL A   1      42.377  35.416  29.368  1.00  0.00     0.064 A 
ATOM     89  C   UNL A   1      43.220  36.147  30.216  1.00  0.00     0.173 A 
ATOM     90  C   UNL A   1      41.921  36.109  28.216  1.00  0.00     0.173 A 
ATOM     91  F   UNL A   1      43.812  35.576  31.274  1.00  0.00    -0.203 F 
ATOM     92  C   UNL A   1      43.538  37.483  29.966  1.00  0.00     0.198 A 
ATOM     93  C   UNL A   1      42.294  37.420  27.936  1.00  0.00     0.198 A 
ATOM     94  F   UNL A   1      41.127  35.527  27.304  1.00  0.00    -0.203 F 
ATOM     95  F   UNL A   1      44.315  38.149  30.831  1.00  0.00    -0.200 F 
ATOM     96  C   UNL A   1      43.090  38.114  28.820  1.00  0.00     0.200 A 
ATOM     97  F   UNL A   1      41.896  37.995  26.792  1.00  0.00    -0.200 F 
ATOM     98  F   UNL A   1      43.447  39.377  28.558  1.00  0.00    -0.200 F 
ENDBRANCH  65  88
ENDBRANCH  39  40
ENDBRANCH  32  34
ENDBRANCH  31  32
ENDBRANCH  30  31
ENDBRANCH   1  30
TORSDOF 13
ENDMDL
MODEL 3
REMARK VINA RESULT:     -15.4      3.931     10.258
REMARK SMILES Cc1ccc([C@@]23C[C@@H]4C[C@@H](C[C@@](C(=O)N5CCC(C(=O)OCCOC(=O)c6ccc(-c7c8nc(c(-c9c(F)c(F)c(F)c(F)c9F)c9ccc([nH]9)c(-c9c(F)c(F)c(F)c(F)c9F)c9nc(c(-c%10c(F)c(F)c(F)c(F)c%10F)c%10ccc7[nH]%10)C=C9)C=C8)cc6)CC5)(C4)C2)C3)cc1
REMARK SMILES IDX 22 1 21 2 19 3 20 4 18 5 13 6 14 7 15 8 16 9 91 10 17 11
REMARK SMILES IDX 90 12 12 13 6 14 7 15 93 16 94 17 8 18 10 19 9 20 92 21
REMARK SMILES IDX 11 22 5 23 1 24 2 25 3 26 96 27 4 28 95 29 23 30 24 31 25 32
REMARK SMILES IDX 26 33 27 34 28 35 89 36 29 37 88 38 30 39 31 40 32 41 82 42
REMARK SMILES IDX 33 43 87 44 81 45 83 46 34 47 86 48 80 49 79 50 35 52 67 53
REMARK SMILES IDX 47 54 66 55 48 56 51 57 65 58 84 59 49 60 50 61 64 63 85 64
REMARK SMILES IDX 52 65 36 66 37 67 45 68 38 69 39 70 43 71 46 72 40 73 41 74
REMARK SMILES IDX 44 75 42 76 68 77 69 78 77 79 70 80 71 81 75 82 78 83 72 84
REMARK SMILES IDX 73 85 76 86 74 87 53 88 54 89 62 90 55 91 56 92 60 93 63 94
REMARK SMILES IDX 57 95 58 96 61 97 59 98
REMARK H PARENT 83 51 51 62
REMARK Flexibility Score: inf
ROOT
ATOM      1  C   UNL A   1      38.122  20.963  25.184  1.00  0.00     0.274 C 
ENDROOT
BRANCH   1   2
ATOM      2  O   UNL A   1      36.966  21.778  24.997  1.00  0.00    -0.462 OA
BRANCH   2   3
ATOM      3  C   UNL A   1      35.800  21.185  25.375  1.00  0.00     0.309 C 
ATOM      4  O   UNL A   1      35.419  20.097  24.963  1.00  0.00    -0.252 OA
BRANCH   3   5
ATOM      5  C   UNL A   1      35.060  22.074  26.351  1.00  0.00     0.103 C 
ATOM      6  C   UNL A   1      31.896  23.768  25.305  1.00  0.00     0.228 C 
ATOM      7  O   UNL A   1      31.078  22.859  25.137  1.00  0.00    -0.274 OA
ATOM      8  N   UNL A   1      32.797  23.730  26.376  1.00  0.00    -0.342 N 
ATOM      9  C   UNL A   1      32.731  22.582  27.258  1.00  0.00     0.120 C 
ATOM     10  C   UNL A   1      34.097  24.394  26.451  1.00  0.00     0.120 C 
ATOM     11  C   UNL A   1      33.655  21.524  26.681  1.00  0.00     0.037 C 
ATOM     12  C   UNL A   1      35.113  23.489  25.784  1.00  0.00     0.037 C 
BRANCH   6  13
ATOM     13  C   UNL A   1      31.888  24.988  24.373  1.00  0.00     0.051 C 
ATOM     14  C   UNL A   1      32.290  27.517  24.467  1.00  0.00    -0.003 C 
ATOM     15  C   UNL A   1      33.320  27.302  23.317  1.00  0.00     0.015 C 
ATOM     16  C   UNL A   1      32.185  26.203  25.256  1.00  0.00     0.028 C 
ATOM     17  C   UNL A   1      30.894  27.755  23.833  1.00  0.00     0.015 C 
ATOM     18  C   UNL A   1      32.891  26.160  22.374  1.00  0.00    -0.009 C 
ATOM     19  C   UNL A   1      30.486  26.556  22.943  1.00  0.00    -0.009 C 
ATOM     20  C   UNL A   1      31.500  26.427  21.798  1.00  0.00     0.007 C 
ATOM     21  C   UNL A   1      32.849  24.860  23.174  1.00  0.00     0.020 C 
ATOM     22  C   UNL A   1      30.480  25.247  23.766  1.00  0.00     0.020 C 
BRANCH  14  23
ATOM     23  C   UNL A   1      32.731  28.657  25.402  1.00  0.00    -0.042 A 
ATOM     24  C   UNL A   1      33.860  31.740  28.241  1.00  0.00     0.044 C 
ATOM     25  C   UNL A   1      33.494  30.677  27.253  1.00  0.00    -0.051 A 
ATOM     26  C   UNL A   1      32.277  30.761  26.583  1.00  0.00     0.004 A 
ATOM     27  C   UNL A   1      34.336  29.595  26.984  1.00  0.00     0.004 A 
ATOM     28  C   UNL A   1      31.912  29.775  25.668  1.00  0.00     0.004 A 
ATOM     29  C   UNL A   1      33.962  28.601  26.069  1.00  0.00     0.004 A 
ENDBRANCH  14  23
ENDBRANCH   6  13
ENDBRANCH   3   5
ENDBRANCH   2   3
ENDBRANCH   1   2
BRANCH   1  30
ATOM     30  C   UNL A   1      39.157  21.674  26.071  1.00  0.00     0.275 C 
BRANCH  30  31
ATOM     31  O   UNL A   1      39.074  23.106  26.336  1.00  0.00    -0.458 OA
BRANCH  31  32
ATOM     32  C   UNL A   1      40.164  23.891  26.531  1.00  0.00     0.338 C 
ATOM     33  O   UNL A   1      41.302  23.575  26.230  1.00  0.00    -0.246 OA
BRANCH  32  34
ATOM     34  C   UNL A   1      39.830  25.155  27.231  1.00  0.00     0.060 A 
ATOM     35  C   UNL A   1      39.347  25.125  28.548  1.00  0.00     0.016 A 
ATOM     36  C   UNL A   1      40.211  26.360  26.649  1.00  0.00     0.016 A 
ATOM     37  C   UNL A   1      39.433  26.275  29.341  1.00  0.00     0.010 A 
ATOM     38  C   UNL A   1      40.405  27.454  27.455  1.00  0.00     0.010 A 
ATOM     39  C   UNL A   1      40.036  27.416  28.806  1.00  0.00    -0.014 A 
BRANCH  39  40
ATOM     40  C   UNL A   1      40.053  28.721  29.451  1.00  0.00     0.031 A 
ATOM     41  C   UNL A   1      38.920  29.666  29.522  1.00  0.00     0.074 A 
ATOM     42  C   UNL A   1      41.196  28.922  30.134  1.00  0.00     0.049 A 
ATOM     43  N   UNL A   1      39.059  30.951  29.550  1.00  0.00    -0.248 NA
ATOM     44  C   UNL A   1      37.522  29.253  29.547  1.00  0.00     0.031 C 
ATOM     45  C   UNL A   1      41.515  29.906  31.145  1.00  0.00     0.029 A 
ATOM     46  N   UNL A   1      42.403  28.245  29.900  1.00  0.00    -0.354 N 
ATOM     47  C   UNL A   1      37.825  31.488  29.870  1.00  0.00     0.074 A 
ATOM     48  C   UNL A   1      36.878  30.418  29.690  1.00  0.00     0.031 C 
ATOM     49  C   UNL A   1      42.856  29.981  31.245  1.00  0.00     0.029 A 
ATOM     50  C   UNL A   1      43.415  29.166  30.169  1.00  0.00     0.049 A 
ATOM     51  H   UNL A   1      42.513  27.312  29.606  1.00  0.00     0.167 HD
ATOM     52  C   UNL A   1      37.738  32.704  30.484  1.00  0.00     0.037 A 
ATOM     53  C   UNL A   1      44.180  29.627  29.136  1.00  0.00     0.037 A 
ATOM     54  C   UNL A   1      39.067  33.180  30.825  1.00  0.00     0.049 A 
ATOM     55  C   UNL A   1      44.066  31.120  29.013  1.00  0.00     0.074 A 
ATOM     56  C   UNL A   1      39.806  33.002  31.982  1.00  0.00     0.029 A 
ATOM     57  N   UNL A   1      39.949  33.587  29.836  1.00  0.00    -0.354 N 
ATOM     58  N   UNL A   1      42.967  31.787  29.227  1.00  0.00    -0.248 NA
ATOM     59  C   UNL A   1      45.211  31.972  28.721  1.00  0.00     0.031 C 
ATOM     60  C   UNL A   1      41.159  33.263  31.678  1.00  0.00     0.029 A 
ATOM     61  C   UNL A   1      41.233  33.618  30.343  1.00  0.00     0.049 A 
ATOM     62  H   UNL A   1      39.698  33.818  28.914  1.00  0.00     0.167 HD
ATOM     63  C   UNL A   1      43.259  33.128  29.208  1.00  0.00     0.074 A 
ATOM     64  C   UNL A   1      44.666  33.192  28.855  1.00  0.00     0.031 C 
ATOM     65  C   UNL A   1      42.345  34.085  29.545  1.00  0.00     0.037 A 
BRANCH  52  66
ATOM     66  C   UNL A   1      36.480  33.262  31.113  1.00  0.00     0.064 A 
ATOM     67  C   UNL A   1      35.593  34.082  30.377  1.00  0.00     0.173 A 
ATOM     68  C   UNL A   1      36.094  33.015  32.443  1.00  0.00     0.173 A 
ATOM     69  F   UNL A   1      35.784  34.334  29.076  1.00  0.00    -0.203 F 
ATOM     70  C   UNL A   1      34.472  34.684  30.949  1.00  0.00     0.198 A 
ATOM     71  C   UNL A   1      34.982  33.641  33.025  1.00  0.00     0.198 A 
ATOM     72  F   UNL A   1      36.773  32.143  33.202  1.00  0.00    -0.203 F 
ATOM     73  F   UNL A   1      33.684  35.470  30.200  1.00  0.00    -0.200 F 
ATOM     74  C   UNL A   1      34.179  34.486  32.280  1.00  0.00     0.200 A 
ATOM     75  F   UNL A   1      34.691  33.423  34.316  1.00  0.00    -0.200 F 
ATOM     76  F   UNL A   1      33.122  35.091  32.837  1.00  0.00    -0.200 F 
ENDBRANCH  52  66
BRANCH  53  77
ATOM     77  C   UNL A   1      44.309  28.674  27.987  1.00  0.00     0.064 A 
ATOM     78  C   UNL A   1      44.952  27.435  28.200  1.00  0.00     0.173 A 
ATOM     79  C   UNL A   1      43.570  28.807  26.804  1.00  0.00     0.173 A 
ATOM     80  F   UNL A   1      45.673  27.239  29.317  1.00  0.00    -0.203 F 
ATOM     81  C   UNL A   1      44.780  26.357  27.333  1.00  0.00     0.198 A 
ATOM     82  C   UNL A   1      43.415  27.727  25.925  1.00  0.00     0.198 A 
ATOM     83  F   UNL A   1      42.927  29.948  26.525  1.00  0.00    -0.203 F 
ATOM     84  F   UNL A   1      45.321  25.166  27.629  1.00  0.00    -0.200 F 
ATOM     85  C   UNL A   1      43.997  26.499  26.203  1.00  0.00     0.200 A 
ATOM     86  F   UNL A   1      42.637  27.855  24.840  1.00  0.00    -0.200 F 
ATOM     87  F   UNL A   1      43.769  25.446  25.404  1.00  0.00    -0.200 F 
ENDBRANCH  53  77
BRANCH  65  88
ATOM     88  C   UNL A   1      42.465  35.568  29.305  1.00  0.00     0.064 A 
ATOM     89  C   UNL A   1      43.295  36.407  30.061  1.00  0.00     0.173 A 
ATOM     90  C   UNL A   1      41.869  36.166  28.165  1.00  0.00     0.173 A 
ATOM     91  F   UNL A   1      44.008  35.939  31.094  1.00  0.00    -0.203 F 
ATOM     92  C   UNL A   1      43.471  37.754  29.739  1.00  0.00     0.198 A 
ATOM     93  C   UNL A   1      42.100  37.491  27.809  1.00  0.00     0.198 A 
ATOM     94  F   UNL A   1      41.071  35.476  27.335  1.00  0.00    -0.203 F 
ATOM     95  F   UNL A   1      44.242  38.524  30.519  1.00  0.00    -0.200 F 
ATOM     96  C   UNL A   1      42.888  38.291  28.605  1.00  0.00     0.200 A 
ATOM     97  F   UNL A   1      41.573  37.977  26.676  1.00  0.00    -0.200 F 
ATOM     98  F   UNL A   1      43.109  39.569  28.270  1.00  0.00    -0.200 F 
ENDBRANCH  65  88
ENDBRANCH  39  40
ENDBRANCH  32  34
ENDBRANCH  31  32
ENDBRANCH  30  31
ENDBRANCH   1  30
TORSDOF 13
ENDMDL
