MODEL 1
REMARK VINA RESULT:     -13.2      0.000      0.000
REMARK SMILES C[C@H]1CCCC[C@H]1[N@H+]1[C@@H](C(=O)OCCOC(=O)c2ccc(-c3c4nc(c(-c5c(F)c(F)c(F)c(F)c5F)c5ccc([nH]5)c(-c5c(F)c(F)c(F)c(F)c5F)c5nc(c(-c6c(F)c(F)c(F)c(F)c6F)c6ccc3[nH]6)C=C5)C=C4)cc2)CC[C@H]2CCCC[C@H]21
REMARK SMILES IDX 14 1 13 2 12 3 10 4 11 5 9 6 8 7 88 8 81 10 83 11 87 12
REMARK SMILES IDX 82 13 84 14 86 15 85 16 7 17 1 18 2 19 3 20 4 21 6 22 5 23
REMARK SMILES IDX 15 24 16 25 17 26 18 27 19 28 80 29 20 30 79 31 21 32 22 33
REMARK SMILES IDX 23 34 73 35 24 36 78 37 72 38 74 39 25 40 77 41 71 42 70 43
REMARK SMILES IDX 26 45 58 46 38 47 57 48 39 49 42 50 56 51 75 52 40 53 41 54
REMARK SMILES IDX 55 56 76 57 43 58 27 59 28 60 36 61 29 62 30 63 34 64 37 65
REMARK SMILES IDX 31 66 32 67 35 68 33 69 59 70 60 71 68 72 61 73 62 74 66 75
REMARK SMILES IDX 69 76 63 77 64 78 67 79 65 80 44 81 45 82 53 83 46 84 47 85
REMARK SMILES IDX 51 86 54 87 48 88 49 89 52 90 50 91
REMARK H PARENT 8 9 74 44 42 55
REMARK Flexibility Score: inf
ROOT
ATOM      1  C   UNL A   1      31.778  30.376  25.813  1.00  0.00     0.275 C 
ENDROOT
BRANCH   1   2
ATOM      2  C   UNL A   1      31.409  28.895  25.514  1.00  0.00     0.274 C 
BRANCH   2   3
ATOM      3  O   UNL A   1      32.422  27.872  25.798  1.00  0.00    -0.458 OA
BRANCH   3   4
ATOM      4  C   UNL A   1      31.988  26.632  26.165  1.00  0.00     0.365 C 
ATOM      5  O   UNL A   1      30.871  26.459  26.657  1.00  0.00    -0.245 OA
BRANCH   4   6
ATOM      6  C   UNL A   1      33.024  25.466  26.121  1.00  0.00     0.295 C 
ATOM      7  N   UNL A   1      33.991  25.235  24.995  1.00  0.00    -0.318 N 
ATOM      8  C   UNL A   1      34.943  24.049  25.641  1.00  0.00     0.188 C 
ATOM      9  H   UNL A   1      34.586  26.006  24.691  1.00  0.00     0.349 HD
ATOM     10  C   UNL A   1      32.409  24.090  26.454  1.00  0.00     0.078 C 
ATOM     11  C   UNL A   1      34.438  22.840  24.940  1.00  0.00     0.048 C 
ATOM     12  C   UNL A   1      36.479  23.703  25.850  1.00  0.00     0.065 C 
ATOM     13  C   UNL A   1      33.016  22.818  25.700  1.00  0.00     0.016 C 
ATOM     14  C   UNL A   1      35.203  23.189  23.540  1.00  0.00     0.010 C 
ATOM     15  C   UNL A   1      37.286  22.877  24.813  1.00  0.00     0.006 C 
ATOM     16  C   UNL A   1      36.644  22.736  23.456  1.00  0.00     0.001 C 
BRANCH   7  17
ATOM     17  C   UNL A   1      33.186  24.967  23.609  1.00  0.00     0.187 C 
ATOM     18  C   UNL A   1      30.653  23.564  23.501  1.00  0.00     0.014 C 
ATOM     19  C   UNL A   1      31.610  24.739  23.162  1.00  0.00     0.044 C 
ATOM     20  C   UNL A   1      30.800  26.014  23.128  1.00  0.00     0.009 C 
ATOM     21  C   UNL A   1      31.543  27.116  22.432  1.00  0.00     0.001 C 
ATOM     22  C   UNL A   1      33.782  25.780  22.434  1.00  0.00     0.065 C 
ATOM     23  C   UNL A   1      32.920  26.879  21.861  1.00  0.00     0.006 C 
ENDBRANCH   7  17
ENDBRANCH   4   6
ENDBRANCH   3   4
ENDBRANCH   2   3
ENDBRANCH   1   2
BRANCH   1  24
ATOM     24  O   UNL A   1      32.521  30.493  27.047  1.00  0.00    -0.458 OA
BRANCH  24  25
ATOM     25  C   UNL A   1      33.240  31.624  27.271  1.00  0.00     0.338 C 
ATOM     26  O   UNL A   1      32.775  32.768  27.329  1.00  0.00    -0.246 OA
BRANCH  25  27
ATOM     27  C   UNL A   1      34.655  31.286  27.646  1.00  0.00     0.060 A 
ATOM     28  C   UNL A   1      34.993  29.969  27.957  1.00  0.00     0.016 A 
ATOM     29  C   UNL A   1      35.574  32.299  27.975  1.00  0.00     0.016 A 
ATOM     30  C   UNL A   1      36.115  29.701  28.752  1.00  0.00     0.010 A 
ATOM     31  C   UNL A   1      36.784  31.992  28.645  1.00  0.00     0.010 A 
ATOM     32  C   UNL A   1      37.069  30.685  29.073  1.00  0.00    -0.014 A 
BRANCH  32  33
ATOM     33  C   UNL A   1      38.348  30.322  29.791  1.00  0.00     0.031 A 
ATOM     34  C   UNL A   1      39.402  29.407  29.192  1.00  0.00     0.074 A 
ATOM     35  C   UNL A   1      38.591  30.810  31.030  1.00  0.00     0.049 A 
ATOM     36  N   UNL A   1      40.404  28.788  29.780  1.00  0.00    -0.248 NA
ATOM     37  C   UNL A   1      39.335  29.166  27.745  1.00  0.00     0.031 C 
ATOM     38  C   UNL A   1      37.754  31.770  31.751  1.00  0.00     0.029 A 
ATOM     39  N   UNL A   1      39.620  30.559  31.913  1.00  0.00    -0.354 N 
ATOM     40  C   UNL A   1      41.043  28.041  28.793  1.00  0.00     0.074 A 
ATOM     41  C   UNL A   1      40.335  28.311  27.558  1.00  0.00     0.031 C 
ATOM     42  C   UNL A   1      38.322  32.071  32.922  1.00  0.00     0.029 A 
ATOM     43  C   UNL A   1      39.466  31.197  33.121  1.00  0.00     0.049 A 
ATOM     44  H   UNL A   1      40.388  29.981  31.699  1.00  0.00     0.167 HD
ATOM     45  C   UNL A   1      42.101  27.193  28.910  1.00  0.00     0.037 A 
ATOM     46  C   UNL A   1      40.088  31.047  34.305  1.00  0.00     0.037 A 
ATOM     47  C   UNL A   1      42.829  26.946  30.135  1.00  0.00     0.049 A 
ATOM     48  C   UNL A   1      41.162  30.017  34.453  1.00  0.00     0.074 A 
ATOM     49  C   UNL A   1      43.902  26.094  30.352  1.00  0.00     0.029 A 
ATOM     50  N   UNL A   1      42.565  27.555  31.353  1.00  0.00    -0.354 N 
ATOM     51  N   UNL A   1      41.674  29.223  33.549  1.00  0.00    -0.248 NA
ATOM     52  C   UNL A   1      41.723  29.845  35.799  1.00  0.00     0.031 C 
ATOM     53  C   UNL A   1      44.248  26.145  31.708  1.00  0.00     0.029 A 
ATOM     54  C   UNL A   1      43.437  27.079  32.326  1.00  0.00     0.049 A 
ATOM     55  H   UNL A   1      41.861  28.226  31.508  1.00  0.00     0.167 HD
ATOM     56  C   UNL A   1      42.639  28.473  34.206  1.00  0.00     0.074 A 
ATOM     57  C   UNL A   1      42.642  28.914  35.586  1.00  0.00     0.031 C 
ATOM     58  C   UNL A   1      43.449  27.512  33.701  1.00  0.00     0.037 A 
BRANCH  45  59
ATOM     59  C   UNL A   1      42.500  26.390  27.695  1.00  0.00     0.064 A 
ATOM     60  C   UNL A   1      43.520  26.792  26.821  1.00  0.00     0.173 A 
ATOM     61  C   UNL A   1      41.867  25.162  27.429  1.00  0.00     0.173 A 
ATOM     62  F   UNL A   1      44.162  27.953  27.022  1.00  0.00    -0.203 F 
ATOM     63  C   UNL A   1      43.863  26.020  25.710  1.00  0.00     0.198 A 
ATOM     64  C   UNL A   1      42.235  24.377  26.339  1.00  0.00     0.198 A 
ATOM     65  F   UNL A   1      40.898  24.711  28.240  1.00  0.00    -0.203 F 
ATOM     66  F   UNL A   1      44.805  26.453  24.860  1.00  0.00    -0.200 F 
ATOM     67  C   UNL A   1      43.225  24.812  25.472  1.00  0.00     0.200 A 
ATOM     68  F   UNL A   1      41.631  23.199  26.127  1.00  0.00    -0.200 F 
ATOM     69  F   UNL A   1      43.557  24.072  24.405  1.00  0.00    -0.200 F 
ENDBRANCH  45  59
BRANCH  46  70
ATOM     70  C   UNL A   1      39.635  31.858  35.465  1.00  0.00     0.064 A 
ATOM     71  C   UNL A   1      40.134  33.150  35.672  1.00  0.00     0.173 A 
ATOM     72  C   UNL A   1      38.647  31.386  36.346  1.00  0.00     0.173 A 
ATOM     73  F   UNL A   1      41.098  33.630  34.875  1.00  0.00    -0.203 F 
ATOM     74  C   UNL A   1      39.649  33.946  36.708  1.00  0.00     0.198 A 
ATOM     75  C   UNL A   1      38.138  32.197  37.355  1.00  0.00     0.198 A 
ATOM     76  F   UNL A   1      38.138  30.156  36.187  1.00  0.00    -0.203 F 
ATOM     77  F   UNL A   1      40.155  35.171  36.899  1.00  0.00    -0.200 F 
ATOM     78  C   UNL A   1      38.641  33.476  37.537  1.00  0.00     0.200 A 
ATOM     79  F   UNL A   1      37.147  31.747  38.137  1.00  0.00    -0.200 F 
ATOM     80  F   UNL A   1      38.153  34.257  38.510  1.00  0.00    -0.200 F 
ENDBRANCH  46  70
BRANCH  58  81
ATOM     81  C   UNL A   1      44.462  26.919  34.636  1.00  0.00     0.064 A 
ATOM     82  C   UNL A   1      45.733  27.486  34.815  1.00  0.00     0.173 A 
ATOM     83  C   UNL A   1      44.160  25.749  35.351  1.00  0.00     0.173 A 
ATOM     84  F   UNL A   1      46.081  28.591  34.137  1.00  0.00    -0.203 F 
ATOM     85  C   UNL A   1      46.676  26.883  35.644  1.00  0.00     0.198 A 
ATOM     86  C   UNL A   1      45.095  25.167  36.203  1.00  0.00     0.198 A 
ATOM     87  F   UNL A   1      42.961  25.166  35.217  1.00  0.00    -0.203 F 
ATOM     88  F   UNL A   1      47.907  27.405  35.746  1.00  0.00    -0.200 F 
ATOM     89  C   UNL A   1      46.356  25.727  36.339  1.00  0.00     0.200 A 
ATOM     90  F   UNL A   1      44.779  24.054  36.880  1.00  0.00    -0.200 F 
ATOM     91  F   UNL A   1      47.267  25.144  37.131  1.00  0.00    -0.200 F 
ENDBRANCH  58  81
ENDBRANCH  32  33
ENDBRANCH  25  27
ENDBRANCH  24  25
ENDBRANCH   1  24
TORSDOF 12
ENDMDL
MODEL 2
REMARK VINA RESULT:     -13.2      0.253      1.160
REMARK SMILES C[C@H]1CCCC[C@H]1[N@H+]1[C@@H](C(=O)OCCOC(=O)c2ccc(-c3c4nc(c(-c5c(F)c(F)c(F)c(F)c5F)c5ccc([nH]5)c(-c5c(F)c(F)c(F)c(F)c5F)c5nc(c(-c6c(F)c(F)c(F)c(F)c6F)c6ccc3[nH]6)C=C5)C=C4)cc2)CC[C@H]2CCCC[C@H]21
REMARK SMILES IDX 14 1 13 2 12 3 10 4 11 5 9 6 8 7 88 8 81 10 83 11 87 12
REMARK SMILES IDX 82 13 84 14 86 15 85 16 7 17 1 18 2 19 3 20 4 21 6 22 5 23
REMARK SMILES IDX 15 24 16 25 17 26 18 27 19 28 80 29 20 30 79 31 21 32 22 33
REMARK SMILES IDX 23 34 73 35 24 36 78 37 72 38 74 39 25 40 77 41 71 42 70 43
REMARK SMILES IDX 26 45 58 46 38 47 57 48 39 49 42 50 56 51 75 52 40 53 41 54
REMARK SMILES IDX 55 56 76 57 43 58 27 59 28 60 36 61 29 62 30 63 34 64 37 65
REMARK SMILES IDX 31 66 32 67 35 68 33 69 59 70 60 71 68 72 61 73 62 74 66 75
REMARK SMILES IDX 69 76 63 77 64 78 67 79 65 80 44 81 45 82 53 83 46 84 47 85
REMARK SMILES IDX 51 86 54 87 48 88 49 89 52 90 50 91
REMARK H PARENT 8 9 74 44 42 55
REMARK Flexibility Score: inf
ROOT
ATOM      1  C   UNL A   1      31.609  30.323  25.736  1.00  0.00     0.275 C 
ENDROOT
BRANCH   1   2
ATOM      2  C   UNL A   1      31.412  28.837  25.321  1.00  0.00     0.274 C 
BRANCH   2   3
ATOM      3  O   UNL A   1      32.417  27.867  25.770  1.00  0.00    -0.458 OA
BRANCH   3   4
ATOM      4  C   UNL A   1      31.988  26.615  26.099  1.00  0.00     0.365 C 
ATOM      5  O   UNL A   1      30.861  26.419  26.559  1.00  0.00    -0.245 OA
BRANCH   4   6
ATOM      6  C   UNL A   1      33.039  25.461  26.057  1.00  0.00     0.295 C 
ATOM      7  N   UNL A   1      33.999  25.232  24.925  1.00  0.00    -0.318 N 
ATOM      8  C   UNL A   1      34.971  24.065  25.573  1.00  0.00     0.188 C 
ATOM      9  H   UNL A   1      34.580  26.008  24.608  1.00  0.00     0.349 HD
ATOM     10  C   UNL A   1      32.444  24.081  26.408  1.00  0.00     0.078 C 
ATOM     11  C   UNL A   1      34.476  22.843  24.888  1.00  0.00     0.048 C 
ATOM     12  C   UNL A   1      36.513  23.741  25.772  1.00  0.00     0.065 C 
ATOM     13  C   UNL A   1      33.060  22.810  25.661  1.00  0.00     0.016 C 
ATOM     14  C   UNL A   1      35.223  23.188  23.478  1.00  0.00     0.010 C 
ATOM     15  C   UNL A   1      37.322  22.915  24.735  1.00  0.00     0.006 C 
ATOM     16  C   UNL A   1      36.670  22.753  23.385  1.00  0.00     0.001 C 
BRANCH   7  17
ATOM     17  C   UNL A   1      33.184  24.941  23.548  1.00  0.00     0.187 C 
ATOM     18  C   UNL A   1      30.675  23.495  23.475  1.00  0.00     0.014 C 
ATOM     19  C   UNL A   1      31.609  24.683  23.119  1.00  0.00     0.044 C 
ATOM     20  C   UNL A   1      30.776  25.944  23.083  1.00  0.00     0.009 C 
ATOM     21  C   UNL A   1      31.493  27.053  22.372  1.00  0.00     0.001 C 
ATOM     22  C   UNL A   1      33.755  25.755  22.362  1.00  0.00     0.065 C 
ATOM     23  C   UNL A   1      32.869  26.835  21.790  1.00  0.00     0.006 C 
ENDBRANCH   7  17
ENDBRANCH   4   6
ENDBRANCH   3   4
ENDBRANCH   2   3
ENDBRANCH   1   2
BRANCH   1  24
ATOM     24  O   UNL A   1      32.373  30.430  26.959  1.00  0.00    -0.458 OA
BRANCH  24  25
ATOM     25  C   UNL A   1      33.048  31.581  27.208  1.00  0.00     0.338 C 
ATOM     26  O   UNL A   1      32.542  32.707  27.281  1.00  0.00    -0.246 OA
BRANCH  25  27
ATOM     27  C   UNL A   1      34.471  31.289  27.590  1.00  0.00     0.060 A 
ATOM     28  C   UNL A   1      34.847  29.984  27.912  1.00  0.00     0.016 A 
ATOM     29  C   UNL A   1      35.359  32.330  27.914  1.00  0.00     0.016 A 
ATOM     30  C   UNL A   1      35.973  29.756  28.713  1.00  0.00     0.010 A 
ATOM     31  C   UNL A   1      36.576  32.065  28.590  1.00  0.00     0.010 A 
ATOM     32  C   UNL A   1      36.897  30.769  29.030  1.00  0.00    -0.014 A 
BRANCH  32  33
ATOM     33  C   UNL A   1      38.184  30.450  29.755  1.00  0.00     0.031 A 
ATOM     34  C   UNL A   1      39.260  29.550  29.172  1.00  0.00     0.074 A 
ATOM     35  C   UNL A   1      38.414  30.965  30.985  1.00  0.00     0.049 A 
ATOM     36  N   UNL A   1      40.276  28.967  29.770  1.00  0.00    -0.248 NA
ATOM     37  C   UNL A   1      39.200  29.284  27.729  1.00  0.00     0.031 C 
ATOM     38  C   UNL A   1      37.554  31.917  31.689  1.00  0.00     0.029 A 
ATOM     39  N   UNL A   1      39.447  30.754  31.872  1.00  0.00    -0.354 N 
ATOM     40  C   UNL A   1      40.934  28.218  28.797  1.00  0.00     0.074 A 
ATOM     41  C   UNL A   1      40.221  28.450  27.557  1.00  0.00     0.031 C 
ATOM     42  C   UNL A   1      38.112  32.251  32.855  1.00  0.00     0.029 A 
ATOM     43  C   UNL A   1      39.277  31.409  33.069  1.00  0.00     0.049 A 
ATOM     44  H   UNL A   1      40.229  30.191  31.669  1.00  0.00     0.167 HD
ATOM     45  C   UNL A   1      42.012  27.398  28.929  1.00  0.00     0.037 A 
ATOM     46  C   UNL A   1      39.902  31.294  34.256  1.00  0.00     0.037 A 
ATOM     47  C   UNL A   1      42.745  27.190  30.159  1.00  0.00     0.049 A 
ATOM     48  C   UNL A   1      41.000  30.294  34.422  1.00  0.00     0.074 A 
ATOM     49  C   UNL A   1      43.838  26.368  30.391  1.00  0.00     0.029 A 
ATOM     50  N   UNL A   1      42.465  27.813  31.366  1.00  0.00    -0.354 N 
ATOM     51  N   UNL A   1      41.532  29.496  33.533  1.00  0.00    -0.248 NA
ATOM     52  C   UNL A   1      41.564  30.158  35.771  1.00  0.00     0.031 C 
ATOM     53  C   UNL A   1      44.181  26.450  31.746  1.00  0.00     0.029 A 
ATOM     54  C   UNL A   1      43.347  27.376  32.347  1.00  0.00     0.049 A 
ATOM     55  H   UNL A   1      41.745  28.469  31.509  1.00  0.00     0.167 HD
ATOM     56  C   UNL A   1      42.514  28.782  34.203  1.00  0.00     0.074 A 
ATOM     57  C   UNL A   1      42.506  29.246  35.575  1.00  0.00     0.031 C 
ATOM     58  C   UNL A   1      43.348  27.832  33.715  1.00  0.00     0.037 A 
BRANCH  45  59
ATOM     59  C   UNL A   1      42.431  26.584  27.728  1.00  0.00     0.064 A 
ATOM     60  C   UNL A   1      43.430  27.005  26.838  1.00  0.00     0.173 A 
ATOM     61  C   UNL A   1      41.842  25.329  27.494  1.00  0.00     0.173 A 
ATOM     62  F   UNL A   1      44.030  28.192  27.009  1.00  0.00    -0.203 F 
ATOM     63  C   UNL A   1      43.794  26.222  25.741  1.00  0.00     0.198 A 
ATOM     64  C   UNL A   1      42.232  24.534  26.418  1.00  0.00     0.198 A 
ATOM     65  F   UNL A   1      40.897  24.860  28.322  1.00  0.00    -0.203 F 
ATOM     66  F   UNL A   1      44.712  26.671  24.874  1.00  0.00    -0.200 F 
ATOM     67  C   UNL A   1      43.198  24.986  25.534  1.00  0.00     0.200 A 
ATOM     68  F   UNL A   1      41.670  23.330  26.235  1.00  0.00    -0.200 F 
ATOM     69  F   UNL A   1      43.549  24.236  24.480  1.00  0.00    -0.200 F 
ENDBRANCH  45  59
BRANCH  46  70
ATOM     70  C   UNL A   1      39.428  32.114  35.402  1.00  0.00     0.064 A 
ATOM     71  C   UNL A   1      38.517  31.590  36.326  1.00  0.00     0.173 A 
ATOM     72  C   UNL A   1      39.930  33.405  35.634  1.00  0.00     0.173 A 
ATOM     73  F   UNL A   1      37.988  30.374  36.130  1.00  0.00    -0.203 F 
ATOM     74  C   UNL A   1      38.136  32.323  37.450  1.00  0.00     0.198 A 
ATOM     75  C   UNL A   1      39.579  34.119  36.776  1.00  0.00     0.198 A 
ATOM     76  F   UNL A   1      40.808  33.949  34.777  1.00  0.00    -0.203 F 
ATOM     77  F   UNL A   1      37.247  31.809  38.310  1.00  0.00    -0.200 F 
ATOM     78  C   UNL A   1      38.680  33.578  37.681  1.00  0.00     0.200 A 
ATOM     79  F   UNL A   1      40.126  35.320  37.007  1.00  0.00    -0.200 F 
ATOM     80  F   UNL A   1      38.338  34.265  38.779  1.00  0.00    -0.200 F 
ENDBRANCH  46  70
BRANCH  58  81
ATOM     81  C   UNL A   1      44.374  27.280  34.661  1.00  0.00     0.064 A 
ATOM     82  C   UNL A   1      45.623  27.892  34.845  1.00  0.00     0.173 A 
ATOM     83  C   UNL A   1      44.108  26.104  35.380  1.00  0.00     0.173 A 
ATOM     84  F   UNL A   1      45.938  29.004  34.163  1.00  0.00    -0.203 F 
ATOM     85  C   UNL A   1      46.581  27.326  35.684  1.00  0.00     0.198 A 
ATOM     86  C   UNL A   1      45.056  25.559  36.242  1.00  0.00     0.198 A 
ATOM     87  F   UNL A   1      42.930  25.479  35.241  1.00  0.00    -0.203 F 
ATOM     88  F   UNL A   1      47.792  27.892  35.792  1.00  0.00    -0.200 F 
ATOM     89  C   UNL A   1      46.296  26.164  36.384  1.00  0.00     0.200 A 
ATOM     90  F   UNL A   1      44.774  24.440  36.924  1.00  0.00    -0.200 F 
ATOM     91  F   UNL A   1      47.220  25.617  37.186  1.00  0.00    -0.200 F 
ENDBRANCH  58  81
ENDBRANCH  32  33
ENDBRANCH  25  27
ENDBRANCH  24  25
ENDBRANCH   1  24
TORSDOF 12
ENDMDL
MODEL 3
REMARK VINA RESULT:     -13.1      0.174      1.145
REMARK SMILES C[C@H]1CCCC[C@H]1[N@H+]1[C@@H](C(=O)OCCOC(=O)c2ccc(-c3c4nc(c(-c5c(F)c(F)c(F)c(F)c5F)c5ccc([nH]5)c(-c5c(F)c(F)c(F)c(F)c5F)c5nc(c(-c6c(F)c(F)c(F)c(F)c6F)c6ccc3[nH]6)C=C5)C=C4)cc2)CC[C@H]2CCCC[C@H]21
REMARK SMILES IDX 14 1 13 2 12 3 10 4 11 5 9 6 8 7 88 8 81 10 83 11 87 12
REMARK SMILES IDX 82 13 84 14 86 15 85 16 7 17 1 18 2 19 3 20 4 21 6 22 5 23
REMARK SMILES IDX 15 24 16 25 17 26 18 27 19 28 80 29 20 30 79 31 21 32 22 33
REMARK SMILES IDX 23 34 73 35 24 36 78 37 72 38 74 39 25 40 77 41 71 42 70 43
REMARK SMILES IDX 26 45 58 46 38 47 57 48 39 49 42 50 56 51 75 52 40 53 41 54
REMARK SMILES IDX 55 56 76 57 43 58 27 59 28 60 36 61 29 62 30 63 34 64 37 65
REMARK SMILES IDX 31 66 32 67 35 68 33 69 59 70 60 71 68 72 61 73 62 74 66 75
REMARK SMILES IDX 69 76 63 77 64 78 67 79 65 80 44 81 45 82 53 83 46 84 47 85
REMARK SMILES IDX 51 86 54 87 48 88 49 89 52 90 50 91
REMARK H PARENT 8 9 74 44 42 55
REMARK Flexibility Score: inf
ROOT
ATOM      1  C   UNL A   1      31.694  30.392  25.859  1.00  0.00     0.275 C 
ENDROOT
BRANCH   1   2
ATOM      2  C   UNL A   1      31.430  28.928  25.402  1.00  0.00     0.274 C 
BRANCH   2   3
ATOM      3  O   UNL A   1      32.450  27.923  25.720  1.00  0.00    -0.458 OA
BRANCH   3   4
ATOM      4  C   UNL A   1      32.025  26.684  26.100  1.00  0.00     0.365 C 
ATOM      5  O   UNL A   1      30.917  26.512  26.613  1.00  0.00    -0.245 OA
BRANCH   4   6
ATOM      6  C   UNL A   1      33.062  25.519  26.042  1.00  0.00     0.295 C 
ATOM      7  N   UNL A   1      34.003  25.280  24.896  1.00  0.00    -0.318 N 
ATOM      8  C   UNL A   1      34.972  24.102  25.530  1.00  0.00     0.188 C 
ATOM      9  H   UNL A   1      34.589  26.049  24.572  1.00  0.00     0.349 HD
ATOM     10  C   UNL A   1      32.457  24.145  26.400  1.00  0.00     0.078 C 
ATOM     11  C   UNL A   1      34.453  22.886  24.851  1.00  0.00     0.048 C 
ATOM     12  C   UNL A   1      36.513  23.760  25.707  1.00  0.00     0.065 C 
ATOM     13  C   UNL A   1      33.049  22.868  25.644  1.00  0.00     0.016 C 
ATOM     14  C   UNL A   1      35.185  23.224  23.431  1.00  0.00     0.010 C 
ATOM     15  C   UNL A   1      37.297  22.926  24.659  1.00  0.00     0.006 C 
ATOM     16  C   UNL A   1      36.625  22.773  23.318  1.00  0.00     0.001 C 
BRANCH   7  17
ATOM     17  C   UNL A   1      33.167  25.000  23.531  1.00  0.00     0.187 C 
ATOM     18  C   UNL A   1      30.666  23.538  23.486  1.00  0.00     0.014 C 
ATOM     19  C   UNL A   1      31.586  24.736  23.127  1.00  0.00     0.044 C 
ATOM     20  C   UNL A   1      30.745  25.992  23.120  1.00  0.00     0.009 C 
ATOM     21  C   UNL A   1      31.442  27.113  22.409  1.00  0.00     0.001 C 
ATOM     22  C   UNL A   1      33.712  25.830  22.344  1.00  0.00     0.065 C 
ATOM     23  C   UNL A   1      32.809  26.911  21.801  1.00  0.00     0.006 C 
ENDBRANCH   7  17
ENDBRANCH   4   6
ENDBRANCH   3   4
ENDBRANCH   2   3
ENDBRANCH   1   2
BRANCH   1  24
ATOM     24  O   UNL A   1      32.573  30.433  27.006  1.00  0.00    -0.458 OA
BRANCH  24  25
ATOM     25  C   UNL A   1      33.267  31.573  27.256  1.00  0.00     0.338 C 
ATOM     26  O   UNL A   1      32.778  32.706  27.339  1.00  0.00    -0.246 OA
BRANCH  25  27
ATOM     27  C   UNL A   1      34.689  31.258  27.624  1.00  0.00     0.060 A 
ATOM     28  C   UNL A   1      35.048  29.947  27.937  1.00  0.00     0.016 A 
ATOM     29  C   UNL A   1      35.595  32.285  27.943  1.00  0.00     0.016 A 
ATOM     30  C   UNL A   1      36.179  29.698  28.726  1.00  0.00     0.010 A 
ATOM     31  C   UNL A   1      36.814  31.999  28.607  1.00  0.00     0.010 A 
ATOM     32  C   UNL A   1      37.120  30.697  29.039  1.00  0.00    -0.014 A 
BRANCH  32  33
ATOM     33  C   UNL A   1      38.408  30.356  29.751  1.00  0.00     0.031 A 
ATOM     34  C   UNL A   1      39.456  29.424  29.164  1.00  0.00     0.074 A 
ATOM     35  C   UNL A   1      38.667  30.879  30.972  1.00  0.00     0.049 A 
ATOM     36  N   UNL A   1      40.466  28.824  29.756  1.00  0.00    -0.248 NA
ATOM     37  C   UNL A   1      39.371  29.143  27.725  1.00  0.00     0.031 C 
ATOM     38  C   UNL A   1      37.838  31.858  31.676  1.00  0.00     0.029 A 
ATOM     39  N   UNL A   1      39.707  30.653  31.848  1.00  0.00    -0.354 N 
ATOM     40  C   UNL A   1      41.093  28.049  28.783  1.00  0.00     0.074 A 
ATOM     41  C   UNL A   1      40.369  28.284  27.550  1.00  0.00     0.031 C 
ATOM     42  C   UNL A   1      38.420  32.192  32.831  1.00  0.00     0.029 A 
ATOM     43  C   UNL A   1      39.567  31.325  33.040  1.00  0.00     0.049 A 
ATOM     44  H   UNL A   1      40.473  30.070  31.641  1.00  0.00     0.167 HD
ATOM     45  C   UNL A   1      42.153  27.206  28.910  1.00  0.00     0.037 A 
ATOM     46  C   UNL A   1      40.205  31.209  34.219  1.00  0.00     0.037 A 
ATOM     47  C   UNL A   1      42.897  26.994  30.133  1.00  0.00     0.049 A 
ATOM     48  C   UNL A   1      41.282  30.185  34.383  1.00  0.00     0.074 A 
ATOM     49  C   UNL A   1      43.974  26.149  30.360  1.00  0.00     0.029 A 
ATOM     50  N   UNL A   1      42.648  27.637  31.337  1.00  0.00    -0.354 N 
ATOM     51  N   UNL A   1      41.783  29.365  33.495  1.00  0.00    -0.248 NA
ATOM     52  C   UNL A   1      41.860  30.051  35.726  1.00  0.00     0.031 C 
ATOM     53  C   UNL A   1      44.337  26.238  31.709  1.00  0.00     0.029 A 
ATOM     54  C   UNL A   1      43.532  27.190  32.311  1.00  0.00     0.049 A 
ATOM     55  H   UNL A   1      41.945  28.311  31.481  1.00  0.00     0.167 HD
ATOM     56  C   UNL A   1      42.757  28.635  34.161  1.00  0.00     0.074 A 
ATOM     57  C   UNL A   1      42.777  29.115  35.527  1.00  0.00     0.031 C 
ATOM     58  C   UNL A   1      43.562  27.661  33.673  1.00  0.00     0.037 A 
BRANCH  45  59
ATOM     59  C   UNL A   1      42.538  26.369  27.714  1.00  0.00     0.064 A 
ATOM     60  C   UNL A   1      41.919  25.147  27.412  1.00  0.00     0.173 A 
ATOM     61  C   UNL A   1      43.524  26.832  26.824  1.00  0.00     0.173 A 
ATOM     62  F   UNL A   1      40.970  24.653  28.221  1.00  0.00    -0.203 F 
ATOM     63  C   UNL A   1      42.299  24.404  26.293  1.00  0.00     0.198 A 
ATOM     64  C   UNL A   1      43.877  26.104  25.689  1.00  0.00     0.198 A 
ATOM     65  F   UNL A   1      44.138  28.004  27.045  1.00  0.00    -0.203 F 
ATOM     66  F   UNL A   1      41.730  23.214  26.057  1.00  0.00    -0.200 F 
ATOM     67  C   UNL A   1      43.274  24.885  25.430  1.00  0.00     0.200 A 
ATOM     68  F   UNL A   1      44.803  26.584  24.846  1.00  0.00    -0.200 F 
ATOM     69  F   UNL A   1      43.636  24.169  24.357  1.00  0.00    -0.200 F 
ENDBRANCH  45  59
BRANCH  46  70
ATOM     70  C   UNL A   1      39.766  32.052  35.362  1.00  0.00     0.064 A 
ATOM     71  C   UNL A   1      40.270  33.347  35.529  1.00  0.00     0.173 A 
ATOM     72  C   UNL A   1      38.785  31.607  36.264  1.00  0.00     0.173 A 
ATOM     73  F   UNL A   1      41.228  33.803  34.710  1.00  0.00    -0.203 F 
ATOM     74  C   UNL A   1      39.798  34.173  36.548  1.00  0.00     0.198 A 
ATOM     75  C   UNL A   1      38.288  32.447  37.257  1.00  0.00     0.198 A 
ATOM     76  F   UNL A   1      38.271  30.375  36.143  1.00  0.00    -0.203 F 
ATOM     77  F   UNL A   1      40.310  35.401  36.701  1.00  0.00    -0.200 F 
ATOM     78  C   UNL A   1      38.797  33.728  37.399  1.00  0.00     0.200 A 
ATOM     79  F   UNL A   1      37.304  32.021  38.060  1.00  0.00    -0.200 F 
ATOM     80  F   UNL A   1      38.321  34.536  38.356  1.00  0.00    -0.200 F 
ENDBRANCH  46  70
BRANCH  58  81
ATOM     81  C   UNL A   1      44.587  27.096  34.612  1.00  0.00     0.064 A 
ATOM     82  C   UNL A   1      45.856  27.673  34.765  1.00  0.00     0.173 A 
ATOM     83  C   UNL A   1      44.299  25.941  35.356  1.00  0.00     0.173 A 
ATOM     84  F   UNL A   1      46.192  28.764  34.059  1.00  0.00    -0.203 F 
ATOM     85  C   UNL A   1      46.811  27.095  35.598  1.00  0.00     0.198 A 
ATOM     86  C   UNL A   1      45.246  25.383  36.212  1.00  0.00     0.198 A 
ATOM     87  F   UNL A   1      43.101  25.348  35.247  1.00  0.00    -0.203 F 
ATOM     88  F   UNL A   1      48.040  27.626  35.677  1.00  0.00    -0.200 F 
ATOM     89  C   UNL A   1      46.504  25.953  36.323  1.00  0.00     0.200 A 
ATOM     90  F   UNL A   1      44.943  24.285  36.918  1.00  0.00    -0.200 F 
ATOM     91  F   UNL A   1      47.426  25.394  37.119  1.00  0.00    -0.200 F 
ENDBRANCH  58  81
ENDBRANCH  32  33
ENDBRANCH  25  27
ENDBRANCH  24  25
ENDBRANCH   1  24
TORSDOF 12
ENDMDL
