MODEL 1
REMARK VINA RESULT:     -12.0      0.000      0.000
REMARK SMILES Nc1ccc(O)c(C(=O)OCCOC(=O)c2ccc(-c3c4nc(c(-c5c(F)c(F)c(F)c(F)c5F)c5ccc([nH]5)c(-c5c(F)c(F)c(F)c(F)c5F)c5nc(c(-c6c(F)c(F)c(F)c(F)c6F)c6ccc3[nH]6)C=C5)C=C4)cc2)c1
REMARK SMILES IDX 12 1 11 2 10 3 8 4 9 5 7 6 2 7 3 8 79 9 4 10 5 11 1 12 6 15
REMARK SMILES IDX 13 17 14 18 15 19 16 20 17 21 78 22 18 23 77 24 19 25 20 26
REMARK SMILES IDX 21 27 71 28 22 29 76 30 70 31 72 32 23 33 75 34 69 35 68 36
REMARK SMILES IDX 24 38 56 39 36 40 55 41 37 42 40 43 54 44 73 45 38 46 39 47
REMARK SMILES IDX 53 49 74 50 41 51 25 52 26 53 34 54 27 55 28 56 32 57 35 58
REMARK SMILES IDX 29 59 30 60 33 61 31 62 57 63 58 64 66 65 59 66 60 67 64 68
REMARK SMILES IDX 67 69 61 70 62 71 65 72 63 73 42 74 43 75 51 76 44 77 45 78
REMARK SMILES IDX 49 79 52 80 46 81 47 82 50 83 48 84
REMARK H PARENT 1 13 1 14 6 16 72 37 40 48
REMARK Flexibility Score: inf
ROOT
ATOM      1  C   UNL A   1      31.777  30.560  25.851  1.00  0.00     0.275 C 
ENDROOT
BRANCH   1   2
ATOM      2  C   UNL A   1      32.362  29.419  25.013  1.00  0.00     0.275 C 
BRANCH   2   3
ATOM      3  O   UNL A   1      31.428  28.331  24.845  1.00  0.00    -0.458 OA
BRANCH   3   4
ATOM      4  C   UNL A   1      31.266  27.889  23.575  1.00  0.00     0.342 C 
ATOM      5  O   UNL A   1      31.997  27.106  22.987  1.00  0.00    -0.246 OA
BRANCH   4   6
ATOM      6  C   UNL A   1      30.064  28.482  22.959  1.00  0.00     0.103 A 
ATOM      7  C   UNL A   1      27.644  28.669  22.906  1.00  0.00     0.032 A 
ATOM      8  C   UNL A   1      27.768  29.859  22.182  1.00  0.00     0.029 A 
ATOM      9  C   UNL A   1      28.801  28.013  23.340  1.00  0.00     0.045 A 
ATOM     10  C   UNL A   1      29.019  30.320  21.781  1.00  0.00     0.049 A 
ATOM     11  C   UNL A   1      30.155  29.605  22.132  1.00  0.00     0.130 A 
BRANCH   7  12
ATOM     12  N   UNL A   1      26.392  28.235  23.312  1.00  0.00    -0.399 N 
ATOM     13  H   UNL A   1      25.586  28.545  22.840  1.00  0.00     0.156 HD
ATOM     14  H   UNL A   1      26.310  27.616  24.074  1.00  0.00     0.156 HD
ENDBRANCH   7  12
BRANCH  11  15
ATOM     15  O   UNL A   1      31.319  30.037  21.573  1.00  0.00    -0.507 OA
ATOM     16  H   UNL A   1      31.450  30.951  21.412  1.00  0.00     0.293 HD
ENDBRANCH  11  15
ENDBRANCH   4   6
ENDBRANCH   3   4
ENDBRANCH   2   3
ENDBRANCH   1   2
BRANCH   1  17
ATOM     17  O   UNL A   1      32.394  30.652  27.152  1.00  0.00    -0.458 OA
BRANCH  17  18
ATOM     18  C   UNL A   1      33.144  31.756  27.346  1.00  0.00     0.338 C 
ATOM     19  O   UNL A   1      32.769  32.916  27.401  1.00  0.00    -0.246 OA
BRANCH  18  20
ATOM     20  C   UNL A   1      34.539  31.409  27.647  1.00  0.00     0.060 A 
ATOM     21  C   UNL A   1      34.800  30.079  27.952  1.00  0.00     0.016 A 
ATOM     22  C   UNL A   1      35.479  32.396  27.941  1.00  0.00     0.016 A 
ATOM     23  C   UNL A   1      35.924  29.752  28.697  1.00  0.00     0.010 A 
ATOM     24  C   UNL A   1      36.682  32.037  28.569  1.00  0.00     0.010 A 
ATOM     25  C   UNL A   1      36.896  30.716  29.002  1.00  0.00    -0.014 A 
BRANCH  25  26
ATOM     26  C   UNL A   1      38.095  30.322  29.800  1.00  0.00     0.031 A 
ATOM     27  C   UNL A   1      39.190  29.482  29.194  1.00  0.00     0.074 A 
ATOM     28  C   UNL A   1      38.238  30.771  31.065  1.00  0.00     0.049 A 
ATOM     29  N   UNL A   1      40.213  28.908  29.780  1.00  0.00    -0.248 NA
ATOM     30  C   UNL A   1      39.126  29.242  27.744  1.00  0.00     0.031 C 
ATOM     31  C   UNL A   1      37.290  31.639  31.767  1.00  0.00     0.029 A 
ATOM     32  N   UNL A   1      39.249  30.587  31.976  1.00  0.00    -0.354 N 
ATOM     33  C   UNL A   1      40.868  28.188  28.789  1.00  0.00     0.074 A 
ATOM     34  C   UNL A   1      40.140  28.406  27.559  1.00  0.00     0.031 C 
ATOM     35  C   UNL A   1      37.796  31.970  32.963  1.00  0.00     0.029 A 
ATOM     36  C   UNL A   1      39.046  31.248  33.163  1.00  0.00     0.049 A 
ATOM     37  H   UNL A   1      40.044  30.033  31.795  1.00  0.00     0.167 HD
ATOM     38  C   UNL A   1      41.973  27.410  28.903  1.00  0.00     0.037 A 
ATOM     39  C   UNL A   1      39.753  31.241  34.307  1.00  0.00     0.037 A 
ATOM     40  C   UNL A   1      42.742  27.258  30.113  1.00  0.00     0.049 A 
ATOM     41  C   UNL A   1      40.972  30.372  34.407  1.00  0.00     0.074 A 
ATOM     42  C   UNL A   1      43.873  26.488  30.328  1.00  0.00     0.029 A 
ATOM     43  N   UNL A   1      42.476  27.916  31.304  1.00  0.00    -0.354 N 
ATOM     44  N   UNL A   1      41.516  29.607  33.496  1.00  0.00    -0.248 NA
ATOM     45  C   UNL A   1      41.654  30.341  35.709  1.00  0.00     0.031 C 
ATOM     46  C   UNL A   1      44.278  26.662  31.657  1.00  0.00     0.029 A 
ATOM     47  C   UNL A   1      43.420  27.568  32.258  1.00  0.00     0.049 A 
ATOM     48  H   UNL A   1      41.728  28.539  31.451  1.00  0.00     0.167 HD
ATOM     49  C   UNL A   1      42.597  28.995  34.110  1.00  0.00     0.074 A 
ATOM     50  C   UNL A   1      42.653  29.504  35.465  1.00  0.00     0.031 C 
ATOM     51  C   UNL A   1      43.457  28.080  33.602  1.00  0.00     0.037 A 
BRANCH  38  52
ATOM     52  C   UNL A   1      42.405  26.625  27.700  1.00  0.00     0.064 A 
ATOM     53  C   UNL A   1      43.359  27.110  26.795  1.00  0.00     0.173 A 
ATOM     54  C   UNL A   1      41.899  25.331  27.490  1.00  0.00     0.173 A 
ATOM     55  F   UNL A   1      43.865  28.343  26.946  1.00  0.00    -0.203 F 
ATOM     56  C   UNL A   1      43.780  26.336  25.717  1.00  0.00     0.198 A 
ATOM     57  C   UNL A   1      42.340  24.551  26.424  1.00  0.00     0.198 A 
ATOM     58  F   UNL A   1      40.989  24.816  28.331  1.00  0.00    -0.203 F 
ATOM     59  F   UNL A   1      44.672  26.831  24.846  1.00  0.00    -0.200 F 
ATOM     60  C   UNL A   1      43.278  25.055  25.536  1.00  0.00     0.200 A 
ATOM     61  F   UNL A   1      41.862  23.310  26.260  1.00  0.00    -0.200 F 
ATOM     62  F   UNL A   1      43.694  24.307  24.505  1.00  0.00    -0.200 F 
ENDBRANCH  38  52
BRANCH  39  63
ATOM     63  C   UNL A   1      39.281  32.041  35.466  1.00  0.00     0.064 A 
ATOM     64  C   UNL A   1      38.454  31.477  36.446  1.00  0.00     0.173 A 
ATOM     65  C   UNL A   1      39.668  33.380  35.629  1.00  0.00     0.173 A 
ATOM     66  F   UNL A   1      38.034  30.210  36.319  1.00  0.00    -0.203 F 
ATOM     67  C   UNL A   1      38.032  32.223  37.545  1.00  0.00     0.198 A 
ATOM     68  C   UNL A   1      39.273  34.114  36.744  1.00  0.00     0.198 A 
ATOM     69  F   UNL A   1      40.456  33.967  34.717  1.00  0.00    -0.203 F 
ATOM     70  F   UNL A   1      37.213  31.671  38.451  1.00  0.00    -0.200 F 
ATOM     71  C   UNL A   1      38.451  33.536  37.699  1.00  0.00     0.200 A 
ATOM     72  F   UNL A   1      39.693  35.377  36.895  1.00  0.00    -0.200 F 
ATOM     73  F   UNL A   1      38.056  34.247  38.764  1.00  0.00    -0.200 F 
ENDBRANCH  39  63
BRANCH  51  74
ATOM     74  C   UNL A   1      44.533  27.582  34.518  1.00  0.00     0.064 A 
ATOM     75  C   UNL A   1      45.759  28.254  34.630  1.00  0.00     0.173 A 
ATOM     76  C   UNL A   1      44.331  26.436  35.299  1.00  0.00     0.173 A 
ATOM     77  F   UNL A   1      46.003  29.344  33.888  1.00  0.00    -0.203 F 
ATOM     78  C   UNL A   1      46.756  27.780  35.477  1.00  0.00     0.198 A 
ATOM     79  C   UNL A   1      45.323  25.978  36.161  1.00  0.00     0.198 A 
ATOM     80  F   UNL A   1      43.173  25.763  35.226  1.00  0.00    -0.203 F 
ATOM     81  F   UNL A   1      47.938  28.410  35.538  1.00  0.00    -0.200 F 
ATOM     82  C   UNL A   1      46.536  26.645  36.245  1.00  0.00     0.200 A 
ATOM     83  F   UNL A   1      45.108  24.884  36.905  1.00  0.00    -0.200 F 
ATOM     84  F   UNL A   1      47.498  26.188  37.057  1.00  0.00    -0.200 F 
ENDBRANCH  51  74
ENDBRANCH  25  26
ENDBRANCH  18  20
ENDBRANCH  17  18
ENDBRANCH   1  17
TORSDOF 13
ENDMDL
MODEL 2
REMARK VINA RESULT:     -12.0      0.117      1.694
REMARK SMILES Nc1ccc(O)c(C(=O)OCCOC(=O)c2ccc(-c3c4nc(c(-c5c(F)c(F)c(F)c(F)c5F)c5ccc([nH]5)c(-c5c(F)c(F)c(F)c(F)c5F)c5nc(c(-c6c(F)c(F)c(F)c(F)c6F)c6ccc3[nH]6)C=C5)C=C4)cc2)c1
REMARK SMILES IDX 12 1 11 2 10 3 8 4 9 5 7 6 2 7 3 8 79 9 4 10 5 11 1 12 6 15
REMARK SMILES IDX 13 17 14 18 15 19 16 20 17 21 78 22 18 23 77 24 19 25 20 26
REMARK SMILES IDX 21 27 71 28 22 29 76 30 70 31 72 32 23 33 75 34 69 35 68 36
REMARK SMILES IDX 24 38 56 39 36 40 55 41 37 42 40 43 54 44 73 45 38 46 39 47
REMARK SMILES IDX 53 49 74 50 41 51 25 52 26 53 34 54 27 55 28 56 32 57 35 58
REMARK SMILES IDX 29 59 30 60 33 61 31 62 57 63 58 64 66 65 59 66 60 67 64 68
REMARK SMILES IDX 67 69 61 70 62 71 65 72 63 73 42 74 43 75 51 76 44 77 45 78
REMARK SMILES IDX 49 79 52 80 46 81 47 82 50 83 48 84
REMARK H PARENT 1 13 1 14 6 16 72 37 40 48
REMARK Flexibility Score: inf
ROOT
ATOM      1  C   UNL A   1      31.748  30.412  25.920  1.00  0.00     0.275 C 
ENDROOT
BRANCH   1   2
ATOM      2  C   UNL A   1      32.350  29.285  25.076  1.00  0.00     0.275 C 
BRANCH   2   3
ATOM      3  O   UNL A   1      31.404  28.222  24.830  1.00  0.00    -0.458 OA
BRANCH   3   4
ATOM      4  C   UNL A   1      31.270  27.845  23.536  1.00  0.00     0.342 C 
ATOM      5  O   UNL A   1      32.020  27.100  22.922  1.00  0.00    -0.246 OA
BRANCH   4   6
ATOM      6  C   UNL A   1      30.073  28.458  22.928  1.00  0.00     0.103 A 
ATOM      7  C   UNL A   1      27.657  28.691  22.900  1.00  0.00     0.032 A 
ATOM      8  C   UNL A   1      27.796  29.875  22.168  1.00  0.00     0.029 A 
ATOM      9  C   UNL A   1      28.806  28.016  23.325  1.00  0.00     0.045 A 
ATOM     10  C   UNL A   1      29.052  30.309  21.750  1.00  0.00     0.049 A 
ATOM     11  C   UNL A   1      30.177  29.573  22.094  1.00  0.00     0.130 A 
BRANCH   7  12
ATOM     12  N   UNL A   1      26.401  28.284  23.322  1.00  0.00    -0.399 N 
ATOM     13  H   UNL A   1      26.126  28.423  24.257  1.00  0.00     0.156 HD
ATOM     14  H   UNL A   1      25.784  27.854  22.686  1.00  0.00     0.156 HD
ENDBRANCH   7  12
BRANCH  11  15
ATOM     15  O   UNL A   1      31.343  29.979  21.520  1.00  0.00    -0.507 OA
ATOM     16  H   UNL A   1      31.891  30.599  21.960  1.00  0.00     0.293 HD
ENDBRANCH  11  15
ENDBRANCH   4   6
ENDBRANCH   3   4
ENDBRANCH   2   3
ENDBRANCH   1   2
BRANCH   1  17
ATOM     17  O   UNL A   1      32.418  30.557  27.190  1.00  0.00    -0.458 OA
BRANCH  17  18
ATOM     18  C   UNL A   1      33.170  31.671  27.309  1.00  0.00     0.338 C 
ATOM     19  O   UNL A   1      32.794  32.833  27.304  1.00  0.00    -0.246 OA
BRANCH  18  20
ATOM     20  C   UNL A   1      34.570  31.342  27.607  1.00  0.00     0.060 A 
ATOM     21  C   UNL A   1      34.854  30.011  27.883  1.00  0.00     0.016 A 
ATOM     22  C   UNL A   1      35.491  32.339  27.925  1.00  0.00     0.016 A 
ATOM     23  C   UNL A   1      35.981  29.687  28.625  1.00  0.00     0.010 A 
ATOM     24  C   UNL A   1      36.699  31.988  28.549  1.00  0.00     0.010 A 
ATOM     25  C   UNL A   1      36.935  30.661  28.953  1.00  0.00    -0.014 A 
BRANCH  25  26
ATOM     26  C   UNL A   1      38.138  30.271  29.747  1.00  0.00     0.031 A 
ATOM     27  C   UNL A   1      39.225  29.419  29.142  1.00  0.00     0.074 A 
ATOM     28  C   UNL A   1      38.294  30.734  31.005  1.00  0.00     0.049 A 
ATOM     29  N   UNL A   1      40.250  28.848  29.726  1.00  0.00    -0.248 NA
ATOM     30  C   UNL A   1      39.149  29.164  27.695  1.00  0.00     0.031 C 
ATOM     31  C   UNL A   1      37.355  31.614  31.705  1.00  0.00     0.029 A 
ATOM     32  N   UNL A   1      39.310  30.555  31.911  1.00  0.00    -0.354 N 
ATOM     33  C   UNL A   1      40.894  28.113  28.738  1.00  0.00     0.074 A 
ATOM     34  C   UNL A   1      40.157  28.321  27.511  1.00  0.00     0.031 C 
ATOM     35  C   UNL A   1      37.872  31.956  32.893  1.00  0.00     0.029 A 
ATOM     36  C   UNL A   1      39.119  31.231  33.091  1.00  0.00     0.049 A 
ATOM     37  H   UNL A   1      40.102  29.996  31.729  1.00  0.00     0.167 HD
ATOM     38  C   UNL A   1      41.996  27.332  28.853  1.00  0.00     0.037 A 
ATOM     39  C   UNL A   1      39.835  31.233  34.230  1.00  0.00     0.037 A 
ATOM     40  C   UNL A   1      42.774  27.191  30.058  1.00  0.00     0.049 A 
ATOM     41  C   UNL A   1      41.051  30.361  34.331  1.00  0.00     0.074 A 
ATOM     42  C   UNL A   1      43.903  26.418  30.273  1.00  0.00     0.029 A 
ATOM     43  N   UNL A   1      42.521  27.863  31.243  1.00  0.00    -0.354 N 
ATOM     44  N   UNL A   1      41.586  29.583  33.424  1.00  0.00    -0.248 NA
ATOM     45  C   UNL A   1      41.743  30.341  35.627  1.00  0.00     0.031 C 
ATOM     46  C   UNL A   1      44.319  26.605  31.596  1.00  0.00     0.029 A 
ATOM     47  C   UNL A   1      43.470  27.522  32.194  1.00  0.00     0.049 A 
ATOM     48  H   UNL A   1      41.776  28.491  31.390  1.00  0.00     0.167 HD
ATOM     49  C   UNL A   1      42.668  28.973  34.036  1.00  0.00     0.074 A 
ATOM     50  C   UNL A   1      42.737  29.497  35.385  1.00  0.00     0.031 C 
ATOM     51  C   UNL A   1      43.520  28.048  33.532  1.00  0.00     0.037 A 
BRANCH  38  52
ATOM     52  C   UNL A   1      42.416  26.531  27.655  1.00  0.00     0.064 A 
ATOM     53  C   UNL A   1      43.394  26.984  26.760  1.00  0.00     0.173 A 
ATOM     54  C   UNL A   1      41.871  25.254  27.441  1.00  0.00     0.173 A 
ATOM     55  F   UNL A   1      43.937  28.200  26.914  1.00  0.00    -0.203 F 
ATOM     56  C   UNL A   1      43.802  26.195  25.687  1.00  0.00     0.198 A 
ATOM     57  C   UNL A   1      42.297  24.459  26.382  1.00  0.00     0.198 A 
ATOM     58  F   UNL A   1      40.937  24.770  28.273  1.00  0.00    -0.203 F 
ATOM     59  F   UNL A   1      44.718  26.660  24.825  1.00  0.00    -0.200 F 
ATOM     60  C   UNL A   1      43.260  24.930  25.503  1.00  0.00     0.200 A 
ATOM     61  F   UNL A   1      41.782  23.233  26.214  1.00  0.00    -0.200 F 
ATOM     62  F   UNL A   1      43.663  24.168  24.477  1.00  0.00    -0.200 F 
ENDBRANCH  38  52
BRANCH  39  63
ATOM     63  C   UNL A   1      39.377  32.049  35.384  1.00  0.00     0.064 A 
ATOM     64  C   UNL A   1      39.751  33.392  35.514  1.00  0.00     0.173 A 
ATOM     65  C   UNL A   1      38.536  31.505  36.367  1.00  0.00     0.173 A 
ATOM     66  F   UNL A   1      40.577  33.947  34.615  1.00  0.00    -0.203 F 
ATOM     67  C   UNL A   1      39.300  34.162  36.585  1.00  0.00     0.198 A 
ATOM     68  C   UNL A   1      38.060  32.285  37.419  1.00  0.00     0.198 A 
ATOM     69  F   UNL A   1      38.152  30.223  36.290  1.00  0.00    -0.203 F 
ATOM     70  F   UNL A   1      39.700  35.435  36.707  1.00  0.00    -0.200 F 
ATOM     71  C   UNL A   1      38.447  33.611  37.529  1.00  0.00     0.200 A 
ATOM     72  F   UNL A   1      37.223  31.751  38.318  1.00  0.00    -0.200 F 
ATOM     73  F   UNL A   1      38.003  34.356  38.551  1.00  0.00    -0.200 F 
ENDBRANCH  39  63
BRANCH  51  74
ATOM     74  C   UNL A   1      44.601  27.556  34.445  1.00  0.00     0.064 A 
ATOM     75  C   UNL A   1      44.420  26.414  35.236  1.00  0.00     0.173 A 
ATOM     76  C   UNL A   1      45.832  28.224  34.516  1.00  0.00     0.173 A 
ATOM     77  F   UNL A   1      43.253  25.754  35.213  1.00  0.00    -0.203 F 
ATOM     78  C   UNL A   1      45.427  25.969  36.087  1.00  0.00     0.198 A 
ATOM     79  C   UNL A   1      46.844  27.764  35.354  1.00  0.00     0.198 A 
ATOM     80  F   UNL A   1      46.051  29.321  33.776  1.00  0.00    -0.203 F 
ATOM     81  F   UNL A   1      45.219  24.900  36.869  1.00  0.00    -0.200 F 
ATOM     82  C   UNL A   1      46.639  26.642  36.143  1.00  0.00     0.200 A 
ATOM     83  F   UNL A   1      48.016  28.412  35.403  1.00  0.00    -0.200 F 
ATOM     84  F   UNL A   1      47.606  26.215  36.966  1.00  0.00    -0.200 F 
ENDBRANCH  51  74
ENDBRANCH  25  26
ENDBRANCH  18  20
ENDBRANCH  17  18
ENDBRANCH   1  17
TORSDOF 13
ENDMDL
MODEL 3
REMARK VINA RESULT:     -11.8      5.495     10.459
REMARK SMILES Nc1ccc(O)c(C(=O)OCCOC(=O)c2ccc(-c3c4nc(c(-c5c(F)c(F)c(F)c(F)c5F)c5ccc([nH]5)c(-c5c(F)c(F)c(F)c(F)c5F)c5nc(c(-c6c(F)c(F)c(F)c(F)c6F)c6ccc3[nH]6)C=C5)C=C4)cc2)c1
REMARK SMILES IDX 12 1 11 2 10 3 8 4 9 5 7 6 2 7 3 8 79 9 4 10 5 11 1 12 6 15
REMARK SMILES IDX 13 17 14 18 15 19 16 20 17 21 78 22 18 23 77 24 19 25 20 26
REMARK SMILES IDX 21 27 71 28 22 29 76 30 70 31 72 32 23 33 75 34 69 35 68 36
REMARK SMILES IDX 24 38 56 39 36 40 55 41 37 42 40 43 54 44 73 45 38 46 39 47
REMARK SMILES IDX 53 49 74 50 41 51 25 52 26 53 34 54 27 55 28 56 32 57 35 58
REMARK SMILES IDX 29 59 30 60 33 61 31 62 57 63 58 64 66 65 59 66 60 67 64 68
REMARK SMILES IDX 67 69 61 70 62 71 65 72 63 73 42 74 43 75 51 76 44 77 45 78
REMARK SMILES IDX 49 79 52 80 46 81 47 82 50 83 48 84
REMARK H PARENT 1 13 1 14 6 16 72 37 40 48
REMARK Flexibility Score: inf
ROOT
ATOM      1  C   UNL A   1      36.535  20.983  25.083  1.00  0.00     0.275 C 
ENDROOT
BRANCH   1   2
ATOM      2  C   UNL A   1      35.533  21.892  25.801  1.00  0.00     0.275 C 
BRANCH   2   3
ATOM      3  O   UNL A   1      34.538  21.139  26.529  1.00  0.00    -0.458 OA
BRANCH   3   4
ATOM      4  C   UNL A   1      33.250  21.415  26.214  1.00  0.00     0.342 C 
ATOM      5  O   UNL A   1      32.559  22.293  26.711  1.00  0.00    -0.246 OA
BRANCH   4   6
ATOM      6  C   UNL A   1      32.755  20.502  25.165  1.00  0.00     0.103 A 
ATOM      7  C   UNL A   1      32.102  20.172  22.851  1.00  0.00     0.032 A 
ATOM      8  C   UNL A   1      32.259  18.792  23.021  1.00  0.00     0.029 A 
ATOM      9  C   UNL A   1      32.406  21.027  23.915  1.00  0.00     0.045 A 
ATOM     10  C   UNL A   1      32.584  18.262  24.266  1.00  0.00     0.049 A 
ATOM     11  C   UNL A   1      32.785  19.117  25.341  1.00  0.00     0.130 A 
BRANCH   7  12
ATOM     12  N   UNL A   1      31.795  20.683  21.599  1.00  0.00    -0.399 N 
ATOM     13  H   UNL A   1      32.505  20.805  20.929  1.00  0.00     0.156 HD
ATOM     14  H   UNL A   1      30.866  20.926  21.382  1.00  0.00     0.156 HD
ENDBRANCH   7  12
BRANCH  11  15
ATOM     15  O   UNL A   1      32.947  18.513  26.551  1.00  0.00    -0.507 OA
ATOM     16  H   UNL A   1      32.223  18.083  26.960  1.00  0.00     0.293 HD
ENDBRANCH  11  15
ENDBRANCH   4   6
ENDBRANCH   3   4
ENDBRANCH   2   3
ENDBRANCH   1   2
BRANCH   1  17
ATOM     17  O   UNL A   1      37.812  21.627  24.892  1.00  0.00    -0.458 OA
BRANCH  17  18
ATOM     18  C   UNL A   1      38.769  21.256  25.768  1.00  0.00     0.338 C 
ATOM     19  O   UNL A   1      39.307  20.166  25.872  1.00  0.00    -0.246 OA
BRANCH  18  20
ATOM     20  C   UNL A   1      39.245  22.400  26.556  1.00  0.00     0.060 A 
ATOM     21  C   UNL A   1      38.725  23.646  26.226  1.00  0.00     0.016 A 
ATOM     22  C   UNL A   1      40.387  22.302  27.350  1.00  0.00     0.016 A 
ATOM     23  C   UNL A   1      39.434  24.795  26.549  1.00  0.00     0.010 A 
ATOM     24  C   UNL A   1      41.020  23.474  27.794  1.00  0.00     0.010 A 
ATOM     25  C   UNL A   1      40.580  24.735  27.355  1.00  0.00    -0.014 A 
BRANCH  25  26
ATOM     26  C   UNL A   1      41.310  25.995  27.685  1.00  0.00     0.031 A 
ATOM     27  C   UNL A   1      40.687  27.045  28.568  1.00  0.00     0.074 A 
ATOM     28  C   UNL A   1      42.572  26.178  27.240  1.00  0.00     0.049 A 
ATOM     29  N   UNL A   1      41.100  28.263  28.823  1.00  0.00    -0.248 NA
ATOM     30  C   UNL A   1      39.432  26.691  29.248  1.00  0.00     0.031 C 
ATOM     31  C   UNL A   1      43.327  25.226  26.423  1.00  0.00     0.029 A 
ATOM     32  N   UNL A   1      43.453  27.212  27.435  1.00  0.00    -0.354 N 
ATOM     33  C   UNL A   1      40.125  28.839  29.628  1.00  0.00     0.074 A 
ATOM     34  C   UNL A   1      39.105  27.834  29.837  1.00  0.00     0.031 C 
ATOM     35  C   UNL A   1      44.574  25.683  26.251  1.00  0.00     0.029 A 
ATOM     36  C   UNL A   1      44.676  27.011  26.843  1.00  0.00     0.049 A 
ATOM     37  H   UNL A   1      43.230  28.021  27.951  1.00  0.00     0.167 HD
ATOM     38  C   UNL A   1      40.087  30.094  30.139  1.00  0.00     0.037 A 
ATOM     39  C   UNL A   1      45.748  27.817  26.738  1.00  0.00     0.037 A 
ATOM     40  C   UNL A   1      41.141  31.066  29.996  1.00  0.00     0.049 A 
ATOM     41  C   UNL A   1      45.680  29.201  27.312  1.00  0.00     0.074 A 
ATOM     42  C   UNL A   1      41.191  32.366  30.472  1.00  0.00     0.029 A 
ATOM     43  N   UNL A   1      42.347  30.832  29.352  1.00  0.00    -0.354 N 
ATOM     44  N   UNL A   1      44.706  29.772  27.974  1.00  0.00    -0.248 NA
ATOM     45  C   UNL A   1      46.848  30.064  27.092  1.00  0.00     0.031 C 
ATOM     46  C   UNL A   1      42.418  32.925  30.097  1.00  0.00     0.029 A 
ATOM     47  C   UNL A   1      43.146  31.962  29.418  1.00  0.00     0.049 A 
ATOM     48  H   UNL A   1      42.599  29.987  28.913  1.00  0.00     0.167 HD
ATOM     49  C   UNL A   1      45.135  31.062  28.243  1.00  0.00     0.074 A 
ATOM     50  C   UNL A   1      46.473  31.180  27.702  1.00  0.00     0.031 C 
ATOM     51  C   UNL A   1      44.472  32.064  28.869  1.00  0.00     0.037 A 
BRANCH  38  52
ATOM     52  C   UNL A   1      38.847  30.515  30.872  1.00  0.00     0.064 A 
ATOM     53  C   UNL A   1      38.753  30.464  32.269  1.00  0.00     0.173 A 
ATOM     54  C   UNL A   1      37.757  31.043  30.159  1.00  0.00     0.173 A 
ATOM     55  F   UNL A   1      39.761  29.960  32.995  1.00  0.00    -0.203 F 
ATOM     56  C   UNL A   1      37.609  30.913  32.926  1.00  0.00     0.198 A 
ATOM     57  C   UNL A   1      36.625  31.511  30.820  1.00  0.00     0.198 A 
ATOM     58  F   UNL A   1      37.799  31.121  28.821  1.00  0.00    -0.203 F 
ATOM     59  F   UNL A   1      37.527  30.828  34.261  1.00  0.00    -0.200 F 
ATOM     60  C   UNL A   1      36.550  31.444  32.202  1.00  0.00     0.200 A 
ATOM     61  F   UNL A   1      35.609  32.034  30.120  1.00  0.00    -0.200 F 
ATOM     62  F   UNL A   1      35.456  31.885  32.837  1.00  0.00    -0.200 F 
ENDBRANCH  38  52
BRANCH  39  63
ATOM     63  C   UNL A   1      46.951  27.347  26.004  1.00  0.00     0.064 A 
ATOM     64  C   UNL A   1      47.087  27.558  24.626  1.00  0.00     0.173 A 
ATOM     65  C   UNL A   1      48.000  26.698  26.673  1.00  0.00     0.173 A 
ATOM     66  F   UNL A   1      46.097  28.148  23.939  1.00  0.00    -0.203 F 
ATOM     67  C   UNL A   1      48.227  27.138  23.944  1.00  0.00     0.198 A 
ATOM     68  C   UNL A   1      49.153  26.307  25.996  1.00  0.00     0.198 A 
ATOM     69  F   UNL A   1      47.918  26.469  27.991  1.00  0.00    -0.203 F 
ATOM     70  F   UNL A   1      48.318  27.320  22.620  1.00  0.00    -0.200 F 
ATOM     71  C   UNL A   1      49.263  26.523  24.632  1.00  0.00     0.200 A 
ATOM     72  F   UNL A   1      50.157  25.729  26.668  1.00  0.00    -0.200 F 
ATOM     73  F   UNL A   1      50.365  26.132  23.977  1.00  0.00    -0.200 F 
ENDBRANCH  39  63
BRANCH  51  74
ATOM     74  C   UNL A   1      45.195  33.369  29.006  1.00  0.00     0.064 A 
ATOM     75  C   UNL A   1      45.073  34.372  28.033  1.00  0.00     0.173 A 
ATOM     76  C   UNL A   1      46.002  33.624  30.123  1.00  0.00     0.173 A 
ATOM     77  F   UNL A   1      44.326  34.166  26.939  1.00  0.00    -0.203 F 
ATOM     78  C   UNL A   1      45.755  35.578  28.165  1.00  0.00     0.198 A 
ATOM     79  C   UNL A   1      46.665  34.840  30.261  1.00  0.00     0.198 A 
ATOM     80  F   UNL A   1      46.146  32.695  31.080  1.00  0.00    -0.203 F 
ATOM     81  F   UNL A   1      45.661  36.508  27.203  1.00  0.00    -0.200 F 
ATOM     82  C   UNL A   1      46.547  35.813  29.280  1.00  0.00     0.200 A 
ATOM     83  F   UNL A   1      47.427  35.067  31.340  1.00  0.00    -0.200 F 
ATOM     84  F   UNL A   1      47.206  36.973  29.403  1.00  0.00    -0.200 F 
ENDBRANCH  51  74
ENDBRANCH  25  26
ENDBRANCH  18  20
ENDBRANCH  17  18
ENDBRANCH   1  17
TORSDOF 13
ENDMDL
