MODEL 1
REMARK VINA RESULT:     -11.8      0.000      0.000
REMARK SMILES C#CCN(CC(=O)OCCOC(=O)c1ccc(-c2c3nc(c(-c4c(F)c(F)c(F)c(F)c4F)c4ccc([nH]4)c(-c4c(F)c(F)c(F)c(F)c4F)c4nc(c(-c5c(F)c(F)c(F)c(F)c5F)c5ccc2[nH]5)C=C4)C=C3)cc1)C(=O)N1CCO[C@@H](C#N)C1
REMARK SMILES IDX 9 1 8 2 6 3 7 4 5 5 4 6 3 7 2 8 1 9 77 10 78 11 79 12 80 13
REMARK SMILES IDX 86 14 81 15 83 16 82 17 84 18 85 19 10 20 11 21 12 22 13 23
REMARK SMILES IDX 14 24 15 25 76 26 16 27 75 28 17 29 18 30 19 31 69 32 20 33
REMARK SMILES IDX 74 34 68 35 70 36 21 37 73 38 67 39 66 40 22 42 54 43 34 44
REMARK SMILES IDX 53 45 35 46 38 47 52 48 71 49 36 50 37 51 51 53 72 54 39 55
REMARK SMILES IDX 23 56 24 57 32 58 25 59 26 60 30 61 33 62 27 63 28 64 31 65
REMARK SMILES IDX 29 66 55 67 56 68 64 69 57 70 58 71 62 72 65 73 59 74 60 75
REMARK SMILES IDX 63 76 61 77 40 78 41 79 49 80 42 81 43 82 47 83 50 84 44 85
REMARK SMILES IDX 45 86 48 87 46 88
REMARK H PARENT 70 41 38 52
REMARK Flexibility Score: inf
ROOT
ATOM      1  C   UNL A   1      32.256  31.546  27.091  1.00  0.00     0.274 C 
ENDROOT
BRANCH   1   2
ATOM      2  O   UNL A   1      31.615  30.276  27.239  1.00  0.00    -0.461 OA
BRANCH   2   3
ATOM      3  C   UNL A   1      32.388  29.277  26.753  1.00  0.00     0.325 C 
ATOM      4  O   UNL A   1      32.994  28.483  27.465  1.00  0.00    -0.250 OA
BRANCH   3   5
ATOM      5  C   UNL A   1      32.226  29.091  25.229  1.00  0.00     0.245 C 
BRANCH   5   6
ATOM      6  N   UNL A   1      32.133  27.727  24.492  1.00  0.00    -0.302 N 
BRANCH   6   7
ATOM      7  C   UNL A   1      30.842  27.925  24.120  1.00  0.00     0.211 C 
BRANCH   7   8
ATOM      8  C   UNL A   1      30.482  28.879  22.993  1.00  0.00    -0.085 C 
ATOM      9  C   UNL A   1      30.174  29.697  22.026  1.00  0.00     0.006 C 
ENDBRANCH   7   8
ENDBRANCH   6   7
BRANCH   6  10
ATOM     10  C   UNL A   1      32.629  26.240  24.210  1.00  0.00     0.321 C 
ATOM     11  O   UNL A   1      33.307  26.007  23.196  1.00  0.00    -0.248 OA
BRANCH  10  12
ATOM     12  N   UNL A   1      32.536  24.978  25.349  1.00  0.00    -0.319 N 
ATOM     13  C   UNL A   1      31.129  24.408  24.896  1.00  0.00     0.150 C 
ATOM     14  C   UNL A   1      33.828  23.683  25.985  1.00  0.00     0.169 C 
ATOM     15  C   UNL A   1      31.207  23.334  23.512  1.00  0.00     0.183 C 
ATOM     16  C   UNL A   1      34.331  22.354  24.510  1.00  0.00     0.240 C 
ATOM     17  O   UNL A   1      32.642  22.263  23.349  1.00  0.00    -0.360 OA
BRANCH  16  18
ATOM     18  C   UNL A   1      35.387  22.875  23.549  1.00  0.00     0.096 C 
ATOM     19  N   UNL A   1      36.263  23.309  22.752  1.00  0.00    -0.195 NA
ENDBRANCH  16  18
ENDBRANCH  10  12
ENDBRANCH   6  10
ENDBRANCH   5   6
ENDBRANCH   3   5
ENDBRANCH   2   3
ENDBRANCH   1   2
BRANCH   1  20
ATOM     20  C   UNL A   1      33.700  31.523  27.625  1.00  0.00     0.275 C 
BRANCH  20  21
ATOM     21  O   UNL A   1      34.071  32.681  28.436  1.00  0.00    -0.458 OA
BRANCH  21  22
ATOM     22  C   UNL A   1      34.828  32.456  29.593  1.00  0.00     0.338 C 
ATOM     23  O   UNL A   1      35.173  33.553  30.062  1.00  0.00    -0.246 OA
BRANCH  22  24
ATOM     24  C   UNL A   1      35.523  30.646  29.993  1.00  0.00     0.060 A 
ATOM     25  C   UNL A   1      36.049  29.726  28.537  1.00  0.00     0.016 A 
ATOM     26  C   UNL A   1      36.619  30.391  31.645  1.00  0.00     0.016 A 
ATOM     27  C   UNL A   1      37.689  29.156  28.499  1.00  0.00     0.010 A 
ATOM     28  C   UNL A   1      38.274  29.720  31.457  1.00  0.00     0.010 A 
ATOM     29  C   UNL A   1      38.772  29.215  29.862  1.00  0.00    -0.014 A 
BRANCH  29  30
ATOM     30  C   UNL A   1      40.165  28.818  29.503  1.00  0.00     0.031 A 
ATOM     31  C   UNL A   1      40.456  27.448  28.973  1.00  0.00     0.074 A 
ATOM     32  C   UNL A   1      41.126  29.764  29.403  1.00  0.00     0.049 A 
ATOM     33  N   UNL A   1      41.494  27.031  28.288  1.00  0.00    -0.248 NA
ATOM     34  C   UNL A   1      39.442  26.418  29.227  1.00  0.00     0.031 C 
ATOM     35  C   UNL A   1      40.988  31.164  29.796  1.00  0.00     0.029 A 
ATOM     36  N   UNL A   1      42.396  29.704  28.868  1.00  0.00    -0.354 N 
ATOM     37  C   UNL A   1      41.245  25.698  28.000  1.00  0.00     0.074 A 
ATOM     38  C   UNL A   1      39.979  25.364  28.623  1.00  0.00     0.031 C 
ATOM     39  C   UNL A   1      42.086  31.844  29.431  1.00  0.00     0.029 A 
ATOM     40  C   UNL A   1      43.017  30.929  28.784  1.00  0.00     0.049 A 
ATOM     41  H   UNL A   1      42.818  28.864  28.575  1.00  0.00     0.167 HD
ATOM     42  C   UNL A   1      41.986  24.840  27.256  1.00  0.00     0.037 A 
ATOM     43  C   UNL A   1      44.184  31.298  28.220  1.00  0.00     0.037 A 
ATOM     44  C   UNL A   1      43.228  25.153  26.599  1.00  0.00     0.049 A 
ATOM     45  C   UNL A   1      45.048  30.285  27.530  1.00  0.00     0.074 A 
ATOM     46  C   UNL A   1      43.982  24.356  25.749  1.00  0.00     0.029 A 
ATOM     47  N   UNL A   1      43.907  26.351  26.722  1.00  0.00    -0.354 N 
ATOM     48  N   UNL A   1      44.771  29.047  27.217  1.00  0.00    -0.248 NA
ATOM     49  C   UNL A   1      46.389  30.729  27.120  1.00  0.00     0.031 C 
ATOM     50  C   UNL A   1      45.133  25.064  25.383  1.00  0.00     0.029 A 
ATOM     51  C   UNL A   1      45.092  26.300  26.001  1.00  0.00     0.049 A 
ATOM     52  H   UNL A   1      43.597  27.126  27.245  1.00  0.00     0.167 HD
ATOM     53  C   UNL A   1      45.881  28.575  26.533  1.00  0.00     0.074 A 
ATOM     54  C   UNL A   1      46.851  29.649  26.503  1.00  0.00     0.031 C 
ATOM     55  C   UNL A   1      46.059  27.362  25.962  1.00  0.00     0.037 A 
BRANCH  42  56
ATOM     56  C   UNL A   1      41.452  23.456  27.088  1.00  0.00     0.064 A 
ATOM     57  C   UNL A   1      40.313  23.218  26.308  1.00  0.00     0.173 A 
ATOM     58  C   UNL A   1      42.115  22.361  27.656  1.00  0.00     0.173 A 
ATOM     59  F   UNL A   1      39.650  24.240  25.749  1.00  0.00    -0.203 F 
ATOM     60  C   UNL A   1      39.850  21.921  26.105  1.00  0.00     0.198 A 
ATOM     61  C   UNL A   1      41.650  21.065  27.450  1.00  0.00     0.198 A 
ATOM     62  F   UNL A   1      43.207  22.549  28.411  1.00  0.00    -0.203 F 
ATOM     63  F   UNL A   1      38.756  21.709  25.360  1.00  0.00    -0.200 F 
ATOM     64  C   UNL A   1      40.521  20.847  26.673  1.00  0.00     0.200 A 
ATOM     65  F   UNL A   1      42.294  20.029  28.002  1.00  0.00    -0.200 F 
ATOM     66  F   UNL A   1      40.075  19.598  26.476  1.00  0.00    -0.200 F 
ENDBRANCH  42  56
BRANCH  43  67
ATOM     67  C   UNL A   1      44.605  32.720  28.234  1.00  0.00     0.064 A 
ATOM     68  C   UNL A   1      45.203  33.275  29.374  1.00  0.00     0.173 A 
ATOM     69  C   UNL A   1      44.376  33.555  27.134  1.00  0.00     0.173 A 
ATOM     70  F   UNL A   1      45.412  32.515  30.458  1.00  0.00    -0.203 F 
ATOM     71  C   UNL A   1      45.555  34.623  29.411  1.00  0.00     0.198 A 
ATOM     72  C   UNL A   1      44.734  34.901  27.172  1.00  0.00     0.198 A 
ATOM     73  F   UNL A   1      43.787  33.067  26.033  1.00  0.00    -0.203 F 
ATOM     74  F   UNL A   1      46.103  35.140  30.520  1.00  0.00    -0.200 F 
ATOM     75  C   UNL A   1      45.322  35.433  28.312  1.00  0.00     0.200 A 
ATOM     76  F   UNL A   1      44.496  35.685  26.112  1.00  0.00    -0.200 F 
ATOM     77  F   UNL A   1      45.647  36.733  28.352  1.00  0.00    -0.200 F 
ENDBRANCH  43  67
BRANCH  55  78
ATOM     78  C   UNL A   1      47.342  27.136  25.229  1.00  0.00     0.064 A 
ATOM     79  C   UNL A   1      48.422  26.487  25.840  1.00  0.00     0.173 A 
ATOM     80  C   UNL A   1      47.491  27.566  23.902  1.00  0.00     0.173 A 
ATOM     81  F   UNL A   1      48.329  26.079  27.115  1.00  0.00    -0.203 F 
ATOM     82  C   UNL A   1      49.613  26.280  25.149  1.00  0.00     0.198 A 
ATOM     83  C   UNL A   1      48.680  27.351  23.212  1.00  0.00     0.198 A 
ATOM     84  F   UNL A   1      46.487  28.203  23.282  1.00  0.00    -0.203 F 
ATOM     85  F   UNL A   1      50.642  25.676  25.757  1.00  0.00    -0.200 F 
ATOM     86  C   UNL A   1      49.740  26.710  23.836  1.00  0.00     0.200 A 
ATOM     87  F   UNL A   1      48.806  27.774  21.946  1.00  0.00    -0.200 F 
ATOM     88  F   UNL A   1      50.890  26.516  23.174  1.00  0.00    -0.200 F 
ENDBRANCH  55  78
ENDBRANCH  29  30
ENDBRANCH  22  24
ENDBRANCH  21  22
ENDBRANCH  20  21
ENDBRANCH   1  20
TORSDOF 17
ENDMDL
MODEL 2
REMARK VINA RESULT:     -11.4      5.192     10.066
REMARK SMILES C#CCN(CC(=O)OCCOC(=O)c1ccc(-c2c3nc(c(-c4c(F)c(F)c(F)c(F)c4F)c4ccc([nH]4)c(-c4c(F)c(F)c(F)c(F)c4F)c4nc(c(-c5c(F)c(F)c(F)c(F)c5F)c5ccc2[nH]5)C=C4)C=C3)cc1)C(=O)N1CCO[C@@H](C#N)C1
REMARK SMILES IDX 9 1 8 2 6 3 7 4 5 5 4 6 3 7 2 8 1 9 77 10 78 11 79 12 80 13
REMARK SMILES IDX 86 14 81 15 83 16 82 17 84 18 85 19 10 20 11 21 12 22 13 23
REMARK SMILES IDX 14 24 15 25 76 26 16 27 75 28 17 29 18 30 19 31 69 32 20 33
REMARK SMILES IDX 74 34 68 35 70 36 21 37 73 38 67 39 66 40 22 42 54 43 34 44
REMARK SMILES IDX 53 45 35 46 38 47 52 48 71 49 36 50 37 51 51 53 72 54 39 55
REMARK SMILES IDX 23 56 24 57 32 58 25 59 26 60 30 61 33 62 27 63 28 64 31 65
REMARK SMILES IDX 29 66 55 67 56 68 64 69 57 70 58 71 62 72 65 73 59 74 60 75
REMARK SMILES IDX 63 76 61 77 40 78 41 79 49 80 42 81 43 82 47 83 50 84 44 85
REMARK SMILES IDX 45 86 48 87 46 88
REMARK H PARENT 70 41 38 52
REMARK Flexibility Score: inf
ROOT
ATOM      1  C   UNL A   1      38.747  21.543  26.010  1.00  0.00     0.274 C 
ENDROOT
BRANCH   1   2
ATOM      2  O   UNL A   1      38.055  20.929  24.919  1.00  0.00    -0.461 OA
BRANCH   2   3
ATOM      3  C   UNL A   1      36.915  21.597  24.625  1.00  0.00     0.325 C 
ATOM      4  O   UNL A   1      36.794  22.333  23.651  1.00  0.00    -0.250 OA
BRANCH   3   5
ATOM      5  C   UNL A   1      35.721  21.143  25.492  1.00  0.00     0.245 C 
BRANCH   5   6
ATOM      6  N   UNL A   1      34.396  21.929  25.687  1.00  0.00    -0.302 N 
BRANCH   6   7
ATOM      7  C   UNL A   1      33.662  20.802  25.879  1.00  0.00     0.211 C 
BRANCH   7   8
ATOM      8  C   UNL A   1      33.039  20.057  24.710  1.00  0.00    -0.085 C 
ATOM      9  C   UNL A   1      32.505  19.418  23.707  1.00  0.00     0.006 C 
ENDBRANCH   7   8
ENDBRANCH   6   7
BRANCH   6  10
ATOM     10  C   UNL A   1      33.490  23.228  25.520  1.00  0.00     0.321 C 
ATOM     11  O   UNL A   1      32.840  23.645  26.493  1.00  0.00    -0.248 OA
BRANCH  10  12
ATOM     12  N   UNL A   1      33.559  24.265  24.172  1.00  0.00    -0.319 N 
ATOM     13  C   UNL A   1      32.630  23.407  23.217  1.00  0.00     0.150 C 
ATOM     14  C   UNL A   1      33.447  26.189  23.986  1.00  0.00     0.169 C 
ATOM     15  C   UNL A   1      30.914  23.651  23.486  1.00  0.00     0.183 C 
ATOM     16  C   UNL A   1      31.571  26.869  24.449  1.00  0.00     0.240 C 
ATOM     17  O   UNL A   1      30.353  25.293  23.954  1.00  0.00    -0.360 OA
BRANCH  16  18
ATOM     18  C   UNL A   1      31.331  27.040  25.940  1.00  0.00     0.096 C 
ATOM     19  N   UNL A   1      31.134  27.182  27.177  1.00  0.00    -0.195 NA
ENDBRANCH  16  18
ENDBRANCH  10  12
ENDBRANCH   6  10
ENDBRANCH   5   6
ENDBRANCH   3   5
ENDBRANCH   2   3
ENDBRANCH   1   2
BRANCH   1  20
ATOM     20  C   UNL A   1      40.170  20.980  26.173  1.00  0.00     0.275 C 
BRANCH  20  21
ATOM     21  O   UNL A   1      41.121  21.894  26.802  1.00  0.00    -0.458 OA
BRANCH  21  22
ATOM     22  C   UNL A   1      41.446  23.074  26.121  1.00  0.00     0.338 C 
ATOM     23  O   UNL A   1      42.587  22.957  25.644  1.00  0.00    -0.246 OA
BRANCH  22  24
ATOM     24  C   UNL A   1      40.354  24.706  26.377  1.00  0.00     0.060 A 
ATOM     25  C   UNL A   1      39.335  24.678  27.860  1.00  0.00     0.016 A 
ATOM     26  C   UNL A   1      41.151  26.471  25.883  1.00  0.00     0.016 A 
ATOM     27  C   UNL A   1      39.552  25.965  29.006  1.00  0.00     0.010 A 
ATOM     28  C   UNL A   1      41.241  27.735  27.155  1.00  0.00     0.010 A 
ATOM     29  C   UNL A   1      40.513  27.385  28.703  1.00  0.00    -0.014 A 
BRANCH  29  30
ATOM     30  C   UNL A   1      40.665  28.243  29.916  1.00  0.00     0.031 A 
ATOM     31  C   UNL A   1      41.985  28.347  30.616  1.00  0.00     0.074 A 
ATOM     32  C   UNL A   1      39.695  29.129  30.234  1.00  0.00     0.049 A 
ATOM     33  N   UNL A   1      42.412  29.275  31.438  1.00  0.00    -0.248 NA
ATOM     34  C   UNL A   1      42.957  27.282  30.342  1.00  0.00     0.031 C 
ATOM     35  C   UNL A   1      38.382  29.221  29.602  1.00  0.00     0.029 A 
ATOM     36  N   UNL A   1      39.694  30.177  31.131  1.00  0.00    -0.354 N 
ATOM     37  C   UNL A   1      43.715  28.926  31.756  1.00  0.00     0.074 A 
ATOM     38  C   UNL A   1      43.993  27.677  31.074  1.00  0.00     0.031 C 
ATOM     39  C   UNL A   1      37.732  30.298  30.069  1.00  0.00     0.029 A 
ATOM     40  C   UNL A   1      38.575  30.974  31.047  1.00  0.00     0.049 A 
ATOM     41  H   UNL A   1      40.425  30.340  31.771  1.00  0.00     0.167 HD
ATOM     42  C   UNL A   1      44.610  29.601  32.518  1.00  0.00     0.037 A 
ATOM     43  C   UNL A   1      38.264  32.138  31.650  1.00  0.00     0.037 A 
ATOM     44  C   UNL A   1      44.374  30.858  33.179  1.00  0.00     0.049 A 
ATOM     45  C   UNL A   1      39.226  32.780  32.604  1.00  0.00     0.074 A 
ATOM     46  C   UNL A   1      45.270  31.645  33.889  1.00  0.00     0.029 A 
ATOM     47  N   UNL A   1      43.155  31.511  33.223  1.00  0.00    -0.354 N 
ATOM     48  N   UNL A   1      40.472  32.469  32.847  1.00  0.00    -0.248 NA
ATOM     49  C   UNL A   1      38.731  33.936  33.366  1.00  0.00     0.031 C 
ATOM     50  C   UNL A   1      44.583  32.759  34.387  1.00  0.00     0.029 A 
ATOM     51  C   UNL A   1      43.264  32.666  33.984  1.00  0.00     0.049 A 
ATOM     52  H   UNL A   1      42.332  31.201  32.781  1.00  0.00     0.167 HD
ATOM     53  C   UNL A   1      40.926  33.415  33.753  1.00  0.00     0.074 A 
ATOM     54  C   UNL A   1      39.813  34.295  34.044  1.00  0.00     0.031 C 
ATOM     55  C   UNL A   1      42.166  33.547  34.274  1.00  0.00     0.037 A 
BRANCH  42  56
ATOM     56  C   UNL A   1      45.966  28.996  32.666  1.00  0.00     0.064 A 
ATOM     57  C   UNL A   1      46.985  29.287  31.748  1.00  0.00     0.173 A 
ATOM     58  C   UNL A   1      46.267  28.172  33.758  1.00  0.00     0.173 A 
ATOM     59  F   UNL A   1      46.736  30.070  30.689  1.00  0.00    -0.203 F 
ATOM     60  C   UNL A   1      48.265  28.767  31.919  1.00  0.00     0.198 A 
ATOM     61  C   UNL A   1      47.548  27.655  33.926  1.00  0.00     0.198 A 
ATOM     62  F   UNL A   1      45.319  27.868  34.656  1.00  0.00    -0.203 F 
ATOM     63  F   UNL A   1      49.227  29.052  31.030  1.00  0.00    -0.200 F 
ATOM     64  C   UNL A   1      48.545  27.956  33.009  1.00  0.00     0.200 A 
ATOM     65  F   UNL A   1      47.819  26.868  34.976  1.00  0.00    -0.200 F 
ATOM     66  F   UNL A   1      49.779  27.456  33.173  1.00  0.00    -0.200 F 
ENDBRANCH  42  56
BRANCH  43  67
ATOM     67  C   UNL A   1      36.984  32.821  31.342  1.00  0.00     0.064 A 
ATOM     68  C   UNL A   1      35.888  32.707  32.208  1.00  0.00     0.173 A 
ATOM     69  C   UNL A   1      36.821  33.556  30.162  1.00  0.00     0.173 A 
ATOM     70  F   UNL A   1      35.996  31.987  33.333  1.00  0.00    -0.203 F 
ATOM     71  C   UNL A   1      34.669  33.306  31.900  1.00  0.00     0.198 A 
ATOM     72  C   UNL A   1      35.602  34.158  29.858  1.00  0.00     0.198 A 
ATOM     73  F   UNL A   1      37.839  33.671  29.297  1.00  0.00    -0.203 F 
ATOM     74  F   UNL A   1      33.625  33.163  32.730  1.00  0.00    -0.200 F 
ATOM     75  C   UNL A   1      34.527  34.030  30.727  1.00  0.00     0.200 A 
ATOM     76  F   UNL A   1      35.464  34.848  28.718  1.00  0.00    -0.200 F 
ATOM     77  F   UNL A   1      33.349  34.594  30.423  1.00  0.00    -0.200 F 
ENDBRANCH  43  67
BRANCH  55  78
ATOM     78  C   UNL A   1      42.400  34.703  35.193  1.00  0.00     0.064 A 
ATOM     79  C   UNL A   1      42.265  34.565  36.581  1.00  0.00     0.173 A 
ATOM     80  C   UNL A   1      42.767  35.957  34.683  1.00  0.00     0.173 A 
ATOM     81  F   UNL A   1      41.895  33.388  37.108  1.00  0.00    -0.203 F 
ATOM     82  C   UNL A   1      42.486  35.646  37.429  1.00  0.00     0.198 A 
ATOM     83  C   UNL A   1      42.993  37.034  35.535  1.00  0.00     0.198 A 
ATOM     84  F   UNL A   1      42.894  36.137  33.361  1.00  0.00    -0.203 F 
ATOM     85  F   UNL A   1      42.332  35.501  38.752  1.00  0.00    -0.200 F 
ATOM     86  C   UNL A   1      42.851  36.879  36.906  1.00  0.00     0.200 A 
ATOM     87  F   UNL A   1      43.338  38.227  35.029  1.00  0.00    -0.200 F 
ATOM     88  F   UNL A   1      43.056  37.921  37.724  1.00  0.00    -0.200 F 
ENDBRANCH  55  78
ENDBRANCH  29  30
ENDBRANCH  22  24
ENDBRANCH  21  22
ENDBRANCH  20  21
ENDBRANCH   1  20
TORSDOF 17
ENDMDL
MODEL 3
REMARK VINA RESULT:     -11.4      3.792      6.971
REMARK SMILES C#CCN(CC(=O)OCCOC(=O)c1ccc(-c2c3nc(c(-c4c(F)c(F)c(F)c(F)c4F)c4ccc([nH]4)c(-c4c(F)c(F)c(F)c(F)c4F)c4nc(c(-c5c(F)c(F)c(F)c(F)c5F)c5ccc2[nH]5)C=C4)C=C3)cc1)C(=O)N1CCO[C@@H](C#N)C1
REMARK SMILES IDX 9 1 8 2 6 3 7 4 5 5 4 6 3 7 2 8 1 9 77 10 78 11 79 12 80 13
REMARK SMILES IDX 86 14 81 15 83 16 82 17 84 18 85 19 10 20 11 21 12 22 13 23
REMARK SMILES IDX 14 24 15 25 76 26 16 27 75 28 17 29 18 30 19 31 69 32 20 33
REMARK SMILES IDX 74 34 68 35 70 36 21 37 73 38 67 39 66 40 22 42 54 43 34 44
REMARK SMILES IDX 53 45 35 46 38 47 52 48 71 49 36 50 37 51 51 53 72 54 39 55
REMARK SMILES IDX 23 56 24 57 32 58 25 59 26 60 30 61 33 62 27 63 28 64 31 65
REMARK SMILES IDX 29 66 55 67 56 68 64 69 57 70 58 71 62 72 65 73 59 74 60 75
REMARK SMILES IDX 63 76 61 77 40 78 41 79 49 80 42 81 43 82 47 83 50 84 44 85
REMARK SMILES IDX 45 86 48 87 46 88
REMARK H PARENT 70 41 38 52
REMARK Flexibility Score: inf
ROOT
ATOM      1  C   UNL A   1      36.540  33.578  32.967  1.00  0.00     0.274 C 
ENDROOT
BRANCH   1   2
ATOM      2  O   UNL A   1      36.961  32.726  34.035  1.00  0.00    -0.461 OA
BRANCH   2   3
ATOM      3  C   UNL A   1      38.309  32.612  34.068  1.00  0.00     0.325 C 
ATOM      4  O   UNL A   1      39.037  32.916  33.129  1.00  0.00    -0.250 OA
BRANCH   3   5
ATOM      5  C   UNL A   1      38.842  32.301  35.483  1.00  0.00     0.245 C 
BRANCH   5   6
ATOM      6  N   UNL A   1      39.951  31.267  35.823  1.00  0.00    -0.302 N 
BRANCH   6   7
ATOM      7  C   UNL A   1      40.625  32.134  36.623  1.00  0.00     0.211 C 
BRANCH   7   8
ATOM      8  C   UNL A   1      39.921  32.888  37.740  1.00  0.00    -0.085 C 
ATOM      9  C   UNL A   1      39.317  33.535  38.698  1.00  0.00     0.006 C 
ENDBRANCH   7   8
ENDBRANCH   6   7
BRANCH   6  10
ATOM     10  C   UNL A   1      40.777  29.938  35.528  1.00  0.00     0.321 C 
ATOM     11  O   UNL A   1      40.674  28.974  36.304  1.00  0.00    -0.248 OA
BRANCH  10  12
ATOM     12  N   UNL A   1      41.589  29.632  34.064  1.00  0.00    -0.319 N 
ATOM     13  C   UNL A   1      42.893  30.474  34.382  1.00  0.00     0.150 C 
ATOM     14  C   UNL A   1      41.834  28.028  33.007  1.00  0.00     0.169 C 
ATOM     15  C   UNL A   1      44.068  29.624  35.368  1.00  0.00     0.183 C 
ATOM     16  C   UNL A   1      43.023  26.674  33.983  1.00  0.00     0.240 C 
ATOM     17  O   UNL A   1      44.248  27.851  35.133  1.00  0.00    -0.360 OA
BRANCH  16  18
ATOM     18  C   UNL A   1      42.280  25.835  35.010  1.00  0.00     0.096 C 
ATOM     19  N   UNL A   1      41.664  25.138  35.862  1.00  0.00    -0.195 NA
ENDBRANCH  16  18
ENDBRANCH  10  12
ENDBRANCH   6  10
ENDBRANCH   5   6
ENDBRANCH   3   5
ENDBRANCH   2   3
ENDBRANCH   1   2
BRANCH   1  20
ATOM     20  C   UNL A   1      35.006  33.685  32.891  1.00  0.00     0.275 C 
BRANCH  20  21
ATOM     21  O   UNL A   1      34.397  32.972  31.771  1.00  0.00    -0.458 OA
BRANCH  21  22
ATOM     22  C   UNL A   1      35.230  32.568  30.720  1.00  0.00     0.338 C 
ATOM     23  O   UNL A   1      35.272  33.476  29.874  1.00  0.00    -0.246 OA
BRANCH  22  24
ATOM     24  C   UNL A   1      35.780  30.673  30.554  1.00  0.00     0.060 A 
ATOM     25  C   UNL A   1      36.323  30.212  28.901  1.00  0.00     0.016 A 
ATOM     26  C   UNL A   1      36.762  29.830  32.077  1.00  0.00     0.016 A 
ATOM     27  C   UNL A   1      37.922  29.551  28.739  1.00  0.00     0.010 A 
ATOM     28  C   UNL A   1      38.376  29.119  31.742  1.00  0.00     0.010 A 
ATOM     29  C   UNL A   1      38.928  29.096  30.086  1.00  0.00    -0.014 A 
BRANCH  29  30
ATOM     30  C   UNL A   1      40.310  28.719  29.666  1.00  0.00     0.031 A 
ATOM     31  C   UNL A   1      40.585  27.375  29.067  1.00  0.00     0.074 A 
ATOM     32  C   UNL A   1      41.266  29.672  29.578  1.00  0.00     0.049 A 
ATOM     33  N   UNL A   1      41.601  26.991  28.332  1.00  0.00    -0.248 NA
ATOM     34  C   UNL A   1      39.581  26.332  29.307  1.00  0.00     0.031 C 
ATOM     35  C   UNL A   1      41.139  31.052  30.037  1.00  0.00     0.029 A 
ATOM     36  N   UNL A   1      42.518  29.638  29.001  1.00  0.00    -0.354 N 
ATOM     37  C   UNL A   1      41.345  25.672  27.993  1.00  0.00     0.074 A 
ATOM     38  C   UNL A   1      40.100  25.307  28.640  1.00  0.00     0.031 C 
ATOM     39  C   UNL A   1      42.224  31.751  29.668  1.00  0.00     0.029 A 
ATOM     40  C   UNL A   1      43.135  30.867  28.952  1.00  0.00     0.049 A 
ATOM     41  H   UNL A   1      42.932  28.813  28.658  1.00  0.00     0.167 HD
ATOM     42  C   UNL A   1      42.063  24.850  27.189  1.00  0.00     0.037 A 
ATOM     43  C   UNL A   1      44.283  31.264  28.368  1.00  0.00     0.037 A 
ATOM     44  C   UNL A   1      43.283  25.194  26.507  1.00  0.00     0.049 A 
ATOM     45  C   UNL A   1      45.126  30.285  27.608  1.00  0.00     0.074 A 
ATOM     46  C   UNL A   1      44.011  24.438  25.600  1.00  0.00     0.029 A 
ATOM     47  N   UNL A   1      43.965  26.387  26.662  1.00  0.00    -0.354 N 
ATOM     48  N   UNL A   1      44.841  29.061  27.249  1.00  0.00    -0.248 NA
ATOM     49  C   UNL A   1      46.453  30.749  27.175  1.00  0.00     0.031 C 
ATOM     50  C   UNL A   1      45.149  25.164  25.229  1.00  0.00     0.029 A 
ATOM     51  C   UNL A   1      45.126  26.372  25.902  1.00  0.00     0.049 A 
ATOM     52  H   UNL A   1      43.670  27.137  27.229  1.00  0.00     0.167 HD
ATOM     53  C   UNL A   1      45.929  28.623  26.509  1.00  0.00     0.074 A 
ATOM     54  C   UNL A   1      46.897  29.699  26.496  1.00  0.00     0.031 C 
ATOM     55  C   UNL A   1      46.090  27.437  25.881  1.00  0.00     0.037 A 
BRANCH  42  56
ATOM     56  C   UNL A   1      41.526  23.473  26.976  1.00  0.00     0.064 A 
ATOM     57  C   UNL A   1      42.174  22.358  27.525  1.00  0.00     0.173 A 
ATOM     58  C   UNL A   1      40.330  23.273  26.274  1.00  0.00     0.173 A 
ATOM     59  F   UNL A   1      43.321  22.510  28.202  1.00  0.00    -0.203 F 
ATOM     60  C   UNL A   1      41.640  21.082  27.375  1.00  0.00     0.198 A 
ATOM     61  C   UNL A   1      39.800  21.995  26.127  1.00  0.00     0.198 A 
ATOM     62  F   UNL A   1      39.682  24.314  25.732  1.00  0.00    -0.203 F 
ATOM     63  F   UNL A   1      42.274  20.025  27.903  1.00  0.00    -0.200 F 
ATOM     64  C   UNL A   1      40.454  20.902  26.679  1.00  0.00     0.200 A 
ATOM     65  F   UNL A   1      38.656  21.820  25.451  1.00  0.00    -0.200 F 
ATOM     66  F   UNL A   1      39.941  19.672  26.535  1.00  0.00    -0.200 F 
ENDBRANCH  42  56
BRANCH  43  67
ATOM     67  C   UNL A   1      44.703  32.685  28.432  1.00  0.00     0.064 A 
ATOM     68  C   UNL A   1      45.370  33.181  29.561  1.00  0.00     0.173 A 
ATOM     69  C   UNL A   1      44.406  33.576  27.394  1.00  0.00     0.173 A 
ATOM     70  F   UNL A   1      45.645  32.366  30.588  1.00  0.00    -0.203 F 
ATOM     71  C   UNL A   1      45.722  34.526  29.648  1.00  0.00     0.198 A 
ATOM     72  C   UNL A   1      44.764  34.920  27.482  1.00  0.00     0.198 A 
ATOM     73  F   UNL A   1      43.750  33.145  26.307  1.00  0.00    -0.203 F 
ATOM     74  F   UNL A   1      46.337  34.986  30.748  1.00  0.00    -0.200 F 
ATOM     75  C   UNL A   1      45.420  35.393  28.610  1.00  0.00     0.200 A 
ATOM     76  F   UNL A   1      44.461  35.758  26.481  1.00  0.00    -0.200 F 
ATOM     77  F   UNL A   1      45.747  36.690  28.700  1.00  0.00    -0.200 F 
ENDBRANCH  43  67
BRANCH  55  78
ATOM     78  C   UNL A   1      47.350  27.247  25.098  1.00  0.00     0.064 A 
ATOM     79  C   UNL A   1      47.459  27.703  23.778  1.00  0.00     0.173 A 
ATOM     80  C   UNL A   1      48.459  26.609  25.673  1.00  0.00     0.173 A 
ATOM     81  F   UNL A   1      46.415  28.300  23.183  1.00  0.00    -0.203 F 
ATOM     82  C   UNL A   1      48.636  27.524  23.057  1.00  0.00     0.198 A 
ATOM     83  C   UNL A   1      49.636  26.437  24.951  1.00  0.00     0.198 A 
ATOM     84  F   UNL A   1      48.394  26.145  26.929  1.00  0.00    -0.203 F 
ATOM     85  F   UNL A   1      48.715  27.948  21.788  1.00  0.00    -0.200 F 
ATOM     86  C   UNL A   1      49.724  26.892  23.644  1.00  0.00     0.200 A 
ATOM     87  F   UNL A   1      50.684  25.820  25.516  1.00  0.00    -0.200 F 
ATOM     88  F   UNL A   1      50.854  26.714  22.945  1.00  0.00    -0.200 F 
ENDBRANCH  55  78
ENDBRANCH  29  30
ENDBRANCH  22  24
ENDBRANCH  21  22
ENDBRANCH  20  21
ENDBRANCH   1  20
TORSDOF 17
ENDMDL
