MODEL 1
REMARK VINA RESULT:     -14.7      0.000      0.000
REMARK SMILES Cc1ccccc1C(=O)Nc1cc(C(=O)OCCOC(=O)c2ccc(-c3c4nc(c(-c5c(F)c(F)c(F)c(F)c5F)c5ccc([nH]5)c(-c5c(F)c(F)c(F)c(F)c5F)c5nc(c(-c6c(F)c(F)c(F)c(F)c6F)c6ccc3[nH]6)C=C5)C=C4)cc2)ccc1N1CC[NH+](CC(=O)Nc2ccc(F)cc2)CC1
REMARK SMILES IDX 17 1 16 2 14 3 15 4 13 5 11 6 12 7 87 8 86 9 85 10 10 11
REMARK SMILES IDX 8 12 9 13 7 15 1 16 2 17 3 18 4 19 6 20 5 21 88 22 89 23
REMARK SMILES IDX 104 24 90 25 103 26 91 27 92 29 93 30 94 31 95 32 96 34
REMARK SMILES IDX 97 35 102 36 98 37 101 38 99 39 100 40 18 41 19 42 20 43
REMARK SMILES IDX 21 44 22 45 23 46 84 47 24 48 83 49 25 50 26 51 27 52 77 53
REMARK SMILES IDX 28 54 82 55 76 56 78 57 29 58 81 59 75 60 74 61 30 63 62 64
REMARK SMILES IDX 42 65 61 66 43 67 46 68 60 69 79 70 44 71 45 72 59 74 80 75
REMARK SMILES IDX 47 76 31 77 32 78 40 79 33 80 34 81 38 82 41 83 35 84 36 85
REMARK SMILES IDX 39 86 37 87 63 88 64 89 72 90 65 91 66 92 70 93 73 94 67 95
REMARK SMILES IDX 68 96 71 97 69 98 48 99 49 100 57 101 50 102 51 103 55 104
REMARK SMILES IDX 58 105 52 106 53 107 56 108 54 109
REMARK H PARENT 10 14 91 28 95 33 78 62 46 73
REMARK Flexibility Score: inf
ROOT
ATOM      1  C   UNL A   1      33.800  30.495  27.634  1.00  0.00     0.275 C 
ENDROOT
BRANCH   1   2
ATOM      2  O   UNL A   1      32.395  30.556  27.539  1.00  0.00    -0.458 OA
BRANCH   2   3
ATOM      3  C   UNL A   1      32.041  30.484  26.269  1.00  0.00     0.338 C 
ATOM      4  O   UNL A   1      31.244  31.225  25.703  1.00  0.00    -0.246 OA
BRANCH   3   5
ATOM      5  C   UNL A   1      32.704  29.323  25.547  1.00  0.00     0.062 A 
ATOM      6  C   UNL A   1      31.109  26.787  25.340  1.00  0.00     0.065 A 
ATOM      7  C   UNL A   1      31.163  28.439  25.480  1.00  0.00     0.044 A 
ATOM      8  C   UNL A   1      32.570  25.751  25.372  1.00  0.00     0.061 A 
ATOM      9  C   UNL A   1      34.234  26.421  25.412  1.00  0.00     0.029 A 
ATOM     10  C   UNL A   1      34.434  28.255  25.478  1.00  0.00     0.018 A 
BRANCH   6  11
ATOM     11  N   UNL A   1      29.800  26.298  24.917  1.00  0.00    -0.320 N 
ATOM     12  C   UNL A   1      28.761  26.841  24.061  1.00  0.00     0.255 C 
ATOM     13  O   UNL A   1      27.717  26.188  23.951  1.00  0.00    -0.269 OA
ATOM     14  H   UNL A   1      29.574  25.416  25.291  1.00  0.00     0.170 HD
BRANCH  12  15
ATOM     15  C   UNL A   1      28.867  28.079  23.146  1.00  0.00     0.043 A 
ATOM     16  C   UNL A   1      30.745  27.054  22.070  1.00  0.00     0.045 C 
ATOM     17  C   UNL A   1      30.005  28.266  22.412  1.00  0.00    -0.038 A 
ATOM     18  C   UNL A   1      30.411  29.561  22.108  1.00  0.00     0.004 A 
ATOM     19  C   UNL A   1      29.451  30.495  21.804  1.00  0.00     0.000 A 
ATOM     20  C   UNL A   1      27.844  28.934  22.728  1.00  0.00     0.014 A 
ATOM     21  C   UNL A   1      28.135  30.106  21.977  1.00  0.00     0.001 A 
ENDBRANCH  12  15
ENDBRANCH   6  11
BRANCH   8  22
ATOM     22  N   UNL A   1      32.300  24.366  25.248  1.00  0.00    -0.359 N 
ATOM     23  C   UNL A   1      32.264  23.271  26.259  1.00  0.00     0.178 C 
ATOM     24  C   UNL A   1      32.694  23.847  23.949  1.00  0.00     0.178 C 
ATOM     25  C   UNL A   1      31.487  21.996  25.690  1.00  0.00     0.284 C 
ATOM     26  C   UNL A   1      31.667  22.760  23.491  1.00  0.00     0.284 C 
ATOM     27  N   UNL A   1      31.733  21.576  24.304  1.00  0.00    -0.324 N 
ATOM     28  H   UNL A   1      31.005  20.869  24.196  1.00  0.00     0.348 HD
BRANCH  27  29
ATOM     29  C   UNL A   1      32.853  20.712  23.863  1.00  0.00     0.364 C 
BRANCH  29  30
ATOM     30  C   UNL A   1      33.728  19.997  24.916  1.00  0.00     0.279 C 
ATOM     31  O   UNL A   1      33.339  18.878  25.303  1.00  0.00    -0.268 OA
ATOM     32  N   UNL A   1      34.944  20.378  25.452  1.00  0.00    -0.321 N 
ATOM     33  H   UNL A   1      35.335  19.592  25.897  1.00  0.00     0.170 HD
BRANCH  32  34
ATOM     34  C   UNL A   1      35.859  21.472  25.613  1.00  0.00     0.041 A 
ATOM     35  C   UNL A   1      37.216  21.168  25.422  1.00  0.00     0.029 A 
ATOM     36  C   UNL A   1      35.647  22.780  26.059  1.00  0.00     0.029 A 
ATOM     37  C   UNL A   1      38.231  22.144  25.547  1.00  0.00     0.041 A 
ATOM     38  C   UNL A   1      36.624  23.779  26.149  1.00  0.00     0.041 A 
ATOM     39  C   UNL A   1      37.919  23.454  25.870  1.00  0.00     0.123 A 
ATOM     40  F   UNL A   1      38.870  24.387  25.979  1.00  0.00    -0.207 F 
ENDBRANCH  32  34
ENDBRANCH  29  30
ENDBRANCH  27  29
ENDBRANCH   8  22
ENDBRANCH   3   5
ENDBRANCH   2   3
ENDBRANCH   1   2
BRANCH   1  41
ATOM     41  C   UNL A   1      34.613  31.815  27.980  1.00  0.00     0.275 C 
BRANCH  41  42
ATOM     42  O   UNL A   1      34.025  33.156  28.290  1.00  0.00    -0.458 OA
BRANCH  42  43
ATOM     43  C   UNL A   1      34.466  34.206  29.113  1.00  0.00     0.338 C 
ATOM     44  O   UNL A   1      34.751  35.312  28.681  1.00  0.00    -0.246 OA
BRANCH  43  45
ATOM     45  C   UNL A   1      35.145  33.689  30.337  1.00  0.00     0.060 A 
ATOM     46  C   UNL A   1      34.646  32.670  31.791  1.00  0.00     0.016 A 
ATOM     47  C   UNL A   1      36.806  33.692  29.866  1.00  0.00     0.016 A 
ATOM     48  C   UNL A   1      36.157  31.631  32.683  1.00  0.00     0.010 A 
ATOM     49  C   UNL A   1      37.934  32.693  30.542  1.00  0.00     0.010 A 
ATOM     50  C   UNL A   1      37.828  31.683  31.928  1.00  0.00    -0.014 A 
BRANCH  50  51
ATOM     51  C   UNL A   1      39.294  30.959  31.884  1.00  0.00     0.031 A 
ATOM     52  C   UNL A   1      39.667  29.766  31.003  1.00  0.00     0.074 A 
ATOM     53  C   UNL A   1      40.388  31.697  32.352  1.00  0.00     0.049 A 
ATOM     54  N   UNL A   1      40.460  29.841  29.963  1.00  0.00    -0.248 NA
ATOM     55  C   UNL A   1      39.105  28.408  31.154  1.00  0.00     0.031 C 
ATOM     56  C   UNL A   1      41.838  31.679  32.050  1.00  0.00     0.029 A 
ATOM     57  N   UNL A   1      40.396  32.763  33.306  1.00  0.00    -0.354 N 
ATOM     58  C   UNL A   1      40.472  28.602  29.299  1.00  0.00     0.074 A 
ATOM     59  C   UNL A   1      39.436  27.832  29.982  1.00  0.00     0.031 C 
ATOM     60  C   UNL A   1      42.537  32.296  33.038  1.00  0.00     0.029 A 
ATOM     61  C   UNL A   1      41.587  32.742  34.037  1.00  0.00     0.049 A 
ATOM     62  H   UNL A   1      39.669  33.415  33.430  1.00  0.00     0.167 HD
ATOM     63  C   UNL A   1      41.653  27.955  29.058  1.00  0.00     0.037 A 
ATOM     64  C   UNL A   1      41.479  32.422  35.354  1.00  0.00     0.037 A 
ATOM     65  C   UNL A   1      42.593  28.275  30.099  1.00  0.00     0.049 A 
ATOM     66  C   UNL A   1      41.880  30.972  35.432  1.00  0.00     0.074 A 
ATOM     67  C   UNL A   1      43.590  29.211  30.239  1.00  0.00     0.029 A 
ATOM     68  N   UNL A   1      42.307  27.791  31.363  1.00  0.00    -0.354 N 
ATOM     69  N   UNL A   1      41.830  30.162  34.403  1.00  0.00    -0.248 NA
ATOM     70  C   UNL A   1      42.527  30.384  36.590  1.00  0.00     0.031 C 
ATOM     71  C   UNL A   1      43.836  29.338  31.642  1.00  0.00     0.029 A 
ATOM     72  C   UNL A   1      42.995  28.474  32.340  1.00  0.00     0.049 A 
ATOM     73  H   UNL A   1      41.687  27.048  31.542  1.00  0.00     0.167 HD
ATOM     74  C   UNL A   1      42.573  29.060  34.668  1.00  0.00     0.074 A 
ATOM     75  C   UNL A   1      42.957  29.226  36.062  1.00  0.00     0.031 C 
ATOM     76  C   UNL A   1      42.842  28.089  33.745  1.00  0.00     0.037 A 
BRANCH  63  77
ATOM     77  C   UNL A   1      41.948  27.151  27.806  1.00  0.00     0.064 A 
ATOM     78  C   UNL A   1      41.657  25.768  27.773  1.00  0.00     0.173 A 
ATOM     79  C   UNL A   1      42.595  27.648  26.653  1.00  0.00     0.173 A 
ATOM     80  F   UNL A   1      41.001  25.180  28.782  1.00  0.00    -0.203 F 
ATOM     81  C   UNL A   1      42.048  24.936  26.716  1.00  0.00     0.198 A 
ATOM     82  C   UNL A   1      42.979  26.811  25.587  1.00  0.00     0.198 A 
ATOM     83  F   UNL A   1      42.872  28.954  26.532  1.00  0.00    -0.203 F 
ATOM     84  F   UNL A   1      41.785  23.621  26.773  1.00  0.00    -0.200 F 
ATOM     85  C   UNL A   1      42.721  25.453  25.630  1.00  0.00     0.200 A 
ATOM     86  F   UNL A   1      43.620  27.322  24.526  1.00  0.00    -0.200 F 
ATOM     87  F   UNL A   1      43.120  24.647  24.634  1.00  0.00    -0.200 F 
ENDBRANCH  63  77
BRANCH  64  88
ATOM     88  C   UNL A   1      40.250  33.100  35.912  1.00  0.00     0.064 A 
ATOM     89  C   UNL A   1      39.163  32.252  36.270  1.00  0.00     0.173 A 
ATOM     90  C   UNL A   1      40.346  34.325  36.579  1.00  0.00     0.173 A 
ATOM     91  F   UNL A   1      39.029  31.050  35.683  1.00  0.00    -0.203 F 
ATOM     92  C   UNL A   1      38.355  32.528  37.372  1.00  0.00     0.198 A 
ATOM     93  C   UNL A   1      39.479  34.632  37.632  1.00  0.00     0.198 A 
ATOM     94  F   UNL A   1      41.379  35.146  36.341  1.00  0.00    -0.203 F 
ATOM     95  F   UNL A   1      37.531  31.586  37.859  1.00  0.00    -0.200 F 
ATOM     96  C   UNL A   1      38.517  33.717  38.053  1.00  0.00     0.200 A 
ATOM     97  F   UNL A   1      39.678  35.750  38.344  1.00  0.00    -0.200 F 
ATOM     98  F   UNL A   1      37.826  33.934  39.184  1.00  0.00    -0.200 F 
ENDBRANCH  64  88
BRANCH  76  99
ATOM     99  C   UNL A   1      43.074  26.667  34.177  1.00  0.00     0.064 A 
ATOM    100  C   UNL A   1      42.071  25.896  34.792  1.00  0.00     0.173 A 
ATOM    101  C   UNL A   1      44.265  25.972  33.879  1.00  0.00     0.173 A 
ATOM    102  F   UNL A   1      40.802  26.319  34.871  1.00  0.00    -0.203 F 
ATOM    103  C   UNL A   1      42.319  24.626  35.290  1.00  0.00     0.198 A 
ATOM    104  C   UNL A   1      44.459  24.648  34.253  1.00  0.00     0.198 A 
ATOM    105  F   UNL A   1      45.261  26.523  33.173  1.00  0.00    -0.203 F 
ATOM    106  F   UNL A   1      41.375  24.009  36.011  1.00  0.00    -0.200 F 
ATOM    107  C   UNL A   1      43.515  23.998  35.017  1.00  0.00     0.200 A 
ATOM    108  F   UNL A   1      45.564  24.005  33.852  1.00  0.00    -0.200 F 
ATOM    109  F   UNL A   1      43.736  22.753  35.453  1.00  0.00    -0.200 F 
ENDBRANCH  76  99
ENDBRANCH  50  51
ENDBRANCH  43  45
ENDBRANCH  42  43
ENDBRANCH  41  42
ENDBRANCH   1  41
TORSDOF 17
ENDMDL
MODEL 2
REMARK VINA RESULT:     -13.6      5.569     11.510
REMARK SMILES Cc1ccccc1C(=O)Nc1cc(C(=O)OCCOC(=O)c2ccc(-c3c4nc(c(-c5c(F)c(F)c(F)c(F)c5F)c5ccc([nH]5)c(-c5c(F)c(F)c(F)c(F)c5F)c5nc(c(-c6c(F)c(F)c(F)c(F)c6F)c6ccc3[nH]6)C=C5)C=C4)cc2)ccc1N1CC[NH+](CC(=O)Nc2ccc(F)cc2)CC1
REMARK SMILES IDX 17 1 16 2 14 3 15 4 13 5 11 6 12 7 87 8 86 9 85 10 10 11
REMARK SMILES IDX 8 12 9 13 7 15 1 16 2 17 3 18 4 19 6 20 5 21 88 22 89 23
REMARK SMILES IDX 104 24 90 25 103 26 91 27 92 29 93 30 94 31 95 32 96 34
REMARK SMILES IDX 97 35 102 36 98 37 101 38 99 39 100 40 18 41 19 42 20 43
REMARK SMILES IDX 21 44 22 45 23 46 84 47 24 48 83 49 25 50 26 51 27 52 77 53
REMARK SMILES IDX 28 54 82 55 76 56 78 57 29 58 81 59 75 60 74 61 30 63 62 64
REMARK SMILES IDX 42 65 61 66 43 67 46 68 60 69 79 70 44 71 45 72 59 74 80 75
REMARK SMILES IDX 47 76 31 77 32 78 40 79 33 80 34 81 38 82 41 83 35 84 36 85
REMARK SMILES IDX 39 86 37 87 63 88 64 89 72 90 65 91 66 92 70 93 73 94 67 95
REMARK SMILES IDX 68 96 71 97 69 98 48 99 49 100 57 101 50 102 51 103 55 104
REMARK SMILES IDX 58 105 52 106 53 107 56 108 54 109
REMARK H PARENT 10 14 91 28 95 33 78 62 46 73
REMARK Flexibility Score: inf
ROOT
ATOM      1  C   UNL A   1      44.967  29.689  38.688  1.00  0.00     0.275 C 
ENDROOT
BRANCH   1   2
ATOM      2  O   UNL A   1      43.926  29.965  37.778  1.00  0.00    -0.458 OA
BRANCH   2   3
ATOM      3  C   UNL A   1      43.802  31.273  37.643  1.00  0.00     0.338 C 
ATOM      4  O   UNL A   1      44.039  32.108  38.509  1.00  0.00    -0.246 OA
BRANCH   3   5
ATOM      5  C   UNL A   1      43.274  31.667  36.274  1.00  0.00     0.062 A 
ATOM      6  C   UNL A   1      40.446  30.876  35.649  1.00  0.00     0.065 A 
ATOM      7  C   UNL A   1      41.612  31.269  36.761  1.00  0.00     0.044 A 
ATOM      8  C   UNL A   1      40.781  30.695  33.898  1.00  0.00     0.061 A 
ATOM      9  C   UNL A   1      42.379  31.068  33.172  1.00  0.00     0.029 A 
ATOM     10  C   UNL A   1      43.743  31.604  34.295  1.00  0.00     0.018 A 
BRANCH   6  11
ATOM     11  N   UNL A   1      39.094  30.963  36.192  1.00  0.00    -0.320 N 
ATOM     12  C   UNL A   1      38.359  32.012  36.877  1.00  0.00     0.255 C 
ATOM     13  O   UNL A   1      37.221  31.741  37.272  1.00  0.00    -0.269 OA
ATOM     14  H   UNL A   1      38.571  30.138  36.069  1.00  0.00     0.170 HD
BRANCH  12  15
ATOM     15  C   UNL A   1      38.785  33.486  37.039  1.00  0.00     0.043 A 
ATOM     16  C   UNL A   1      37.957  33.910  34.832  1.00  0.00     0.045 C 
ATOM     17  C   UNL A   1      38.842  34.286  35.932  1.00  0.00    -0.038 A 
ATOM     18  C   UNL A   1      39.760  35.330  35.897  1.00  0.00     0.004 A 
ATOM     19  C   UNL A   1      39.990  36.041  37.050  1.00  0.00     0.000 A 
ATOM     20  C   UNL A   1      38.870  34.235  38.215  1.00  0.00     0.014 A 
ATOM     21  C   UNL A   1      39.398  35.556  38.201  1.00  0.00     0.001 A 
ENDBRANCH  12  15
ENDBRANCH   6  11
BRANCH   8  22
ATOM     22  N   UNL A   1      39.647  30.345  33.125  1.00  0.00    -0.359 N 
ATOM     23  C   UNL A   1      39.152  29.026  32.636  1.00  0.00     0.178 C 
ATOM     24  C   UNL A   1      39.262  31.405  32.209  1.00  0.00     0.178 C 
ATOM     25  C   UNL A   1      37.620  29.121  32.195  1.00  0.00     0.284 C 
ATOM     26  C   UNL A   1      37.703  31.452  32.095  1.00  0.00     0.284 C 
ATOM     27  N   UNL A   1      37.173  30.293  31.430  1.00  0.00    -0.324 N 
ATOM     28  H   UNL A   1      36.164  30.143  31.440  1.00  0.00     0.348 HD
BRANCH  27  29
ATOM     29  C   UNL A   1      37.291  30.445  29.961  1.00  0.00     0.364 C 
BRANCH  29  30
ATOM     30  C   UNL A   1      36.022  30.405  29.082  1.00  0.00     0.279 C 
ATOM     31  O   UNL A   1      35.878  29.410  28.347  1.00  0.00    -0.268 OA
ATOM     32  N   UNL A   1      34.956  31.285  29.040  1.00  0.00    -0.321 N 
ATOM     33  H   UNL A   1      34.219  30.840  28.562  1.00  0.00     0.170 HD
BRANCH  32  34
ATOM     34  C   UNL A   1      34.504  32.593  29.420  1.00  0.00     0.041 A 
ATOM     35  C   UNL A   1      33.895  33.349  28.406  1.00  0.00     0.029 A 
ATOM     36  C   UNL A   1      34.681  33.310  30.608  1.00  0.00     0.029 A 
ATOM     37  C   UNL A   1      33.401  34.654  28.634  1.00  0.00     0.041 A 
ATOM     38  C   UNL A   1      34.165  34.583  30.877  1.00  0.00     0.041 A 
ATOM     39  C   UNL A   1      33.505  35.244  29.883  1.00  0.00     0.123 A 
ATOM     40  F   UNL A   1      33.030  36.472  30.111  1.00  0.00    -0.207 F 
ENDBRANCH  32  34
ENDBRANCH  29  30
ENDBRANCH  27  29
ENDBRANCH   8  22
ENDBRANCH   3   5
ENDBRANCH   2   3
ENDBRANCH   1   2
BRANCH   1  41
ATOM     41  C   UNL A   1      46.008  28.537  38.350  1.00  0.00     0.275 C 
BRANCH  41  42
ATOM     42  O   UNL A   1      46.430  28.104  36.982  1.00  0.00    -0.458 OA
BRANCH  42  43
ATOM     43  C   UNL A   1      46.275  28.702  35.719  1.00  0.00     0.338 C 
ATOM     44  O   UNL A   1      46.495  29.886  35.515  1.00  0.00    -0.246 OA
BRANCH  43  45
ATOM     45  C   UNL A   1      45.255  27.984  34.899  1.00  0.00     0.060 A 
ATOM     46  C   UNL A   1      43.413  27.950  34.819  1.00  0.00     0.016 A 
ATOM     47  C   UNL A   1      46.148  27.572  33.479  1.00  0.00     0.016 A 
ATOM     48  C   UNL A   1      42.631  27.429  33.010  1.00  0.00     0.010 A 
ATOM     49  C   UNL A   1      45.435  27.323  32.010  1.00  0.00     0.010 A 
ATOM     50  C   UNL A   1      43.774  27.159  31.600  1.00  0.00    -0.014 A 
BRANCH  50  51
ATOM     51  C   UNL A   1      43.878  27.038  29.973  1.00  0.00     0.031 A 
ATOM     52  C   UNL A   1      44.216  25.763  29.199  1.00  0.00     0.074 A 
ATOM     53  C   UNL A   1      43.232  28.022  29.214  1.00  0.00     0.049 A 
ATOM     54  N   UNL A   1      43.351  25.087  28.484  1.00  0.00    -0.248 NA
ATOM     55  C   UNL A   1      45.528  25.084  29.239  1.00  0.00     0.031 C 
ATOM     56  C   UNL A   1      42.648  28.043  27.853  1.00  0.00     0.029 A 
ATOM     57  N   UNL A   1      42.919  29.367  29.587  1.00  0.00    -0.354 N 
ATOM     58  C   UNL A   1      43.951  23.900  28.031  1.00  0.00     0.074 A 
ATOM     59  C   UNL A   1      45.236  23.874  28.724  1.00  0.00     0.031 C 
ATOM     60  C   UNL A   1      42.499  29.322  27.420  1.00  0.00     0.029 A 
ATOM     61  C   UNL A   1      42.981  30.201  28.467  1.00  0.00     0.049 A 
ATOM     62  H   UNL A   1      42.694  29.662  30.499  1.00  0.00     0.167 HD
ATOM     63  C   UNL A   1      43.972  23.598  26.697  1.00  0.00     0.037 A 
ATOM     64  C   UNL A   1      43.985  31.117  28.453  1.00  0.00     0.037 A 
ATOM     65  C   UNL A   1      44.013  24.816  25.933  1.00  0.00     0.049 A 
ATOM     66  C   UNL A   1      45.041  30.518  27.562  1.00  0.00     0.074 A 
ATOM     67  C   UNL A   1      43.060  25.607  25.336  1.00  0.00     0.029 A 
ATOM     68  N   UNL A   1      45.169  25.569  26.027  1.00  0.00    -0.354 N 
ATOM     69  N   UNL A   1      45.125  29.233  27.319  1.00  0.00    -0.248 NA
ATOM     70  C   UNL A   1      45.942  31.312  26.747  1.00  0.00     0.031 C 
ATOM     71  C   UNL A   1      43.656  26.895  25.151  1.00  0.00     0.029 A 
ATOM     72  C   UNL A   1      44.965  26.871  25.628  1.00  0.00     0.049 A 
ATOM     73  H   UNL A   1      46.033  25.217  26.341  1.00  0.00     0.167 HD
ATOM     74  C   UNL A   1      45.910  29.036  26.232  1.00  0.00     0.074 A 
ATOM     75  C   UNL A   1      46.430  30.362  25.933  1.00  0.00     0.031 C 
ATOM     76  C   UNL A   1      46.082  27.819  25.634  1.00  0.00     0.037 A 
BRANCH  63  77
ATOM     77  C   UNL A   1      43.826  22.196  26.134  1.00  0.00     0.064 A 
ATOM     78  C   UNL A   1      42.657  21.449  26.404  1.00  0.00     0.173 A 
ATOM     79  C   UNL A   1      44.822  21.501  25.413  1.00  0.00     0.173 A 
ATOM     80  F   UNL A   1      41.617  22.005  27.037  1.00  0.00    -0.203 F 
ATOM     81  C   UNL A   1      42.523  20.098  26.054  1.00  0.00     0.198 A 
ATOM     82  C   UNL A   1      44.681  20.146  25.054  1.00  0.00     0.198 A 
ATOM     83  F   UNL A   1      45.954  22.116  25.041  1.00  0.00    -0.203 F 
ATOM     84  F   UNL A   1      41.407  19.433  26.387  1.00  0.00    -0.200 F 
ATOM     85  C   UNL A   1      43.540  19.442  25.393  1.00  0.00     0.200 A 
ATOM     86  F   UNL A   1      45.667  19.517  24.397  1.00  0.00    -0.200 F 
ATOM     87  F   UNL A   1      43.419  18.141  25.087  1.00  0.00    -0.200 F 
ENDBRANCH  63  77
BRANCH  64  88
ATOM     88  C   UNL A   1      44.128  31.690  29.843  1.00  0.00     0.064 A 
ATOM     89  C   UNL A   1      45.305  31.331  30.562  1.00  0.00     0.173 A 
ATOM     90  C   UNL A   1      43.519  32.902  30.187  1.00  0.00     0.173 A 
ATOM     91  F   UNL A   1      45.951  30.191  30.263  1.00  0.00    -0.203 F 
ATOM     92  C   UNL A   1      45.940  32.230  31.417  1.00  0.00     0.198 A 
ATOM     93  C   UNL A   1      44.122  33.764  31.108  1.00  0.00     0.198 A 
ATOM     94  F   UNL A   1      42.448  33.336  29.510  1.00  0.00    -0.203 F 
ATOM     95  F   UNL A   1      47.184  31.980  31.857  1.00  0.00    -0.200 F 
ATOM     96  C   UNL A   1      45.348  33.447  31.686  1.00  0.00     0.200 A 
ATOM     97  F   UNL A   1      43.591  34.977  31.318  1.00  0.00    -0.200 F 
ATOM     98  F   UNL A   1      46.011  34.363  32.411  1.00  0.00    -0.200 F 
ENDBRANCH  64  88
BRANCH  76  99
ATOM     99  C   UNL A   1      47.360  27.498  24.910  1.00  0.00     0.064 A 
ATOM    100  C   UNL A   1      48.402  26.770  25.512  1.00  0.00     0.173 A 
ATOM    101  C   UNL A   1      47.548  27.790  23.542  1.00  0.00     0.173 A 
ATOM    102  F   UNL A   1      48.251  26.169  26.700  1.00  0.00    -0.203 F 
ATOM    103  C   UNL A   1      49.622  26.571  24.883  1.00  0.00     0.198 A 
ATOM    104  C   UNL A   1      48.719  27.461  22.872  1.00  0.00     0.198 A 
ATOM    105  F   UNL A   1      46.593  28.354  22.791  1.00  0.00    -0.203 F 
ATOM    106  F   UNL A   1      50.630  26.018  25.569  1.00  0.00    -0.200 F 
ATOM    107  C   UNL A   1      49.780  26.914  23.559  1.00  0.00     0.200 A 
ATOM    108  F   UNL A   1      48.802  27.666  21.551  1.00  0.00    -0.200 F 
ATOM    109  F   UNL A   1      50.940  26.676  22.936  1.00  0.00    -0.200 F 
ENDBRANCH  76  99
ENDBRANCH  50  51
ENDBRANCH  43  45
ENDBRANCH  42  43
ENDBRANCH  41  42
ENDBRANCH   1  41
TORSDOF 17
ENDMDL
MODEL 3
REMARK VINA RESULT:     -13.3      5.659     10.753
REMARK SMILES Cc1ccccc1C(=O)Nc1cc(C(=O)OCCOC(=O)c2ccc(-c3c4nc(c(-c5c(F)c(F)c(F)c(F)c5F)c5ccc([nH]5)c(-c5c(F)c(F)c(F)c(F)c5F)c5nc(c(-c6c(F)c(F)c(F)c(F)c6F)c6ccc3[nH]6)C=C5)C=C4)cc2)ccc1N1CC[NH+](CC(=O)Nc2ccc(F)cc2)CC1
REMARK SMILES IDX 17 1 16 2 14 3 15 4 13 5 11 6 12 7 87 8 86 9 85 10 10 11
REMARK SMILES IDX 8 12 9 13 7 15 1 16 2 17 3 18 4 19 6 20 5 21 88 22 89 23
REMARK SMILES IDX 104 24 90 25 103 26 91 27 92 29 93 30 94 31 95 32 96 34
REMARK SMILES IDX 97 35 102 36 98 37 101 38 99 39 100 40 18 41 19 42 20 43
REMARK SMILES IDX 21 44 22 45 23 46 84 47 24 48 83 49 25 50 26 51 27 52 77 53
REMARK SMILES IDX 28 54 82 55 76 56 78 57 29 58 81 59 75 60 74 61 30 63 62 64
REMARK SMILES IDX 42 65 61 66 43 67 46 68 60 69 79 70 44 71 45 72 59 74 80 75
REMARK SMILES IDX 47 76 31 77 32 78 40 79 33 80 34 81 38 82 41 83 35 84 36 85
REMARK SMILES IDX 39 86 37 87 63 88 64 89 72 90 65 91 66 92 70 93 73 94 67 95
REMARK SMILES IDX 68 96 71 97 69 98 48 99 49 100 57 101 50 102 51 103 55 104
REMARK SMILES IDX 58 105 52 106 53 107 56 108 54 109
REMARK H PARENT 10 14 91 28 95 33 78 62 46 73
REMARK Flexibility Score: inf
ROOT
ATOM      1  C   UNL A   1      49.735  29.355  28.997  1.00  0.00     0.275 C 
ENDROOT
BRANCH   1   2
ATOM      2  O   UNL A   1      48.669  28.772  28.283  1.00  0.00    -0.458 OA
BRANCH   2   3
ATOM      3  C   UNL A   1      49.058  27.609  27.794  1.00  0.00     0.338 C 
ATOM      4  O   UNL A   1      50.004  26.941  28.199  1.00  0.00    -0.246 OA
BRANCH   3   5
ATOM      5  C   UNL A   1      48.224  27.172  26.602  1.00  0.00     0.062 A 
ATOM      6  C   UNL A   1      46.211  25.000  27.098  1.00  0.00     0.065 A 
ATOM      7  C   UNL A   1      47.119  26.268  27.662  1.00  0.00     0.044 A 
ATOM      8  C   UNL A   1      46.352  24.354  25.433  1.00  0.00     0.061 A 
ATOM      9  C   UNL A   1      47.386  25.118  24.181  1.00  0.00     0.029 A 
ATOM     10  C   UNL A   1      48.383  26.597  24.657  1.00  0.00     0.018 A 
BRANCH   6  11
ATOM     11  N   UNL A   1      45.111  24.651  27.992  1.00  0.00    -0.320 N 
ATOM     12  C   UNL A   1      43.801  25.230  28.236  1.00  0.00     0.255 C 
ATOM     13  O   UNL A   1      43.112  24.720  29.126  1.00  0.00    -0.269 OA
ATOM     14  H   UNL A   1      45.294  23.859  28.546  1.00  0.00     0.170 HD
BRANCH  12  15
ATOM     15  C   UNL A   1      43.104  26.326  27.404  1.00  0.00     0.043 A 
ATOM     16  C   UNL A   1      44.146  27.971  28.797  1.00  0.00     0.045 C 
ATOM     17  C   UNL A   1      43.062  27.603  27.889  1.00  0.00    -0.038 A 
ATOM     18  C   UNL A   1      41.989  28.422  27.554  1.00  0.00     0.004 A 
ATOM     19  C   UNL A   1      41.477  28.345  26.282  1.00  0.00     0.000 A 
ATOM     20  C   UNL A   1      42.723  26.278  26.060  1.00  0.00     0.014 A 
ATOM     21  C   UNL A   1      41.976  27.339  25.476  1.00  0.00     0.001 A 
ENDBRANCH  12  15
ENDBRANCH   6  11
BRANCH   8  22
ATOM     22  N   UNL A   1      45.493  23.262  25.161  1.00  0.00    -0.359 N 
ATOM     23  C   UNL A   1      44.013  23.183  24.998  1.00  0.00     0.178 C 
ATOM     24  C   UNL A   1      46.014  22.013  25.691  1.00  0.00     0.178 C 
ATOM     25  C   UNL A   1      43.592  21.824  24.273  1.00  0.00     0.284 C 
ATOM     26  C   UNL A   1      45.667  20.847  24.708  1.00  0.00     0.284 C 
ATOM     27  N   UNL A   1      44.256  20.574  24.667  1.00  0.00    -0.324 N 
ATOM     28  H   UNL A   1      43.902  19.945  23.947  1.00  0.00     0.348 HD
BRANCH  27  29
ATOM     29  C   UNL A   1      43.864  19.728  25.819  1.00  0.00     0.364 C 
BRANCH  29  30
ATOM     30  C   UNL A   1      42.421  19.183  25.911  1.00  0.00     0.279 C 
ATOM     31  O   UNL A   1      42.264  17.968  25.690  1.00  0.00    -0.268 OA
ATOM     32  N   UNL A   1      41.260  19.833  26.287  1.00  0.00    -0.321 N 
ATOM     33  H   UNL A   1      40.579  19.148  26.473  1.00  0.00     0.170 HD
BRANCH  32  34
ATOM     34  C   UNL A   1      40.660  21.118  26.511  1.00  0.00     0.041 A 
ATOM     35  C   UNL A   1      39.401  21.316  25.922  1.00  0.00     0.029 A 
ATOM     36  C   UNL A   1      41.171  22.271  27.116  1.00  0.00     0.029 A 
ATOM     37  C   UNL A   1      38.690  22.531  26.058  1.00  0.00     0.041 A 
ATOM     38  C   UNL A   1      40.475  23.470  27.305  1.00  0.00     0.041 A 
ATOM     39  C   UNL A   1      39.218  23.584  26.785  1.00  0.00     0.123 A 
ATOM     40  F   UNL A   1      38.549  24.732  26.929  1.00  0.00    -0.207 F 
ENDBRANCH  32  34
ENDBRANCH  29  30
ENDBRANCH  27  29
ENDBRANCH   8  22
ENDBRANCH   3   5
ENDBRANCH   2   3
ENDBRANCH   1   2
BRANCH   1  41
ATOM     41  C   UNL A   1      49.674  30.901  29.360  1.00  0.00     0.275 C 
BRANCH  41  42
ATOM     42  O   UNL A   1      48.580  31.850  28.986  1.00  0.00    -0.458 OA
BRANCH  42  43
ATOM     43  C   UNL A   1      47.736  32.663  29.764  1.00  0.00     0.338 C 
ATOM     44  O   UNL A   1      47.940  32.888  30.947  1.00  0.00    -0.246 OA
BRANCH  43  45
ATOM     45  C   UNL A   1      46.340  32.657  29.238  1.00  0.00     0.060 A 
ATOM     46  C   UNL A   1      45.485  31.929  27.775  1.00  0.00     0.016 A 
ATOM     47  C   UNL A   1      45.410  32.982  30.657  1.00  0.00     0.016 A 
ATOM     48  C   UNL A   1      43.492  31.573  28.022  1.00  0.00     0.010 A 
ATOM     49  C   UNL A   1      43.837  32.510  30.827  1.00  0.00     0.010 A 
ATOM     50  C   UNL A   1      42.739  31.877  29.667  1.00  0.00    -0.014 A 
BRANCH  50  51
ATOM     51  C   UNL A   1      41.442  31.575  30.615  1.00  0.00     0.031 A 
ATOM     52  C   UNL A   1      40.258  32.521  30.824  1.00  0.00     0.074 A 
ATOM     53  C   UNL A   1      41.177  30.237  30.933  1.00  0.00     0.049 A 
ATOM     54  N   UNL A   1      39.060  32.315  30.336  1.00  0.00    -0.248 NA
ATOM     55  C   UNL A   1      40.342  33.824  31.515  1.00  0.00     0.031 C 
ATOM     56  C   UNL A   1      39.944  29.493  31.277  1.00  0.00     0.029 A 
ATOM     57  N   UNL A   1      42.094  29.142  30.995  1.00  0.00    -0.354 N 
ATOM     58  C   UNL A   1      38.257  33.441  30.591  1.00  0.00     0.074 A 
ATOM     59  C   UNL A   1      39.193  34.419  31.138  1.00  0.00     0.031 C 
ATOM     60  C   UNL A   1      40.251  28.320  31.888  1.00  0.00     0.029 A 
ATOM     61  C   UNL A   1      41.695  28.237  31.983  1.00  0.00     0.049 A 
ATOM     62  H   UNL A   1      42.892  29.041  30.425  1.00  0.00     0.167 HD
ATOM     63  C   UNL A   1      37.063  33.309  31.245  1.00  0.00     0.037 A 
ATOM     64  C   UNL A   1      42.502  28.141  33.072  1.00  0.00     0.037 A 
ATOM     65  C   UNL A   1      37.141  32.201  32.160  1.00  0.00     0.049 A 
ATOM     66  C   UNL A   1      41.822  28.971  34.129  1.00  0.00     0.074 A 
ATOM     67  C   UNL A   1      36.800  30.871  32.090  1.00  0.00     0.029 A 
ATOM     68  N   UNL A   1      37.992  32.348  33.241  1.00  0.00    -0.354 N 
ATOM     69  N   UNL A   1      40.965  29.922  33.848  1.00  0.00    -0.248 NA
ATOM     70  C   UNL A   1      41.907  28.682  35.548  1.00  0.00     0.031 C 
ATOM     71  C   UNL A   1      37.544  30.204  33.114  1.00  0.00     0.029 A 
ATOM     72  C   UNL A   1      38.321  31.134  33.801  1.00  0.00     0.049 A 
ATOM     73  H   UNL A   1      38.322  33.215  33.569  1.00  0.00     0.167 HD
ATOM     74  C   UNL A   1      40.264  30.234  34.965  1.00  0.00     0.074 A 
ATOM     75  C   UNL A   1      40.915  29.460  36.012  1.00  0.00     0.031 C 
ATOM     76  C   UNL A   1      39.197  31.086  34.975  1.00  0.00     0.037 A 
BRANCH  63  77
ATOM     77  C   UNL A   1      35.821  34.121  30.931  1.00  0.00     0.064 A 
ATOM     78  C   UNL A   1      35.188  34.863  31.955  1.00  0.00     0.173 A 
ATOM     79  C   UNL A   1      35.153  34.138  29.687  1.00  0.00     0.173 A 
ATOM     80  F   UNL A   1      35.743  34.969  33.169  1.00  0.00    -0.203 F 
ATOM     81  C   UNL A   1      33.954  35.502  31.776  1.00  0.00     0.198 A 
ATOM     82  C   UNL A   1      33.916  34.790  29.507  1.00  0.00     0.198 A 
ATOM     83  F   UNL A   1      35.680  33.524  28.618  1.00  0.00    -0.203 F 
ATOM     84  F   UNL A   1      33.384  36.145  32.806  1.00  0.00    -0.200 F 
ATOM     85  C   UNL A   1      33.311  35.454  30.558  1.00  0.00     0.200 A 
ATOM     86  F   UNL A   1      33.303  34.752  28.315  1.00  0.00    -0.200 F 
ATOM     87  F   UNL A   1      32.115  36.042  30.399  1.00  0.00    -0.200 F 
ENDBRANCH  63  77
BRANCH  64  88
ATOM     88  C   UNL A   1      43.938  28.182  32.609  1.00  0.00     0.064 A 
ATOM     89  C   UNL A   1      44.709  29.307  33.023  1.00  0.00     0.173 A 
ATOM     90  C   UNL A   1      44.637  27.003  32.327  1.00  0.00     0.173 A 
ATOM     91  F   UNL A   1      44.096  30.462  33.333  1.00  0.00    -0.203 F 
ATOM     92  C   UNL A   1      46.062  29.188  33.336  1.00  0.00     0.198 A 
ATOM     93  C   UNL A   1      46.012  26.917  32.566  1.00  0.00     0.198 A 
ATOM     94  F   UNL A   1      43.973  25.888  31.995  1.00  0.00    -0.203 F 
ATOM     95  F   UNL A   1      46.694  30.177  33.989  1.00  0.00    -0.200 F 
ATOM     96  C   UNL A   1      46.711  27.991  33.109  1.00  0.00     0.200 A 
ATOM     97  F   UNL A   1      46.632  25.737  32.418  1.00  0.00    -0.200 F 
ATOM     98  F   UNL A   1      47.980  27.835  33.519  1.00  0.00    -0.200 F 
ENDBRANCH  64  88
BRANCH  76  99
ATOM     99  C   UNL A   1      38.869  31.887  36.205  1.00  0.00     0.064 A 
ATOM    100  C   UNL A   1      37.997  31.411  37.200  1.00  0.00     0.173 A 
ATOM    101  C   UNL A   1      39.513  33.106  36.507  1.00  0.00     0.173 A 
ATOM    102  F   UNL A   1      37.543  30.150  37.200  1.00  0.00    -0.203 F 
ATOM    103  C   UNL A   1      37.610  32.194  38.278  1.00  0.00     0.198 A 
ATOM    104  C   UNL A   1      39.229  33.823  37.662  1.00  0.00     0.198 A 
ATOM    105  F   UNL A   1      40.473  33.623  35.729  1.00  0.00    -0.203 F 
ATOM    106  F   UNL A   1      36.650  31.750  39.099  1.00  0.00    -0.200 F 
ATOM    107  C   UNL A   1      38.229  33.402  38.511  1.00  0.00     0.200 A 
ATOM    108  F   UNL A   1      39.944  34.918  37.951  1.00  0.00    -0.200 F 
ATOM    109  F   UNL A   1      37.893  34.135  39.578  1.00  0.00    -0.200 F 
ENDBRANCH  76  99
ENDBRANCH  50  51
ENDBRANCH  43  45
ENDBRANCH  42  43
ENDBRANCH  41  42
ENDBRANCH   1  41
TORSDOF 17
ENDMDL
