MODEL 1
REMARK VINA RESULT:     -13.8      0.000      0.000
REMARK SMILES C[N@@H+]1CCN(C(=O)c2ccc3[nH]c4c(c3c2)CSCC4)C[C@H]1C(=O)OCCOC(=O)c1ccc(-c2c3nc(c(-c4c(F)c(F)c(F)c(F)c4F)c4ccc([nH]4)c(-c4c(F)c(F)c(F)c(F)c4F)c4nc(c(-c5c(F)c(F)c(F)c(F)c5F)c5ccc2[nH]5)C=C4)C=C3)cc1
REMARK SMILES IDX 26 1 25 2 23 3 24 4 22 5 1 6 2 7 3 8 4 10 21 11 5 12 6 13
REMARK SMILES IDX 7 14 8 15 9 16 16 17 10 18 15 19 11 20 14 21 12 22 13 23
REMARK SMILES IDX 17 24 20 26 18 27 19 28 27 29 28 30 29 31 30 32 31 33 32 34
REMARK SMILES IDX 93 35 33 36 92 37 34 38 35 39 36 40 86 41 37 42 91 43 85 44
REMARK SMILES IDX 87 45 38 46 90 47 84 48 83 49 39 51 71 52 51 53 70 54 52 55
REMARK SMILES IDX 55 56 69 57 88 58 53 59 54 60 68 62 89 63 56 64 40 65 41 66
REMARK SMILES IDX 49 67 42 68 43 69 47 70 50 71 44 72 45 73 48 74 46 75 72 76
REMARK SMILES IDX 73 77 81 78 74 79 75 80 79 81 82 82 76 83 77 84 80 85 78 86
REMARK SMILES IDX 57 87 58 88 66 89 59 90 60 91 64 92 67 93 61 94 62 95 65 96
REMARK SMILES IDX 63 97
REMARK H PARENT 2 9 12 25 87 50 55 61
REMARK Flexibility Score: inf
ROOT
ATOM      1  C   UNL A   1      37.351  21.394  24.714  1.00  0.00     0.274 C 
ENDROOT
BRANCH   1   2
ATOM      2  O   UNL A   1      36.609  22.632  24.837  1.00  0.00    -0.458 OA
BRANCH   2   3
ATOM      3  C   UNL A   1      35.414  22.450  25.429  1.00  0.00     0.366 C 
ATOM      4  O   UNL A   1      35.276  22.492  26.653  1.00  0.00    -0.245 OA
BRANCH   3   5
ATOM      5  C   UNL A   1      34.225  22.101  24.578  1.00  0.00     0.314 C 
ATOM      6  C   UNL A   1      33.893  19.717  25.253  1.00  0.00     0.333 C 
ATOM      7  N   UNL A   1      33.299  20.963  24.800  1.00  0.00    -0.323 N 
ATOM      8  C   UNL A   1      32.580  20.775  23.490  1.00  0.00     0.284 C 
ATOM      9  H   UNL A   1      32.687  21.199  25.580  1.00  0.00     0.348 HD
ATOM     10  C   UNL A   1      31.969  22.086  22.857  1.00  0.00     0.181 C 
ATOM     11  C   UNL A   1      33.323  23.331  24.489  1.00  0.00     0.197 C 
ATOM     12  N   UNL A   1      32.743  23.311  23.155  1.00  0.00    -0.326 N 
BRANCH  12  13
ATOM     13  C   UNL A   1      32.899  24.326  22.220  1.00  0.00     0.254 C 
ATOM     14  O   UNL A   1      33.278  24.100  21.072  1.00  0.00    -0.269 OA
BRANCH  13  15
ATOM     15  C   UNL A   1      32.714  25.767  22.623  1.00  0.00     0.040 A 
ATOM     16  C   UNL A   1      33.716  26.723  22.392  1.00  0.00     0.016 A 
ATOM     17  C   UNL A   1      31.419  26.203  22.908  1.00  0.00     0.024 A 
ATOM     18  C   UNL A   1      33.479  28.098  22.376  1.00  0.00     0.027 A 
ATOM     19  C   UNL A   1      31.126  27.578  22.785  1.00  0.00     0.004 A 
ATOM     20  C   UNL A   1      32.149  28.477  22.490  1.00  0.00     0.046 A 
ATOM     21  C   UNL A   1      29.910  28.318  22.788  1.00  0.00    -0.009 A 
ATOM     22  N   UNL A   1      31.572  29.703  22.255  1.00  0.00    -0.358 N 
ATOM     23  C   UNL A   1      30.212  29.578  22.305  1.00  0.00     0.021 A 
ATOM     24  C   UNL A   1      28.550  27.787  23.081  1.00  0.00     0.107 C 
ATOM     25  H   UNL A   1      32.061  30.539  22.078  1.00  0.00     0.166 HD
ATOM     26  C   UNL A   1      29.263  30.643  21.880  1.00  0.00     0.065 C 
ATOM     27  S   UNL A   1      27.280  29.100  23.130  1.00  0.00    -0.157 SA
ATOM     28  C   UNL A   1      27.849  30.074  21.688  1.00  0.00     0.076 C 
ENDBRANCH  13  15
ENDBRANCH  12  13
ENDBRANCH   3   5
ENDBRANCH   2   3
ENDBRANCH   1   2
BRANCH   1  29
ATOM     29  C   UNL A   1      38.490  21.298  25.743  1.00  0.00     0.275 C 
BRANCH  29  30
ATOM     30  O   UNL A   1      38.973  22.603  26.119  1.00  0.00    -0.458 OA
BRANCH  30  31
ATOM     31  C   UNL A   1      39.938  22.646  27.066  1.00  0.00     0.338 C 
ATOM     32  O   UNL A   1      40.670  21.722  27.411  1.00  0.00    -0.246 OA
BRANCH  31  33
ATOM     33  C   UNL A   1      40.218  24.060  27.395  1.00  0.00     0.060 A 
ATOM     34  C   UNL A   1      41.242  24.441  28.262  1.00  0.00     0.016 A 
ATOM     35  C   UNL A   1      39.281  25.005  26.952  1.00  0.00     0.016 A 
ATOM     36  C   UNL A   1      41.264  25.748  28.739  1.00  0.00     0.010 A 
ATOM     37  C   UNL A   1      39.259  26.286  27.480  1.00  0.00     0.010 A 
ATOM     38  C   UNL A   1      40.249  26.652  28.380  1.00  0.00    -0.014 A 
BRANCH  38  39
ATOM     39  C   UNL A   1      40.407  28.042  28.778  1.00  0.00     0.031 A 
ATOM     40  C   UNL A   1      41.619  28.671  28.247  1.00  0.00     0.074 A 
ATOM     41  C   UNL A   1      39.528  28.820  29.426  1.00  0.00     0.049 A 
ATOM     42  N   UNL A   1      42.712  28.918  28.878  1.00  0.00    -0.248 NA
ATOM     43  C   UNL A   1      41.649  28.962  26.808  1.00  0.00     0.031 C 
ATOM     44  C   UNL A   1      38.112  28.578  29.546  1.00  0.00     0.029 A 
ATOM     45  N   UNL A   1      39.702  30.017  30.064  1.00  0.00    -0.354 N 
ATOM     46  C   UNL A   1      43.492  29.615  27.972  1.00  0.00     0.074 A 
ATOM     47  C   UNL A   1      42.885  29.442  26.676  1.00  0.00     0.031 C 
ATOM     48  C   UNL A   1      37.516  29.605  30.180  1.00  0.00     0.029 A 
ATOM     49  C   UNL A   1      38.525  30.577  30.536  1.00  0.00     0.049 A 
ATOM     50  H   UNL A   1      40.582  30.442  30.176  1.00  0.00     0.167 HD
ATOM     51  C   UNL A   1      44.398  30.525  28.411  1.00  0.00     0.037 A 
ATOM     52  C   UNL A   1      38.322  31.781  31.124  1.00  0.00     0.037 A 
ATOM     53  C   UNL A   1      44.756  30.309  29.792  1.00  0.00     0.049 A 
ATOM     54  C   UNL A   1      39.634  32.272  31.608  1.00  0.00     0.074 A 
ATOM     55  C   UNL A   1      45.211  29.206  30.497  1.00  0.00     0.029 A 
ATOM     56  N   UNL A   1      44.288  31.176  30.749  1.00  0.00    -0.354 N 
ATOM     57  N   UNL A   1      40.324  31.683  32.553  1.00  0.00    -0.248 NA
ATOM     58  C   UNL A   1      40.417  33.078  30.680  1.00  0.00     0.031 C 
ATOM     59  C   UNL A   1      44.530  29.259  31.750  1.00  0.00     0.029 A 
ATOM     60  C   UNL A   1      43.744  30.413  31.754  1.00  0.00     0.049 A 
ATOM     61  H   UNL A   1      44.334  32.159  30.720  1.00  0.00     0.167 HD
ATOM     62  C   UNL A   1      41.640  31.705  32.103  1.00  0.00     0.074 A 
ATOM     63  C   UNL A   1      41.639  32.625  30.970  1.00  0.00     0.031 C 
ATOM     64  C   UNL A   1      42.554  30.769  32.495  1.00  0.00     0.037 A 
BRANCH  51  65
ATOM     65  C   UNL A   1      44.674  31.793  27.659  1.00  0.00     0.064 A 
ATOM     66  C   UNL A   1      45.932  31.994  27.076  1.00  0.00     0.173 A 
ATOM     67  C   UNL A   1      43.818  32.919  27.686  1.00  0.00     0.173 A 
ATOM     68  F   UNL A   1      46.842  31.009  27.068  1.00  0.00    -0.203 F 
ATOM     69  C   UNL A   1      46.307  33.236  26.558  1.00  0.00     0.198 A 
ATOM     70  C   UNL A   1      44.168  34.135  27.109  1.00  0.00     0.198 A 
ATOM     71  F   UNL A   1      42.660  32.916  28.360  1.00  0.00    -0.203 F 
ATOM     72  F   UNL A   1      47.553  33.412  26.100  1.00  0.00    -0.200 F 
ATOM     73  C   UNL A   1      45.422  34.300  26.562  1.00  0.00     0.200 A 
ATOM     74  F   UNL A   1      43.304  35.160  27.152  1.00  0.00    -0.200 F 
ATOM     75  F   UNL A   1      45.792  35.497  26.090  1.00  0.00    -0.200 F 
ENDBRANCH  51  65
BRANCH  52  76
ATOM     76  C   UNL A   1      37.056  32.544  30.972  1.00  0.00     0.064 A 
ATOM     77  C   UNL A   1      36.734  33.336  29.866  1.00  0.00     0.173 A 
ATOM     78  C   UNL A   1      36.067  32.455  31.981  1.00  0.00     0.173 A 
ATOM     79  F   UNL A   1      37.565  33.401  28.816  1.00  0.00    -0.203 F 
ATOM     80  C   UNL A   1      35.538  34.074  29.826  1.00  0.00     0.198 A 
ATOM     81  C   UNL A   1      34.900  33.213  31.959  1.00  0.00     0.198 A 
ATOM     82  F   UNL A   1      36.212  31.590  32.999  1.00  0.00    -0.203 F 
ATOM     83  F   UNL A   1      35.249  34.823  28.752  1.00  0.00    -0.200 F 
ATOM     84  C   UNL A   1      34.639  34.034  30.884  1.00  0.00     0.200 A 
ATOM     85  F   UNL A   1      34.028  33.127  32.974  1.00  0.00    -0.200 F 
ATOM     86  F   UNL A   1      33.513  34.761  30.852  1.00  0.00    -0.200 F 
ENDBRANCH  52  76
BRANCH  64  87
ATOM     87  C   UNL A   1      42.191  29.851  33.625  1.00  0.00     0.064 A 
ATOM     88  C   UNL A   1      41.630  28.579  33.417  1.00  0.00     0.173 A 
ATOM     89  C   UNL A   1      42.634  30.162  34.916  1.00  0.00     0.173 A 
ATOM     90  F   UNL A   1      41.255  28.184  32.194  1.00  0.00    -0.203 F 
ATOM     91  C   UNL A   1      41.528  27.660  34.462  1.00  0.00     0.198 A 
ATOM     92  C   UNL A   1      42.541  29.237  35.954  1.00  0.00     0.198 A 
ATOM     93  F   UNL A   1      43.226  31.343  35.154  1.00  0.00    -0.203 F 
ATOM     94  F   UNL A   1      41.010  26.442  34.239  1.00  0.00    -0.200 F 
ATOM     95  C   UNL A   1      41.992  27.985  35.726  1.00  0.00     0.200 A 
ATOM     96  F   UNL A   1      43.025  29.540  37.166  1.00  0.00    -0.200 F 
ATOM     97  F   UNL A   1      41.934  27.083  36.715  1.00  0.00    -0.200 F 
ENDBRANCH  64  87
ENDBRANCH  38  39
ENDBRANCH  31  33
ENDBRANCH  30  31
ENDBRANCH  29  30
ENDBRANCH   1  29
TORSDOF 13
ENDMDL
MODEL 2
REMARK VINA RESULT:     -13.6      3.617      9.193
REMARK SMILES C[N@@H+]1CCN(C(=O)c2ccc3[nH]c4c(c3c2)CSCC4)C[C@H]1C(=O)OCCOC(=O)c1ccc(-c2c3nc(c(-c4c(F)c(F)c(F)c(F)c4F)c4ccc([nH]4)c(-c4c(F)c(F)c(F)c(F)c4F)c4nc(c(-c5c(F)c(F)c(F)c(F)c5F)c5ccc2[nH]5)C=C4)C=C3)cc1
REMARK SMILES IDX 26 1 25 2 23 3 24 4 22 5 1 6 2 7 3 8 4 10 21 11 5 12 6 13
REMARK SMILES IDX 7 14 8 15 9 16 16 17 10 18 15 19 11 20 14 21 12 22 13 23
REMARK SMILES IDX 17 24 20 26 18 27 19 28 27 29 28 30 29 31 30 32 31 33 32 34
REMARK SMILES IDX 93 35 33 36 92 37 34 38 35 39 36 40 86 41 37 42 91 43 85 44
REMARK SMILES IDX 87 45 38 46 90 47 84 48 83 49 39 51 71 52 51 53 70 54 52 55
REMARK SMILES IDX 55 56 69 57 88 58 53 59 54 60 68 62 89 63 56 64 40 65 41 66
REMARK SMILES IDX 49 67 42 68 43 69 47 70 50 71 44 72 45 73 48 74 46 75 72 76
REMARK SMILES IDX 73 77 81 78 74 79 75 80 79 81 82 82 76 83 77 84 80 85 78 86
REMARK SMILES IDX 57 87 58 88 66 89 59 90 60 91 64 92 67 93 61 94 62 95 65 96
REMARK SMILES IDX 63 97
REMARK H PARENT 2 9 12 25 87 50 55 61
REMARK Flexibility Score: inf
ROOT
ATOM      1  C   UNL A   1      32.208  30.248  27.095  1.00  0.00     0.274 C 
ENDROOT
BRANCH   1   2
ATOM      2  O   UNL A   1      31.583  30.228  25.788  1.00  0.00    -0.458 OA
BRANCH   2   3
ATOM      3  C   UNL A   1      32.101  29.274  24.993  1.00  0.00     0.366 C 
ATOM      4  O   UNL A   1      33.259  29.327  24.573  1.00  0.00    -0.245 OA
BRANCH   3   5
ATOM      5  C   UNL A   1      31.215  28.149  24.534  1.00  0.00     0.314 C 
ATOM      6  C   UNL A   1      29.526  29.438  23.216  1.00  0.00     0.333 C 
ATOM      7  N   UNL A   1      30.264  28.199  23.396  1.00  0.00    -0.323 N 
ATOM      8  C   UNL A   1      29.328  27.039  23.610  1.00  0.00     0.284 C 
ATOM      9  H   UNL A   1      30.799  28.146  22.531  1.00  0.00     0.348 HD
ATOM     10  C   UNL A   1      30.023  25.652  23.906  1.00  0.00     0.181 C 
ATOM     11  C   UNL A   1      32.094  26.929  24.259  1.00  0.00     0.197 C 
ATOM     12  N   UNL A   1      31.304  25.769  24.637  1.00  0.00    -0.326 N 
BRANCH  12  13
ATOM     13  C   UNL A   1      31.683  24.847  25.604  1.00  0.00     0.254 C 
ATOM     14  O   UNL A   1      31.203  24.858  26.737  1.00  0.00    -0.269 OA
BRANCH  13  15
ATOM     15  C   UNL A   1      32.791  23.863  25.325  1.00  0.00     0.040 A 
ATOM     16  C   UNL A   1      33.917  23.778  26.158  1.00  0.00     0.016 A 
ATOM     17  C   UNL A   1      32.524  22.815  24.442  1.00  0.00     0.024 A 
ATOM     18  C   UNL A   1      34.765  22.670  26.195  1.00  0.00     0.027 A 
ATOM     19  C   UNL A   1      33.295  21.636  24.538  1.00  0.00     0.004 A 
ATOM     20  C   UNL A   1      34.364  21.584  25.431  1.00  0.00     0.046 A 
ATOM     21  C   UNL A   1      33.166  20.340  23.967  1.00  0.00    -0.009 A 
ATOM     22  N   UNL A   1      34.825  20.288  25.453  1.00  0.00    -0.358 N 
ATOM     23  C   UNL A   1      34.019  19.509  24.671  1.00  0.00     0.021 A 
ATOM     24  C   UNL A   1      32.176  19.919  22.937  1.00  0.00     0.107 C 
ATOM     25  H   UNL A   1      35.611  19.972  25.954  1.00  0.00     0.166 HD
ATOM     26  C   UNL A   1      34.079  18.023  24.637  1.00  0.00     0.065 C 
ATOM     27  S   UNL A   1      32.447  18.207  22.361  1.00  0.00    -0.157 SA
ATOM     28  C   UNL A   1      32.820  17.437  23.980  1.00  0.00     0.076 C 
ENDBRANCH  13  15
ENDBRANCH  12  13
ENDBRANCH   3   5
ENDBRANCH   2   3
ENDBRANCH   1   2
BRANCH   1  29
ATOM     29  C   UNL A   1      33.198  31.415  27.244  1.00  0.00     0.275 C 
BRANCH  29  30
ATOM     30  O   UNL A   1      34.321  31.053  28.072  1.00  0.00    -0.458 OA
BRANCH  30  31
ATOM     31  C   UNL A   1      35.461  31.760  27.898  1.00  0.00     0.338 C 
ATOM     32  O   UNL A   1      35.549  32.956  27.632  1.00  0.00    -0.246 OA
BRANCH  31  33
ATOM     33  C   UNL A   1      36.598  30.962  28.405  1.00  0.00     0.060 A 
ATOM     34  C   UNL A   1      37.704  31.542  29.024  1.00  0.00     0.016 A 
ATOM     35  C   UNL A   1      36.613  29.602  28.064  1.00  0.00     0.016 A 
ATOM     36  C   UNL A   1      38.845  30.769  29.217  1.00  0.00     0.010 A 
ATOM     37  C   UNL A   1      37.770  28.851  28.189  1.00  0.00     0.010 A 
ATOM     38  C   UNL A   1      38.888  29.440  28.760  1.00  0.00    -0.014 A 
BRANCH  38  39
ATOM     39  C   UNL A   1      40.042  28.634  29.126  1.00  0.00     0.031 A 
ATOM     40  C   UNL A   1      40.307  28.610  30.568  1.00  0.00     0.074 A 
ATOM     41  C   UNL A   1      40.766  27.825  28.341  1.00  0.00     0.049 A 
ATOM     42  N   UNL A   1      41.221  29.255  31.204  1.00  0.00    -0.248 NA
ATOM     43  C   UNL A   1      39.371  27.857  31.412  1.00  0.00     0.031 C 
ATOM     44  C   UNL A   1      40.354  27.290  27.067  1.00  0.00     0.029 A 
ATOM     45  N   UNL A   1      41.997  27.263  28.538  1.00  0.00    -0.354 N 
ATOM     46  C   UNL A   1      41.125  28.805  32.509  1.00  0.00     0.074 A 
ATOM     47  C   UNL A   1      39.865  28.112  32.622  1.00  0.00     0.031 C 
ATOM     48  C   UNL A   1      41.284  26.441  26.595  1.00  0.00     0.029 A 
ATOM     49  C   UNL A   1      42.383  26.390  27.533  1.00  0.00     0.049 A 
ATOM     50  H   UNL A   1      42.558  27.461  29.323  1.00  0.00     0.167 HD
ATOM     51  C   UNL A   1      42.225  28.776  33.303  1.00  0.00     0.037 A 
ATOM     52  C   UNL A   1      43.482  25.601  27.456  1.00  0.00     0.037 A 
ATOM     53  C   UNL A   1      43.260  29.660  32.823  1.00  0.00     0.049 A 
ATOM     54  C   UNL A   1      44.479  26.124  28.420  1.00  0.00     0.074 A 
ATOM     55  C   UNL A   1      43.285  31.002  32.482  1.00  0.00     0.029 A 
ATOM     56  N   UNL A   1      44.382  29.122  32.240  1.00  0.00    -0.354 N 
ATOM     57  N   UNL A   1      45.048  27.299  28.309  1.00  0.00    -0.248 NA
ATOM     58  C   UNL A   1      44.431  25.585  29.772  1.00  0.00     0.031 C 
ATOM     59  C   UNL A   1      44.109  31.076  31.320  1.00  0.00     0.029 A 
ATOM     60  C   UNL A   1      44.577  29.788  31.053  1.00  0.00     0.049 A 
ATOM     61  H   UNL A   1      44.940  28.398  32.604  1.00  0.00     0.167 HD
ATOM     62  C   UNL A   1      45.052  27.819  29.599  1.00  0.00     0.074 A 
ATOM     63  C   UNL A   1      44.708  26.694  30.463  1.00  0.00     0.031 C 
ATOM     64  C   UNL A   1      45.050  29.164  29.837  1.00  0.00     0.037 A 
BRANCH  51  65
ATOM     65  C   UNL A   1      42.449  27.685  34.307  1.00  0.00     0.064 A 
ATOM     66  C   UNL A   1      43.038  26.479  33.901  1.00  0.00     0.173 A 
ATOM     67  C   UNL A   1      41.896  27.695  35.609  1.00  0.00     0.173 A 
ATOM     68  F   UNL A   1      43.524  26.346  32.659  1.00  0.00    -0.203 F 
ATOM     69  C   UNL A   1      43.069  25.363  34.740  1.00  0.00     0.198 A 
ATOM     70  C   UNL A   1      41.988  26.604  36.466  1.00  0.00     0.198 A 
ATOM     71  F   UNL A   1      41.158  28.719  36.059  1.00  0.00    -0.203 F 
ATOM     72  F   UNL A   1      43.552  24.203  34.279  1.00  0.00    -0.200 F 
ATOM     73  C   UNL A   1      42.558  25.430  36.025  1.00  0.00     0.200 A 
ATOM     74  F   UNL A   1      41.459  26.684  37.696  1.00  0.00    -0.200 F 
ATOM     75  F   UNL A   1      42.563  24.351  36.818  1.00  0.00    -0.200 F 
ENDBRANCH  51  65
BRANCH  52  76
ATOM     76  C   UNL A   1      43.480  24.289  26.759  1.00  0.00     0.064 A 
ATOM     77  C   UNL A   1      42.913  23.119  27.271  1.00  0.00     0.173 A 
ATOM     78  C   UNL A   1      44.049  24.188  25.466  1.00  0.00     0.173 A 
ATOM     79  F   UNL A   1      42.263  23.140  28.444  1.00  0.00    -0.203 F 
ATOM     80  C   UNL A   1      43.004  21.902  26.574  1.00  0.00     0.198 A 
ATOM     81  C   UNL A   1      44.172  22.978  24.791  1.00  0.00     0.198 A 
ATOM     82  F   UNL A   1      44.467  25.290  24.822  1.00  0.00    -0.203 F 
ATOM     83  F   UNL A   1      42.448  20.794  27.083  1.00  0.00    -0.200 F 
ATOM     84  C   UNL A   1      43.659  21.829  25.351  1.00  0.00     0.200 A 
ATOM     85  F   UNL A   1      44.774  22.939  23.593  1.00  0.00    -0.200 F 
ATOM     86  F   UNL A   1      43.767  20.660  24.702  1.00  0.00    -0.200 F 
ENDBRANCH  52  76
BRANCH  64  87
ATOM     87  C   UNL A   1      45.298  30.090  28.683  1.00  0.00     0.064 A 
ATOM     88  C   UNL A   1      44.262  30.591  27.877  1.00  0.00     0.173 A 
ATOM     89  C   UNL A   1      46.567  30.664  28.540  1.00  0.00     0.173 A 
ATOM     90  F   UNL A   1      43.007  30.143  28.013  1.00  0.00    -0.203 F 
ATOM     91  C   UNL A   1      44.492  31.628  26.974  1.00  0.00     0.198 A 
ATOM     92  C   UNL A   1      46.790  31.708  27.645  1.00  0.00     0.198 A 
ATOM     93  F   UNL A   1      47.577  30.258  29.325  1.00  0.00    -0.203 F 
ATOM     94  F   UNL A   1      43.484  32.109  26.228  1.00  0.00    -0.200 F 
ATOM     95  C   UNL A   1      45.752  32.193  26.865  1.00  0.00     0.200 A 
ATOM     96  F   UNL A   1      48.001  32.277  27.570  1.00  0.00    -0.200 F 
ATOM     97  F   UNL A   1      45.958  33.220  26.029  1.00  0.00    -0.200 F 
ENDBRANCH  64  87
ENDBRANCH  38  39
ENDBRANCH  31  33
ENDBRANCH  30  31
ENDBRANCH  29  30
ENDBRANCH   1  29
TORSDOF 13
ENDMDL
MODEL 3
REMARK VINA RESULT:     -13.2      9.523     15.522
REMARK SMILES C[N@@H+]1CCN(C(=O)c2ccc3[nH]c4c(c3c2)CSCC4)C[C@H]1C(=O)OCCOC(=O)c1ccc(-c2c3nc(c(-c4c(F)c(F)c(F)c(F)c4F)c4ccc([nH]4)c(-c4c(F)c(F)c(F)c(F)c4F)c4nc(c(-c5c(F)c(F)c(F)c(F)c5F)c5ccc2[nH]5)C=C4)C=C3)cc1
REMARK SMILES IDX 26 1 25 2 23 3 24 4 22 5 1 6 2 7 3 8 4 10 21 11 5 12 6 13
REMARK SMILES IDX 7 14 8 15 9 16 16 17 10 18 15 19 11 20 14 21 12 22 13 23
REMARK SMILES IDX 17 24 20 26 18 27 19 28 27 29 28 30 29 31 30 32 31 33 32 34
REMARK SMILES IDX 93 35 33 36 92 37 34 38 35 39 36 40 86 41 37 42 91 43 85 44
REMARK SMILES IDX 87 45 38 46 90 47 84 48 83 49 39 51 71 52 51 53 70 54 52 55
REMARK SMILES IDX 55 56 69 57 88 58 53 59 54 60 68 62 89 63 56 64 40 65 41 66
REMARK SMILES IDX 49 67 42 68 43 69 47 70 50 71 44 72 45 73 48 74 46 75 72 76
REMARK SMILES IDX 73 77 81 78 74 79 75 80 79 81 82 82 76 83 77 84 80 85 78 86
REMARK SMILES IDX 57 87 58 88 66 89 59 90 60 91 64 92 67 93 61 94 62 95 65 96
REMARK SMILES IDX 63 97
REMARK H PARENT 2 9 12 25 87 50 55 61
REMARK Flexibility Score: inf
ROOT
ATOM      1  C   UNL A   1      45.653  22.605  39.721  1.00  0.00     0.274 C 
ENDROOT
BRANCH   1   2
ATOM      2  O   UNL A   1      45.848  21.178  39.563  1.00  0.00    -0.458 OA
BRANCH   2   3
ATOM      3  C   UNL A   1      45.643  20.509  40.713  1.00  0.00     0.366 C 
ATOM      4  O   UNL A   1      45.278  21.075  41.745  1.00  0.00    -0.245 OA
BRANCH   3   5
ATOM      5  C   UNL A   1      45.947  19.037  40.762  1.00  0.00     0.314 C 
ATOM      6  C   UNL A   1      48.436  19.117  40.993  1.00  0.00     0.333 C 
ATOM      7  N   UNL A   1      47.193  18.423  41.285  1.00  0.00    -0.323 N 
ATOM      8  C   UNL A   1      47.210  17.024  40.728  1.00  0.00     0.284 C 
ATOM      9  H   UNL A   1      47.165  18.464  42.304  1.00  0.00     0.348 HD
ATOM     10  C   UNL A   1      45.873  16.205  40.910  1.00  0.00     0.181 C 
ATOM     11  C   UNL A   1      44.817  18.339  41.518  1.00  0.00     0.197 C 
ATOM     12  N   UNL A   1      44.652  17.040  40.888  1.00  0.00    -0.326 N 
BRANCH  12  13
ATOM     13  C   UNL A   1      43.474  16.601  40.299  1.00  0.00     0.254 C 
ATOM     14  O   UNL A   1      42.989  17.164  39.317  1.00  0.00    -0.269 OA
BRANCH  13  15
ATOM     15  C   UNL A   1      42.683  15.478  40.919  1.00  0.00     0.040 A 
ATOM     16  C   UNL A   1      41.948  14.580  40.130  1.00  0.00     0.016 A 
ATOM     17  C   UNL A   1      42.966  15.136  42.244  1.00  0.00     0.024 A 
ATOM     18  C   UNL A   1      41.525  13.328  40.578  1.00  0.00     0.027 A 
ATOM     19  C   UNL A   1      42.653  13.833  42.687  1.00  0.00     0.004 A 
ATOM     20  C   UNL A   1      41.978  12.959  41.837  1.00  0.00     0.046 A 
ATOM     21  C   UNL A   1      42.983  13.099  43.861  1.00  0.00    -0.009 A 
ATOM     22  N   UNL A   1      41.957  11.724  42.440  1.00  0.00    -0.358 N 
ATOM     23  C   UNL A   1      42.678  11.776  43.600  1.00  0.00     0.021 A 
ATOM     24  C   UNL A   1      43.686  13.622  45.065  1.00  0.00     0.107 C 
ATOM     25  H   UNL A   1      41.496  10.927  42.091  1.00  0.00     0.166 HD
ATOM     26  C   UNL A   1      43.059  10.578  44.397  1.00  0.00     0.065 C 
ATOM     27  S   UNL A   1      43.777  12.394  46.413  1.00  0.00    -0.157 SA
ATOM     28  C   UNL A   1      44.170  10.918  45.402  1.00  0.00     0.076 C 
ENDBRANCH  13  15
ENDBRANCH  12  13
ENDBRANCH   3   5
ENDBRANCH   2   3
ENDBRANCH   1   2
BRANCH   1  29
ATOM     29  C   UNL A   1      46.030  23.384  38.450  1.00  0.00     0.275 C 
BRANCH  29  30
ATOM     30  O   UNL A   1      44.977  23.331  37.466  1.00  0.00    -0.458 OA
BRANCH  30  31
ATOM     31  C   UNL A   1      44.509  24.515  37.010  1.00  0.00     0.338 C 
ATOM     32  O   UNL A   1      44.319  25.533  37.670  1.00  0.00    -0.246 OA
BRANCH  31  33
ATOM     33  C   UNL A   1      44.577  24.515  35.533  1.00  0.00     0.060 A 
ATOM     34  C   UNL A   1      45.608  23.896  34.828  1.00  0.00     0.016 A 
ATOM     35  C   UNL A   1      43.659  25.337  34.862  1.00  0.00     0.016 A 
ATOM     36  C   UNL A   1      45.756  24.175  33.473  1.00  0.00     0.010 A 
ATOM     37  C   UNL A   1      43.846  25.672  33.531  1.00  0.00     0.010 A 
ATOM     38  C   UNL A   1      44.901  25.095  32.841  1.00  0.00    -0.014 A 
BRANCH  38  39
ATOM     39  C   UNL A   1      45.000  25.230  31.396  1.00  0.00     0.031 A 
ATOM     40  C   UNL A   1      46.003  26.208  30.965  1.00  0.00     0.074 A 
ATOM     41  C   UNL A   1      44.406  24.482  30.454  1.00  0.00     0.049 A 
ATOM     42  N   UNL A   1      45.795  27.401  30.531  1.00  0.00    -0.248 NA
ATOM     43  C   UNL A   1      47.415  25.845  31.141  1.00  0.00     0.031 C 
ATOM     44  C   UNL A   1      43.842  23.170  30.648  1.00  0.00     0.029 A 
ATOM     45  N   UNL A   1      44.233  24.710  29.118  1.00  0.00    -0.354 N 
ATOM     46  C   UNL A   1      47.044  27.861  30.154  1.00  0.00     0.074 A 
ATOM     47  C   UNL A   1      48.013  26.960  30.727  1.00  0.00     0.031 C 
ATOM     48  C   UNL A   1      43.414  22.670  29.475  1.00  0.00     0.029 A 
ATOM     49  C   UNL A   1      43.654  23.649  28.439  1.00  0.00     0.049 A 
ATOM     50  H   UNL A   1      44.496  25.550  28.678  1.00  0.00     0.167 HD
ATOM     51  C   UNL A   1      47.162  28.768  29.151  1.00  0.00     0.037 A 
ATOM     52  C   UNL A   1      43.427  23.501  27.111  1.00  0.00     0.037 A 
ATOM     53  C   UNL A   1      45.930  29.483  28.921  1.00  0.00     0.049 A 
ATOM     54  C   UNL A   1      43.486  24.846  26.492  1.00  0.00     0.074 A 
ATOM     55  C   UNL A   1      45.074  30.195  29.745  1.00  0.00     0.029 A 
ATOM     56  N   UNL A   1      45.193  29.202  27.797  1.00  0.00    -0.354 N 
ATOM     57  N   UNL A   1      42.629  25.802  26.753  1.00  0.00    -0.248 NA
ATOM     58  C   UNL A   1      44.789  25.294  26.018  1.00  0.00     0.031 C 
ATOM     59  C   UNL A   1      43.761  29.856  29.302  1.00  0.00     0.029 A 
ATOM     60  C   UNL A   1      43.896  29.001  28.206  1.00  0.00     0.049 A 
ATOM     61  H   UNL A   1      45.529  29.156  26.873  1.00  0.00     0.167 HD
ATOM     62  C   UNL A   1      43.401  26.953  26.872  1.00  0.00     0.074 A 
ATOM     63  C   UNL A   1      44.716  26.584  26.356  1.00  0.00     0.031 C 
ATOM     64  C   UNL A   1      43.006  28.013  27.636  1.00  0.00     0.037 A 
BRANCH  51  65
ATOM     65  C   UNL A   1      48.307  28.733  28.183  1.00  0.00     0.064 A 
ATOM     66  C   UNL A   1      49.052  29.897  27.948  1.00  0.00     0.173 A 
ATOM     67  C   UNL A   1      48.557  27.651  27.307  1.00  0.00     0.173 A 
ATOM     68  F   UNL A   1      48.836  31.000  28.678  1.00  0.00    -0.203 F 
ATOM     69  C   UNL A   1      49.980  29.972  26.906  1.00  0.00     0.198 A 
ATOM     70  C   UNL A   1      49.529  27.706  26.314  1.00  0.00     0.198 A 
ATOM     71  F   UNL A   1      47.802  26.545  27.310  1.00  0.00    -0.203 F 
ATOM     72  F   UNL A   1      50.597  31.132  26.653  1.00  0.00    -0.200 F 
ATOM     73  C   UNL A   1      50.227  28.874  26.100  1.00  0.00     0.200 A 
ATOM     74  F   UNL A   1      49.730  26.639  25.526  1.00  0.00    -0.200 F 
ATOM     75  F   UNL A   1      51.097  28.956  25.085  1.00  0.00    -0.200 F 
ENDBRANCH  51  65
BRANCH  52  76
ATOM     76  C   UNL A   1      43.456  22.177  26.436  1.00  0.00     0.064 A 
ATOM     77  C   UNL A   1      42.370  21.302  26.358  1.00  0.00     0.173 A 
ATOM     78  C   UNL A   1      44.640  21.758  25.782  1.00  0.00     0.173 A 
ATOM     79  F   UNL A   1      41.178  21.656  26.861  1.00  0.00    -0.203 F 
ATOM     80  C   UNL A   1      42.496  20.040  25.751  1.00  0.00     0.198 A 
ATOM     81  C   UNL A   1      44.777  20.496  25.213  1.00  0.00     0.198 A 
ATOM     82  F   UNL A   1      45.680  22.598  25.658  1.00  0.00    -0.203 F 
ATOM     83  F   UNL A   1      41.438  19.219  25.683  1.00  0.00    -0.200 F 
ATOM     84  C   UNL A   1      43.706  19.629  25.207  1.00  0.00     0.200 A 
ATOM     85  F   UNL A   1      45.944  20.136  24.659  1.00  0.00    -0.200 F 
ATOM     86  F   UNL A   1      43.829  18.414  24.653  1.00  0.00    -0.200 F 
ENDBRANCH  52  76
BRANCH  64  87
ATOM     87  C   UNL A   1      41.597  28.030  28.152  1.00  0.00     0.064 A 
ATOM     88  C   UNL A   1      41.259  27.601  29.447  1.00  0.00     0.173 A 
ATOM     89  C   UNL A   1      40.618  28.709  27.417  1.00  0.00     0.173 A 
ATOM     90  F   UNL A   1      42.168  27.014  30.235  1.00  0.00    -0.203 F 
ATOM     91  C   UNL A   1      39.995  27.852  29.980  1.00  0.00     0.198 A 
ATOM     92  C   UNL A   1      39.360  28.967  27.958  1.00  0.00     0.198 A 
ATOM     93  F   UNL A   1      40.907  29.187  26.197  1.00  0.00    -0.203 F 
ATOM     94  F   UNL A   1      39.698  27.453  31.227  1.00  0.00    -0.200 F 
ATOM     95  C   UNL A   1      39.050  28.543  29.240  1.00  0.00     0.200 A 
ATOM     96  F   UNL A   1      38.460  29.669  27.254  1.00  0.00    -0.200 F 
ATOM     97  F   UNL A   1      37.852  28.821  29.773  1.00  0.00    -0.200 F 
ENDBRANCH  64  87
ENDBRANCH  38  39
ENDBRANCH  31  33
ENDBRANCH  30  31
ENDBRANCH  29  30
ENDBRANCH   1  29
TORSDOF 13
ENDMDL
