MODEL 1
REMARK VINA RESULT:     -12.0      0.000      0.000
REMARK SMILES O=C(CCN1C(=O)/C(=C/C=C/c2ccco2)SC1=S)Nc1ccc(C(=O)OCCOC(=O)c2ccc(-c3c4nc(c(-c5c(F)c(F)c(F)c(F)c5F)c5ccc([nH]5)c(-c5c(F)c(F)c(F)c(F)c5F)c5nc(c(-c6c(F)c(F)c(F)c(F)c6F)c6ccc3[nH]6)C=C5)C=C4)cc2)c(O)c1
REMARK SMILES IDX 25 1 26 2 24 3 21 4 22 5 98 6 23 7 96 8 20 9 1 10 2 11 3 13
REMARK SMILES IDX 4 14 5 15 6 16 18 17 7 18 8 19 17 20 19 21 9 22 10 23 11 24
REMARK SMILES IDX 12 25 13 26 16 27 14 28 15 29 97 30 27 32 28 33 29 34 30 35
REMARK SMILES IDX 31 36 32 37 33 38 34 39 95 40 35 41 94 42 36 43 37 44 38 45
REMARK SMILES IDX 88 46 39 47 93 48 87 49 89 50 40 51 92 52 86 53 85 54 41 56
REMARK SMILES IDX 73 57 53 58 72 59 54 60 57 61 71 62 90 63 55 64 56 65 70 67
REMARK SMILES IDX 91 68 58 69 42 70 43 71 51 72 44 73 45 74 49 75 52 76 46 77
REMARK SMILES IDX 47 78 50 79 48 80 74 81 75 82 83 83 76 84 77 85 81 86 84 87
REMARK SMILES IDX 78 88 79 89 82 90 80 91 59 92 60 93 68 94 61 95 62 96 66 97
REMARK SMILES IDX 69 98 63 99 64 100 67 101 65 102
REMARK H PARENT 20 12 97 31 89 55 57 66
REMARK Flexibility Score: inf
ROOT
ATOM      1  C   UNL A   1      34.555  32.949  28.165  1.00  0.00     0.342 C 
ATOM      2  O   UNL A   1      35.673  33.053  28.628  1.00  0.00    -0.246 OA
ENDROOT
BRANCH   1   3
ATOM      3  C   UNL A   1      34.009  31.669  27.651  1.00  0.00     0.101 A 
ATOM      4  C   UNL A   1      32.808  29.310  26.717  1.00  0.00     0.044 A 
ATOM      5  C   UNL A   1      32.039  30.450  26.897  1.00  0.00     0.027 A 
ATOM      6  C   UNL A   1      34.176  29.343  27.023  1.00  0.00     0.073 A 
ATOM      7  C   UNL A   1      32.629  31.597  27.419  1.00  0.00     0.022 A 
ATOM      8  C   UNL A   1      34.782  30.529  27.442  1.00  0.00     0.132 A 
BRANCH   4   9
ATOM      9  N   UNL A   1      32.243  28.087  26.329  1.00  0.00    -0.326 N 
ATOM     10  O   UNL A   1      31.005  28.689  24.466  1.00  0.00    -0.275 OA
ATOM     11  C   UNL A   1      31.331  27.866  25.318  1.00  0.00     0.226 C 
ATOM     12  H   UNL A   1      32.531  27.295  26.837  1.00  0.00     0.169 HD
BRANCH  11  13
ATOM     13  C   UNL A   1      30.651  26.507  25.378  1.00  0.00     0.122 C 
BRANCH  13  14
ATOM     14  C   UNL A   1      31.304  25.375  24.576  1.00  0.00     0.137 C 
BRANCH  14  15
ATOM     15  N   UNL A   1      32.422  24.702  25.261  1.00  0.00    -0.292 N 
ATOM     16  C   UNL A   1      33.714  25.165  25.043  1.00  0.00     0.266 C 
ATOM     17  C   UNL A   1      32.289  23.655  26.156  1.00  0.00     0.148 C 
ATOM     18  O   UNL A   1      34.023  26.161  24.408  1.00  0.00    -0.268 OA
ATOM     19  C   UNL A   1      34.696  24.217  25.630  1.00  0.00     0.080 C 
ATOM     20  S   UNL A   1      33.882  23.066  26.610  1.00  0.00    -0.054 SA
ATOM     21  S   UNL A   1      30.894  22.914  26.683  1.00  0.00    -0.052 S 
ATOM     22  C   UNL A   1      36.001  24.274  25.331  1.00  0.00     0.021 C 
BRANCH  22  23
ATOM     23  C   UNL A   1      37.002  23.311  25.743  1.00  0.00     0.005 C 
ATOM     24  C   UNL A   1      38.268  23.642  26.040  1.00  0.00     0.047 C 
BRANCH  24  25
ATOM     25  C   UNL A   1      39.194  22.649  26.459  1.00  0.00     0.126 A 
ATOM     26  C   UNL A   1      40.212  22.706  27.407  1.00  0.00     0.050 A 
ATOM     27  O   UNL A   1      39.204  21.382  25.922  1.00  0.00    -0.465 OA
ATOM     28  C   UNL A   1      40.874  21.457  27.411  1.00  0.00     0.042 A 
ATOM     29  C   UNL A   1      40.228  20.689  26.478  1.00  0.00     0.195 A 
ENDBRANCH  24  25
ENDBRANCH  22  23
ENDBRANCH  14  15
ENDBRANCH  13  14
ENDBRANCH  11  13
ENDBRANCH   4   9
BRANCH   8  30
ATOM     30  O   UNL A   1      36.132  30.480  27.656  1.00  0.00    -0.507 OA
ATOM     31  H   UNL A   1      36.622  31.275  27.740  1.00  0.00     0.293 HD
ENDBRANCH   8  30
ENDBRANCH   1   3
BRANCH   1  32
ATOM     32  O   UNL A   1      33.602  33.919  28.123  1.00  0.00    -0.458 OA
BRANCH  32  33
ATOM     33  C   UNL A   1      34.064  35.259  28.408  1.00  0.00     0.275 C 
BRANCH  33  34
ATOM     34  C   UNL A   1      33.073  36.026  29.286  1.00  0.00     0.275 C 
BRANCH  34  35
ATOM     35  O   UNL A   1      32.557  35.183  30.334  1.00  0.00    -0.458 OA
BRANCH  35  36
ATOM     36  C   UNL A   1      32.665  35.686  31.583  1.00  0.00     0.338 C 
ATOM     37  O   UNL A   1      31.947  36.516  32.115  1.00  0.00    -0.246 OA
BRANCH  36  38
ATOM     38  C   UNL A   1      33.745  35.008  32.316  1.00  0.00     0.060 A 
ATOM     39  C   UNL A   1      35.019  35.542  32.211  1.00  0.00     0.016 A 
ATOM     40  C   UNL A   1      33.563  33.762  32.906  1.00  0.00     0.016 A 
ATOM     41  C   UNL A   1      36.135  34.777  32.531  1.00  0.00     0.010 A 
ATOM     42  C   UNL A   1      34.681  33.060  33.383  1.00  0.00     0.010 A 
ATOM     43  C   UNL A   1      35.989  33.532  33.155  1.00  0.00    -0.014 A 
BRANCH  43  44
ATOM     44  C   UNL A   1      37.196  32.737  33.543  1.00  0.00     0.031 A 
ATOM     45  C   UNL A   1      37.872  32.968  34.871  1.00  0.00     0.074 A 
ATOM     46  C   UNL A   1      37.689  31.793  32.714  1.00  0.00     0.049 A 
ATOM     47  N   UNL A   1      39.032  32.532  35.302  1.00  0.00    -0.248 NA
ATOM     48  C   UNL A   1      37.163  33.822  35.836  1.00  0.00     0.031 C 
ATOM     49  C   UNL A   1      37.122  31.418  31.418  1.00  0.00     0.029 A 
ATOM     50  N   UNL A   1      38.783  30.968  32.839  1.00  0.00    -0.354 N 
ATOM     51  C   UNL A   1      39.219  33.112  36.551  1.00  0.00     0.074 A 
ATOM     52  C   UNL A   1      38.058  33.939  36.807  1.00  0.00     0.031 C 
ATOM     53  C   UNL A   1      37.834  30.413  30.893  1.00  0.00     0.029 A 
ATOM     54  C   UNL A   1      38.981  30.151  31.752  1.00  0.00     0.049 A 
ATOM     55  H   UNL A   1      39.369  30.964  33.631  1.00  0.00     0.167 HD
ATOM     56  C   UNL A   1      40.264  32.968  37.404  1.00  0.00     0.037 A 
ATOM     57  C   UNL A   1      39.995  29.322  31.440  1.00  0.00     0.037 A 
ATOM     58  C   UNL A   1      41.385  32.092  37.172  1.00  0.00     0.049 A 
ATOM     59  C   UNL A   1      41.159  29.206  32.380  1.00  0.00     0.074 A 
ATOM     60  C   UNL A   1      42.475  31.850  37.990  1.00  0.00     0.029 A 
ATOM     61  N   UNL A   1      41.556  31.306  36.040  1.00  0.00    -0.354 N 
ATOM     62  N   UNL A   1      41.351  29.797  33.534  1.00  0.00    -0.248 NA
ATOM     63  C   UNL A   1      42.258  28.324  31.965  1.00  0.00     0.031 C 
ATOM     64  C   UNL A   1      43.332  30.962  37.330  1.00  0.00     0.029 A 
ATOM     65  C   UNL A   1      42.746  30.600  36.128  1.00  0.00     0.049 A 
ATOM     66  H   UNL A   1      40.924  31.258  35.287  1.00  0.00     0.167 HD
ATOM     67  C   UNL A   1      42.581  29.347  33.992  1.00  0.00     0.074 A 
ATOM     68  C   UNL A   1      43.082  28.419  33.000  1.00  0.00     0.031 C 
ATOM     69  C   UNL A   1      43.235  29.678  35.133  1.00  0.00     0.037 A 
BRANCH  56  70
ATOM     70  C   UNL A   1      40.270  33.813  38.650  1.00  0.00     0.064 A 
ATOM     71  C   UNL A   1      39.602  33.432  39.823  1.00  0.00     0.173 A 
ATOM     72  C   UNL A   1      40.981  35.025  38.670  1.00  0.00     0.173 A 
ATOM     73  F   UNL A   1      38.902  32.288  39.859  1.00  0.00    -0.203 F 
ATOM     74  C   UNL A   1      39.611  34.248  40.952  1.00  0.00     0.198 A 
ATOM     75  C   UNL A   1      41.018  35.820  39.813  1.00  0.00     0.198 A 
ATOM     76  F   UNL A   1      41.650  35.436  37.582  1.00  0.00    -0.203 F 
ATOM     77  F   UNL A   1      38.914  33.892  42.041  1.00  0.00    -0.200 F 
ATOM     78  C   UNL A   1      40.323  35.439  40.949  1.00  0.00     0.200 A 
ATOM     79  F   UNL A   1      41.723  36.961  39.811  1.00  0.00    -0.200 F 
ATOM     80  F   UNL A   1      40.332  36.221  42.037  1.00  0.00    -0.200 F 
ENDBRANCH  56  70
BRANCH  57  81
ATOM     81  C   UNL A   1      39.968  28.581  30.150  1.00  0.00     0.064 A 
ATOM     82  C   UNL A   1      40.559  29.113  28.997  1.00  0.00     0.173 A 
ATOM     83  C   UNL A   1      39.377  27.310  30.053  1.00  0.00     0.173 A 
ATOM     84  F   UNL A   1      41.112  30.334  29.032  1.00  0.00    -0.203 F 
ATOM     85  C   UNL A   1      40.559  28.405  27.797  1.00  0.00     0.198 A 
ATOM     86  C   UNL A   1      39.410  26.589  28.863  1.00  0.00     0.198 A 
ATOM     87  F   UNL A   1      38.798  26.754  31.128  1.00  0.00    -0.203 F 
ATOM     88  F   UNL A   1      41.099  28.953  26.700  1.00  0.00    -0.200 F 
ATOM     89  C   UNL A   1      39.995  27.139  27.734  1.00  0.00     0.200 A 
ATOM     90  F   UNL A   1      38.882  25.358  28.813  1.00  0.00    -0.200 F 
ATOM     91  F   UNL A   1      40.014  26.451  26.584  1.00  0.00    -0.200 F 
ENDBRANCH  57  81
BRANCH  69  92
ATOM     92  C   UNL A   1      44.550  29.001  35.386  1.00  0.00     0.064 A 
ATOM     93  C   UNL A   1      45.766  29.568  34.973  1.00  0.00     0.173 A 
ATOM     94  C   UNL A   1      44.597  27.780  36.078  1.00  0.00     0.173 A 
ATOM     95  F   UNL A   1      45.775  30.723  34.292  1.00  0.00    -0.203 F 
ATOM     96  C   UNL A   1      46.976  28.922  35.218  1.00  0.00     0.198 A 
ATOM     97  C   UNL A   1      45.810  27.155  36.350  1.00  0.00     0.198 A 
ATOM     98  F   UNL A   1      43.463  27.197  36.498  1.00  0.00    -0.203 F 
ATOM     99  F   UNL A   1      48.119  29.455  34.766  1.00  0.00    -0.200 F 
ATOM    100  C   UNL A   1      46.997  27.721  35.912  1.00  0.00     0.200 A 
ATOM    101  F   UNL A   1      45.829  26.002  37.032  1.00  0.00    -0.200 F 
ATOM    102  F   UNL A   1      48.163  27.105  36.152  1.00  0.00    -0.200 F 
ENDBRANCH  69  92
ENDBRANCH  43  44
ENDBRANCH  36  38
ENDBRANCH  35  36
ENDBRANCH  34  35
ENDBRANCH  33  34
ENDBRANCH  32  33
ENDBRANCH   1  32
TORSDOF 18
ENDMDL
MODEL 2
REMARK VINA RESULT:     -11.8      5.137      7.584
REMARK SMILES O=C(CCN1C(=O)/C(=C/C=C/c2ccco2)SC1=S)Nc1ccc(C(=O)OCCOC(=O)c2ccc(-c3c4nc(c(-c5c(F)c(F)c(F)c(F)c5F)c5ccc([nH]5)c(-c5c(F)c(F)c(F)c(F)c5F)c5nc(c(-c6c(F)c(F)c(F)c(F)c6F)c6ccc3[nH]6)C=C5)C=C4)cc2)c(O)c1
REMARK SMILES IDX 25 1 26 2 24 3 21 4 22 5 98 6 23 7 96 8 20 9 1 10 2 11 3 13
REMARK SMILES IDX 4 14 5 15 6 16 18 17 7 18 8 19 17 20 19 21 9 22 10 23 11 24
REMARK SMILES IDX 12 25 13 26 16 27 14 28 15 29 97 30 27 32 28 33 29 34 30 35
REMARK SMILES IDX 31 36 32 37 33 38 34 39 95 40 35 41 94 42 36 43 37 44 38 45
REMARK SMILES IDX 88 46 39 47 93 48 87 49 89 50 40 51 92 52 86 53 85 54 41 56
REMARK SMILES IDX 73 57 53 58 72 59 54 60 57 61 71 62 90 63 55 64 56 65 70 67
REMARK SMILES IDX 91 68 58 69 42 70 43 71 51 72 44 73 45 74 49 75 52 76 46 77
REMARK SMILES IDX 47 78 50 79 48 80 74 81 75 82 83 83 76 84 77 85 81 86 84 87
REMARK SMILES IDX 78 88 79 89 82 90 80 91 59 92 60 93 68 94 61 95 62 96 66 97
REMARK SMILES IDX 69 98 63 99 64 100 67 101 65 102
REMARK H PARENT 20 12 97 31 89 55 57 66
REMARK Flexibility Score: inf
ROOT
ATOM      1  C   UNL A   1      34.388  33.511  28.167  1.00  0.00     0.342 C 
ATOM      2  O   UNL A   1      35.517  33.759  27.796  1.00  0.00    -0.246 OA
ENDROOT
BRANCH   1   3
ATOM      3  C   UNL A   1      33.603  32.361  27.654  1.00  0.00     0.101 A 
ATOM      4  C   UNL A   1      32.275  30.088  26.681  1.00  0.00     0.044 A 
ATOM      5  C   UNL A   1      33.542  29.962  27.231  1.00  0.00     0.027 A 
ATOM      6  C   UNL A   1      31.679  31.354  26.599  1.00  0.00     0.073 A 
ATOM      7  C   UNL A   1      34.219  31.102  27.654  1.00  0.00     0.022 A 
ATOM      8  C   UNL A   1      32.320  32.477  27.126  1.00  0.00     0.132 A 
BRANCH   4   9
ATOM      9  N   UNL A   1      31.603  28.999  26.110  1.00  0.00    -0.326 N 
ATOM     10  O   UNL A   1      32.651  28.799  24.054  1.00  0.00    -0.275 OA
ATOM     11  C   UNL A   1      31.755  28.490  24.836  1.00  0.00     0.226 C 
ATOM     12  H   UNL A   1      30.945  28.545  26.683  1.00  0.00     0.169 HD
BRANCH  11  13
ATOM     13  C   UNL A   1      30.645  27.546  24.404  1.00  0.00     0.122 C 
BRANCH  13  14
ATOM     14  C   UNL A   1      31.028  26.439  23.413  1.00  0.00     0.137 C 
BRANCH  14  15
ATOM     15  N   UNL A   1      31.466  25.179  24.039  1.00  0.00    -0.292 N 
ATOM     16  C   UNL A   1      32.539  24.493  23.480  1.00  0.00     0.266 C 
ATOM     17  C   UNL A   1      30.919  24.630  25.186  1.00  0.00     0.148 C 
ATOM     18  O   UNL A   1      33.243  24.886  22.563  1.00  0.00    -0.268 OA
ATOM     19  C   UNL A   1      32.665  23.154  24.109  1.00  0.00     0.080 C 
ATOM     20  S   UNL A   1      31.642  23.057  25.485  1.00  0.00    -0.054 SA
ATOM     21  S   UNL A   1      29.682  25.223  26.128  1.00  0.00    -0.052 S 
ATOM     22  C   UNL A   1      33.430  22.191  23.577  1.00  0.00     0.021 C 
BRANCH  22  23
ATOM     23  C   UNL A   1      33.503  20.820  24.040  1.00  0.00     0.005 C 
ATOM     24  C   UNL A   1      32.596  19.883  23.724  1.00  0.00     0.047 C 
BRANCH  24  25
ATOM     25  C   UNL A   1      32.739  18.551  24.194  1.00  0.00     0.126 A 
ATOM     26  C   UNL A   1      33.425  17.469  23.648  1.00  0.00     0.050 A 
ATOM     27  O   UNL A   1      32.157  18.119  25.364  1.00  0.00    -0.465 OA
ATOM     28  C   UNL A   1      33.215  16.351  24.489  1.00  0.00     0.042 A 
ATOM     29  C   UNL A   1      32.424  16.799  25.515  1.00  0.00     0.195 A 
ENDBRANCH  24  25
ENDBRANCH  22  23
ENDBRANCH  14  15
ENDBRANCH  13  14
ENDBRANCH  11  13
ENDBRANCH   4   9
BRANCH   8  30
ATOM     30  O   UNL A   1      31.633  33.658  27.056  1.00  0.00    -0.507 OA
ATOM     31  H   UNL A   1      31.601  34.134  26.250  1.00  0.00     0.293 HD
ENDBRANCH   8  30
ENDBRANCH   1   3
BRANCH   1  32
ATOM     32  O   UNL A   1      33.697  34.152  29.149  1.00  0.00    -0.458 OA
BRANCH  32  33
ATOM     33  C   UNL A   1      34.493  34.635  30.255  1.00  0.00     0.275 C 
BRANCH  33  34
ATOM     34  C   UNL A   1      34.151  33.909  31.559  1.00  0.00     0.275 C 
BRANCH  34  35
ATOM     35  O   UNL A   1      34.522  32.520  31.484  1.00  0.00    -0.458 OA
BRANCH  35  36
ATOM     36  C   UNL A   1      35.503  32.140  32.333  1.00  0.00     0.338 C 
ATOM     37  O   UNL A   1      35.534  32.282  33.543  1.00  0.00    -0.246 OA
BRANCH  36  38
ATOM     38  C   UNL A   1      36.545  31.397  31.610  1.00  0.00     0.060 A 
ATOM     39  C   UNL A   1      37.441  30.657  32.365  1.00  0.00     0.016 A 
ATOM     40  C   UNL A   1      36.780  31.592  30.253  1.00  0.00     0.016 A 
ATOM     41  C   UNL A   1      38.657  30.254  31.825  1.00  0.00     0.010 A 
ATOM     42  C   UNL A   1      37.931  31.040  29.670  1.00  0.00     0.010 A 
ATOM     43  C   UNL A   1      38.914  30.407  30.457  1.00  0.00    -0.014 A 
BRANCH  43  44
ATOM     44  C   UNL A   1      40.205  29.924  29.874  1.00  0.00     0.031 A 
ATOM     45  C   UNL A   1      41.391  30.849  29.763  1.00  0.00     0.074 A 
ATOM     46  C   UNL A   1      40.328  28.649  29.448  1.00  0.00     0.049 A 
ATOM     47  N   UNL A   1      42.517  30.683  29.112  1.00  0.00    -0.248 NA
ATOM     48  C   UNL A   1      41.291  32.140  30.458  1.00  0.00     0.031 C 
ATOM     49  C   UNL A   1      39.289  27.620  29.528  1.00  0.00     0.029 A 
ATOM     50  N   UNL A   1      41.387  27.993  28.863  1.00  0.00    -0.354 N 
ATOM     51  C   UNL A   1      43.224  31.870  29.261  1.00  0.00     0.074 A 
ATOM     52  C   UNL A   1      42.396  32.753  30.057  1.00  0.00     0.031 C 
ATOM     53  C   UNL A   1      39.772  26.461  29.064  1.00  0.00     0.029 A 
ATOM     54  C   UNL A   1      41.111  26.687  28.538  1.00  0.00     0.049 A 
ATOM     55  H   UNL A   1      42.258  28.420  28.692  1.00  0.00     0.167 HD
ATOM     56  C   UNL A   1      44.449  32.195  28.777  1.00  0.00     0.037 A 
ATOM     57  C   UNL A   1      41.822  25.778  27.843  1.00  0.00     0.037 A 
ATOM     58  C   UNL A   1      45.296  31.289  28.041  1.00  0.00     0.049 A 
ATOM     59  C   UNL A   1      43.159  26.170  27.284  1.00  0.00     0.074 A 
ATOM     60  C   UNL A   1      46.566  31.510  27.539  1.00  0.00     0.029 A 
ATOM     61  N   UNL A   1      44.959  29.983  27.710  1.00  0.00    -0.354 N 
ATOM     62  N   UNL A   1      43.796  27.311  27.387  1.00  0.00    -0.248 NA
ATOM     63  C   UNL A   1      43.868  25.153  26.495  1.00  0.00     0.031 C 
ATOM     64  C   UNL A   1      46.975  30.359  26.856  1.00  0.00     0.029 A 
ATOM     65  C   UNL A   1      45.987  29.397  26.987  1.00  0.00     0.049 A 
ATOM     66  H   UNL A   1      44.115  29.539  27.952  1.00  0.00     0.167 HD
ATOM     67  C   UNL A   1      44.985  27.146  26.692  1.00  0.00     0.074 A 
ATOM     68  C   UNL A   1      44.990  25.789  26.187  1.00  0.00     0.031 C 
ATOM     69  C   UNL A   1      45.981  28.043  26.489  1.00  0.00     0.037 A 
BRANCH  56  70
ATOM     70  C   UNL A   1      44.932  33.605  28.986  1.00  0.00     0.064 A 
ATOM     71  C   UNL A   1      45.765  33.966  30.055  1.00  0.00     0.173 A 
ATOM     72  C   UNL A   1      44.564  34.612  28.077  1.00  0.00     0.173 A 
ATOM     73  F   UNL A   1      46.143  33.048  30.956  1.00  0.00    -0.203 F 
ATOM     74  C   UNL A   1      46.177  35.286  30.230  1.00  0.00     0.198 A 
ATOM     75  C   UNL A   1      45.008  35.923  28.235  1.00  0.00     0.198 A 
ATOM     76  F   UNL A   1      43.779  34.324  27.028  1.00  0.00    -0.203 F 
ATOM     77  F   UNL A   1      46.922  35.619  31.293  1.00  0.00    -0.200 F 
ATOM     78  C   UNL A   1      45.803  36.262  29.317  1.00  0.00     0.200 A 
ATOM     79  F   UNL A   1      44.659  36.858  27.341  1.00  0.00    -0.200 F 
ATOM     80  F   UNL A   1      46.203  37.530  29.487  1.00  0.00    -0.200 F 
ENDBRANCH  56  70
BRANCH  57  81
ATOM     81  C   UNL A   1      41.248  24.428  27.598  1.00  0.00     0.064 A 
ATOM     82  C   UNL A   1      40.175  24.247  26.717  1.00  0.00     0.173 A 
ATOM     83  C   UNL A   1      41.783  23.286  28.218  1.00  0.00     0.173 A 
ATOM     84  F   UNL A   1      39.612  25.308  26.121  1.00  0.00    -0.203 F 
ATOM     85  C   UNL A   1      39.658  22.978  26.465  1.00  0.00     0.198 A 
ATOM     86  C   UNL A   1      41.289  22.015  27.937  1.00  0.00     0.198 A 
ATOM     87  F   UNL A   1      42.813  23.404  29.069  1.00  0.00    -0.203 F 
ATOM     88  F   UNL A   1      38.607  22.836  25.645  1.00  0.00    -0.200 F 
ATOM     89  C   UNL A   1      40.222  21.862  27.066  1.00  0.00     0.200 A 
ATOM     90  F   UNL A   1      41.852  20.940  28.505  1.00  0.00    -0.200 F 
ATOM     91  F   UNL A   1      39.736  20.640  26.808  1.00  0.00    -0.200 F 
ENDBRANCH  57  81
BRANCH  69  92
ATOM     92  C   UNL A   1      47.179  27.571  25.719  1.00  0.00     0.064 A 
ATOM     93  C   UNL A   1      47.267  27.718  24.326  1.00  0.00     0.173 A 
ATOM     94  C   UNL A   1      48.267  26.988  26.387  1.00  0.00     0.173 A 
ATOM     95  F   UNL A   1      46.247  28.251  23.637  1.00  0.00    -0.203 F 
ATOM     96  C   UNL A   1      48.388  27.271  23.629  1.00  0.00     0.198 A 
ATOM     97  C   UNL A   1      49.399  26.574  25.692  1.00  0.00     0.198 A 
ATOM     98  F   UNL A   1      48.236  26.829  27.719  1.00  0.00    -0.203 F 
ATOM     99  F   UNL A   1      48.428  27.373  22.293  1.00  0.00    -0.200 F 
ATOM    100  C   UNL A   1      49.456  26.708  24.313  1.00  0.00     0.200 A 
ATOM    101  F   UNL A   1      50.434  26.043  26.356  1.00  0.00    -0.200 F 
ATOM    102  F   UNL A   1      50.535  26.286  23.641  1.00  0.00    -0.200 F 
ENDBRANCH  69  92
ENDBRANCH  43  44
ENDBRANCH  36  38
ENDBRANCH  35  36
ENDBRANCH  34  35
ENDBRANCH  33  34
ENDBRANCH  32  33
ENDBRANCH   1  32
TORSDOF 18
ENDMDL
MODEL 3
REMARK VINA RESULT:     -11.8      6.633     12.723
REMARK SMILES O=C(CCN1C(=O)/C(=C/C=C/c2ccco2)SC1=S)Nc1ccc(C(=O)OCCOC(=O)c2ccc(-c3c4nc(c(-c5c(F)c(F)c(F)c(F)c5F)c5ccc([nH]5)c(-c5c(F)c(F)c(F)c(F)c5F)c5nc(c(-c6c(F)c(F)c(F)c(F)c6F)c6ccc3[nH]6)C=C5)C=C4)cc2)c(O)c1
REMARK SMILES IDX 25 1 26 2 24 3 21 4 22 5 98 6 23 7 96 8 20 9 1 10 2 11 3 13
REMARK SMILES IDX 4 14 5 15 6 16 18 17 7 18 8 19 17 20 19 21 9 22 10 23 11 24
REMARK SMILES IDX 12 25 13 26 16 27 14 28 15 29 97 30 27 32 28 33 29 34 30 35
REMARK SMILES IDX 31 36 32 37 33 38 34 39 95 40 35 41 94 42 36 43 37 44 38 45
REMARK SMILES IDX 88 46 39 47 93 48 87 49 89 50 40 51 92 52 86 53 85 54 41 56
REMARK SMILES IDX 73 57 53 58 72 59 54 60 57 61 71 62 90 63 55 64 56 65 70 67
REMARK SMILES IDX 91 68 58 69 42 70 43 71 51 72 44 73 45 74 49 75 52 76 46 77
REMARK SMILES IDX 47 78 50 79 48 80 74 81 75 82 83 83 76 84 77 85 81 86 84 87
REMARK SMILES IDX 78 88 79 89 82 90 80 91 59 92 60 93 68 94 61 95 62 96 66 97
REMARK SMILES IDX 69 98 63 99 64 100 67 101 65 102
REMARK H PARENT 20 12 97 31 89 55 57 66
REMARK Flexibility Score: inf
ROOT
ATOM      1  C   UNL A   1      41.613  21.053  27.486  1.00  0.00     0.342 C 
ATOM      2  O   UNL A   1      42.603  21.612  27.913  1.00  0.00    -0.246 OA
ENDROOT
BRANCH   1   3
ATOM      3  C   UNL A   1      40.412  21.786  27.017  1.00  0.00     0.101 A 
ATOM      4  C   UNL A   1      38.128  23.053  25.988  1.00  0.00     0.044 A 
ATOM      5  C   UNL A   1      38.457  21.776  25.561  1.00  0.00     0.027 A 
ATOM      6  C   UNL A   1      38.951  23.706  26.917  1.00  0.00     0.073 A 
ATOM      7  C   UNL A   1      39.625  21.179  26.028  1.00  0.00     0.022 A 
ATOM      8  C   UNL A   1      40.060  23.057  27.463  1.00  0.00     0.132 A 
BRANCH   4   9
ATOM      9  N   UNL A   1      37.044  23.760  25.449  1.00  0.00    -0.326 N 
ATOM     10  O   UNL A   1      35.231  22.556  26.241  1.00  0.00    -0.275 OA
ATOM     11  C   UNL A   1      35.706  23.432  25.522  1.00  0.00     0.226 C 
ATOM     12  H   UNL A   1      37.263  24.586  24.960  1.00  0.00     0.169 HD
BRANCH  11  13
ATOM     13  C   UNL A   1      34.822  24.193  24.548  1.00  0.00     0.122 C 
BRANCH  13  14
ATOM     14  C   UNL A   1      33.493  23.532  24.161  1.00  0.00     0.137 C 
BRANCH  14  15
ATOM     15  N   UNL A   1      32.341  24.449  24.111  1.00  0.00    -0.292 N 
ATOM     16  C   UNL A   1      32.106  25.162  22.941  1.00  0.00     0.266 C 
ATOM     17  C   UNL A   1      31.428  24.634  25.135  1.00  0.00     0.148 C 
ATOM     18  O   UNL A   1      32.706  25.029  21.886  1.00  0.00    -0.268 OA
ATOM     19  C   UNL A   1      31.057  26.187  23.176  1.00  0.00     0.080 C 
ATOM     20  S   UNL A   1      30.315  25.923  24.703  1.00  0.00    -0.054 SA
ATOM     21  S   UNL A   1      31.383  23.895  26.626  1.00  0.00    -0.052 S 
ATOM     22  C   UNL A   1      30.833  27.183  22.309  1.00  0.00     0.021 C 
BRANCH  22  23
ATOM     23  C   UNL A   1      29.934  28.300  22.521  1.00  0.00     0.005 C 
ATOM     24  C   UNL A   1      30.221  29.560  22.160  1.00  0.00     0.047 C 
BRANCH  24  25
ATOM     25  C   UNL A   1      29.284  30.605  22.378  1.00  0.00     0.126 A 
ATOM     26  C   UNL A   1      28.469  30.873  23.474  1.00  0.00     0.050 A 
ATOM     27  O   UNL A   1      29.038  31.578  21.436  1.00  0.00    -0.465 OA
ATOM     28  C   UNL A   1      27.686  32.010  23.166  1.00  0.00     0.042 A 
ATOM     29  C   UNL A   1      28.064  32.393  21.906  1.00  0.00     0.195 A 
ENDBRANCH  24  25
ENDBRANCH  22  23
ENDBRANCH  14  15
ENDBRANCH  13  14
ENDBRANCH  11  13
ENDBRANCH   4   9
BRANCH   8  30
ATOM     30  O   UNL A   1      40.766  23.750  28.407  1.00  0.00    -0.507 OA
ATOM     31  H   UNL A   1      41.119  23.302  29.151  1.00  0.00     0.293 HD
ENDBRANCH   8  30
ENDBRANCH   1   3
BRANCH   1  32
ATOM     32  O   UNL A   1      41.463  19.717  27.275  1.00  0.00    -0.458 OA
BRANCH  32  33
ATOM     33  C   UNL A   1      42.682  18.941  27.312  1.00  0.00     0.275 C 
BRANCH  33  34
ATOM     34  C   UNL A   1      42.992  18.310  25.952  1.00  0.00     0.275 C 
BRANCH  34  35
ATOM     35  O   UNL A   1      43.151  19.323  24.940  1.00  0.00    -0.458 OA
BRANCH  35  36
ATOM     36  C   UNL A   1      44.407  19.470  24.465  1.00  0.00     0.338 C 
ATOM     37  O   UNL A   1      45.088  18.635  23.894  1.00  0.00    -0.246 OA
BRANCH  36  38
ATOM     38  C   UNL A   1      44.856  20.861  24.628  1.00  0.00     0.060 A 
ATOM     39  C   UNL A   1      45.486  21.193  25.816  1.00  0.00     0.016 A 
ATOM     40  C   UNL A   1      44.477  21.864  23.742  1.00  0.00     0.016 A 
ATOM     41  C   UNL A   1      45.589  22.520  26.215  1.00  0.00     0.010 A 
ATOM     42  C   UNL A   1      44.734  23.203  24.072  1.00  0.00     0.010 A 
ATOM     43  C   UNL A   1      45.246  23.556  25.337  1.00  0.00    -0.014 A 
BRANCH  43  44
ATOM     44  C   UNL A   1      45.409  24.983  25.754  1.00  0.00     0.031 A 
ATOM     45  C   UNL A   1      46.741  25.677  25.614  1.00  0.00     0.074 A 
ATOM     46  C   UNL A   1      44.362  25.675  26.253  1.00  0.00     0.049 A 
ATOM     47  N   UNL A   1      47.134  26.831  26.099  1.00  0.00    -0.248 NA
ATOM     48  C   UNL A   1      47.777  24.971  24.846  1.00  0.00     0.031 C 
ATOM     49  C   UNL A   1      43.000  25.161  26.408  1.00  0.00     0.029 A 
ATOM     50  N   UNL A   1      44.276  26.966  26.720  1.00  0.00    -0.354 N 
ATOM     51  C   UNL A   1      48.475  26.953  25.755  1.00  0.00     0.074 A 
ATOM     52  C   UNL A   1      48.832  25.753  25.028  1.00  0.00     0.031 C 
ATOM     53  C   UNL A   1      42.208  26.132  26.882  1.00  0.00     0.029 A 
ATOM     54  C   UNL A   1      43.025  27.300  27.182  1.00  0.00     0.049 A 
ATOM     55  H   UNL A   1      45.037  27.590  26.724  1.00  0.00     0.167 HD
ATOM     56  C   UNL A   1      49.329  27.973  26.022  1.00  0.00     0.037 A 
ATOM     57  C   UNL A   1      42.584  28.395  27.829  1.00  0.00     0.037 A 
ATOM     58  C   UNL A   1      48.950  29.194  26.689  1.00  0.00     0.049 A 
ATOM     59  C   UNL A   1      43.554  29.495  28.149  1.00  0.00     0.074 A 
ATOM     60  C   UNL A   1      49.731  30.299  26.976  1.00  0.00     0.029 A 
ATOM     61  N   UNL A   1      47.676  29.473  27.166  1.00  0.00    -0.354 N 
ATOM     62  N   UNL A   1      44.830  29.580  27.864  1.00  0.00    -0.248 NA
ATOM     63  C   UNL A   1      43.026  30.644  28.897  1.00  0.00     0.031 C 
ATOM     64  C   UNL A   1      48.947  31.223  27.675  1.00  0.00     0.029 A 
ATOM     65  C   UNL A   1      47.658  30.723  27.769  1.00  0.00     0.049 A 
ATOM     66  H   UNL A   1      46.900  28.872  27.088  1.00  0.00     0.167 HD
ATOM     67  C   UNL A   1      45.255  30.794  28.382  1.00  0.00     0.074 A 
ATOM     68  C   UNL A   1      44.096  31.421  28.982  1.00  0.00     0.031 C 
ATOM     69  C   UNL A   1      46.498  31.337  28.363  1.00  0.00     0.037 A 
BRANCH  56  70
ATOM     70  C   UNL A   1      50.773  27.795  25.637  1.00  0.00     0.064 A 
ATOM     71  C   UNL A   1      51.247  28.064  24.344  1.00  0.00     0.173 A 
ATOM     72  C   UNL A   1      51.705  27.362  26.595  1.00  0.00     0.173 A 
ATOM     73  F   UNL A   1      50.402  28.474  23.388  1.00  0.00    -0.203 F 
ATOM     74  C   UNL A   1      52.587  27.868  24.015  1.00  0.00     0.198 A 
ATOM     75  C   UNL A   1      53.050  27.202  26.272  1.00  0.00     0.198 A 
ATOM     76  F   UNL A   1      51.313  27.100  27.852  1.00  0.00    -0.203 F 
ATOM     77  F   UNL A   1      53.004  28.073  22.758  1.00  0.00    -0.200 F 
ATOM     78  C   UNL A   1      53.489  27.443  24.980  1.00  0.00     0.200 A 
ATOM     79  F   UNL A   1      53.921  26.809  27.212  1.00  0.00    -0.200 F 
ATOM     80  F   UNL A   1      54.777  27.258  24.662  1.00  0.00    -0.200 F 
ENDBRANCH  56  70
BRANCH  57  81
ATOM     81  C   UNL A   1      41.162  28.470  28.260  1.00  0.00     0.064 A 
ATOM     82  C   UNL A   1      40.767  28.039  29.532  1.00  0.00     0.173 A 
ATOM     83  C   UNL A   1      40.173  29.005  27.417  1.00  0.00     0.173 A 
ATOM     84  F   UNL A   1      41.669  27.497  30.364  1.00  0.00    -0.203 F 
ATOM     85  C   UNL A   1      39.440  28.137  29.946  1.00  0.00     0.198 A 
ATOM     86  C   UNL A   1      38.855  29.136  27.844  1.00  0.00     0.198 A 
ATOM     87  F   UNL A   1      40.497  29.434  26.188  1.00  0.00    -0.203 F 
ATOM     88  F   UNL A   1      39.083  27.684  31.155  1.00  0.00    -0.200 F 
ATOM     89  C   UNL A   1      38.488  28.696  29.106  1.00  0.00     0.200 A 
ATOM     90  F   UNL A   1      37.944  29.695  27.037  1.00  0.00    -0.200 F 
ATOM     91  F   UNL A   1      37.216  28.808  29.513  1.00  0.00    -0.200 F 
ENDBRANCH  57  81
BRANCH  69  92
ATOM     92  C   UNL A   1      46.658  32.697  28.979  1.00  0.00     0.064 A 
ATOM     93  C   UNL A   1      46.422  33.871  28.248  1.00  0.00     0.173 A 
ATOM     94  C   UNL A   1      47.028  32.825  30.327  1.00  0.00     0.173 A 
ATOM     95  F   UNL A   1      46.085  33.804  26.952  1.00  0.00    -0.203 F 
ATOM     96  C   UNL A   1      46.578  35.124  28.839  1.00  0.00     0.198 A 
ATOM     97  C   UNL A   1      47.151  34.077  30.922  1.00  0.00     0.198 A 
ATOM     98  F   UNL A   1      47.262  31.732  31.071  1.00  0.00    -0.203 F 
ATOM     99  F   UNL A   1      46.400  36.233  28.107  1.00  0.00    -0.200 F 
ATOM    100  C   UNL A   1      46.934  35.225  30.175  1.00  0.00     0.200 A 
ATOM    101  F   UNL A   1      47.482  34.172  32.216  1.00  0.00    -0.200 F 
ATOM    102  F   UNL A   1      47.078  36.431  30.742  1.00  0.00    -0.200 F 
ENDBRANCH  69  92
ENDBRANCH  43  44
ENDBRANCH  36  38
ENDBRANCH  35  36
ENDBRANCH  34  35
ENDBRANCH  33  34
ENDBRANCH  32  33
ENDBRANCH   1  32
TORSDOF 18
ENDMDL
