MODEL 1
REMARK VINA RESULT:     -13.2      0.000      0.000
REMARK SMILES COc1ccc(CCN2C(=O)CC[C@@H](C(=O)OCCOC(=O)c3ccc(-c4c5nc(c(-c6c(F)c(F)c(F)c(F)c6F)c6ccc([nH]6)c(-c6c(F)c(F)c(F)c(F)c6F)c6nc(c(-c7c(F)c(F)c(F)c(F)c7F)c7ccc4[nH]7)C=C6)C=C5)cc3)[C@@H]2c2ccc(Cl)cc2)cc1OC
REMARK SMILES IDX 18 1 17 2 15 3 16 4 14 5 9 6 10 7 86 8 11 9 12 10 13 11 8 12
REMARK SMILES IDX 7 13 6 14 3 15 4 16 95 17 5 18 94 19 2 20 1 21 96 22 97 23
REMARK SMILES IDX 87 24 88 25 93 26 89 27 92 28 90 29 91 30 19 31 20 32 21 33
REMARK SMILES IDX 22 34 23 35 24 36 85 37 25 38 84 39 26 40 27 41 28 42 78 43
REMARK SMILES IDX 29 44 83 45 77 46 79 47 30 48 82 49 76 50 75 51 31 53 63 54
REMARK SMILES IDX 43 55 62 56 44 57 47 58 61 59 80 60 45 61 46 62 60 64 81 65
REMARK SMILES IDX 48 66 32 67 33 68 41 69 34 70 35 71 39 72 42 73 36 74 37 75
REMARK SMILES IDX 40 76 38 77 64 78 65 79 73 80 66 81 67 82 71 83 74 84 68 85
REMARK SMILES IDX 69 86 72 87 70 88 49 89 50 90 58 91 51 92 52 93 56 94 59 95
REMARK SMILES IDX 53 96 54 97 57 98 55 99
REMARK H PARENT 79 52 47 63
REMARK Flexibility Score: inf
ROOT
ATOM      1  C   UNL A   1      31.867  27.918  25.707  1.00  0.00     0.274 C 
ENDROOT
BRANCH   1   2
ATOM      2  O   UNL A   1      31.511  27.206  24.500  1.00  0.00    -0.462 OA
BRANCH   2   3
ATOM      3  C   UNL A   1      32.429  26.316  24.046  1.00  0.00     0.311 C 
ATOM      4  O   UNL A   1      33.555  26.620  23.667  1.00  0.00    -0.252 OA
BRANCH   3   5
ATOM      5  C   UNL A   1      31.905  24.893  23.958  1.00  0.00     0.127 C 
ATOM      6  N   UNL A   1      33.121  23.975  25.900  1.00  0.00    -0.334 N 
ATOM      7  C   UNL A   1      31.969  23.702  26.637  1.00  0.00     0.223 C 
ATOM      8  C   UNL A   1      32.991  23.903  24.435  1.00  0.00     0.129 C 
ATOM      9  O   UNL A   1      31.987  23.079  27.697  1.00  0.00    -0.275 OA
ATOM     10  C   UNL A   1      30.659  24.273  26.117  1.00  0.00     0.101 C 
ATOM     11  C   UNL A   1      30.568  24.604  24.638  1.00  0.00     0.028 C 
BRANCH   6  12
ATOM     12  C   UNL A   1      34.460  23.770  26.513  1.00  0.00     0.125 C 
BRANCH  12  13
ATOM     13  C   UNL A   1      35.703  24.207  25.689  1.00  0.00     0.057 C 
BRANCH  13  14
ATOM     14  C   UNL A   1      36.954  23.351  25.771  1.00  0.00    -0.042 A 
ATOM     15  C   UNL A   1      39.275  21.701  26.037  1.00  0.00     0.160 A 
ATOM     16  C   UNL A   1      39.250  23.012  26.522  1.00  0.00     0.051 A 
ATOM     17  C   UNL A   1      38.158  21.243  25.325  1.00  0.00     0.160 A 
ATOM     18  C   UNL A   1      38.108  23.819  26.388  1.00  0.00     0.008 A 
ATOM     19  C   UNL A   1      37.026  22.082  25.184  1.00  0.00     0.054 A 
BRANCH  15  20
ATOM     20  O   UNL A   1      40.315  20.842  26.256  1.00  0.00    -0.493 OA
ATOM     21  C   UNL A   1      40.927  20.821  27.538  1.00  0.00     0.278 C 
ENDBRANCH  15  20
BRANCH  17  22
ATOM     22  O   UNL A   1      37.980  20.018  24.730  1.00  0.00    -0.493 OA
ATOM     23  C   UNL A   1      36.718  19.373  24.851  1.00  0.00     0.278 C 
ENDBRANCH  17  22
ENDBRANCH  13  14
ENDBRANCH  12  13
ENDBRANCH   6  12
BRANCH   8  24
ATOM     24  C   UNL A   1      32.706  22.466  23.924  1.00  0.00    -0.024 A 
ATOM     25  C   UNL A   1      32.129  22.186  22.669  1.00  0.00     0.007 A 
ATOM     26  C   UNL A   1      33.052  21.365  24.729  1.00  0.00     0.007 A 
ATOM     27  C   UNL A   1      31.977  20.874  22.206  1.00  0.00     0.021 A 
ATOM     28  C   UNL A   1      32.901  20.052  24.269  1.00  0.00     0.021 A 
ATOM     29  C   UNL A   1      32.375  19.811  23.004  1.00  0.00     0.041 A 
ATOM     30  Cl  UNL A   1      32.213  18.200  22.430  1.00  0.00    -0.084 Cl
ENDBRANCH   8  24
ENDBRANCH   3   5
ENDBRANCH   2   3
ENDBRANCH   1   2
BRANCH   1  31
ATOM     31  C   UNL A   1      31.727  29.420  25.465  1.00  0.00     0.275 C 
BRANCH  31  32
ATOM     32  O   UNL A   1      33.013  30.015  25.711  1.00  0.00    -0.458 OA
BRANCH  32  33
ATOM     33  C   UNL A   1      33.127  30.837  26.781  1.00  0.00     0.338 C 
ATOM     34  O   UNL A   1      32.265  31.553  27.251  1.00  0.00    -0.246 OA
BRANCH  33  35
ATOM     35  C   UNL A   1      34.488  30.677  27.351  1.00  0.00     0.060 A 
ATOM     36  C   UNL A   1      34.947  29.398  27.637  1.00  0.00     0.016 A 
ATOM     37  C   UNL A   1      35.276  31.774  27.700  1.00  0.00     0.016 A 
ATOM     38  C   UNL A   1      36.149  29.217  28.317  1.00  0.00     0.010 A 
ATOM     39  C   UNL A   1      36.517  31.576  28.340  1.00  0.00     0.010 A 
ATOM     40  C   UNL A   1      36.957  30.287  28.693  1.00  0.00    -0.014 A 
BRANCH  40  41
ATOM     41  C   UNL A   1      38.147  30.041  29.571  1.00  0.00     0.031 A 
ATOM     42  C   UNL A   1      39.305  29.257  29.031  1.00  0.00     0.074 A 
ATOM     43  C   UNL A   1      38.311  30.607  30.786  1.00  0.00     0.049 A 
ATOM     44  N   UNL A   1      40.310  28.716  29.669  1.00  0.00    -0.248 NA
ATOM     45  C   UNL A   1      39.344  29.074  27.574  1.00  0.00     0.031 C 
ATOM     46  C   UNL A   1      37.398  31.565  31.385  1.00  0.00     0.029 A 
ATOM     47  N   UNL A   1      39.307  30.490  31.731  1.00  0.00    -0.354 N 
ATOM     48  C   UNL A   1      41.060  28.068  28.702  1.00  0.00     0.074 A 
ATOM     49  C   UNL A   1      40.409  28.301  27.429  1.00  0.00     0.031 C 
ATOM     50  C   UNL A   1      37.871  31.980  32.567  1.00  0.00     0.029 A 
ATOM     51  C   UNL A   1      39.076  31.223  32.872  1.00  0.00     0.049 A 
ATOM     52  H   UNL A   1      40.109  29.934  31.600  1.00  0.00     0.167 HD
ATOM     53  C   UNL A   1      42.184  27.335  28.869  1.00  0.00     0.037 A 
ATOM     54  C   UNL A   1      39.711  31.240  34.061  1.00  0.00     0.037 A 
ATOM     55  C   UNL A   1      42.870  27.166  30.121  1.00  0.00     0.049 A 
ATOM     56  C   UNL A   1      40.878  30.318  34.269  1.00  0.00     0.074 A 
ATOM     57  C   UNL A   1      43.974  26.382  30.405  1.00  0.00     0.029 A 
ATOM     58  N   UNL A   1      42.537  27.826  31.295  1.00  0.00    -0.354 N 
ATOM     59  N   UNL A   1      41.475  29.538  33.404  1.00  0.00    -0.248 NA
ATOM     60  C   UNL A   1      41.436  30.247  35.628  1.00  0.00     0.031 C 
ATOM     61  C   UNL A   1      44.295  26.548  31.757  1.00  0.00     0.029 A 
ATOM     62  C   UNL A   1      43.411  27.461  32.308  1.00  0.00     0.049 A 
ATOM     63  H   UNL A   1      41.792  28.462  31.395  1.00  0.00     0.167 HD
ATOM     64  C   UNL A   1      42.481  28.890  34.104  1.00  0.00     0.074 A 
ATOM     65  C   UNL A   1      42.429  29.383  35.465  1.00  0.00     0.031 C 
ATOM     66  C   UNL A   1      43.358  27.962  33.656  1.00  0.00     0.037 A 
BRANCH  53  67
ATOM     67  C   UNL A   1      42.684  26.590  27.673  1.00  0.00     0.064 A 
ATOM     68  C   UNL A   1      42.298  25.273  27.396  1.00  0.00     0.173 A 
ATOM     69  C   UNL A   1      43.581  27.216  26.795  1.00  0.00     0.173 A 
ATOM     70  F   UNL A   1      41.465  24.625  28.224  1.00  0.00    -0.203 F 
ATOM     71  C   UNL A   1      42.812  24.600  26.291  1.00  0.00     0.198 A 
ATOM     72  C   UNL A   1      44.074  26.549  25.679  1.00  0.00     0.198 A 
ATOM     73  F   UNL A   1      43.983  28.476  27.024  1.00  0.00    -0.203 F 
ATOM     74  F   UNL A   1      42.470  23.323  26.068  1.00  0.00    -0.200 F 
ATOM     75  C   UNL A   1      43.694  25.239  25.432  1.00  0.00     0.200 A 
ATOM     76  F   UNL A   1      44.923  27.171  24.849  1.00  0.00    -0.200 F 
ATOM     77  F   UNL A   1      44.189  24.588  24.370  1.00  0.00    -0.200 F 
ENDBRANCH  53  67
BRANCH  54  78
ATOM     78  C   UNL A   1      39.203  32.081  35.179  1.00  0.00     0.064 A 
ATOM     79  C   UNL A   1      39.524  33.443  35.268  1.00  0.00     0.173 A 
ATOM     80  C   UNL A   1      38.415  31.532  36.204  1.00  0.00     0.173 A 
ATOM     81  F   UNL A   1      40.306  34.009  34.337  1.00  0.00    -0.203 F 
ATOM     82  C   UNL A   1      39.084  34.220  36.340  1.00  0.00     0.198 A 
ATOM     83  C   UNL A   1      37.950  32.317  37.258  1.00  0.00     0.198 A 
ATOM     84  F   UNL A   1      38.094  30.231  36.182  1.00  0.00    -0.203 F 
ATOM     85  F   UNL A   1      39.446  35.507  36.426  1.00  0.00    -0.200 F 
ATOM     86  C   UNL A   1      38.291  33.658  37.330  1.00  0.00     0.200 A 
ATOM     87  F   UNL A   1      37.178  31.771  38.207  1.00  0.00    -0.200 F 
ATOM     88  F   UNL A   1      37.867  34.405  38.358  1.00  0.00    -0.200 F 
ENDBRANCH  54  78
BRANCH  66  89
ATOM     89  C   UNL A   1      44.355  27.437  34.641  1.00  0.00     0.064 A 
ATOM     90  C   UNL A   1      45.576  28.089  34.863  1.00  0.00     0.173 A 
ATOM     91  C   UNL A   1      44.073  26.288  35.395  1.00  0.00     0.173 A 
ATOM     92  F   UNL A   1      45.897  29.180  34.152  1.00  0.00    -0.203 F 
ATOM     93  C   UNL A   1      46.486  27.602  35.796  1.00  0.00     0.198 A 
ATOM     94  C   UNL A   1      44.976  25.815  36.342  1.00  0.00     0.198 A 
ATOM     95  F   UNL A   1      42.918  25.628  35.216  1.00  0.00    -0.203 F 
ATOM     96  F   UNL A   1      47.663  28.220  35.968  1.00  0.00    -0.200 F 
ATOM     97  C   UNL A   1      46.183  26.470  36.539  1.00  0.00     0.200 A 
ATOM     98  F   UNL A   1      44.679  24.727  37.064  1.00  0.00    -0.200 F 
ATOM     99  F   UNL A   1      47.059  26.005  37.441  1.00  0.00    -0.200 F 
ENDBRANCH  66  89
ENDBRANCH  40  41
ENDBRANCH  33  35
ENDBRANCH  32  33
ENDBRANCH  31  32
ENDBRANCH   1  31
TORSDOF 17
ENDMDL
MODEL 2
REMARK VINA RESULT:     -12.5      4.122      9.989
REMARK SMILES COc1ccc(CCN2C(=O)CC[C@@H](C(=O)OCCOC(=O)c3ccc(-c4c5nc(c(-c6c(F)c(F)c(F)c(F)c6F)c6ccc([nH]6)c(-c6c(F)c(F)c(F)c(F)c6F)c6nc(c(-c7c(F)c(F)c(F)c(F)c7F)c7ccc4[nH]7)C=C6)C=C5)cc3)[C@@H]2c2ccc(Cl)cc2)cc1OC
REMARK SMILES IDX 18 1 17 2 15 3 16 4 14 5 9 6 10 7 86 8 11 9 12 10 13 11 8 12
REMARK SMILES IDX 7 13 6 14 3 15 4 16 95 17 5 18 94 19 2 20 1 21 96 22 97 23
REMARK SMILES IDX 87 24 88 25 93 26 89 27 92 28 90 29 91 30 19 31 20 32 21 33
REMARK SMILES IDX 22 34 23 35 24 36 85 37 25 38 84 39 26 40 27 41 28 42 78 43
REMARK SMILES IDX 29 44 83 45 77 46 79 47 30 48 82 49 76 50 75 51 31 53 63 54
REMARK SMILES IDX 43 55 62 56 44 57 47 58 61 59 80 60 45 61 46 62 60 64 81 65
REMARK SMILES IDX 48 66 32 67 33 68 41 69 34 70 35 71 39 72 42 73 36 74 37 75
REMARK SMILES IDX 40 76 38 77 64 78 65 79 73 80 66 81 67 82 71 83 74 84 68 85
REMARK SMILES IDX 69 86 72 87 70 88 49 89 50 90 58 91 51 92 52 93 56 94 59 95
REMARK SMILES IDX 53 96 54 97 57 98 55 99
REMARK H PARENT 79 52 47 63
REMARK Flexibility Score: inf
ROOT
ATOM      1  C   UNL A   1      35.443  20.998  24.643  1.00  0.00     0.274 C 
ENDROOT
BRANCH   1   2
ATOM      2  O   UNL A   1      35.628  22.299  24.040  1.00  0.00    -0.462 OA
BRANCH   2   3
ATOM      3  C   UNL A   1      34.517  23.072  23.951  1.00  0.00     0.311 C 
ATOM      4  O   UNL A   1      33.688  22.987  23.050  1.00  0.00    -0.252 OA
BRANCH   3   5
ATOM      5  C   UNL A   1      34.427  24.135  25.032  1.00  0.00     0.127 C 
ATOM      6  N   UNL A   1      32.018  23.902  25.521  1.00  0.00    -0.334 N 
ATOM      7  C   UNL A   1      32.211  23.461  26.830  1.00  0.00     0.223 C 
ATOM      8  C   UNL A   1      33.041  24.817  24.984  1.00  0.00     0.129 C 
ATOM      9  O   UNL A   1      31.285  23.311  27.626  1.00  0.00    -0.275 OA
ATOM     10  C   UNL A   1      33.628  23.090  27.238  1.00  0.00     0.101 C 
ATOM     11  C   UNL A   1      34.774  23.707  26.456  1.00  0.00     0.028 C 
BRANCH   6  12
ATOM     12  C   UNL A   1      30.649  23.938  24.944  1.00  0.00     0.125 C 
BRANCH  12  13
ATOM     13  C   UNL A   1      30.490  24.496  23.502  1.00  0.00     0.057 C 
BRANCH  13  14
ATOM     14  C   UNL A   1      30.098  25.954  23.337  1.00  0.00    -0.042 A 
ATOM     15  C   UNL A   1      29.380  28.716  23.148  1.00  0.00     0.160 A 
ATOM     16  C   UNL A   1      28.445  27.739  23.501  1.00  0.00     0.051 A 
ATOM     17  C   UNL A   1      30.668  28.293  22.791  1.00  0.00     0.160 A 
ATOM     18  C   UNL A   1      28.801  26.383  23.593  1.00  0.00     0.008 A 
ATOM     19  C   UNL A   1      30.999  26.918  22.869  1.00  0.00     0.054 A 
BRANCH  15  20
ATOM     20  O   UNL A   1      29.108  30.055  23.170  1.00  0.00    -0.493 OA
ATOM     21  C   UNL A   1      28.007  30.543  22.417  1.00  0.00     0.278 C 
ENDBRANCH  15  20
BRANCH  17  22
ATOM     22  O   UNL A   1      31.726  29.063  22.375  1.00  0.00    -0.493 OA
ATOM     23  C   UNL A   1      33.039  28.523  22.449  1.00  0.00     0.278 C 
ENDBRANCH  17  22
ENDBRANCH  13  14
ENDBRANCH  12  13
ENDBRANCH   6  12
BRANCH   8  24
ATOM     24  C   UNL A   1      33.063  26.189  25.707  1.00  0.00    -0.024 A 
ATOM     25  C   UNL A   1      34.145  27.091  25.634  1.00  0.00     0.007 A 
ATOM     26  C   UNL A   1      31.948  26.589  26.467  1.00  0.00     0.007 A 
ATOM     27  C   UNL A   1      34.086  28.359  26.222  1.00  0.00     0.021 A 
ATOM     28  C   UNL A   1      31.886  27.856  27.057  1.00  0.00     0.021 A 
ATOM     29  C   UNL A   1      32.951  28.742  26.922  1.00  0.00     0.041 A 
ATOM     30  Cl  UNL A   1      32.864  30.307  27.625  1.00  0.00    -0.084 Cl
ENDBRANCH   8  24
ENDBRANCH   3   5
ENDBRANCH   2   3
ENDBRANCH   1   2
BRANCH   1  31
ATOM     31  C   UNL A   1      36.808  20.421  25.020  1.00  0.00     0.275 C 
BRANCH  31  32
ATOM     32  O   UNL A   1      37.580  21.488  25.595  1.00  0.00    -0.458 OA
BRANCH  32  33
ATOM     33  C   UNL A   1      38.858  21.216  25.950  1.00  0.00     0.338 C 
ATOM     34  O   UNL A   1      39.466  20.180  25.763  1.00  0.00    -0.246 OA
BRANCH  33  35
ATOM     35  C   UNL A   1      39.444  22.434  26.561  1.00  0.00     0.060 A 
ATOM     36  C   UNL A   1      39.041  23.678  26.094  1.00  0.00     0.016 A 
ATOM     37  C   UNL A   1      40.458  22.366  27.517  1.00  0.00     0.016 A 
ATOM     38  C   UNL A   1      39.681  24.836  26.527  1.00  0.00     0.010 A 
ATOM     39  C   UNL A   1      41.062  23.550  27.990  1.00  0.00     0.010 A 
ATOM     40  C   UNL A   1      40.705  24.807  27.471  1.00  0.00    -0.014 A 
BRANCH  40  41
ATOM     41  C   UNL A   1      41.469  26.063  27.769  1.00  0.00     0.031 A 
ATOM     42  C   UNL A   1      40.841  27.114  28.633  1.00  0.00     0.074 A 
ATOM     43  C   UNL A   1      42.762  26.252  27.424  1.00  0.00     0.049 A 
ATOM     44  N   UNL A   1      41.198  28.359  28.816  1.00  0.00    -0.248 NA
ATOM     45  C   UNL A   1      39.662  26.702  29.406  1.00  0.00     0.031 C 
ATOM     46  C   UNL A   1      43.600  25.260  26.775  1.00  0.00     0.029 A 
ATOM     47  N   UNL A   1      43.612  27.322  27.590  1.00  0.00    -0.354 N 
ATOM     48  C   UNL A   1      40.249  28.898  29.668  1.00  0.00     0.074 A 
ATOM     49  C   UNL A   1      39.311  27.841  29.985  1.00  0.00     0.031 C 
ATOM     50  C   UNL A   1      44.844  25.733  26.620  1.00  0.00     0.029 A 
ATOM     51  C   UNL A   1      44.865  27.121  27.057  1.00  0.00     0.049 A 
ATOM     52  H   UNL A   1      43.348  28.153  28.048  1.00  0.00     0.167 HD
ATOM     53  C   UNL A   1      40.165  30.166  30.131  1.00  0.00     0.037 A 
ATOM     54  C   UNL A   1      45.897  27.968  26.869  1.00  0.00     0.037 A 
ATOM     55  C   UNL A   1      41.138  31.194  29.876  1.00  0.00     0.049 A 
ATOM     56  C   UNL A   1      45.734  29.405  27.270  1.00  0.00     0.074 A 
ATOM     57  C   UNL A   1      41.102  32.528  30.240  1.00  0.00     0.029 A 
ATOM     58  N   UNL A   1      42.344  30.989  29.223  1.00  0.00    -0.354 N 
ATOM     59  N   UNL A   1      44.739  29.976  27.903  1.00  0.00    -0.248 NA
ATOM     60  C   UNL A   1      46.816  30.328  26.897  1.00  0.00     0.031 C 
ATOM     61  C   UNL A   1      42.277  33.138  29.784  1.00  0.00     0.029 A 
ATOM     62  C   UNL A   1      43.058  32.176  29.166  1.00  0.00     0.049 A 
ATOM     63  H   UNL A   1      42.649  30.129  28.854  1.00  0.00     0.167 HD
ATOM     64  C   UNL A   1      45.074  31.316  28.012  1.00  0.00     0.074 A 
ATOM     65  C   UNL A   1      46.377  31.474  27.399  1.00  0.00     0.031 C 
ATOM     66  C   UNL A   1      44.357  32.323  28.562  1.00  0.00     0.037 A 
BRANCH  53  67
ATOM     67  C   UNL A   1      38.927  30.524  30.889  1.00  0.00     0.064 A 
ATOM     68  C   UNL A   1      37.760  30.961  30.252  1.00  0.00     0.173 A 
ATOM     69  C   UNL A   1      38.925  30.435  32.289  1.00  0.00     0.173 A 
ATOM     70  F   UNL A   1      37.726  31.089  28.917  1.00  0.00    -0.203 F 
ATOM     71  C   UNL A   1      36.637  31.319  30.994  1.00  0.00     0.198 A 
ATOM     72  C   UNL A   1      37.794  30.769  33.026  1.00  0.00     0.198 A 
ATOM     73  F   UNL A   1      40.024  30.026  32.942  1.00  0.00    -0.203 F 
ATOM     74  F   UNL A   1      35.544  31.781  30.371  1.00  0.00    -0.200 F 
ATOM     75  C   UNL A   1      36.654  31.218  32.378  1.00  0.00     0.200 A 
ATOM     76  F   UNL A   1      37.812  30.668  34.361  1.00  0.00    -0.200 F 
ATOM     77  F   UNL A   1      35.572  31.564  33.090  1.00  0.00    -0.200 F 
ENDBRANCH  53  67
BRANCH  54  78
ATOM     78  C   UNL A   1      47.138  27.510  26.185  1.00  0.00     0.064 A 
ATOM     79  C   UNL A   1      48.235  27.029  26.914  1.00  0.00     0.173 A 
ATOM     80  C   UNL A   1      47.267  27.577  24.788  1.00  0.00     0.173 A 
ATOM     81  F   UNL A   1      48.179  26.980  28.253  1.00  0.00    -0.203 F 
ATOM     82  C   UNL A   1      49.412  26.642  26.275  1.00  0.00     0.198 A 
ATOM     83  C   UNL A   1      48.432  27.160  24.149  1.00  0.00     0.198 A 
ATOM     84  F   UNL A   1      46.257  28.047  24.042  1.00  0.00    -0.203 F 
ATOM     85  F   UNL A   1      50.462  26.233  26.999  1.00  0.00    -0.200 F 
ATOM     86  C   UNL A   1      49.507  26.700  24.892  1.00  0.00     0.200 A 
ATOM     87  F   UNL A   1      48.516  27.212  22.812  1.00  0.00    -0.200 F 
ATOM     88  F   UNL A   1      50.638  26.327  24.279  1.00  0.00    -0.200 F 
ENDBRANCH  54  78
BRANCH  66  89
ATOM     89  C   UNL A   1      44.978  33.685  28.553  1.00  0.00     0.064 A 
ATOM     90  C   UNL A   1      44.714  34.602  27.525  1.00  0.00     0.173 A 
ATOM     91  C   UNL A   1      45.817  34.091  29.601  1.00  0.00     0.173 A 
ATOM     92  F   UNL A   1      43.933  34.251  26.492  1.00  0.00    -0.203 F 
ATOM     93  C   UNL A   1      45.281  35.872  27.539  1.00  0.00     0.198 A 
ATOM     94  C   UNL A   1      46.365  35.370  29.623  1.00  0.00     0.198 A 
ATOM     95  F   UNL A   1      46.100  33.249  30.606  1.00  0.00    -0.203 F 
ATOM     96  F   UNL A   1      45.046  36.721  26.528  1.00  0.00    -0.200 F 
ATOM     97  C   UNL A   1      46.101  36.257  28.591  1.00  0.00     0.200 A 
ATOM     98  F   UNL A   1      47.150  35.744  30.642  1.00  0.00    -0.200 F 
ATOM     99  F   UNL A   1      46.642  37.484  28.605  1.00  0.00    -0.200 F 
ENDBRANCH  66  89
ENDBRANCH  40  41
ENDBRANCH  33  35
ENDBRANCH  32  33
ENDBRANCH  31  32
ENDBRANCH   1  31
TORSDOF 17
ENDMDL
MODEL 3
REMARK VINA RESULT:     -12.5      3.992      9.792
REMARK SMILES COc1ccc(CCN2C(=O)CC[C@@H](C(=O)OCCOC(=O)c3ccc(-c4c5nc(c(-c6c(F)c(F)c(F)c(F)c6F)c6ccc([nH]6)c(-c6c(F)c(F)c(F)c(F)c6F)c6nc(c(-c7c(F)c(F)c(F)c(F)c7F)c7ccc4[nH]7)C=C6)C=C5)cc3)[C@@H]2c2ccc(Cl)cc2)cc1OC
REMARK SMILES IDX 18 1 17 2 15 3 16 4 14 5 9 6 10 7 86 8 11 9 12 10 13 11 8 12
REMARK SMILES IDX 7 13 6 14 3 15 4 16 95 17 5 18 94 19 2 20 1 21 96 22 97 23
REMARK SMILES IDX 87 24 88 25 93 26 89 27 92 28 90 29 91 30 19 31 20 32 21 33
REMARK SMILES IDX 22 34 23 35 24 36 85 37 25 38 84 39 26 40 27 41 28 42 78 43
REMARK SMILES IDX 29 44 83 45 77 46 79 47 30 48 82 49 76 50 75 51 31 53 63 54
REMARK SMILES IDX 43 55 62 56 44 57 47 58 61 59 80 60 45 61 46 62 60 64 81 65
REMARK SMILES IDX 48 66 32 67 33 68 41 69 34 70 35 71 39 72 42 73 36 74 37 75
REMARK SMILES IDX 40 76 38 77 64 78 65 79 73 80 66 81 67 82 71 83 74 84 68 85
REMARK SMILES IDX 69 86 72 87 70 88 49 89 50 90 58 91 51 92 52 93 56 94 59 95
REMARK SMILES IDX 53 96 54 97 57 98 55 99
REMARK H PARENT 79 52 47 63
REMARK Flexibility Score: inf
ROOT
ATOM      1  C   UNL A   1      35.329  22.921  24.232  1.00  0.00     0.274 C 
ENDROOT
BRANCH   1   2
ATOM      2  O   UNL A   1      33.898  22.766  24.369  1.00  0.00    -0.462 OA
BRANCH   2   3
ATOM      3  C   UNL A   1      33.255  23.764  25.026  1.00  0.00     0.311 C 
ATOM      4  O   UNL A   1      33.458  24.059  26.199  1.00  0.00    -0.252 OA
BRANCH   3   5
ATOM      5  C   UNL A   1      32.177  24.442  24.198  1.00  0.00     0.127 C 
ATOM      6  N   UNL A   1      33.359  26.573  23.802  1.00  0.00    -0.334 N 
ATOM      7  C   UNL A   1      33.449  26.398  22.421  1.00  0.00     0.223 C 
ATOM      8  C   UNL A   1      32.191  25.964  24.462  1.00  0.00     0.129 C 
ATOM      9  O   UNL A   1      33.856  27.276  21.663  1.00  0.00    -0.275 OA
ATOM     10  C   UNL A   1      33.087  25.028  21.869  1.00  0.00     0.101 C 
ATOM     11  C   UNL A   1      32.168  24.149  22.699  1.00  0.00     0.028 C 
BRANCH   6  12
ATOM     12  C   UNL A   1      34.024  27.735  24.448  1.00  0.00     0.125 C 
BRANCH  12  13
ATOM     13  C   UNL A   1      34.159  27.718  25.997  1.00  0.00     0.057 C 
BRANCH  13  14
ATOM     14  C   UNL A   1      34.109  29.044  26.734  1.00  0.00    -0.042 A 
ATOM     15  C   UNL A   1      34.085  31.591  28.035  1.00  0.00     0.160 A 
ATOM     16  C   UNL A   1      35.110  30.667  28.255  1.00  0.00     0.051 A 
ATOM     17  C   UNL A   1      33.008  31.197  27.229  1.00  0.00     0.160 A 
ATOM     18  C   UNL A   1      35.118  29.417  27.614  1.00  0.00     0.008 A 
ATOM     19  C   UNL A   1      33.026  29.923  26.610  1.00  0.00     0.054 A 
BRANCH  15  20
ATOM     20  O   UNL A   1      34.103  32.862  28.537  1.00  0.00    -0.493 OA
ATOM     21  C   UNL A   1      34.741  33.886  27.787  1.00  0.00     0.278 C 
ENDBRANCH  15  20
BRANCH  17  22
ATOM     22  O   UNL A   1      31.882  31.917  26.912  1.00  0.00    -0.493 OA
ATOM     23  C   UNL A   1      31.004  31.414  25.912  1.00  0.00     0.278 C 
ENDBRANCH  17  22
ENDBRANCH  13  14
ENDBRANCH  12  13
ENDBRANCH   6  12
BRANCH   8  24
ATOM     24  C   UNL A   1      30.851  26.621  24.042  1.00  0.00    -0.024 A 
ATOM     25  C   UNL A   1      29.603  25.968  24.127  1.00  0.00     0.007 A 
ATOM     26  C   UNL A   1      30.848  27.946  23.568  1.00  0.00     0.007 A 
ATOM     27  C   UNL A   1      28.406  26.629  23.829  1.00  0.00     0.021 A 
ATOM     28  C   UNL A   1      29.652  28.609  23.269  1.00  0.00     0.021 A 
ATOM     29  C   UNL A   1      28.435  27.952  23.412  1.00  0.00     0.041 A 
ATOM     30  Cl  UNL A   1      26.965  28.774  23.068  1.00  0.00    -0.084 Cl
ENDBRANCH   8  24
ENDBRANCH   3   5
ENDBRANCH   2   3
ENDBRANCH   1   2
BRANCH   1  31
ATOM     31  C   UNL A   1      36.025  21.685  24.802  1.00  0.00     0.275 C 
BRANCH  31  32
ATOM     32  O   UNL A   1      36.839  22.123  25.904  1.00  0.00    -0.458 OA
BRANCH  32  33
ATOM     33  C   UNL A   1      38.160  21.826  25.863  1.00  0.00     0.338 C 
ATOM     34  O   UNL A   1      38.678  20.859  25.338  1.00  0.00    -0.246 OA
BRANCH  33  35
ATOM     35  C   UNL A   1      38.908  22.927  26.519  1.00  0.00     0.060 A 
ATOM     36  C   UNL A   1      38.473  24.233  26.336  1.00  0.00     0.016 A 
ATOM     37  C   UNL A   1      40.087  22.698  27.227  1.00  0.00     0.016 A 
ATOM     38  C   UNL A   1      39.235  25.301  26.800  1.00  0.00     0.010 A 
ATOM     39  C   UNL A   1      40.823  23.786  27.741  1.00  0.00     0.010 A 
ATOM     40  C   UNL A   1      40.424  25.113  27.501  1.00  0.00    -0.014 A 
BRANCH  40  41
ATOM     41  C   UNL A   1      41.286  26.298  27.822  1.00  0.00     0.031 A 
ATOM     42  C   UNL A   1      40.767  27.348  28.758  1.00  0.00     0.074 A 
ATOM     43  C   UNL A   1      42.575  26.414  27.433  1.00  0.00     0.049 A 
ATOM     44  N   UNL A   1      41.218  28.555  28.982  1.00  0.00    -0.248 NA
ATOM     45  C   UNL A   1      39.592  26.981  29.560  1.00  0.00     0.031 C 
ATOM     46  C   UNL A   1      43.316  25.399  26.706  1.00  0.00     0.029 A 
ATOM     47  N   UNL A   1      43.504  27.415  27.612  1.00  0.00    -0.354 N 
ATOM     48  C   UNL A   1      40.342  29.116  29.896  1.00  0.00     0.074 A 
ATOM     49  C   UNL A   1      39.344  28.112  30.204  1.00  0.00     0.031 C 
ATOM     50  C   UNL A   1      44.583  25.793  26.521  1.00  0.00     0.029 A 
ATOM     51  C   UNL A   1      44.718  27.154  27.018  1.00  0.00     0.049 A 
ATOM     52  H   UNL A   1      43.317  28.239  28.117  1.00  0.00     0.167 HD
ATOM     53  C   UNL A   1      40.365  30.363  30.418  1.00  0.00     0.037 A 
ATOM     54  C   UNL A   1      45.799  27.936  26.826  1.00  0.00     0.037 A 
ATOM     55  C   UNL A   1      41.397  31.333  30.170  1.00  0.00     0.049 A 
ATOM     56  C   UNL A   1      45.753  29.361  27.298  1.00  0.00     0.074 A 
ATOM     57  C   UNL A   1      41.469  32.648  30.594  1.00  0.00     0.029 A 
ATOM     58  N   UNL A   1      42.560  31.078  29.458  1.00  0.00    -0.354 N 
ATOM     59  N   UNL A   1      44.825  29.967  27.996  1.00  0.00    -0.248 NA
ATOM     60  C   UNL A   1      46.882  30.224  26.922  1.00  0.00     0.031 C 
ATOM     61  C   UNL A   1      42.666  33.197  30.118  1.00  0.00     0.029 A 
ATOM     62  C   UNL A   1      43.353  32.215  29.425  1.00  0.00     0.049 A 
ATOM     63  H   UNL A   1      42.790  30.217  29.039  1.00  0.00     0.167 HD
ATOM     64  C   UNL A   1      45.258  31.275  28.151  1.00  0.00     0.074 A 
ATOM     65  C   UNL A   1      46.544  31.372  27.492  1.00  0.00     0.031 C 
ATOM     66  C   UNL A   1      44.635  32.301  28.775  1.00  0.00     0.037 A 
BRANCH  53  67
ATOM     67  C   UNL A   1      39.185  30.769  31.242  1.00  0.00     0.064 A 
ATOM     68  C   UNL A   1      39.092  30.483  32.609  1.00  0.00     0.173 A 
ATOM     69  C   UNL A   1      38.121  31.451  30.633  1.00  0.00     0.173 A 
ATOM     70  F   UNL A   1      40.073  29.807  33.226  1.00  0.00    -0.203 F 
ATOM     71  C   UNL A   1      37.962  30.846  33.336  1.00  0.00     0.198 A 
ATOM     72  C   UNL A   1      37.003  31.834  31.367  1.00  0.00     0.198 A 
ATOM     73  F   UNL A   1      38.163  31.741  29.324  1.00  0.00    -0.203 F 
ATOM     74  F   UNL A   1      37.868  30.522  34.633  1.00  0.00    -0.200 F 
ATOM     75  C   UNL A   1      36.922  31.525  32.716  1.00  0.00     0.200 A 
ATOM     76  F   UNL A   1      36.003  32.493  30.767  1.00  0.00    -0.200 F 
ATOM     77  F   UNL A   1      35.834  31.873  33.418  1.00  0.00    -0.200 F 
ENDBRANCH  53  67
BRANCH  54  78
ATOM     78  C   UNL A   1      46.977  27.428  26.071  1.00  0.00     0.064 A 
ATOM     79  C   UNL A   1      47.073  27.584  24.681  1.00  0.00     0.173 A 
ATOM     80  C   UNL A   1      48.017  26.741  26.720  1.00  0.00     0.173 A 
ATOM     81  F   UNL A   1      46.089  28.197  24.007  1.00  0.00    -0.203 F 
ATOM     82  C   UNL A   1      48.156  27.068  23.970  1.00  0.00     0.198 A 
ATOM     83  C   UNL A   1      49.114  26.255  26.012  1.00  0.00     0.198 A 
ATOM     84  F   UNL A   1      47.969  26.545  28.045  1.00  0.00    -0.203 F 
ATOM     85  F   UNL A   1      48.198  27.189  22.636  1.00  0.00    -0.200 F 
ATOM     86  C   UNL A   1      49.180  26.411  24.637  1.00  0.00     0.200 A 
ATOM     87  F   UNL A   1      50.104  25.627  26.662  1.00  0.00    -0.200 F 
ATOM     88  F   UNL A   1      50.221  25.918  23.953  1.00  0.00    -0.200 F 
ENDBRANCH  54  78
BRANCH  66  89
ATOM     89  C   UNL A   1      45.349  33.617  28.802  1.00  0.00     0.064 A 
ATOM     90  C   UNL A   1      45.123  34.591  27.818  1.00  0.00     0.173 A 
ATOM     91  C   UNL A   1      46.242  33.920  29.840  1.00  0.00     0.173 A 
ATOM     92  F   UNL A   1      44.293  34.337  26.796  1.00  0.00    -0.203 F 
ATOM     93  C   UNL A   1      45.778  35.817  27.865  1.00  0.00     0.198 A 
ATOM     94  C   UNL A   1      46.879  35.156  29.896  1.00  0.00     0.198 A 
ATOM     95  F   UNL A   1      46.491  33.020  30.803  1.00  0.00    -0.203 F 
ATOM     96  F   UNL A   1      45.576  36.721  26.896  1.00  0.00    -0.200 F 
ATOM     97  C   UNL A   1      46.650  36.102  28.907  1.00  0.00     0.200 A 
ATOM     98  F   UNL A   1      47.714  35.433  30.906  1.00  0.00    -0.200 F 
ATOM     99  F   UNL A   1      47.275  37.286  28.954  1.00  0.00    -0.200 F 
ENDBRANCH  66  89
ENDBRANCH  40  41
ENDBRANCH  33  35
ENDBRANCH  32  33
ENDBRANCH  31  32
ENDBRANCH   1  31
TORSDOF 17
ENDMDL
