MODEL 1
REMARK VINA RESULT:     -12.1      0.000      0.000
REMARK SMILES Cc1cc([C@H]([NH3+])C(=O)OCCOC(=O)c2ccc(-c3c4nc(c(-c5c(F)c(F)c(F)c(F)c5F)c5ccc([nH]5)c(-c5c(F)c(F)c(F)c(F)c5F)c5nc(c(-c6c(F)c(F)c(F)c(F)c6F)c6ccc3[nH]6)C=C5)C=C4)cc2)ccc1F
REMARK SMILES IDX 11 1 10 2 9 3 7 4 8 5 5 6 4 7 1 8 2 9 3 10 80 11 79 12 81 13
REMARK SMILES IDX 78 14 6 15 12 19 13 20 14 21 15 22 16 23 77 24 17 25 76 26
REMARK SMILES IDX 18 27 19 28 20 29 70 30 21 31 75 32 69 33 71 34 22 35 74 36
REMARK SMILES IDX 68 37 67 38 23 40 55 41 35 42 54 43 36 44 39 45 53 46 72 47
REMARK SMILES IDX 37 48 38 49 52 51 73 52 40 53 24 54 25 55 33 56 26 57 27 58
REMARK SMILES IDX 31 59 34 60 28 61 29 62 32 63 30 64 56 65 57 66 65 67 58 68
REMARK SMILES IDX 59 69 63 70 66 71 60 72 61 73 64 74 62 75 41 76 42 77 50 78
REMARK SMILES IDX 43 79 44 80 48 81 51 82 45 83 46 84 49 85 47 86
REMARK H PARENT 6 16 6 17 6 18 71 39 39 50
REMARK Flexibility Score: inf
ROOT
ATOM      1  C   UNL A   1      34.031  31.631  27.493  1.00  0.00     0.275 C 
ENDROOT
BRANCH   1   2
ATOM      2  C   UNL A   1      33.588  30.336  26.807  1.00  0.00     0.274 C 
BRANCH   2   3
ATOM      3  O   UNL A   1      32.703  29.568  27.642  1.00  0.00    -0.457 OA
BRANCH   3   4
ATOM      4  C   UNL A   1      32.036  28.538  27.042  1.00  0.00     0.369 C 
ATOM      5  O   UNL A   1      31.205  27.829  27.604  1.00  0.00    -0.245 OA
BRANCH   4   6
ATOM      6  C   UNL A   1      32.402  28.374  25.549  1.00  0.00     0.323 C 
BRANCH   6   7
ATOM      7  C   UNL A   1      31.173  28.548  24.692  1.00  0.00     0.021 A 
ATOM      8  C   UNL A   1      29.059  31.419  23.355  1.00  0.00     0.047 C 
ATOM      9  C   UNL A   1      29.573  30.038  23.614  1.00  0.00    -0.015 A 
ATOM     10  C   UNL A   1      30.665  29.837  24.458  1.00  0.00     0.017 A 
ATOM     11  C   UNL A   1      28.991  28.927  23.005  1.00  0.00     0.126 A 
ATOM     12  C   UNL A   1      29.475  27.640  23.227  1.00  0.00     0.040 A 
ATOM     13  F   UNL A   1      27.948  29.092  22.180  1.00  0.00    -0.207 F 
ATOM     14  C   UNL A   1      30.568  27.447  24.069  1.00  0.00     0.013 A 
ENDBRANCH   6   7
BRANCH   6  15
ATOM     15  N   UNL A   1      33.073  27.090  25.257  1.00  0.00    -0.342 N 
ATOM     16  H   UNL A   1      33.064  26.924  24.250  1.00  0.00     0.345 HD
ATOM     17  H   UNL A   1      32.581  26.332  25.731  1.00  0.00     0.345 HD
ATOM     18  H   UNL A   1      34.038  27.127  25.586  1.00  0.00     0.345 HD
ENDBRANCH   6  15
ENDBRANCH   4   6
ENDBRANCH   3   4
ENDBRANCH   2   3
ENDBRANCH   1   2
BRANCH   1  19
ATOM     19  O   UNL A   1      34.718  31.368  28.726  1.00  0.00    -0.458 OA
BRANCH  19  20
ATOM     20  C   UNL A   1      36.055  31.532  28.644  1.00  0.00     0.338 C 
ATOM     21  O   UNL A   1      36.683  32.578  28.592  1.00  0.00    -0.246 OA
BRANCH  20  22
ATOM     22  C   UNL A   1      36.752  30.254  28.551  1.00  0.00     0.060 A 
ATOM     23  C   UNL A   1      36.745  29.421  29.684  1.00  0.00     0.016 A 
ATOM     24  C   UNL A   1      37.695  30.123  27.538  1.00  0.00     0.016 A 
ATOM     25  C   UNL A   1      37.807  28.559  29.899  1.00  0.00     0.010 A 
ATOM     26  C   UNL A   1      38.756  29.278  27.762  1.00  0.00     0.010 A 
ATOM     27  C   UNL A   1      38.844  28.570  28.975  1.00  0.00    -0.014 A 
BRANCH  27  28
ATOM     28  C   UNL A   1      40.153  28.010  29.255  1.00  0.00     0.031 A 
ATOM     29  C   UNL A   1      40.535  26.685  28.744  1.00  0.00     0.074 A 
ATOM     30  C   UNL A   1      41.080  28.842  29.774  1.00  0.00     0.049 A 
ATOM     31  N   UNL A   1      41.570  26.028  29.150  1.00  0.00    -0.248 NA
ATOM     32  C   UNL A   1      39.749  25.977  27.739  1.00  0.00     0.031 C 
ATOM     33  C   UNL A   1      42.526  28.725  29.632  1.00  0.00     0.029 A 
ATOM     34  N   UNL A   1      40.893  29.929  30.646  1.00  0.00    -0.354 N 
ATOM     35  C   UNL A   1      41.759  24.991  28.271  1.00  0.00     0.074 A 
ATOM     36  C   UNL A   1      40.556  24.947  27.466  1.00  0.00     0.031 C 
ATOM     37  C   UNL A   1      43.118  29.519  30.537  1.00  0.00     0.029 A 
ATOM     38  C   UNL A   1      42.073  30.010  31.418  1.00  0.00     0.049 A 
ATOM     39  H   UNL A   1      40.103  30.513  30.705  1.00  0.00     0.167 HD
ATOM     40  C   UNL A   1      42.976  24.382  28.199  1.00  0.00     0.037 A 
ATOM     41  C   UNL A   1      42.067  29.811  32.769  1.00  0.00     0.037 A 
ATOM     42  C   UNL A   1      43.930  24.960  29.137  1.00  0.00     0.049 A 
ATOM     43  C   UNL A   1      42.957  28.688  33.239  1.00  0.00     0.074 A 
ATOM     44  C   UNL A   1      44.912  25.926  28.985  1.00  0.00     0.029 A 
ATOM     45  N   UNL A   1      43.747  24.799  30.506  1.00  0.00    -0.354 N 
ATOM     46  N   UNL A   1      43.347  27.708  32.475  1.00  0.00    -0.248 NA
ATOM     47  C   UNL A   1      43.441  28.556  34.610  1.00  0.00     0.031 C 
ATOM     48  C   UNL A   1      45.312  26.360  30.268  1.00  0.00     0.029 A 
ATOM     49  C   UNL A   1      44.577  25.655  31.204  1.00  0.00     0.049 A 
ATOM     50  H   UNL A   1      43.117  24.165  30.919  1.00  0.00     0.167 HD
ATOM     51  C   UNL A   1      44.090  26.824  33.210  1.00  0.00     0.074 A 
ATOM     52  C   UNL A   1      44.136  27.406  34.538  1.00  0.00     0.031 C 
ATOM     53  C   UNL A   1      44.588  25.680  32.657  1.00  0.00     0.037 A 
BRANCH  40  54
ATOM     54  C   UNL A   1      43.361  23.503  27.036  1.00  0.00     0.064 A 
ATOM     55  C   UNL A   1      43.017  22.136  27.003  1.00  0.00     0.173 A 
ATOM     56  C   UNL A   1      44.128  23.954  25.947  1.00  0.00     0.173 A 
ATOM     57  F   UNL A   1      42.205  21.591  27.917  1.00  0.00    -0.203 F 
ATOM     58  C   UNL A   1      43.510  21.265  26.030  1.00  0.00     0.198 A 
ATOM     59  C   UNL A   1      44.666  23.075  25.003  1.00  0.00     0.198 A 
ATOM     60  F   UNL A   1      44.360  25.263  25.765  1.00  0.00    -0.203 F 
ATOM     61  F   UNL A   1      43.164  19.970  26.059  1.00  0.00    -0.200 F 
ATOM     62  C   UNL A   1      44.368  21.727  25.052  1.00  0.00     0.200 A 
ATOM     63  F   UNL A   1      45.487  23.542  24.051  1.00  0.00    -0.200 F 
ATOM     64  F   UNL A   1      44.890  20.880  24.155  1.00  0.00    -0.200 F 
ENDBRANCH  40  54
BRANCH  41  65
ATOM     65  C   UNL A   1      40.793  30.185  33.426  1.00  0.00     0.064 A 
ATOM     66  C   UNL A   1      40.608  31.515  33.837  1.00  0.00     0.173 A 
ATOM     67  C   UNL A   1      39.659  29.368  33.321  1.00  0.00     0.173 A 
ATOM     68  F   UNL A   1      41.665  32.337  33.944  1.00  0.00    -0.203 F 
ATOM     69  C   UNL A   1      39.331  32.032  34.051  1.00  0.00     0.198 A 
ATOM     70  C   UNL A   1      38.382  29.893  33.523  1.00  0.00     0.198 A 
ATOM     71  F   UNL A   1      39.776  28.094  32.922  1.00  0.00    -0.203 F 
ATOM     72  F   UNL A   1      39.179  33.325  34.373  1.00  0.00    -0.200 F 
ATOM     73  C   UNL A   1      38.219  31.227  33.866  1.00  0.00     0.200 A 
ATOM     74  F   UNL A   1      37.304  29.124  33.318  1.00  0.00    -0.200 F 
ATOM     75  F   UNL A   1      36.985  31.740  33.985  1.00  0.00    -0.200 F 
ENDBRANCH  41  65
BRANCH  53  76
ATOM     76  C   UNL A   1      45.218  24.530  33.399  1.00  0.00     0.064 A 
ATOM     77  C   UNL A   1      44.563  23.316  33.660  1.00  0.00     0.173 A 
ATOM     78  C   UNL A   1      46.593  24.569  33.742  1.00  0.00     0.173 A 
ATOM     79  F   UNL A   1      43.295  23.113  33.278  1.00  0.00    -0.203 F 
ATOM     80  C   UNL A   1      45.216  22.243  34.272  1.00  0.00     0.198 A 
ATOM     81  C   UNL A   1      47.254  23.477  34.302  1.00  0.00     0.198 A 
ATOM     82  F   UNL A   1      47.341  25.660  33.519  1.00  0.00    -0.203 F 
ATOM     83  F   UNL A   1      44.536  21.118  34.534  1.00  0.00    -0.200 F 
ATOM     84  C   UNL A   1      46.561  22.319  34.581  1.00  0.00     0.200 A 
ATOM     85  F   UNL A   1      48.569  23.551  34.548  1.00  0.00    -0.200 F 
ATOM     86  F   UNL A   1      47.192  21.271  35.125  1.00  0.00    -0.200 F 
ENDBRANCH  53  76
ENDBRANCH  27  28
ENDBRANCH  20  22
ENDBRANCH  19  20
ENDBRANCH   1  19
TORSDOF 13
ENDMDL
MODEL 2
REMARK VINA RESULT:     -12.1      5.344     10.884
REMARK SMILES Cc1cc([C@H]([NH3+])C(=O)OCCOC(=O)c2ccc(-c3c4nc(c(-c5c(F)c(F)c(F)c(F)c5F)c5ccc([nH]5)c(-c5c(F)c(F)c(F)c(F)c5F)c5nc(c(-c6c(F)c(F)c(F)c(F)c6F)c6ccc3[nH]6)C=C5)C=C4)cc2)ccc1F
REMARK SMILES IDX 11 1 10 2 9 3 7 4 8 5 5 6 4 7 1 8 2 9 3 10 80 11 79 12 81 13
REMARK SMILES IDX 78 14 6 15 12 19 13 20 14 21 15 22 16 23 77 24 17 25 76 26
REMARK SMILES IDX 18 27 19 28 20 29 70 30 21 31 75 32 69 33 71 34 22 35 74 36
REMARK SMILES IDX 68 37 67 38 23 40 55 41 35 42 54 43 36 44 39 45 53 46 72 47
REMARK SMILES IDX 37 48 38 49 52 51 73 52 40 53 24 54 25 55 33 56 26 57 27 58
REMARK SMILES IDX 31 59 34 60 28 61 29 62 32 63 30 64 56 65 57 66 65 67 58 68
REMARK SMILES IDX 59 69 63 70 66 71 60 72 61 73 64 74 62 75 41 76 42 77 50 78
REMARK SMILES IDX 43 79 44 80 48 81 51 82 45 83 46 84 49 85 47 86
REMARK H PARENT 6 16 6 17 6 18 71 39 39 50
REMARK Flexibility Score: inf
ROOT
ATOM      1  C   UNL A   1      39.622  21.894  25.777  1.00  0.00     0.275 C 
ENDROOT
BRANCH   1   2
ATOM      2  C   UNL A   1      38.415  20.973  25.585  1.00  0.00     0.274 C 
BRANCH   2   3
ATOM      3  O   UNL A   1      37.538  21.452  24.551  1.00  0.00    -0.457 OA
BRANCH   3   4
ATOM      4  C   UNL A   1      36.393  22.075  24.960  1.00  0.00     0.369 C 
ATOM      5  O   UNL A   1      36.073  23.218  24.641  1.00  0.00    -0.245 OA
BRANCH   4   6
ATOM      6  C   UNL A   1      35.502  21.175  25.845  1.00  0.00     0.323 C 
BRANCH   6   7
ATOM      7  C   UNL A   1      34.537  20.397  24.986  1.00  0.00     0.021 A 
ATOM      8  C   UNL A   1      34.119  16.816  23.760  1.00  0.00     0.047 C 
ATOM      9  C   UNL A   1      33.865  18.270  24.002  1.00  0.00    -0.015 A 
ATOM     10  C   UNL A   1      34.774  19.035  24.732  1.00  0.00     0.017 A 
ATOM     11  C   UNL A   1      32.710  18.889  23.523  1.00  0.00     0.126 A 
ATOM     12  C   UNL A   1      32.458  20.238  23.759  1.00  0.00     0.040 A 
ATOM     13  F   UNL A   1      31.813  18.175  22.828  1.00  0.00    -0.207 F 
ATOM     14  C   UNL A   1      33.368  20.995  24.493  1.00  0.00     0.013 A 
ENDBRANCH   6   7
BRANCH   6  15
ATOM     15  N   UNL A   1      34.786  21.926  26.897  1.00  0.00    -0.342 N 
ATOM     16  H   UNL A   1      34.492  21.284  27.633  1.00  0.00     0.345 HD
ATOM     17  H   UNL A   1      33.966  22.381  26.495  1.00  0.00     0.345 HD
ATOM     18  H   UNL A   1      35.406  22.633  27.293  1.00  0.00     0.345 HD
ENDBRANCH   6  15
ENDBRANCH   4   6
ENDBRANCH   3   4
ENDBRANCH   2   3
ENDBRANCH   1   2
BRANCH   1  19
ATOM     19  O   UNL A   1      39.612  22.517  27.070  1.00  0.00    -0.458 OA
BRANCH  19  20
ATOM     20  C   UNL A   1      40.545  23.481  27.213  1.00  0.00     0.338 C 
ATOM     21  O   UNL A   1      41.755  23.349  27.304  1.00  0.00    -0.246 OA
BRANCH  20  22
ATOM     22  C   UNL A   1      39.943  24.805  27.320  1.00  0.00     0.060 A 
ATOM     23  C   UNL A   1      40.389  25.802  26.434  1.00  0.00     0.016 A 
ATOM     24  C   UNL A   1      39.294  25.107  28.512  1.00  0.00     0.016 A 
ATOM     25  C   UNL A   1      40.350  27.128  26.828  1.00  0.00     0.010 A 
ATOM     26  C   UNL A   1      39.272  26.424  28.908  1.00  0.00     0.010 A 
ATOM     27  C   UNL A   1      39.875  27.408  28.103  1.00  0.00    -0.014 A 
BRANCH  27  28
ATOM     28  C   UNL A   1      40.115  28.673  28.772  1.00  0.00     0.031 A 
ATOM     29  C   UNL A   1      39.053  29.683  28.886  1.00  0.00     0.074 A 
ATOM     30  C   UNL A   1      41.249  28.781  29.496  1.00  0.00     0.049 A 
ATOM     31  N   UNL A   1      39.258  30.907  29.242  1.00  0.00    -0.248 NA
ATOM     32  C   UNL A   1      37.658  29.391  28.574  1.00  0.00     0.031 C 
ATOM     33  C   UNL A   1      41.463  29.647  30.648  1.00  0.00     0.029 A 
ATOM     34  N   UNL A   1      42.501  28.187  29.257  1.00  0.00    -0.354 N 
ATOM     35  C   UNL A   1      38.031  31.463  29.503  1.00  0.00     0.074 A 
ATOM     36  C   UNL A   1      37.064  30.515  28.990  1.00  0.00     0.031 C 
ATOM     37  C   UNL A   1      42.779  29.729  30.892  1.00  0.00     0.029 A 
ATOM     38  C   UNL A   1      43.458  29.084  29.783  1.00  0.00     0.049 A 
ATOM     39  H   UNL A   1      42.674  27.325  28.816  1.00  0.00     0.167 HD
ATOM     40  C   UNL A   1      37.948  32.585  30.273  1.00  0.00     0.037 A 
ATOM     41  C   UNL A   1      44.373  29.711  28.988  1.00  0.00     0.037 A 
ATOM     42  C   UNL A   1      39.262  33.045  30.705  1.00  0.00     0.049 A 
ATOM     43  C   UNL A   1      44.316  31.217  29.038  1.00  0.00     0.074 A 
ATOM     44  C   UNL A   1      39.975  32.845  31.876  1.00  0.00     0.029 A 
ATOM     45  N   UNL A   1      40.165  33.550  29.777  1.00  0.00    -0.354 N 
ATOM     46  N   UNL A   1      43.264  31.888  29.412  1.00  0.00    -0.248 NA
ATOM     47  C   UNL A   1      45.419  32.085  28.633  1.00  0.00     0.031 C 
ATOM     48  C   UNL A   1      41.319  33.217  31.648  1.00  0.00     0.029 A 
ATOM     49  C   UNL A   1      41.424  33.648  30.337  1.00  0.00     0.049 A 
ATOM     50  H   UNL A   1      39.940  33.802  28.852  1.00  0.00     0.167 HD
ATOM     51  C   UNL A   1      43.510  33.229  29.289  1.00  0.00     0.074 A 
ATOM     52  C   UNL A   1      44.879  33.304  28.814  1.00  0.00     0.031 C 
ATOM     53  C   UNL A   1      42.552  34.157  29.578  1.00  0.00     0.037 A 
BRANCH  40  54
ATOM     54  C   UNL A   1      36.649  33.034  30.891  1.00  0.00     0.064 A 
ATOM     55  C   UNL A   1      35.744  33.854  30.184  1.00  0.00     0.173 A 
ATOM     56  C   UNL A   1      36.275  32.730  32.211  1.00  0.00     0.173 A 
ATOM     57  F   UNL A   1      35.917  34.140  28.889  1.00  0.00    -0.203 F 
ATOM     58  C   UNL A   1      34.625  34.426  30.791  1.00  0.00     0.198 A 
ATOM     59  C   UNL A   1      35.185  33.344  32.835  1.00  0.00     0.198 A 
ATOM     60  F   UNL A   1      36.949  31.814  32.922  1.00  0.00    -0.203 F 
ATOM     61  F   UNL A   1      33.809  35.213  30.074  1.00  0.00    -0.200 F 
ATOM     62  C   UNL A   1      34.368  34.204  32.129  1.00  0.00     0.200 A 
ATOM     63  F   UNL A   1      34.941  33.107  34.132  1.00  0.00    -0.200 F 
ATOM     64  F   UNL A   1      33.329  34.803  32.726  1.00  0.00    -0.200 F 
ENDBRANCH  40  54
BRANCH  41  65
ATOM     65  C   UNL A   1      44.751  28.940  27.780  1.00  0.00     0.064 A 
ATOM     66  C   UNL A   1      45.795  28.005  27.873  1.00  0.00     0.173 A 
ATOM     67  C   UNL A   1      43.884  28.847  26.682  1.00  0.00     0.173 A 
ATOM     68  F   UNL A   1      46.645  28.050  28.912  1.00  0.00    -0.203 F 
ATOM     69  C   UNL A   1      45.916  26.967  26.951  1.00  0.00     0.198 A 
ATOM     70  C   UNL A   1      44.002  27.800  25.769  1.00  0.00     0.198 A 
ATOM     71  F   UNL A   1      42.863  29.705  26.550  1.00  0.00    -0.203 F 
ATOM     72  F   UNL A   1      46.880  26.047  27.103  1.00  0.00    -0.200 F 
ATOM     73  C   UNL A   1      45.003  26.850  25.916  1.00  0.00     0.200 A 
ATOM     74  F   UNL A   1      43.102  27.668  24.784  1.00  0.00    -0.200 F 
ATOM     75  F   UNL A   1      45.062  25.806  25.076  1.00  0.00    -0.200 F 
ENDBRANCH  41  65
BRANCH  53  76
ATOM     76  C   UNL A   1      42.618  35.632  29.273  1.00  0.00     0.064 A 
ATOM     77  C   UNL A   1      43.386  36.548  30.009  1.00  0.00     0.173 A 
ATOM     78  C   UNL A   1      42.008  36.147  28.102  1.00  0.00     0.173 A 
ATOM     79  F   UNL A   1      44.104  36.160  31.071  1.00  0.00    -0.203 F 
ATOM     80  C   UNL A   1      43.488  37.891  29.636  1.00  0.00     0.198 A 
ATOM     81  C   UNL A   1      42.158  37.474  27.704  1.00  0.00     0.198 A 
ATOM     82  F   UNL A   1      41.269  35.370  27.295  1.00  0.00    -0.203 F 
ATOM     83  F   UNL A   1      44.204  38.734  30.393  1.00  0.00    -0.200 F 
ATOM     84  C   UNL A   1      42.886  38.350  28.480  1.00  0.00     0.200 A 
ATOM     85  F   UNL A   1      41.609  37.889  26.553  1.00  0.00    -0.200 F 
ATOM     86  F   UNL A   1      43.026  39.628  28.103  1.00  0.00    -0.200 F 
ENDBRANCH  53  76
ENDBRANCH  27  28
ENDBRANCH  20  22
ENDBRANCH  19  20
ENDBRANCH   1  19
TORSDOF 13
ENDMDL
MODEL 3
REMARK VINA RESULT:     -12.0      1.476      1.998
REMARK SMILES Cc1cc([C@H]([NH3+])C(=O)OCCOC(=O)c2ccc(-c3c4nc(c(-c5c(F)c(F)c(F)c(F)c5F)c5ccc([nH]5)c(-c5c(F)c(F)c(F)c(F)c5F)c5nc(c(-c6c(F)c(F)c(F)c(F)c6F)c6ccc3[nH]6)C=C5)C=C4)cc2)ccc1F
REMARK SMILES IDX 11 1 10 2 9 3 7 4 8 5 5 6 4 7 1 8 2 9 3 10 80 11 79 12 81 13
REMARK SMILES IDX 78 14 6 15 12 19 13 20 14 21 15 22 16 23 77 24 17 25 76 26
REMARK SMILES IDX 18 27 19 28 20 29 70 30 21 31 75 32 69 33 71 34 22 35 74 36
REMARK SMILES IDX 68 37 67 38 23 40 55 41 35 42 54 43 36 44 39 45 53 46 72 47
REMARK SMILES IDX 37 48 38 49 52 51 73 52 40 53 24 54 25 55 33 56 26 57 27 58
REMARK SMILES IDX 31 59 34 60 28 61 29 62 32 63 30 64 56 65 57 66 65 67 58 68
REMARK SMILES IDX 59 69 63 70 66 71 60 72 61 73 64 74 62 75 41 76 42 77 50 78
REMARK SMILES IDX 43 79 44 80 48 81 51 82 45 83 46 84 49 85 47 86
REMARK H PARENT 6 16 6 17 6 18 71 39 39 50
REMARK Flexibility Score: inf
ROOT
ATOM      1  C   UNL A   1      34.021  31.338  27.876  1.00  0.00     0.275 C 
ENDROOT
BRANCH   1   2
ATOM      2  C   UNL A   1      33.690  30.042  27.132  1.00  0.00     0.274 C 
BRANCH   2   3
ATOM      3  O   UNL A   1      32.504  30.177  26.330  1.00  0.00    -0.457 OA
BRANCH   3   4
ATOM      4  C   UNL A   1      31.886  29.019  25.951  1.00  0.00     0.369 C 
ATOM      5  O   UNL A   1      31.264  28.877  24.900  1.00  0.00    -0.245 OA
BRANCH   4   6
ATOM      6  C   UNL A   1      32.082  27.872  26.967  1.00  0.00     0.323 C 
BRANCH   6   7
ATOM      7  C   UNL A   1      32.184  26.552  26.246  1.00  0.00     0.021 A 
ATOM      8  C   UNL A   1      34.903  24.429  24.634  1.00  0.00     0.047 C 
ATOM      9  C   UNL A   1      33.569  24.879  25.138  1.00  0.00    -0.015 A 
ATOM     10  C   UNL A   1      33.427  26.125  25.747  1.00  0.00     0.017 A 
ATOM     11  C   UNL A   1      32.445  24.060  25.030  1.00  0.00     0.126 A 
ATOM     12  C   UNL A   1      31.203  24.465  25.512  1.00  0.00     0.040 A 
ATOM     13  F   UNL A   1      32.554  22.853  24.460  1.00  0.00    -0.207 F 
ATOM     14  C   UNL A   1      31.069  25.710  26.124  1.00  0.00     0.013 A 
ENDBRANCH   6   7
BRANCH   6  15
ATOM     15  N   UNL A   1      31.027  27.829  28.001  1.00  0.00    -0.342 N 
ATOM     16  H   UNL A   1      30.201  28.323  27.664  1.00  0.00     0.345 HD
ATOM     17  H   UNL A   1      31.367  28.276  28.853  1.00  0.00     0.345 HD
ATOM     18  H   UNL A   1      30.785  26.858  28.200  1.00  0.00     0.345 HD
ENDBRANCH   6  15
ENDBRANCH   4   6
ENDBRANCH   3   4
ENDBRANCH   2   3
ENDBRANCH   1   2
BRANCH   1  19
ATOM     19  O   UNL A   1      35.357  31.783  27.595  1.00  0.00    -0.458 OA
BRANCH  19  20
ATOM     20  C   UNL A   1      36.217  31.588  28.616  1.00  0.00     0.338 C 
ATOM     21  O   UNL A   1      36.505  32.364  29.514  1.00  0.00    -0.246 OA
BRANCH  20  22
ATOM     22  C   UNL A   1      36.880  30.293  28.526  1.00  0.00     0.060 A 
ATOM     23  C   UNL A   1      36.831  29.452  29.651  1.00  0.00     0.016 A 
ATOM     24  C   UNL A   1      37.837  30.144  27.527  1.00  0.00     0.016 A 
ATOM     25  C   UNL A   1      37.865  28.559  29.878  1.00  0.00     0.010 A 
ATOM     26  C   UNL A   1      38.870  29.268  27.763  1.00  0.00     0.010 A 
ATOM     27  C   UNL A   1      38.918  28.549  28.972  1.00  0.00    -0.014 A 
BRANCH  27  28
ATOM     28  C   UNL A   1      40.206  27.952  29.270  1.00  0.00     0.031 A 
ATOM     29  C   UNL A   1      40.558  26.618  28.763  1.00  0.00     0.074 A 
ATOM     30  C   UNL A   1      41.150  28.756  29.804  1.00  0.00     0.049 A 
ATOM     31  N   UNL A   1      41.568  25.930  29.182  1.00  0.00    -0.248 NA
ATOM     32  C   UNL A   1      39.767  25.933  27.745  1.00  0.00     0.031 C 
ATOM     33  C   UNL A   1      42.593  28.599  29.683  1.00  0.00     0.029 A 
ATOM     34  N   UNL A   1      40.980  29.847  30.675  1.00  0.00    -0.354 N 
ATOM     35  C   UNL A   1      41.740  24.890  28.304  1.00  0.00     0.074 A 
ATOM     36  C   UNL A   1      40.548  24.881  27.482  1.00  0.00     0.031 C 
ATOM     37  C   UNL A   1      43.194  29.373  30.598  1.00  0.00     0.029 A 
ATOM     38  C   UNL A   1      42.151  29.893  31.465  1.00  0.00     0.049 A 
ATOM     39  H   UNL A   1      40.206  30.453  30.724  1.00  0.00     0.167 HD
ATOM     40  C   UNL A   1      42.940  24.246  28.248  1.00  0.00     0.037 A 
ATOM     41  C   UNL A   1      42.119  29.693  32.815  1.00  0.00     0.037 A 
ATOM     42  C   UNL A   1      43.896  24.795  29.202  1.00  0.00     0.049 A 
ATOM     43  C   UNL A   1      42.970  28.544  33.296  1.00  0.00     0.074 A 
ATOM     44  C   UNL A   1      44.908  25.733  29.066  1.00  0.00     0.029 A 
ATOM     45  N   UNL A   1      43.689  24.638  30.568  1.00  0.00    -0.354 N 
ATOM     46  N   UNL A   1      43.343  27.554  32.536  1.00  0.00    -0.248 NA
ATOM     47  C   UNL A   1      43.430  28.396  34.674  1.00  0.00     0.031 C 
ATOM     48  C   UNL A   1      45.301  26.154  30.355  1.00  0.00     0.029 A 
ATOM     49  C   UNL A   1      44.533  25.469  31.280  1.00  0.00     0.049 A 
ATOM     50  H   UNL A   1      43.035  24.021  30.970  1.00  0.00     0.167 HD
ATOM     51  C   UNL A   1      44.049  26.648  33.281  1.00  0.00     0.074 A 
ATOM     52  C   UNL A   1      44.093  27.227  34.610  1.00  0.00     0.031 C 
ATOM     53  C   UNL A   1      44.523  25.492  32.732  1.00  0.00     0.037 A 
BRANCH  40  54
ATOM     54  C   UNL A   1      43.317  23.359  27.090  1.00  0.00     0.064 A 
ATOM     55  C   UNL A   1      42.906  22.010  27.033  1.00  0.00     0.173 A 
ATOM     56  C   UNL A   1      44.139  23.779  26.030  1.00  0.00     0.173 A 
ATOM     57  F   UNL A   1      42.040  21.500  27.917  1.00  0.00    -0.203 F 
ATOM     58  C   UNL A   1      43.386  21.124  26.067  1.00  0.00     0.198 A 
ATOM     59  C   UNL A   1      44.662  22.881  25.094  1.00  0.00     0.198 A 
ATOM     60  F   UNL A   1      44.441  25.076  25.867  1.00  0.00    -0.203 F 
ATOM     61  F   UNL A   1      42.975  19.847  26.074  1.00  0.00    -0.200 F 
ATOM     62  C   UNL A   1      44.296  21.550  25.121  1.00  0.00     0.200 A 
ATOM     63  F   UNL A   1      45.534  23.314  24.172  1.00  0.00    -0.200 F 
ATOM     64  F   UNL A   1      44.803  20.685  24.233  1.00  0.00    -0.200 F 
ENDBRANCH  40  54
BRANCH  41  65
ATOM     65  C   UNL A   1      40.847  30.102  33.455  1.00  0.00     0.064 A 
ATOM     66  C   UNL A   1      40.701  31.432  33.882  1.00  0.00     0.173 A 
ATOM     67  C   UNL A   1      39.687  29.327  33.315  1.00  0.00     0.173 A 
ATOM     68  F   UNL A   1      41.784  32.214  34.021  1.00  0.00    -0.203 F 
ATOM     69  C   UNL A   1      39.439  31.990  34.080  1.00  0.00     0.198 A 
ATOM     70  C   UNL A   1      38.426  29.894  33.503  1.00  0.00     0.198 A 
ATOM     71  F   UNL A   1      39.767  28.056  32.899  1.00  0.00    -0.203 F 
ATOM     72  F   UNL A   1      39.326  33.282  34.419  1.00  0.00    -0.200 F 
ATOM     73  C   UNL A   1      38.303  31.228  33.862  1.00  0.00     0.200 A 
ATOM     74  F   UNL A   1      37.325  29.166  33.265  1.00  0.00    -0.200 F 
ATOM     75  F   UNL A   1      37.086  31.783  33.967  1.00  0.00    -0.200 F 
ENDBRANCH  41  65
BRANCH  53  76
ATOM     76  C   UNL A   1      45.109  24.323  33.481  1.00  0.00     0.064 A 
ATOM     77  C   UNL A   1      44.391  23.160  33.800  1.00  0.00     0.173 A 
ATOM     78  C   UNL A   1      46.496  24.283  33.771  1.00  0.00     0.173 A 
ATOM     79  F   UNL A   1      43.098  23.028  33.473  1.00  0.00    -0.203 F 
ATOM     80  C   UNL A   1      44.999  22.063  34.417  1.00  0.00     0.198 A 
ATOM     81  C   UNL A   1      47.109  23.167  34.335  1.00  0.00     0.198 A 
ATOM     82  F   UNL A   1      47.301  25.319  33.490  1.00  0.00    -0.203 F 
ATOM     83  F   UNL A   1      44.261  20.990  34.735  1.00  0.00    -0.200 F 
ATOM     84  C   UNL A   1      46.358  22.062  34.673  1.00  0.00     0.200 A 
ATOM     85  F   UNL A   1      48.436  23.163  34.529  1.00  0.00    -0.200 F 
ATOM     86  F   UNL A   1      46.943  20.989  35.221  1.00  0.00    -0.200 F 
ENDBRANCH  53  76
ENDBRANCH  27  28
ENDBRANCH  20  22
ENDBRANCH  19  20
ENDBRANCH   1  19
TORSDOF 13
ENDMDL
