MODEL 1
REMARK VINA RESULT:     -12.7      0.000      0.000
REMARK SMILES O=C(OCCOC(=O)c1ccc2c(=O)[nH]c(N3CC[NH2+]CC3)nc2c1)c1ccc(-c2c3nc(c(-c4c(F)c(F)c(F)c(F)c4F)c4ccc([nH]4)c(-c4c(F)c(F)c(F)c(F)c4F)c4nc(c(-c5c(F)c(F)c(F)c(F)c5F)c5ccc2[nH]5)C=C4)C=C3)cc1
REMARK SMILES IDX 4 1 3 2 2 3 1 4 26 5 27 6 88 7 28 8 87 9 29 10 30 11 31 12
REMARK SMILES IDX 81 13 32 14 86 15 80 16 82 17 33 18 85 19 79 20 78 21 34 23
REMARK SMILES IDX 66 24 46 25 65 26 47 27 50 28 64 29 83 30 48 31 49 32 63 34
REMARK SMILES IDX 84 35 51 36 35 37 36 38 44 39 37 40 38 41 42 42 45 43 39 44
REMARK SMILES IDX 40 45 43 46 41 47 67 48 68 49 76 50 69 51 70 52 74 53 77 54
REMARK SMILES IDX 71 55 72 56 75 57 73 58 52 59 53 60 61 61 54 62 55 63 59 64
REMARK SMILES IDX 62 65 56 66 57 67 60 68 58 69 5 70 6 71 7 72 8 73 9 74 10 75
REMARK SMILES IDX 25 76 11 77 24 78 12 79 23 80 13 81 16 82 14 83 15 84 17 86
REMARK SMILES IDX 18 87 22 88 19 89 21 90 20 91
REMARK H PARENT 82 22 50 33 15 85 20 92 20 93
REMARK Flexibility Score: inf
ROOT
ATOM      1  C   UNL A   1      31.449  32.294  27.179  1.00  0.00     0.275 C 
ENDROOT
BRANCH   1   2
ATOM      2  O   UNL A   1      32.425  33.347  27.128  1.00  0.00    -0.458 OA
BRANCH   2   3
ATOM      3  C   UNL A   1      32.991  34.068  28.123  1.00  0.00     0.338 C 
ATOM      4  O   UNL A   1      32.486  35.151  28.422  1.00  0.00    -0.246 OA
BRANCH   3   5
ATOM      5  C   UNL A   1      34.264  33.690  28.819  1.00  0.00     0.060 A 
ATOM      6  C   UNL A   1      35.545  34.169  28.531  1.00  0.00     0.016 A 
ATOM      7  C   UNL A   1      34.137  32.768  29.875  1.00  0.00     0.016 A 
ATOM      8  C   UNL A   1      36.653  33.806  29.302  1.00  0.00     0.010 A 
ATOM      9  C   UNL A   1      35.237  32.398  30.652  1.00  0.00     0.010 A 
ATOM     10  C   UNL A   1      36.505  32.914  30.359  1.00  0.00    -0.014 A 
BRANCH  10  11
ATOM     11  C   UNL A   1      37.697  32.338  31.012  1.00  0.00     0.031 A 
ATOM     12  C   UNL A   1      38.353  31.178  30.336  1.00  0.00     0.074 A 
ATOM     13  C   UNL A   1      38.183  32.832  32.162  1.00  0.00     0.049 A 
ATOM     14  N   UNL A   1      39.344  30.433  30.743  1.00  0.00    -0.248 NA
ATOM     15  C   UNL A   1      37.835  30.827  29.002  1.00  0.00     0.031 C 
ATOM     16  C   UNL A   1      37.708  34.039  32.826  1.00  0.00     0.029 A 
ATOM     17  N   UNL A   1      39.153  32.351  33.001  1.00  0.00    -0.354 N 
ATOM     18  C   UNL A   1      39.583  29.544  29.707  1.00  0.00     0.074 A 
ATOM     19  C   UNL A   1      38.593  29.793  28.684  1.00  0.00     0.031 C 
ATOM     20  C   UNL A   1      38.290  34.138  34.033  1.00  0.00     0.029 A 
ATOM     21  C   UNL A   1      39.192  33.006  34.209  1.00  0.00     0.049 A 
ATOM     22  H   UNL A   1      39.761  31.614  32.764  1.00  0.00     0.167 HD
ATOM     23  C   UNL A   1      40.566  28.621  29.614  1.00  0.00     0.037 A 
ATOM     24  C   UNL A   1      39.860  32.698  35.336  1.00  0.00     0.037 A 
ATOM     25  C   UNL A   1      41.510  28.373  30.667  1.00  0.00     0.049 A 
ATOM     26  C   UNL A   1      40.827  31.551  35.295  1.00  0.00     0.074 A 
ATOM     27  C   UNL A   1      42.552  27.467  30.701  1.00  0.00     0.029 A 
ATOM     28  N   UNL A   1      41.501  29.026  31.895  1.00  0.00    -0.354 N 
ATOM     29  N   UNL A   1      41.083  30.731  34.304  1.00  0.00    -0.248 NA
ATOM     30  C   UNL A   1      41.632  31.315  36.498  1.00  0.00     0.031 C 
ATOM     31  C   UNL A   1      43.127  27.520  31.975  1.00  0.00     0.029 A 
ATOM     32  C   UNL A   1      42.493  28.513  32.711  1.00  0.00     0.049 A 
ATOM     33  H   UNL A   1      40.881  29.748  32.146  1.00  0.00     0.167 HD
ATOM     34  C   UNL A   1      42.120  29.920  34.737  1.00  0.00     0.074 A 
ATOM     35  C   UNL A   1      42.426  30.330  36.094  1.00  0.00     0.031 C 
ATOM     36  C   UNL A   1      42.779  28.950  34.057  1.00  0.00     0.037 A 
BRANCH  23  37
ATOM     37  C   UNL A   1      40.602  27.804  28.358  1.00  0.00     0.064 A 
ATOM     38  C   UNL A   1      39.960  26.558  28.265  1.00  0.00     0.173 A 
ATOM     39  C   UNL A   1      41.357  28.235  27.258  1.00  0.00     0.173 A 
ATOM     40  F   UNL A   1      39.245  26.087  29.300  1.00  0.00    -0.203 F 
ATOM     41  C   UNL A   1      40.121  25.751  27.142  1.00  0.00     0.198 A 
ATOM     42  C   UNL A   1      41.486  27.441  26.122  1.00  0.00     0.198 A 
ATOM     43  F   UNL A   1      41.994  29.415  27.295  1.00  0.00    -0.203 F 
ATOM     44  F   UNL A   1      39.574  24.527  27.115  1.00  0.00    -0.200 F 
ATOM     45  C   UNL A   1      40.883  26.193  26.072  1.00  0.00     0.200 A 
ATOM     46  F   UNL A   1      42.218  27.871  25.086  1.00  0.00    -0.200 F 
ATOM     47  F   UNL A   1      41.055  25.406  25.001  1.00  0.00    -0.200 F 
ENDBRANCH  23  37
BRANCH  24  48
ATOM     48  C   UNL A   1      39.635  33.492  36.570  1.00  0.00     0.064 A 
ATOM     49  C   UNL A   1      40.320  34.690  36.807  1.00  0.00     0.173 A 
ATOM     50  C   UNL A   1      38.697  33.077  37.526  1.00  0.00     0.173 A 
ATOM     51  F   UNL A   1      41.257  35.107  35.943  1.00  0.00    -0.203 F 
ATOM     52  C   UNL A   1      40.064  35.450  37.947  1.00  0.00     0.198 A 
ATOM     53  C   UNL A   1      38.418  33.853  38.650  1.00  0.00     0.198 A 
ATOM     54  F   UNL A   1      38.066  31.906  37.376  1.00  0.00    -0.203 F 
ATOM     55  F   UNL A   1      40.753  36.579  38.166  1.00  0.00    -0.200 F 
ATOM     56  C   UNL A   1      39.103  35.040  38.859  1.00  0.00     0.200 A 
ATOM     57  F   UNL A   1      37.494  33.450  39.535  1.00  0.00    -0.200 F 
ATOM     58  F   UNL A   1      38.846  35.782  39.946  1.00  0.00    -0.200 F 
ENDBRANCH  24  48
BRANCH  36  59
ATOM     59  C   UNL A   1      43.942  28.299  34.741  1.00  0.00     0.064 A 
ATOM     60  C   UNL A   1      43.802  27.113  35.473  1.00  0.00     0.173 A 
ATOM     61  C   UNL A   1      45.233  28.823  34.566  1.00  0.00     0.173 A 
ATOM     62  F   UNL A   1      42.586  26.585  35.680  1.00  0.00    -0.203 F 
ATOM     63  C   UNL A   1      44.916  26.472  36.007  1.00  0.00     0.198 A 
ATOM     64  C   UNL A   1      46.346  28.162  35.073  1.00  0.00     0.198 A 
ATOM     65  F   UNL A   1      45.415  29.955  33.870  1.00  0.00    -0.203 F 
ATOM     66  F   UNL A   1      44.761  25.352  36.724  1.00  0.00    -0.200 F 
ATOM     67  C   UNL A   1      46.187  26.989  35.794  1.00  0.00     0.200 A 
ATOM     68  F   UNL A   1      47.573  28.652  34.850  1.00  0.00    -0.200 F 
ATOM     69  F   UNL A   1      47.260  26.353  36.283  1.00  0.00    -0.200 F 
ENDBRANCH  36  59
ENDBRANCH  10  11
ENDBRANCH   3   5
ENDBRANCH   2   3
ENDBRANCH   1   2
BRANCH   1  70
ATOM     70  C   UNL A   1      31.743  31.100  26.265  1.00  0.00     0.275 C 
BRANCH  70  71
ATOM     71  O   UNL A   1      32.162  29.913  26.959  1.00  0.00    -0.458 OA
BRANCH  71  72
ATOM     72  C   UNL A   1      33.473  29.572  26.800  1.00  0.00     0.338 C 
ATOM     73  O   UNL A   1      34.414  29.980  27.446  1.00  0.00    -0.246 OA
BRANCH  72  74
ATOM     74  C   UNL A   1      33.579  28.528  25.755  1.00  0.00     0.062 A 
ATOM     75  C   UNL A   1      33.575  28.887  24.405  1.00  0.00     0.016 A 
ATOM     76  C   UNL A   1      33.673  27.177  26.136  1.00  0.00     0.045 A 
ATOM     77  C   UNL A   1      33.655  27.891  23.436  1.00  0.00     0.017 A 
ATOM     78  C   UNL A   1      33.682  26.165  25.168  1.00  0.00     0.081 A 
ATOM     79  C   UNL A   1      33.675  26.549  23.826  1.00  0.00     0.066 A 
ATOM     80  N   UNL A   1      33.693  24.808  25.562  1.00  0.00    -0.214 NA
ATOM     81  C   UNL A   1      33.683  25.488  22.815  1.00  0.00     0.260 A 
ATOM     82  C   UNL A   1      33.758  23.898  24.638  1.00  0.00     0.206 A 
ATOM     83  O   UNL A   1      33.653  25.737  21.617  1.00  0.00    -0.269 OA
ATOM     84  N   UNL A   1      33.739  24.217  23.309  1.00  0.00    -0.292 N 
ATOM     85  H   UNL A   1      33.768  23.476  22.660  1.00  0.00     0.173 HD
BRANCH  82  86
ATOM     86  N   UNL A   1      33.849  22.553  24.874  1.00  0.00    -0.331 N 
ATOM     87  C   UNL A   1      32.679  21.672  24.885  1.00  0.00     0.181 C 
ATOM     88  C   UNL A   1      35.021  21.999  25.566  1.00  0.00     0.181 C 
ATOM     89  C   UNL A   1      33.080  20.283  24.324  1.00  0.00     0.282 C 
ATOM     90  C   UNL A   1      35.372  20.609  24.999  1.00  0.00     0.282 C 
ATOM     91  N   UNL A   1      34.236  19.666  25.013  1.00  0.00    -0.343 N 
ATOM     92  H   UNL A   1      34.501  18.807  24.531  1.00  0.00     0.346 HD
ATOM     93  H   UNL A   1      33.984  19.447  25.976  1.00  0.00     0.346 HD
ENDBRANCH  82  86
ENDBRANCH  72  74
ENDBRANCH  71  72
ENDBRANCH  70  71
ENDBRANCH   1  70
TORSDOF 12
ENDMDL
MODEL 2
REMARK VINA RESULT:     -12.7      3.373      8.819
REMARK SMILES O=C(OCCOC(=O)c1ccc2c(=O)[nH]c(N3CC[NH2+]CC3)nc2c1)c1ccc(-c2c3nc(c(-c4c(F)c(F)c(F)c(F)c4F)c4ccc([nH]4)c(-c4c(F)c(F)c(F)c(F)c4F)c4nc(c(-c5c(F)c(F)c(F)c(F)c5F)c5ccc2[nH]5)C=C4)C=C3)cc1
REMARK SMILES IDX 4 1 3 2 2 3 1 4 26 5 27 6 88 7 28 8 87 9 29 10 30 11 31 12
REMARK SMILES IDX 81 13 32 14 86 15 80 16 82 17 33 18 85 19 79 20 78 21 34 23
REMARK SMILES IDX 66 24 46 25 65 26 47 27 50 28 64 29 83 30 48 31 49 32 63 34
REMARK SMILES IDX 84 35 51 36 35 37 36 38 44 39 37 40 38 41 42 42 45 43 39 44
REMARK SMILES IDX 40 45 43 46 41 47 67 48 68 49 76 50 69 51 70 52 74 53 77 54
REMARK SMILES IDX 71 55 72 56 75 57 73 58 52 59 53 60 61 61 54 62 55 63 59 64
REMARK SMILES IDX 62 65 56 66 57 67 60 68 58 69 5 70 6 71 7 72 8 73 9 74 10 75
REMARK SMILES IDX 25 76 11 77 24 78 12 79 23 80 13 81 16 82 14 83 15 84 17 86
REMARK SMILES IDX 18 87 22 88 19 89 21 90 20 91
REMARK H PARENT 82 22 50 33 15 85 20 92 20 93
REMARK Flexibility Score: inf
ROOT
ATOM      1  C   UNL A   1      43.634  21.708  25.332  1.00  0.00     0.275 C 
ENDROOT
BRANCH   1   2
ATOM      2  O   UNL A   1      43.378  23.003  24.764  1.00  0.00    -0.458 OA
BRANCH   2   3
ATOM      3  C   UNL A   1      43.977  24.194  24.990  1.00  0.00     0.338 C 
ATOM      4  O   UNL A   1      45.059  24.419  24.446  1.00  0.00    -0.246 OA
BRANCH   3   5
ATOM      5  C   UNL A   1      43.465  25.226  25.951  1.00  0.00     0.060 A 
ATOM      6  C   UNL A   1      43.830  26.575  25.997  1.00  0.00     0.016 A 
ATOM      7  C   UNL A   1      42.512  24.777  26.885  1.00  0.00     0.016 A 
ATOM      8  C   UNL A   1      43.225  27.466  26.888  1.00  0.00     0.010 A 
ATOM      9  C   UNL A   1      41.901  25.659  27.779  1.00  0.00     0.010 A 
ATOM     10  C   UNL A   1      42.265  27.010  27.786  1.00  0.00    -0.014 A 
BRANCH  10  11
ATOM     11  C   UNL A   1      41.809  27.884  28.886  1.00  0.00     0.031 A 
ATOM     12  C   UNL A   1      42.531  27.774  30.190  1.00  0.00     0.074 A 
ATOM     13  C   UNL A   1      40.794  28.748  28.730  1.00  0.00     0.049 A 
ATOM     14  N   UNL A   1      42.272  28.349  31.333  1.00  0.00    -0.248 NA
ATOM     15  C   UNL A   1      43.729  26.917  30.197  1.00  0.00     0.031 C 
ATOM     16  C   UNL A   1      40.119  29.034  27.470  1.00  0.00     0.029 A 
ATOM     17  N   UNL A   1      40.120  29.510  29.648  1.00  0.00    -0.354 N 
ATOM     18  C   UNL A   1      43.286  27.942  32.185  1.00  0.00     0.074 A 
ATOM     19  C   UNL A   1      44.124  27.020  31.454  1.00  0.00     0.031 C 
ATOM     20  C   UNL A   1      39.044  29.804  27.709  1.00  0.00     0.029 A 
ATOM     21  C   UNL A   1      38.975  30.077  29.140  1.00  0.00     0.049 A 
ATOM     22  H   UNL A   1      40.425  29.639  30.575  1.00  0.00     0.167 HD
ATOM     23  C   UNL A   1      43.507  28.334  33.459  1.00  0.00     0.037 A 
ATOM     24  C   UNL A   1      37.973  30.713  29.775  1.00  0.00     0.037 A 
ATOM     25  C   UNL A   1      42.631  29.223  34.169  1.00  0.00     0.049 A 
ATOM     26  C   UNL A   1      38.128  30.993  31.240  1.00  0.00     0.074 A 
ATOM     27  C   UNL A   1      42.739  29.696  35.462  1.00  0.00     0.029 A 
ATOM     28  N   UNL A   1      41.458  29.751  33.641  1.00  0.00    -0.354 N 
ATOM     29  N   UNL A   1      39.106  30.643  32.043  1.00  0.00    -0.248 NA
ATOM     30  C   UNL A   1      37.080  31.796  31.880  1.00  0.00     0.031 C 
ATOM     31  C   UNL A   1      41.595  30.451  35.741  1.00  0.00     0.029 A 
ATOM     32  C   UNL A   1      40.809  30.512  34.597  1.00  0.00     0.049 A 
ATOM     33  H   UNL A   1      41.136  29.606  32.722  1.00  0.00     0.167 HD
ATOM     34  C   UNL A   1      38.825  31.231  33.266  1.00  0.00     0.074 A 
ATOM     35  C   UNL A   1      37.569  31.938  33.106  1.00  0.00     0.031 C 
ATOM     36  C   UNL A   1      39.562  31.212  34.404  1.00  0.00     0.037 A 
BRANCH  23  37
ATOM     37  C   UNL A   1      44.705  27.747  34.144  1.00  0.00     0.064 A 
ATOM     38  C   UNL A   1      45.970  28.354  34.074  1.00  0.00     0.173 A 
ATOM     39  C   UNL A   1      44.604  26.519  34.812  1.00  0.00     0.173 A 
ATOM     40  F   UNL A   1      46.127  29.519  33.424  1.00  0.00    -0.203 F 
ATOM     41  C   UNL A   1      47.097  27.724  34.596  1.00  0.00     0.198 A 
ATOM     42  C   UNL A   1      45.727  25.909  35.364  1.00  0.00     0.198 A 
ATOM     43  F   UNL A   1      43.420  25.894  34.904  1.00  0.00    -0.203 F 
ATOM     44  F   UNL A   1      48.307  28.279  34.436  1.00  0.00    -0.200 F 
ATOM     45  C   UNL A   1      46.974  26.502  35.240  1.00  0.00     0.200 A 
ATOM     46  F   UNL A   1      45.607  24.732  35.992  1.00  0.00    -0.200 F 
ATOM     47  F   UNL A   1      48.062  25.887  35.723  1.00  0.00    -0.200 F 
ENDBRANCH  23  37
BRANCH  24  48
ATOM     48  C   UNL A   1      36.762  31.123  29.020  1.00  0.00     0.064 A 
ATOM     49  C   UNL A   1      35.749  30.210  28.708  1.00  0.00     0.173 A 
ATOM     50  C   UNL A   1      36.584  32.457  28.624  1.00  0.00     0.173 A 
ATOM     51  F   UNL A   1      35.892  28.916  29.028  1.00  0.00    -0.203 F 
ATOM     52  C   UNL A   1      34.594  30.618  28.041  1.00  0.00     0.198 A 
ATOM     53  C   UNL A   1      35.416  32.872  27.986  1.00  0.00     0.198 A 
ATOM     54  F   UNL A   1      37.555  33.352  28.841  1.00  0.00    -0.203 F 
ATOM     55  F   UNL A   1      33.651  29.721  27.728  1.00  0.00    -0.200 F 
ATOM     56  C   UNL A   1      34.423  31.951  27.694  1.00  0.00     0.200 A 
ATOM     57  F   UNL A   1      35.256  34.159  27.644  1.00  0.00    -0.200 F 
ATOM     58  F   UNL A   1      33.304  32.344  27.068  1.00  0.00    -0.200 F 
ENDBRANCH  24  48
BRANCH  36  59
ATOM     59  C   UNL A   1      39.066  32.031  35.557  1.00  0.00     0.064 A 
ATOM     60  C   UNL A   1      38.290  31.475  36.581  1.00  0.00     0.173 A 
ATOM     61  C   UNL A   1      39.471  33.370  35.683  1.00  0.00     0.173 A 
ATOM     62  F   UNL A   1      37.867  30.205  36.495  1.00  0.00    -0.203 F 
ATOM     63  C   UNL A   1      37.934  32.231  37.694  1.00  0.00     0.198 A 
ATOM     64  C   UNL A   1      39.141  34.112  36.811  1.00  0.00     0.198 A 
ATOM     65  F   UNL A   1      40.218  33.943  34.728  1.00  0.00    -0.203 F 
ATOM     66  F   UNL A   1      37.171  31.689  38.652  1.00  0.00    -0.200 F 
ATOM     67  C   UNL A   1      38.373  33.542  37.815  1.00  0.00     0.200 A 
ATOM     68  F   UNL A   1      39.582  35.371  36.935  1.00  0.00    -0.200 F 
ATOM     69  F   UNL A   1      38.055  34.258  38.902  1.00  0.00    -0.200 F 
ENDBRANCH  36  59
ENDBRANCH  10  11
ENDBRANCH   3   5
ENDBRANCH   2   3
ENDBRANCH   1   2
BRANCH   1  70
ATOM     70  C   UNL A   1      42.441  21.077  26.058  1.00  0.00     0.275 C 
BRANCH  70  71
ATOM     71  O   UNL A   1      41.173  21.675  25.742  1.00  0.00    -0.458 OA
BRANCH  71  72
ATOM     72  C   UNL A   1      40.369  21.945  26.809  1.00  0.00     0.338 C 
ATOM     73  O   UNL A   1      40.703  22.020  27.972  1.00  0.00    -0.246 OA
BRANCH  72  74
ATOM     74  C   UNL A   1      39.000  22.235  26.324  1.00  0.00     0.062 A 
ATOM     75  C   UNL A   1      38.521  23.547  26.323  1.00  0.00     0.016 A 
ATOM     76  C   UNL A   1      38.188  21.176  25.875  1.00  0.00     0.045 A 
ATOM     77  C   UNL A   1      37.225  23.798  25.882  1.00  0.00     0.017 A 
ATOM     78  C   UNL A   1      36.860  21.411  25.498  1.00  0.00     0.081 A 
ATOM     79  C   UNL A   1      36.405  22.730  25.507  1.00  0.00     0.066 A 
ATOM     80  N   UNL A   1      36.028  20.330  25.128  1.00  0.00    -0.214 NA
ATOM     81  C   UNL A   1      35.014  22.972  25.113  1.00  0.00     0.260 A 
ATOM     82  C   UNL A   1      34.819  20.590  24.730  1.00  0.00     0.206 A 
ATOM     83  O   UNL A   1      34.528  24.096  25.116  1.00  0.00    -0.269 OA
ATOM     84  N   UNL A   1      34.317  21.862  24.733  1.00  0.00    -0.292 N 
ATOM     85  H   UNL A   1      33.385  21.986  24.440  1.00  0.00     0.173 HD
BRANCH  82  86
ATOM     86  N   UNL A   1      33.930  19.656  24.274  1.00  0.00    -0.331 N 
ATOM     87  C   UNL A   1      32.563  19.996  23.875  1.00  0.00     0.181 C 
ATOM     88  C   UNL A   1      34.126  18.233  24.584  1.00  0.00     0.181 C 
ATOM     89  C   UNL A   1      32.132  19.082  22.699  1.00  0.00     0.282 C 
ATOM     90  C   UNL A   1      33.663  17.358  23.403  1.00  0.00     0.282 C 
ATOM     91  N   UNL A   1      32.278  17.634  22.975  1.00  0.00    -0.343 N 
ATOM     92  H   UNL A   1      32.070  17.103  22.129  1.00  0.00     0.346 HD
ATOM     93  H   UNL A   1      31.629  17.359  23.712  1.00  0.00     0.346 HD
ENDBRANCH  82  86
ENDBRANCH  72  74
ENDBRANCH  71  72
ENDBRANCH  70  71
ENDBRANCH   1  70
TORSDOF 12
ENDMDL
MODEL 3
REMARK VINA RESULT:     -12.6      0.402      1.730
REMARK SMILES O=C(OCCOC(=O)c1ccc2c(=O)[nH]c(N3CC[NH2+]CC3)nc2c1)c1ccc(-c2c3nc(c(-c4c(F)c(F)c(F)c(F)c4F)c4ccc([nH]4)c(-c4c(F)c(F)c(F)c(F)c4F)c4nc(c(-c5c(F)c(F)c(F)c(F)c5F)c5ccc2[nH]5)C=C4)C=C3)cc1
REMARK SMILES IDX 4 1 3 2 2 3 1 4 26 5 27 6 88 7 28 8 87 9 29 10 30 11 31 12
REMARK SMILES IDX 81 13 32 14 86 15 80 16 82 17 33 18 85 19 79 20 78 21 34 23
REMARK SMILES IDX 66 24 46 25 65 26 47 27 50 28 64 29 83 30 48 31 49 32 63 34
REMARK SMILES IDX 84 35 51 36 35 37 36 38 44 39 37 40 38 41 42 42 45 43 39 44
REMARK SMILES IDX 40 45 43 46 41 47 67 48 68 49 76 50 69 51 70 52 74 53 77 54
REMARK SMILES IDX 71 55 72 56 75 57 73 58 52 59 53 60 61 61 54 62 55 63 59 64
REMARK SMILES IDX 62 65 56 66 57 67 60 68 58 69 5 70 6 71 7 72 8 73 9 74 10 75
REMARK SMILES IDX 25 76 11 77 24 78 12 79 23 80 13 81 16 82 14 83 15 84 17 86
REMARK SMILES IDX 18 87 22 88 19 89 21 90 20 91
REMARK H PARENT 82 22 50 33 15 85 20 92 20 93
REMARK Flexibility Score: inf
ROOT
ATOM      1  C   UNL A   1      31.405  32.112  26.870  1.00  0.00     0.275 C 
ENDROOT
BRANCH   1   2
ATOM      2  O   UNL A   1      32.415  33.134  26.890  1.00  0.00    -0.458 OA
BRANCH   2   3
ATOM      3  C   UNL A   1      32.928  33.840  27.923  1.00  0.00     0.338 C 
ATOM      4  O   UNL A   1      32.369  34.886  28.253  1.00  0.00    -0.246 OA
BRANCH   3   5
ATOM      5  C   UNL A   1      34.204  33.492  28.630  1.00  0.00     0.060 A 
ATOM      6  C   UNL A   1      35.489  33.930  28.293  1.00  0.00     0.016 A 
ATOM      7  C   UNL A   1      34.077  32.651  29.751  1.00  0.00     0.016 A 
ATOM      8  C   UNL A   1      36.601  33.605  29.075  1.00  0.00     0.010 A 
ATOM      9  C   UNL A   1      35.181  32.320  30.539  1.00  0.00     0.010 A 
ATOM     10  C   UNL A   1      36.453  32.794  30.195  1.00  0.00    -0.014 A 
BRANCH  10  11
ATOM     11  C   UNL A   1      37.644  32.247  30.874  1.00  0.00     0.031 A 
ATOM     12  C   UNL A   1      38.332  31.091  30.223  1.00  0.00     0.074 A 
ATOM     13  C   UNL A   1      38.103  32.764  32.025  1.00  0.00     0.049 A 
ATOM     14  N   UNL A   1      39.330  30.369  30.654  1.00  0.00    -0.248 NA
ATOM     15  C   UNL A   1      37.842  30.716  28.886  1.00  0.00     0.031 C 
ATOM     16  C   UNL A   1      37.596  33.970  32.667  1.00  0.00     0.029 A 
ATOM     17  N   UNL A   1      39.068  32.311  32.886  1.00  0.00    -0.354 N 
ATOM     18  C   UNL A   1      39.601  29.472  29.633  1.00  0.00     0.074 A 
ATOM     19  C   UNL A   1      38.623  29.691  28.592  1.00  0.00     0.031 C 
ATOM     20  C   UNL A   1      38.157  34.094  33.882  1.00  0.00     0.029 A 
ATOM     21  C   UNL A   1      39.076  32.981  34.086  1.00  0.00     0.049 A 
ATOM     22  H   UNL A   1      39.692  31.581  32.667  1.00  0.00     0.167 HD
ATOM     23  C   UNL A   1      40.602  28.567  29.567  1.00  0.00     0.037 A 
ATOM     24  C   UNL A   1      39.731  32.698  35.227  1.00  0.00     0.037 A 
ATOM     25  C   UNL A   1      41.534  28.349  30.638  1.00  0.00     0.049 A 
ATOM     26  C   UNL A   1      40.719  31.568  35.216  1.00  0.00     0.074 A 
ATOM     27  C   UNL A   1      42.590  27.462  30.699  1.00  0.00     0.029 A 
ATOM     28  N   UNL A   1      41.493  29.016  31.857  1.00  0.00    -0.354 N 
ATOM     29  N   UNL A   1      41.006  30.741  34.238  1.00  0.00    -0.248 NA
ATOM     30  C   UNL A   1      41.509  31.361  36.434  1.00  0.00     0.031 C 
ATOM     31  C   UNL A   1      43.144  27.541  31.981  1.00  0.00     0.029 A 
ATOM     32  C   UNL A   1      42.481  28.530  32.695  1.00  0.00     0.049 A 
ATOM     33  H   UNL A   1      40.856  29.730  32.090  1.00  0.00     0.167 HD
ATOM     34  C   UNL A   1      42.050  29.955  34.698  1.00  0.00     0.074 A 
ATOM     35  C   UNL A   1      42.326  30.386  36.055  1.00  0.00     0.031 C 
ATOM     36  C   UNL A   1      42.737  28.988  34.041  1.00  0.00     0.037 A 
BRANCH  23  37
ATOM     37  C   UNL A   1      40.673  27.736  28.322  1.00  0.00     0.064 A 
ATOM     38  C   UNL A   1      40.054  26.478  28.233  1.00  0.00     0.173 A 
ATOM     39  C   UNL A   1      41.438  28.167  27.229  1.00  0.00     0.173 A 
ATOM     40  F   UNL A   1      39.330  26.007  29.262  1.00  0.00    -0.203 F 
ATOM     41  C   UNL A   1      40.247  25.660  27.123  1.00  0.00     0.198 A 
ATOM     42  C   UNL A   1      41.600  27.362  26.105  1.00  0.00     0.198 A 
ATOM     43  F   UNL A   1      42.055  29.358  27.262  1.00  0.00    -0.203 F 
ATOM     44  F   UNL A   1      39.722  24.427  27.102  1.00  0.00    -0.200 F 
ATOM     45  C   UNL A   1      41.020  26.103  26.061  1.00  0.00     0.200 A 
ATOM     46  F   UNL A   1      42.341  27.792  25.076  1.00  0.00    -0.200 F 
ATOM     47  F   UNL A   1      41.223  25.306  25.002  1.00  0.00    -0.200 F 
ENDBRANCH  23  37
BRANCH  24  48
ATOM     48  C   UNL A   1      39.472  33.503  36.448  1.00  0.00     0.064 A 
ATOM     49  C   UNL A   1      38.555  33.087  37.419  1.00  0.00     0.173 A 
ATOM     50  C   UNL A   1      40.171  34.698  36.678  1.00  0.00     0.173 A 
ATOM     51  F   UNL A   1      37.834  31.974  37.225  1.00  0.00    -0.203 F 
ATOM     52  C   UNL A   1      38.357  33.828  38.584  1.00  0.00     0.198 A 
ATOM     53  C   UNL A   1      39.996  35.422  37.856  1.00  0.00     0.198 A 
ATOM     54  F   UNL A   1      41.008  35.170  35.747  1.00  0.00    -0.203 F 
ATOM     55  F   UNL A   1      37.454  33.424  39.487  1.00  0.00    -0.200 F 
ATOM     56  C   UNL A   1      39.088  34.985  38.808  1.00  0.00     0.200 A 
ATOM     57  F   UNL A   1      40.698  36.545  38.067  1.00  0.00    -0.200 F 
ATOM     58  F   UNL A   1      38.908  35.687  39.937  1.00  0.00    -0.200 F 
ENDBRANCH  24  48
BRANCH  36  59
ATOM     59  C   UNL A   1      43.901  28.367  34.751  1.00  0.00     0.064 A 
ATOM     60  C   UNL A   1      45.171  28.956  34.747  1.00  0.00     0.173 A 
ATOM     61  C   UNL A   1      43.704  27.219  35.535  1.00  0.00     0.173 A 
ATOM     62  F   UNL A   1      45.410  30.044  33.999  1.00  0.00    -0.203 F 
ATOM     63  C   UNL A   1      46.207  28.417  35.503  1.00  0.00     0.198 A 
ATOM     64  C   UNL A   1      44.732  26.703  36.315  1.00  0.00     0.198 A 
ATOM     65  F   UNL A   1      42.503  26.623  35.572  1.00  0.00    -0.203 F 
ATOM     66  F   UNL A   1      47.422  28.980  35.468  1.00  0.00    -0.200 F 
ATOM     67  C   UNL A   1      45.982  27.301  36.297  1.00  0.00     0.200 A 
ATOM     68  F   UNL A   1      44.508  25.637  37.095  1.00  0.00    -0.200 F 
ATOM     69  F   UNL A   1      46.973  26.802  37.048  1.00  0.00    -0.200 F 
ENDBRANCH  36  59
ENDBRANCH  10  11
ENDBRANCH   3   5
ENDBRANCH   2   3
ENDBRANCH   1   2
BRANCH   1  70
ATOM     70  C   UNL A   1      31.941  30.677  26.917  1.00  0.00     0.275 C 
BRANCH  70  71
ATOM     71  O   UNL A   1      33.123  30.461  26.128  1.00  0.00    -0.458 OA
BRANCH  71  72
ATOM     72  C   UNL A   1      33.879  29.384  26.487  1.00  0.00     0.338 C 
ATOM     73  O   UNL A   1      34.446  29.212  27.544  1.00  0.00    -0.246 OA
BRANCH  72  74
ATOM     74  C   UNL A   1      33.833  28.377  25.401  1.00  0.00     0.062 A 
ATOM     75  C   UNL A   1      33.592  28.778  24.085  1.00  0.00     0.016 A 
ATOM     76  C   UNL A   1      34.024  27.018  25.712  1.00  0.00     0.045 A 
ATOM     77  C   UNL A   1      33.532  27.815  23.082  1.00  0.00     0.017 A 
ATOM     78  C   UNL A   1      33.895  26.037  24.721  1.00  0.00     0.081 A 
ATOM     79  C   UNL A   1      33.652  26.463  23.414  1.00  0.00     0.066 A 
ATOM     80  N   UNL A   1      34.007  24.670  25.059  1.00  0.00    -0.214 NA
ATOM     81  C   UNL A   1      33.516  25.434  22.379  1.00  0.00     0.260 A 
ATOM     82  C   UNL A   1      33.938  23.791  24.105  1.00  0.00     0.206 A 
ATOM     83  O   UNL A   1      33.278  25.719  21.212  1.00  0.00    -0.269 OA
ATOM     84  N   UNL A   1      33.687  24.151  22.810  1.00  0.00    -0.292 N 
ATOM     85  H   UNL A   1      33.624  23.432  22.140  1.00  0.00     0.173 HD
BRANCH  82  86
ATOM     86  N   UNL A   1      34.101  22.443  24.273  1.00  0.00    -0.331 N 
ATOM     87  C   UNL A   1      35.420  21.818  24.399  1.00  0.00     0.181 C 
ATOM     88  C   UNL A   1      33.032  21.513  23.887  1.00  0.00     0.181 C 
ATOM     89  C   UNL A   1      35.321  20.612  25.368  1.00  0.00     0.282 C 
ATOM     90  C   UNL A   1      32.984  20.317  24.858  1.00  0.00     0.282 C 
ATOM     91  N   UNL A   1      34.280  19.625  25.002  1.00  0.00    -0.343 N 
ATOM     92  H   UNL A   1      34.209  18.917  25.732  1.00  0.00     0.346 HD
ATOM     93  H   UNL A   1      34.529  19.176  24.121  1.00  0.00     0.346 HD
ENDBRANCH  82  86
ENDBRANCH  72  74
ENDBRANCH  71  72
ENDBRANCH  70  71
ENDBRANCH   1  70
TORSDOF 12
ENDMDL
