MODEL 1
REMARK VINA RESULT:     -12.4      0.000      0.000
REMARK SMILES COc1ccc2[nH]c(C(=O)c3cc(C)ccn3)c(CC(=O)OCCOC(=O)c3ccc(-c4c5nc(c(-c6c(F)c(F)c(F)c(F)c6F)c6ccc([nH]6)c(-c6c(F)c(F)c(F)c(F)c6F)c6nc(c(-c7c(F)c(F)c(F)c(F)c7F)c7ccc4[nH]7)C=C6)C=C5)cc3)c2c1
REMARK SMILES IDX 23 1 22 2 20 3 21 4 19 5 18 6 3 7 4 8 92 9 5 10 91 11 6 12
REMARK SMILES IDX 7 13 8 14 2 16 1 17 9 18 10 19 11 20 12 21 17 22 13 23 16 24
REMARK SMILES IDX 14 25 15 26 24 27 25 28 26 29 27 30 28 31 29 32 90 33 30 34
REMARK SMILES IDX 89 35 31 36 32 37 33 38 83 39 34 40 88 41 82 42 84 43 35 44
REMARK SMILES IDX 87 45 81 46 80 47 36 49 68 50 48 51 67 52 49 53 52 54 66 55
REMARK SMILES IDX 85 56 50 57 51 58 65 60 86 61 53 62 37 63 38 64 46 65 39 66
REMARK SMILES IDX 40 67 44 68 47 69 41 70 42 71 45 72 43 73 69 74 70 75 78 76
REMARK SMILES IDX 71 77 72 78 76 79 79 80 73 81 74 82 77 83 75 84 54 85 55 86
REMARK SMILES IDX 63 87 56 88 57 89 61 90 64 91 58 92 59 93 62 94 60 95
REMARK H PARENT 7 15 84 48 52 59
REMARK Flexibility Score: inf
ROOT
ATOM      1  C   UNL A   1      31.789  28.291  26.569  1.00  0.00     0.274 C 
ENDROOT
BRANCH   1   2
ATOM      2  O   UNL A   1      32.841  27.655  25.814  1.00  0.00    -0.462 OA
BRANCH   2   3
ATOM      3  C   UNL A   1      32.868  26.296  25.875  1.00  0.00     0.310 C 
ATOM      4  O   UNL A   1      32.066  25.620  26.518  1.00  0.00    -0.252 OA
BRANCH   3   5
ATOM      5  C   UNL A   1      33.949  25.639  25.043  1.00  0.00     0.161 C 
BRANCH   5   6
ATOM      6  C   UNL A   1      33.500  24.877  23.832  1.00  0.00     0.000 A 
ATOM      7  C   UNL A   1      32.596  21.236  24.539  1.00  0.00     0.119 A 
ATOM      8  C   UNL A   1      32.170  20.936  23.247  1.00  0.00     0.048 A 
ATOM      9  C   UNL A   1      33.102  22.503  24.838  1.00  0.00     0.057 A 
ATOM     10  C   UNL A   1      32.262  21.884  22.218  1.00  0.00     0.030 A 
ATOM     11  C   UNL A   1      33.163  23.487  23.832  1.00  0.00     0.008 A 
ATOM     12  C   UNL A   1      32.751  23.153  22.547  1.00  0.00     0.046 A 
ATOM     13  N   UNL A   1      32.903  24.281  21.776  1.00  0.00    -0.352 N 
ATOM     14  C   UNL A   1      33.154  25.377  22.575  1.00  0.00     0.093 A 
ATOM     15  H   UNL A   1      32.841  24.304  20.794  1.00  0.00     0.167 HD
BRANCH   7  16
ATOM     16  O   UNL A   1      32.489  20.396  25.615  1.00  0.00    -0.497 OA
ATOM     17  C   UNL A   1      32.903  19.057  25.377  1.00  0.00     0.278 C 
ENDBRANCH   7  16
BRANCH  14  18
ATOM     18  C   UNL A   1      32.973  26.759  22.160  1.00  0.00     0.227 C 
ATOM     19  O   UNL A   1      33.857  27.424  21.627  1.00  0.00    -0.285 OA
BRANCH  18  20
ATOM     20  C   UNL A   1      31.720  27.465  22.516  1.00  0.00     0.113 A 
ATOM     21  C   UNL A   1      30.644  26.732  23.003  1.00  0.00     0.036 A 
ATOM     22  N   UNL A   1      31.726  28.810  22.376  1.00  0.00    -0.253 NA
ATOM     23  C   UNL A   1      29.491  27.425  23.377  1.00  0.00    -0.047 A 
ATOM     24  C   UNL A   1      30.626  29.460  22.805  1.00  0.00     0.112 A 
ATOM     25  C   UNL A   1      28.276  26.702  23.876  1.00  0.00     0.044 C 
ATOM     26  C   UNL A   1      29.498  28.821  23.300  1.00  0.00     0.023 A 
ENDBRANCH  18  20
ENDBRANCH  14  18
ENDBRANCH   5   6
ENDBRANCH   3   5
ENDBRANCH   2   3
ENDBRANCH   1   2
BRANCH   1  27
ATOM     27  C   UNL A   1      31.700  29.775  26.225  1.00  0.00     0.275 C 
BRANCH  27  28
ATOM     28  O   UNL A   1      33.024  30.318  26.085  1.00  0.00    -0.458 OA
BRANCH  28  29
ATOM     29  C   UNL A   1      33.367  31.254  26.995  1.00  0.00     0.338 C 
ATOM     30  O   UNL A   1      32.755  32.287  27.252  1.00  0.00    -0.246 OA
BRANCH  29  31
ATOM     31  C   UNL A   1      34.651  30.906  27.635  1.00  0.00     0.060 A 
ATOM     32  C   UNL A   1      34.972  29.588  27.963  1.00  0.00     0.016 A 
ATOM     33  C   UNL A   1      35.514  31.941  27.998  1.00  0.00     0.016 A 
ATOM     34  C   UNL A   1      36.103  29.317  28.734  1.00  0.00     0.010 A 
ATOM     35  C   UNL A   1      36.697  31.655  28.683  1.00  0.00     0.010 A 
ATOM     36  C   UNL A   1      36.989  30.344  29.089  1.00  0.00    -0.014 A 
BRANCH  36  37
ATOM     37  C   UNL A   1      38.216  30.058  29.883  1.00  0.00     0.031 A 
ATOM     38  C   UNL A   1      39.303  29.179  29.325  1.00  0.00     0.074 A 
ATOM     39  C   UNL A   1      38.347  30.568  31.123  1.00  0.00     0.049 A 
ATOM     40  N   UNL A   1      40.346  28.667  29.930  1.00  0.00    -0.248 NA
ATOM     41  C   UNL A   1      39.197  28.815  27.904  1.00  0.00     0.031 C 
ATOM     42  C   UNL A   1      37.385  31.453  31.781  1.00  0.00     0.029 A 
ATOM     43  N   UNL A   1      39.345  30.413  32.054  1.00  0.00    -0.354 N 
ATOM     44  C   UNL A   1      40.987  27.879  28.984  1.00  0.00     0.074 A 
ATOM     45  C   UNL A   1      40.217  27.980  27.761  1.00  0.00     0.031 C 
ATOM     46  C   UNL A   1      37.854  31.790  32.992  1.00  0.00     0.029 A 
ATOM     47  C   UNL A   1      39.109  31.085  33.227  1.00  0.00     0.049 A 
ATOM     48  H   UNL A   1      40.152  29.872  31.895  1.00  0.00     0.167 HD
ATOM     49  C   UNL A   1      42.115  27.140  29.124  1.00  0.00     0.037 A 
ATOM     50  C   UNL A   1      39.802  31.106  34.380  1.00  0.00     0.037 A 
ATOM     51  C   UNL A   1      42.916  27.089  30.321  1.00  0.00     0.049 A 
ATOM     52  C   UNL A   1      41.046  30.278  34.511  1.00  0.00     0.074 A 
ATOM     53  C   UNL A   1      44.092  26.393  30.545  1.00  0.00     0.029 A 
ATOM     54  N   UNL A   1      42.632  27.776  31.492  1.00  0.00    -0.354 N 
ATOM     55  N   UNL A   1      41.615  29.498  33.626  1.00  0.00    -0.248 NA
ATOM     56  C   UNL A   1      41.733  30.318  35.809  1.00  0.00     0.031 C 
ATOM     57  C   UNL A   1      44.506  26.638  31.859  1.00  0.00     0.029 A 
ATOM     58  C   UNL A   1      43.606  27.513  32.443  1.00  0.00     0.049 A 
ATOM     59  H   UNL A   1      41.854  28.363  31.627  1.00  0.00     0.167 HD
ATOM     60  C   UNL A   1      42.725  28.956  34.255  1.00  0.00     0.074 A 
ATOM     61  C   UNL A   1      42.765  29.514  35.591  1.00  0.00     0.031 C 
ATOM     62  C   UNL A   1      43.627  28.068  33.770  1.00  0.00     0.037 A 
BRANCH  49  63
ATOM     63  C   UNL A   1      42.548  26.300  27.960  1.00  0.00     0.064 A 
ATOM     64  C   UNL A   1      42.025  25.018  27.738  1.00  0.00     0.173 A 
ATOM     65  C   UNL A   1      43.455  26.813  27.020  1.00  0.00     0.173 A 
ATOM     66  F   UNL A   1      41.165  24.478  28.614  1.00  0.00    -0.203 F 
ATOM     67  C   UNL A   1      42.409  24.273  26.625  1.00  0.00     0.198 A 
ATOM     68  C   UNL A   1      43.817  26.075  25.896  1.00  0.00     0.198 A 
ATOM     69  F   UNL A   1      43.977  28.038  27.183  1.00  0.00    -0.203 F 
ATOM     70  F   UNL A   1      41.925  23.036  26.450  1.00  0.00    -0.200 F 
ATOM     71  C   UNL A   1      43.298  24.805  25.702  1.00  0.00     0.200 A 
ATOM     72  F   UNL A   1      44.669  26.594  25.001  1.00  0.00    -0.200 F 
ATOM     73  F   UNL A   1      43.656  24.089  24.627  1.00  0.00    -0.200 F 
ENDBRANCH  49  63
BRANCH  50  74
ATOM     74  C   UNL A   1      39.307  31.925  35.514  1.00  0.00     0.064 A 
ATOM     75  C   UNL A   1      38.446  31.376  36.473  1.00  0.00     0.173 A 
ATOM     76  C   UNL A   1      39.705  33.260  35.675  1.00  0.00     0.173 A 
ATOM     77  F   UNL A   1      38.019  30.111  36.344  1.00  0.00    -0.203 F 
ATOM     78  C   UNL A   1      37.998  32.134  37.552  1.00  0.00     0.198 A 
ATOM     79  C   UNL A   1      39.276  34.009  36.768  1.00  0.00     0.198 A 
ATOM     80  F   UNL A   1      40.527  33.829  34.782  1.00  0.00    -0.203 F 
ATOM     81  F   UNL A   1      37.150  31.597  38.439  1.00  0.00    -0.200 F 
ATOM     82  C   UNL A   1      38.421  33.447  37.703  1.00  0.00     0.200 A 
ATOM     83  F   UNL A   1      39.695  35.273  36.917  1.00  0.00    -0.200 F 
ATOM     84  F   UNL A   1      37.998  34.173  38.747  1.00  0.00    -0.200 F 
ENDBRANCH  50  74
BRANCH  62  85
ATOM     85  C   UNL A   1      44.735  27.657  34.691  1.00  0.00     0.064 A 
ATOM     86  C   UNL A   1      45.933  28.381  34.758  1.00  0.00     0.173 A 
ATOM     87  C   UNL A   1      44.591  26.538  35.524  1.00  0.00     0.173 A 
ATOM     88  F   UNL A   1      46.121  29.448  33.966  1.00  0.00    -0.203 F 
ATOM     89  C   UNL A   1      46.959  27.987  35.612  1.00  0.00     0.198 A 
ATOM     90  C   UNL A   1      45.612  26.157  36.392  1.00  0.00     0.198 A 
ATOM     91  F   UNL A   1      43.462  25.814  35.497  1.00  0.00    -0.203 F 
ATOM     92  F   UNL A   1      48.113  28.669  35.631  1.00  0.00    -0.200 F 
ATOM     93  C   UNL A   1      46.796  26.879  36.430  1.00  0.00     0.200 A 
ATOM     94  F   UNL A   1      45.451  25.091  37.186  1.00  0.00    -0.200 F 
ATOM     95  F   UNL A   1      47.785  26.499  37.250  1.00  0.00    -0.200 F 
ENDBRANCH  62  85
ENDBRANCH  36  37
ENDBRANCH  29  31
ENDBRANCH  28  29
ENDBRANCH  27  28
ENDBRANCH   1  27
TORSDOF 15
ENDMDL
MODEL 2
REMARK VINA RESULT:     -12.4      1.313      2.200
REMARK SMILES COc1ccc2[nH]c(C(=O)c3cc(C)ccn3)c(CC(=O)OCCOC(=O)c3ccc(-c4c5nc(c(-c6c(F)c(F)c(F)c(F)c6F)c6ccc([nH]6)c(-c6c(F)c(F)c(F)c(F)c6F)c6nc(c(-c7c(F)c(F)c(F)c(F)c7F)c7ccc4[nH]7)C=C6)C=C5)cc3)c2c1
REMARK SMILES IDX 23 1 22 2 20 3 21 4 19 5 18 6 3 7 4 8 92 9 5 10 91 11 6 12
REMARK SMILES IDX 7 13 8 14 2 16 1 17 9 18 10 19 11 20 12 21 17 22 13 23 16 24
REMARK SMILES IDX 14 25 15 26 24 27 25 28 26 29 27 30 28 31 29 32 90 33 30 34
REMARK SMILES IDX 89 35 31 36 32 37 33 38 83 39 34 40 88 41 82 42 84 43 35 44
REMARK SMILES IDX 87 45 81 46 80 47 36 49 68 50 48 51 67 52 49 53 52 54 66 55
REMARK SMILES IDX 85 56 50 57 51 58 65 60 86 61 53 62 37 63 38 64 46 65 39 66
REMARK SMILES IDX 40 67 44 68 47 69 41 70 42 71 45 72 43 73 69 74 70 75 78 76
REMARK SMILES IDX 71 77 72 78 76 79 79 80 73 81 74 82 77 83 75 84 54 85 55 86
REMARK SMILES IDX 63 87 56 88 57 89 61 90 64 91 58 92 59 93 62 94 60 95
REMARK H PARENT 7 15 84 48 52 59
REMARK Flexibility Score: inf
ROOT
ATOM      1  C   UNL A   1      31.666  28.045  27.247  1.00  0.00     0.274 C 
ENDROOT
BRANCH   1   2
ATOM      2  O   UNL A   1      31.013  26.882  26.695  1.00  0.00    -0.462 OA
BRANCH   2   3
ATOM      3  C   UNL A   1      31.788  25.768  26.592  1.00  0.00     0.310 C 
ATOM      4  O   UNL A   1      31.400  24.633  26.864  1.00  0.00    -0.252 OA
BRANCH   3   5
ATOM      5  C   UNL A   1      33.185  26.007  26.061  1.00  0.00     0.161 C 
BRANCH   5   6
ATOM      6  C   UNL A   1      33.573  25.263  24.819  1.00  0.00     0.000 A 
ATOM      7  C   UNL A   1      36.709  23.121  25.210  1.00  0.00     0.119 A 
ATOM      8  C   UNL A   1      36.667  22.563  23.934  1.00  0.00     0.048 A 
ATOM      9  C   UNL A   1      35.756  24.066  25.598  1.00  0.00     0.057 A 
ATOM     10  C   UNL A   1      35.690  22.954  23.007  1.00  0.00     0.030 A 
ATOM     11  C   UNL A   1      34.738  24.441  24.700  1.00  0.00     0.008 A 
ATOM     12  C   UNL A   1      34.734  23.885  23.427  1.00  0.00     0.046 A 
ATOM     13  N   UNL A   1      33.645  24.407  22.769  1.00  0.00    -0.352 N 
ATOM     14  C   UNL A   1      32.825  25.073  23.655  1.00  0.00     0.093 A 
ATOM     15  H   UNL A   1      33.476  24.319  21.803  1.00  0.00     0.167 HD
BRANCH   7  16
ATOM     16  O   UNL A   1      37.586  22.757  26.197  1.00  0.00    -0.497 OA
ATOM     17  C   UNL A   1      38.701  21.993  25.758  1.00  0.00     0.278 C 
ENDBRANCH   7  16
BRANCH  14  18
ATOM     18  C   UNL A   1      31.428  25.393  23.405  1.00  0.00     0.227 C 
ATOM     19  O   UNL A   1      30.545  24.544  23.331  1.00  0.00    -0.285 OA
BRANCH  18  20
ATOM     20  C   UNL A   1      31.051  26.788  23.077  1.00  0.00     0.113 A 
ATOM     21  C   UNL A   1      29.717  27.170  23.167  1.00  0.00     0.036 A 
ATOM     22  N   UNL A   1      32.061  27.622  22.743  1.00  0.00    -0.253 NA
ATOM     23  C   UNL A   1      29.393  28.501  22.900  1.00  0.00    -0.047 A 
ATOM     24  C   UNL A   1      31.731  28.915  22.554  1.00  0.00     0.112 A 
ATOM     25  C   UNL A   1      27.973  28.980  22.941  1.00  0.00     0.044 C 
ATOM     26  C   UNL A   1      30.430  29.394  22.615  1.00  0.00     0.023 A 
ENDBRANCH  18  20
ENDBRANCH  14  18
ENDBRANCH   5   6
ENDBRANCH   3   5
ENDBRANCH   2   3
ENDBRANCH   1   2
BRANCH   1  27
ATOM     27  C   UNL A   1      31.458  29.259  26.346  1.00  0.00     0.275 C 
BRANCH  27  28
ATOM     28  O   UNL A   1      32.730  29.845  26.026  1.00  0.00    -0.458 OA
BRANCH  28  29
ATOM     29  C   UNL A   1      33.108  30.878  26.809  1.00  0.00     0.338 C 
ATOM     30  O   UNL A   1      32.499  31.929  26.981  1.00  0.00    -0.246 OA
BRANCH  29  31
ATOM     31  C   UNL A   1      34.425  30.609  27.419  1.00  0.00     0.060 A 
ATOM     32  C   UNL A   1      34.889  29.307  27.617  1.00  0.00     0.016 A 
ATOM     33  C   UNL A   1      35.173  31.691  27.887  1.00  0.00     0.016 A 
ATOM     34  C   UNL A   1      36.046  29.085  28.364  1.00  0.00     0.010 A 
ATOM     35  C   UNL A   1      36.384  31.468  28.547  1.00  0.00     0.010 A 
ATOM     36  C   UNL A   1      36.818  30.162  28.824  1.00  0.00    -0.014 A 
BRANCH  36  37
ATOM     37  C   UNL A   1      38.072  29.934  29.593  1.00  0.00     0.031 A 
ATOM     38  C   UNL A   1      39.175  29.081  29.025  1.00  0.00     0.074 A 
ATOM     39  C   UNL A   1      38.216  30.473  30.819  1.00  0.00     0.049 A 
ATOM     40  N   UNL A   1      40.249  28.616  29.614  1.00  0.00    -0.248 NA
ATOM     41  C   UNL A   1      39.047  28.685  27.614  1.00  0.00     0.031 C 
ATOM     42  C   UNL A   1      37.240  31.338  31.483  1.00  0.00     0.029 A 
ATOM     43  N   UNL A   1      39.240  30.370  31.728  1.00  0.00    -0.354 N 
ATOM     44  C   UNL A   1      40.894  27.831  28.667  1.00  0.00     0.074 A 
ATOM     45  C   UNL A   1      40.092  27.882  27.462  1.00  0.00     0.031 C 
ATOM     46  C   UNL A   1      37.726  31.715  32.676  1.00  0.00     0.029 A 
ATOM     47  C   UNL A   1      39.009  31.057  32.894  1.00  0.00     0.049 A 
ATOM     48  H   UNL A   1      40.061  29.853  31.559  1.00  0.00     0.167 HD
ATOM     49  C   UNL A   1      42.049  27.134  28.794  1.00  0.00     0.037 A 
ATOM     50  C   UNL A   1      39.729  31.124  34.028  1.00  0.00     0.037 A 
ATOM     51  C   UNL A   1      42.880  27.134  29.972  1.00  0.00     0.049 A 
ATOM     52  C   UNL A   1      41.003  30.341  34.144  1.00  0.00     0.074 A 
ATOM     53  C   UNL A   1      44.084  26.482  30.180  1.00  0.00     0.029 A 
ATOM     54  N   UNL A   1      42.600  27.834  31.135  1.00  0.00    -0.354 N 
ATOM     55  N   UNL A   1      41.577  29.564  33.261  1.00  0.00    -0.248 NA
ATOM     56  C   UNL A   1      41.719  30.430  35.424  1.00  0.00     0.031 C 
ATOM     57  C   UNL A   1      44.521  26.767  31.478  1.00  0.00     0.029 A 
ATOM     58  C   UNL A   1      43.605  27.623  32.068  1.00  0.00     0.049 A 
ATOM     59  H   UNL A   1      41.807  28.398  31.279  1.00  0.00     0.167 HD
ATOM     60  C   UNL A   1      42.720  29.072  33.873  1.00  0.00     0.074 A 
ATOM     61  C   UNL A   1      42.772  29.657  35.197  1.00  0.00     0.031 C 
ATOM     62  C   UNL A   1      43.639  28.205  33.383  1.00  0.00     0.037 A 
BRANCH  49  63
ATOM     63  C   UNL A   1      42.482  26.286  27.636  1.00  0.00     0.064 A 
ATOM     64  C   UNL A   1      43.423  26.737  26.700  1.00  0.00     0.173 A 
ATOM     65  C   UNL A   1      41.992  24.977  27.499  1.00  0.00     0.173 A 
ATOM     66  F   UNL A   1      43.913  27.983  26.781  1.00  0.00    -0.203 F 
ATOM     67  C   UNL A   1      43.845  25.915  25.658  1.00  0.00     0.198 A 
ATOM     68  C   UNL A   1      42.434  24.151  26.470  1.00  0.00     0.198 A 
ATOM     69  F   UNL A   1      41.096  24.496  28.373  1.00  0.00    -0.203 F 
ATOM     70  F   UNL A   1      44.719  26.377  24.753  1.00  0.00    -0.200 F 
ATOM     71  C   UNL A   1      43.356  24.620  25.548  1.00  0.00     0.200 A 
ATOM     72  F   UNL A   1      41.967  22.898  26.371  1.00  0.00    -0.200 F 
ATOM     73  F   UNL A   1      43.772  23.829  24.549  1.00  0.00    -0.200 F 
ENDBRANCH  49  63
BRANCH  50  74
ATOM     74  C   UNL A   1      39.233  31.949  35.158  1.00  0.00     0.064 A 
ATOM     75  C   UNL A   1      39.504  33.323  35.215  1.00  0.00     0.173 A 
ATOM     76  C   UNL A   1      38.460  31.388  36.185  1.00  0.00     0.173 A 
ATOM     77  F   UNL A   1      40.262  33.896  34.269  1.00  0.00    -0.203 F 
ATOM     78  C   UNL A   1      39.020  34.105  36.261  1.00  0.00     0.198 A 
ATOM     79  C   UNL A   1      37.956  32.177  37.216  1.00  0.00     0.198 A 
ATOM     80  F   UNL A   1      38.177  30.078  36.173  1.00  0.00    -0.203 F 
ATOM     81  F   UNL A   1      39.318  35.410  36.311  1.00  0.00    -0.200 F 
ATOM     82  C   UNL A   1      38.240  33.533  37.255  1.00  0.00     0.200 A 
ATOM     83  F   UNL A   1      37.194  31.623  38.169  1.00  0.00    -0.200 F 
ATOM     84  F   UNL A   1      37.766  34.288  38.255  1.00  0.00    -0.200 F 
ENDBRANCH  50  74
BRANCH  62  85
ATOM     85  C   UNL A   1      44.783  27.850  34.284  1.00  0.00     0.064 A 
ATOM     86  C   UNL A   1      45.957  28.615  34.308  1.00  0.00     0.173 A 
ATOM     87  C   UNL A   1      44.697  26.744  35.141  1.00  0.00     0.173 A 
ATOM     88  F   UNL A   1      46.090  29.671  33.491  1.00  0.00    -0.203 F 
ATOM     89  C   UNL A   1      47.016  28.273  35.143  1.00  0.00     0.198 A 
ATOM     90  C   UNL A   1      45.750  26.415  35.991  1.00  0.00     0.198 A 
ATOM     91  F   UNL A   1      43.593  25.982  35.156  1.00  0.00    -0.203 F 
ATOM     92  F   UNL A   1      48.146  28.993  35.120  1.00  0.00    -0.200 F 
ATOM     93  C   UNL A   1      46.910  27.176  35.986  1.00  0.00     0.200 A 
ATOM     94  F   UNL A   1      45.645  25.360  36.810  1.00  0.00    -0.200 F 
ATOM     95  F   UNL A   1      47.931  26.846  36.789  1.00  0.00    -0.200 F 
ENDBRANCH  62  85
ENDBRANCH  36  37
ENDBRANCH  29  31
ENDBRANCH  28  29
ENDBRANCH  27  28
ENDBRANCH   1  27
TORSDOF 15
ENDMDL
MODEL 3
REMARK VINA RESULT:     -12.2      4.174      9.612
REMARK SMILES COc1ccc2[nH]c(C(=O)c3cc(C)ccn3)c(CC(=O)OCCOC(=O)c3ccc(-c4c5nc(c(-c6c(F)c(F)c(F)c(F)c6F)c6ccc([nH]6)c(-c6c(F)c(F)c(F)c(F)c6F)c6nc(c(-c7c(F)c(F)c(F)c(F)c7F)c7ccc4[nH]7)C=C6)C=C5)cc3)c2c1
REMARK SMILES IDX 23 1 22 2 20 3 21 4 19 5 18 6 3 7 4 8 92 9 5 10 91 11 6 12
REMARK SMILES IDX 7 13 8 14 2 16 1 17 9 18 10 19 11 20 12 21 17 22 13 23 16 24
REMARK SMILES IDX 14 25 15 26 24 27 25 28 26 29 27 30 28 31 29 32 90 33 30 34
REMARK SMILES IDX 89 35 31 36 32 37 33 38 83 39 34 40 88 41 82 42 84 43 35 44
REMARK SMILES IDX 87 45 81 46 80 47 36 49 68 50 48 51 67 52 49 53 52 54 66 55
REMARK SMILES IDX 85 56 50 57 51 58 65 60 86 61 53 62 37 63 38 64 46 65 39 66
REMARK SMILES IDX 40 67 44 68 47 69 41 70 42 71 45 72 43 73 69 74 70 75 78 76
REMARK SMILES IDX 71 77 72 78 76 79 79 80 73 81 74 82 77 83 75 84 54 85 55 86
REMARK SMILES IDX 63 87 56 88 57 89 61 90 64 91 58 92 59 93 62 94 60 95
REMARK H PARENT 7 15 84 48 52 59
REMARK Flexibility Score: inf
ROOT
ATOM      1  C   UNL A   1      36.632  22.776  23.740  1.00  0.00     0.274 C 
ENDROOT
BRANCH   1   2
ATOM      2  O   UNL A   1      35.364  22.943  23.072  1.00  0.00    -0.462 OA
BRANCH   2   3
ATOM      3  C   UNL A   1      34.748  24.139  23.273  1.00  0.00     0.310 C 
ATOM      4  O   UNL A   1      34.171  24.773  22.391  1.00  0.00    -0.252 OA
BRANCH   3   5
ATOM      5  C   UNL A   1      34.775  24.641  24.701  1.00  0.00     0.161 C 
BRANCH   5   6
ATOM      6  C   UNL A   1      33.460  25.043  25.301  1.00  0.00     0.000 A 
ATOM      7  C   UNL A   1      33.428  28.581  26.734  1.00  0.00     0.119 A 
ATOM      8  C   UNL A   1      32.080  28.586  27.086  1.00  0.00     0.048 A 
ATOM      9  C   UNL A   1      34.007  27.439  26.175  1.00  0.00     0.057 A 
ATOM     10  C   UNL A   1      31.284  27.444  26.912  1.00  0.00     0.030 A 
ATOM     11  C   UNL A   1      33.217  26.295  25.949  1.00  0.00     0.008 A 
ATOM     12  C   UNL A   1      31.881  26.321  26.329  1.00  0.00     0.046 A 
ATOM     13  N   UNL A   1      31.348  25.100  25.992  1.00  0.00    -0.352 N 
ATOM     14  C   UNL A   1      32.226  24.400  25.189  1.00  0.00     0.093 A 
ATOM     15  H   UNL A   1      30.467  24.770  26.281  1.00  0.00     0.167 HD
BRANCH   7  16
ATOM     16  O   UNL A   1      34.263  29.664  26.813  1.00  0.00    -0.497 OA
ATOM     17  C   UNL A   1      35.431  29.467  27.599  1.00  0.00     0.278 C 
ENDBRANCH   7  16
BRANCH  14  18
ATOM     18  C   UNL A   1      31.852  23.283  24.336  1.00  0.00     0.227 C 
ATOM     19  O   UNL A   1      31.069  23.386  23.396  1.00  0.00    -0.285 OA
BRANCH  18  20
ATOM     20  C   UNL A   1      32.311  21.918  24.685  1.00  0.00     0.113 A 
ATOM     21  C   UNL A   1      32.183  20.899  23.748  1.00  0.00     0.036 A 
ATOM     22  N   UNL A   1      32.871  21.765  25.906  1.00  0.00    -0.253 NA
ATOM     23  C   UNL A   1      32.666  19.633  24.082  1.00  0.00    -0.047 A 
ATOM     24  C   UNL A   1      33.387  20.550  26.178  1.00  0.00     0.112 A 
ATOM     25  C   UNL A   1      32.532  18.475  23.140  1.00  0.00     0.044 C 
ATOM     26  C   UNL A   1      33.306  19.468  25.314  1.00  0.00     0.023 A 
ENDBRANCH  18  20
ENDBRANCH  14  18
ENDBRANCH   5   6
ENDBRANCH   3   5
ENDBRANCH   2   3
ENDBRANCH   1   2
BRANCH   1  27
ATOM     27  C   UNL A   1      36.653  21.476  24.539  1.00  0.00     0.275 C 
BRANCH  27  28
ATOM     28  O   UNL A   1      37.189  21.725  25.849  1.00  0.00    -0.458 OA
BRANCH  28  29
ATOM     29  C   UNL A   1      38.522  21.551  25.975  1.00  0.00     0.338 C 
ATOM     30  O   UNL A   1      39.152  20.522  25.749  1.00  0.00    -0.246 OA
BRANCH  29  31
ATOM     31  C   UNL A   1      39.157  22.779  26.491  1.00  0.00     0.060 A 
ATOM     32  C   UNL A   1      38.692  24.048  26.139  1.00  0.00     0.016 A 
ATOM     33  C   UNL A   1      40.304  22.654  27.276  1.00  0.00     0.016 A 
ATOM     34  C   UNL A   1      39.426  25.182  26.489  1.00  0.00     0.010 A 
ATOM     35  C   UNL A   1      40.981  23.797  27.710  1.00  0.00     0.010 A 
ATOM     36  C   UNL A   1      40.570  25.073  27.293  1.00  0.00    -0.014 A 
BRANCH  36  37
ATOM     37  C   UNL A   1      41.340  26.281  27.699  1.00  0.00     0.031 A 
ATOM     38  C   UNL A   1      40.696  27.354  28.535  1.00  0.00     0.074 A 
ATOM     39  C   UNL A   1      42.616  26.430  27.297  1.00  0.00     0.049 A 
ATOM     40  N   UNL A   1      41.138  28.553  28.827  1.00  0.00    -0.248 NA
ATOM     41  C   UNL A   1      39.375  27.049  29.106  1.00  0.00     0.031 C 
ATOM     42  C   UNL A   1      43.373  25.460  26.505  1.00  0.00     0.029 A 
ATOM     43  N   UNL A   1      43.504  27.458  27.499  1.00  0.00    -0.354 N 
ATOM     44  C   UNL A   1      40.131  29.162  29.564  1.00  0.00     0.074 A 
ATOM     45  C   UNL A   1      39.054  28.201  29.678  1.00  0.00     0.031 C 
ATOM     46  C   UNL A   1      44.619  25.922  26.317  1.00  0.00     0.029 A 
ATOM     47  C   UNL A   1      44.725  27.252  26.907  1.00  0.00     0.049 A 
ATOM     48  H   UNL A   1      43.285  28.266  28.018  1.00  0.00     0.167 HD
ATOM     49  C   UNL A   1      40.111  30.408  30.097  1.00  0.00     0.037 A 
ATOM     50  C   UNL A   1      45.801  28.054  26.814  1.00  0.00     0.037 A 
ATOM     51  C   UNL A   1      41.208  31.342  30.038  1.00  0.00     0.049 A 
ATOM     52  C   UNL A   1      45.753  29.429  27.410  1.00  0.00     0.074 A 
ATOM     53  C   UNL A   1      41.289  32.614  30.577  1.00  0.00     0.029 A 
ATOM     54  N   UNL A   1      42.422  31.095  29.416  1.00  0.00    -0.354 N 
ATOM     55  N   UNL A   1      44.778  30.012  28.062  1.00  0.00    -0.248 NA
ATOM     56  C   UNL A   1      46.948  30.266  27.240  1.00  0.00     0.031 C 
ATOM     57  C   UNL A   1      42.543  33.149  30.260  1.00  0.00     0.029 A 
ATOM     58  C   UNL A   1      43.255  32.195  29.551  1.00  0.00     0.049 A 
ATOM     59  H   UNL A   1      42.659  30.262  28.949  1.00  0.00     0.167 HD
ATOM     60  C   UNL A   1      45.239  31.280  28.382  1.00  0.00     0.074 A 
ATOM     61  C   UNL A   1      46.592  31.375  27.873  1.00  0.00     0.031 C 
ATOM     62  C   UNL A   1      44.594  32.279  29.032  1.00  0.00     0.037 A 
BRANCH  49  63
ATOM     63  C   UNL A   1      38.852  30.856  30.777  1.00  0.00     0.064 A 
ATOM     64  C   UNL A   1      37.763  31.365  30.055  1.00  0.00     0.173 A 
ATOM     65  C   UNL A   1      38.713  30.714  32.166  1.00  0.00     0.173 A 
ATOM     66  F   UNL A   1      37.850  31.530  28.727  1.00  0.00    -0.203 F 
ATOM     67  C   UNL A   1      36.586  31.732  30.703  1.00  0.00     0.198 A 
ATOM     68  C   UNL A   1      37.526  31.060  32.807  1.00  0.00     0.198 A 
ATOM     69  F   UNL A   1      39.723  30.224  32.900  1.00  0.00    -0.203 F 
ATOM     70  F   UNL A   1      35.569  32.250  30.000  1.00  0.00    -0.200 F 
ATOM     71  C   UNL A   1      36.466  31.573  32.076  1.00  0.00     0.200 A 
ATOM     72  F   UNL A   1      37.409  30.897  34.133  1.00  0.00    -0.200 F 
ATOM     73  F   UNL A   1      35.328  31.919  32.695  1.00  0.00    -0.200 F 
ENDBRANCH  49  63
BRANCH  50  74
ATOM     74  C   UNL A   1      47.009  27.574  26.096  1.00  0.00     0.064 A 
ATOM     75  C   UNL A   1      47.109  27.692  24.704  1.00  0.00     0.173 A 
ATOM     76  C   UNL A   1      48.093  27.016  26.789  1.00  0.00     0.173 A 
ATOM     77  F   UNL A   1      46.085  28.196  23.999  1.00  0.00    -0.203 F 
ATOM     78  C   UNL A   1      48.250  27.266  24.029  1.00  0.00     0.198 A 
ATOM     79  C   UNL A   1      49.243  26.613  26.115  1.00  0.00     0.198 A 
ATOM     80  F   UNL A   1      48.042  26.881  28.121  1.00  0.00    -0.203 F 
ATOM     81  F   UNL A   1      48.310  27.360  22.694  1.00  0.00    -0.200 F 
ATOM     82  C   UNL A   1      49.319  26.735  24.736  1.00  0.00     0.200 A 
ATOM     83  F   UNL A   1      50.278  26.111  26.802  1.00  0.00    -0.200 F 
ATOM     84  F   UNL A   1      50.421  26.335  24.087  1.00  0.00    -0.200 F 
ENDBRANCH  50  74
BRANCH  62  85
ATOM     85  C   UNL A   1      45.353  33.555  29.236  1.00  0.00     0.064 A 
ATOM     86  C   UNL A   1      46.159  33.751  30.366  1.00  0.00     0.173 A 
ATOM     87  C   UNL A   1      45.285  34.583  28.285  1.00  0.00     0.173 A 
ATOM     88  F   UNL A   1      46.239  32.801  31.310  1.00  0.00    -0.203 F 
ATOM     89  C   UNL A   1      46.855  34.942  30.549  1.00  0.00     0.198 A 
ATOM     90  C   UNL A   1      45.998  35.766  28.461  1.00  0.00     0.198 A 
ATOM     91  F   UNL A   1      44.530  34.441  27.187  1.00  0.00    -0.203 F 
ATOM     92  F   UNL A   1      47.586  35.126  31.657  1.00  0.00    -0.200 F 
ATOM     93  C   UNL A   1      46.777  35.947  29.595  1.00  0.00     0.200 A 
ATOM     94  F   UNL A   1      45.928  36.733  27.537  1.00  0.00    -0.200 F 
ATOM     95  F   UNL A   1      47.445  37.094  29.774  1.00  0.00    -0.200 F 
ENDBRANCH  62  85
ENDBRANCH  36  37
ENDBRANCH  29  31
ENDBRANCH  28  29
ENDBRANCH  27  28
ENDBRANCH   1  27
TORSDOF 15
ENDMDL
