MODEL 1
REMARK VINA RESULT:     -11.5      0.000      0.000
REMARK SMILES O=C(OCCOC(=O)c1cnccc1-c1cccc(C(F)(F)F)c1)c1ccc(-c2c3nc(c(-c4c(F)c(F)c(F)c(F)c4F)c4ccc([nH]4)c(-c4c(F)c(F)c(F)c(F)c4F)c4nc(c(-c5c(F)c(F)c(F)c(F)c5F)c5ccc2[nH]5)C=C4)C=C3)cc1
REMARK SMILES IDX 4 1 3 2 2 3 1 4 25 5 26 6 87 7 27 8 86 9 28 10 29 11 30 12
REMARK SMILES IDX 80 13 31 14 85 15 79 16 81 17 32 18 84 19 78 20 77 21 33 23
REMARK SMILES IDX 65 24 45 25 64 26 46 27 49 28 63 29 82 30 47 31 48 32 62 34
REMARK SMILES IDX 83 35 50 36 34 37 35 38 43 39 36 40 37 41 41 42 44 43 38 44
REMARK SMILES IDX 39 45 42 46 40 47 66 48 67 49 75 50 68 51 69 52 73 53 76 54
REMARK SMILES IDX 70 55 71 56 74 57 72 58 51 59 52 60 60 61 53 62 54 63 58 64
REMARK SMILES IDX 61 65 55 66 56 67 59 68 57 69 5 70 6 71 7 72 8 73 9 74 10 75
REMARK SMILES IDX 14 76 11 77 13 78 12 79 15 80 16 81 24 82 17 83 19 84 18 85
REMARK SMILES IDX 20 86 21 87 22 88 23 89
REMARK H PARENT 81 22 49 33
REMARK Flexibility Score: inf
ROOT
ATOM      1  C   UNL A   1      32.651  29.224  25.952  1.00  0.00     0.275 C 
ENDROOT
BRANCH   1   2
ATOM      2  O   UNL A   1      32.847  30.643  26.097  1.00  0.00    -0.458 OA
BRANCH   2   3
ATOM      3  C   UNL A   1      33.396  31.383  27.088  1.00  0.00     0.338 C 
ATOM      4  O   UNL A   1      32.818  32.422  27.413  1.00  0.00    -0.246 OA
BRANCH   3   5
ATOM      5  C   UNL A   1      34.711  31.102  27.761  1.00  0.00     0.060 A 
ATOM      6  C   UNL A   1      35.766  31.999  27.935  1.00  0.00     0.016 A 
ATOM      7  C   UNL A   1      34.882  29.801  28.282  1.00  0.00     0.016 A 
ATOM      8  C   UNL A   1      36.919  31.634  28.645  1.00  0.00     0.010 A 
ATOM      9  C   UNL A   1      36.030  29.430  28.998  1.00  0.00     0.010 A 
ATOM     10  C   UNL A   1      37.056  30.354  29.191  1.00  0.00    -0.014 A 
BRANCH  10  11
ATOM     11  C   UNL A   1      38.312  29.995  29.898  1.00  0.00     0.031 A 
ATOM     12  C   UNL A   1      38.528  30.512  31.270  1.00  0.00     0.074 A 
ATOM     13  C   UNL A   1      39.202  29.146  29.351  1.00  0.00     0.049 A 
ATOM     14  N   UNL A   1      39.510  30.252  32.086  1.00  0.00    -0.248 NA
ATOM     15  C   UNL A   1      37.516  31.441  31.793  1.00  0.00     0.031 C 
ATOM     16  C   UNL A   1      39.047  28.616  28.019  1.00  0.00     0.029 A 
ATOM     17  N   UNL A   1      40.358  28.554  29.790  1.00  0.00    -0.354 N 
ATOM     18  C   UNL A   1      39.247  30.995  33.219  1.00  0.00     0.074 A 
ATOM     19  C   UNL A   1      38.012  31.716  32.990  1.00  0.00     0.031 C 
ATOM     20  C   UNL A   1      39.991  27.706  27.756  1.00  0.00     0.029 A 
ATOM     21  C   UNL A   1      40.912  27.678  28.877  1.00  0.00     0.049 A 
ATOM     22  H   UNL A   1      40.755  28.736  30.672  1.00  0.00     0.167 HD
ATOM     23  C   UNL A   1      39.996  31.066  34.339  1.00  0.00     0.037 A 
ATOM     24  C   UNL A   1      42.054  26.963  28.919  1.00  0.00     0.037 A 
ATOM     25  C   UNL A   1      41.240  30.366  34.511  1.00  0.00     0.049 A 
ATOM     26  C   UNL A   1      42.887  27.115  30.158  1.00  0.00     0.074 A 
ATOM     27  C   UNL A   1      42.092  30.383  35.598  1.00  0.00     0.029 A 
ATOM     28  N   UNL A   1      41.822  29.538  33.556  1.00  0.00    -0.354 N 
ATOM     29  N   UNL A   1      42.613  27.800  31.244  1.00  0.00    -0.248 NA
ATOM     30  C   UNL A   1      44.185  26.430  30.185  1.00  0.00     0.031 C 
ATOM     31  C   UNL A   1      43.216  29.615  35.279  1.00  0.00     0.029 A 
ATOM     32  C   UNL A   1      43.040  29.066  34.017  1.00  0.00     0.049 A 
ATOM     33  H   UNL A   1      41.425  29.318  32.682  1.00  0.00     0.167 HD
ATOM     34  C   UNL A   1      43.700  27.635  32.082  1.00  0.00     0.074 A 
ATOM     35  C   UNL A   1      44.619  26.744  31.398  1.00  0.00     0.031 C 
ATOM     36  C   UNL A   1      43.929  28.186  33.297  1.00  0.00     0.037 A 
BRANCH  23  37
ATOM     37  C   UNL A   1      39.514  31.995  35.406  1.00  0.00     0.064 A 
ATOM     38  C   UNL A   1      39.966  33.320  35.492  1.00  0.00     0.173 A 
ATOM     39  C   UNL A   1      38.611  31.538  36.375  1.00  0.00     0.173 A 
ATOM     40  F   UNL A   1      40.863  33.787  34.611  1.00  0.00    -0.203 F 
ATOM     41  C   UNL A   1      39.541  34.150  36.525  1.00  0.00     0.198 A 
ATOM     42  C   UNL A   1      38.169  32.379  37.391  1.00  0.00     0.198 A 
ATOM     43  F   UNL A   1      38.170  30.272  36.345  1.00  0.00    -0.203 F 
ATOM     44  F   UNL A   1      40.026  35.396  36.623  1.00  0.00    -0.200 F 
ATOM     45  C   UNL A   1      38.638  33.682  37.468  1.00  0.00     0.200 A 
ATOM     46  F   UNL A   1      37.299  31.924  38.303  1.00  0.00    -0.200 F 
ATOM     47  F   UNL A   1      38.231  34.482  38.462  1.00  0.00    -0.200 F 
ENDBRANCH  23  37
BRANCH  24  48
ATOM     48  C   UNL A   1      42.506  26.125  27.765  1.00  0.00     0.064 A 
ATOM     49  C   UNL A   1      42.079  24.798  27.607  1.00  0.00     0.173 A 
ATOM     50  C   UNL A   1      43.419  26.616  26.817  1.00  0.00     0.173 A 
ATOM     51  F   UNL A   1      41.218  24.263  28.486  1.00  0.00    -0.203 F 
ATOM     52  C   UNL A   1      42.569  23.992  26.578  1.00  0.00     0.198 A 
ATOM     53  C   UNL A   1      43.877  25.823  25.764  1.00  0.00     0.198 A 
ATOM     54  F   UNL A   1      43.867  27.878  26.901  1.00  0.00    -0.203 F 
ATOM     55  F   UNL A   1      42.192  22.708  26.497  1.00  0.00    -0.200 F 
ATOM     56  C   UNL A   1      43.466  24.506  25.654  1.00  0.00     0.200 A 
ATOM     57  F   UNL A   1      44.726  26.336  24.862  1.00  0.00    -0.200 F 
ATOM     58  F   UNL A   1      43.939  23.731  24.668  1.00  0.00    -0.200 F 
ENDBRANCH  24  48
BRANCH  36  59
ATOM     59  C   UNL A   1      45.224  27.822  33.955  1.00  0.00     0.064 A 
ATOM     60  C   UNL A   1      46.377  28.601  33.779  1.00  0.00     0.173 A 
ATOM     61  C   UNL A   1      45.302  26.697  34.787  1.00  0.00     0.173 A 
ATOM     62  F   UNL A   1      46.354  29.670  32.970  1.00  0.00    -0.203 F 
ATOM     63  C   UNL A   1      47.572  28.250  34.398  1.00  0.00     0.198 A 
ATOM     64  C   UNL A   1      46.488  26.370  35.431  1.00  0.00     0.198 A 
ATOM     65  F   UNL A   1      44.223  25.923  34.981  1.00  0.00    -0.203 F 
ATOM     66  F   UNL A   1      48.677  28.974  34.175  1.00  0.00    -0.200 F 
ATOM     67  C   UNL A   1      47.623  27.142  35.231  1.00  0.00     0.200 A 
ATOM     68  F   UNL A   1      46.534  25.306  36.245  1.00  0.00    -0.200 F 
ATOM     69  F   UNL A   1      48.773  26.810  35.833  1.00  0.00    -0.200 F 
ENDBRANCH  36  59
ENDBRANCH  10  11
ENDBRANCH   3   5
ENDBRANCH   2   3
ENDBRANCH   1   2
BRANCH   1  70
ATOM     70  C   UNL A   1      33.525  28.585  24.873  1.00  0.00     0.275 C 
BRANCH  70  71
ATOM     71  O   UNL A   1      33.995  27.292  25.265  1.00  0.00    -0.458 OA
BRANCH  71  72
ATOM     72  C   UNL A   1      33.545  26.265  24.503  1.00  0.00     0.340 C 
ATOM     73  O   UNL A   1      33.699  26.111  23.307  1.00  0.00    -0.246 OA
BRANCH  72  74
ATOM     74  C   UNL A   1      32.914  25.256  25.360  1.00  0.00     0.086 A 
ATOM     75  C   UNL A   1      31.617  25.520  25.788  1.00  0.00     0.127 A 
ATOM     76  C   UNL A   1      33.557  24.087  25.784  1.00  0.00    -0.001 A 
ATOM     77  N   UNL A   1      30.899  24.683  26.574  1.00  0.00    -0.264 NA
ATOM     78  C   UNL A   1      32.854  23.279  26.695  1.00  0.00     0.030 A 
ATOM     79  C   UNL A   1      31.536  23.584  27.017  1.00  0.00     0.111 A 
BRANCH  76  80
ATOM     80  C   UNL A   1      34.899  23.693  25.310  1.00  0.00    -0.017 A 
ATOM     81  C   UNL A   1      35.112  23.180  24.017  1.00  0.00     0.009 A 
ATOM     82  C   UNL A   1      36.023  23.887  26.115  1.00  0.00     0.021 A 
ATOM     83  C   UNL A   1      36.371  22.781  23.570  1.00  0.00     0.001 A 
ATOM     84  C   UNL A   1      37.313  23.575  25.647  1.00  0.00     0.056 A 
ATOM     85  C   UNL A   1      37.472  22.978  24.388  1.00  0.00     0.013 A 
BRANCH  84  86
ATOM     86  C   UNL A   1      38.528  23.915  26.468  1.00  0.00     0.416 C 
ATOM     87  F   UNL A   1      38.208  24.444  27.678  1.00  0.00    -0.166 F 
ATOM     88  F   UNL A   1      39.296  22.819  26.723  1.00  0.00    -0.166 F 
ATOM     89  F   UNL A   1      39.352  24.814  25.864  1.00  0.00    -0.166 F 
ENDBRANCH  84  86
ENDBRANCH  76  80
ENDBRANCH  72  74
ENDBRANCH  71  72
ENDBRANCH  70  71
ENDBRANCH   1  70
TORSDOF 13
ENDMDL
MODEL 2
REMARK VINA RESULT:     -11.5      3.257      4.429
REMARK SMILES O=C(OCCOC(=O)c1cnccc1-c1cccc(C(F)(F)F)c1)c1ccc(-c2c3nc(c(-c4c(F)c(F)c(F)c(F)c4F)c4ccc([nH]4)c(-c4c(F)c(F)c(F)c(F)c4F)c4nc(c(-c5c(F)c(F)c(F)c(F)c5F)c5ccc2[nH]5)C=C4)C=C3)cc1
REMARK SMILES IDX 4 1 3 2 2 3 1 4 25 5 26 6 87 7 27 8 86 9 28 10 29 11 30 12
REMARK SMILES IDX 80 13 31 14 85 15 79 16 81 17 32 18 84 19 78 20 77 21 33 23
REMARK SMILES IDX 65 24 45 25 64 26 46 27 49 28 63 29 82 30 47 31 48 32 62 34
REMARK SMILES IDX 83 35 50 36 34 37 35 38 43 39 36 40 37 41 41 42 44 43 38 44
REMARK SMILES IDX 39 45 42 46 40 47 66 48 67 49 75 50 68 51 69 52 73 53 76 54
REMARK SMILES IDX 70 55 71 56 74 57 72 58 51 59 52 60 60 61 53 62 54 63 58 64
REMARK SMILES IDX 61 65 55 66 56 67 59 68 57 69 5 70 6 71 7 72 8 73 9 74 10 75
REMARK SMILES IDX 14 76 11 77 13 78 12 79 15 80 16 81 24 82 17 83 19 84 18 85
REMARK SMILES IDX 20 86 21 87 22 88 23 89
REMARK H PARENT 81 22 49 33
REMARK Flexibility Score: inf
ROOT
ATOM      1  C   UNL A   1      31.571  32.048  26.876  1.00  0.00     0.275 C 
ENDROOT
BRANCH   1   2
ATOM      2  O   UNL A   1      32.308  33.282  26.960  1.00  0.00    -0.458 OA
BRANCH   2   3
ATOM      3  C   UNL A   1      33.017  33.846  27.965  1.00  0.00     0.338 C 
ATOM      4  O   UNL A   1      32.637  34.939  28.389  1.00  0.00    -0.246 OA
BRANCH   3   5
ATOM      5  C   UNL A   1      34.294  33.302  28.545  1.00  0.00     0.060 A 
ATOM      6  C   UNL A   1      35.571  33.846  28.403  1.00  0.00     0.016 A 
ATOM      7  C   UNL A   1      34.178  32.131  29.327  1.00  0.00     0.016 A 
ATOM      8  C   UNL A   1      36.677  33.281  29.054  1.00  0.00     0.010 A 
ATOM      9  C   UNL A   1      35.278  31.564  29.985  1.00  0.00     0.010 A 
ATOM     10  C   UNL A   1      36.539  32.145  29.859  1.00  0.00    -0.014 A 
BRANCH  10  11
ATOM     11  C   UNL A   1      37.743  31.554  30.495  1.00  0.00     0.031 A 
ATOM     12  C   UNL A   1      38.064  31.927  31.892  1.00  0.00     0.074 A 
ATOM     13  C   UNL A   1      38.486  30.629  29.858  1.00  0.00     0.049 A 
ATOM     14  N   UNL A   1      39.016  31.465  32.654  1.00  0.00    -0.248 NA
ATOM     15  C   UNL A   1      37.214  32.951  32.515  1.00  0.00     0.031 C 
ATOM     16  C   UNL A   1      38.224  30.231  28.497  1.00  0.00     0.029 A 
ATOM     17  N   UNL A   1      39.551  29.842  30.213  1.00  0.00    -0.354 N 
ATOM     18  C   UNL A   1      38.891  32.148  33.846  1.00  0.00     0.074 A 
ATOM     19  C   UNL A   1      37.772  33.058  33.711  1.00  0.00     0.031 C 
ATOM     20  C   UNL A   1      39.017  29.215  28.137  1.00  0.00     0.029 A 
ATOM     21  C   UNL A   1      39.948  28.968  29.221  1.00  0.00     0.049 A 
ATOM     22  H   UNL A   1      39.990  29.896  31.093  1.00  0.00     0.167 HD
ATOM     23  C   UNL A   1      39.667  32.024  34.943  1.00  0.00     0.037 A 
ATOM     24  C   UNL A   1      40.972  28.092  29.173  1.00  0.00     0.037 A 
ATOM     25  C   UNL A   1      40.797  31.138  35.022  1.00  0.00     0.049 A 
ATOM     26  C   UNL A   1      41.846  28.025  30.391  1.00  0.00     0.074 A 
ATOM     27  C   UNL A   1      41.667  30.947  36.077  1.00  0.00     0.029 A 
ATOM     28  N   UNL A   1      41.228  30.310  33.990  1.00  0.00    -0.354 N 
ATOM     29  N   UNL A   1      41.702  28.658  31.532  1.00  0.00    -0.248 NA
ATOM     30  C   UNL A   1      43.028  27.159  30.325  1.00  0.00     0.031 C 
ATOM     31  C   UNL A   1      42.657  30.050  35.666  1.00  0.00     0.029 A 
ATOM     32  C   UNL A   1      42.373  29.632  34.374  1.00  0.00     0.049 A 
ATOM     33  H   UNL A   1      40.784  30.218  33.116  1.00  0.00     0.167 HD
ATOM     34  C   UNL A   1      42.771  28.272  32.319  1.00  0.00     0.074 A 
ATOM     35  C   UNL A   1      43.532  27.312  31.541  1.00  0.00     0.031 C 
ATOM     36  C   UNL A   1      43.106  28.689  33.563  1.00  0.00     0.037 A 
BRANCH  23  37
ATOM     37  C   UNL A   1      39.353  32.928  36.089  1.00  0.00     0.064 A 
ATOM     38  C   UNL A   1      39.946  34.192  36.218  1.00  0.00     0.173 A 
ATOM     39  C   UNL A   1      38.468  32.506  37.091  1.00  0.00     0.173 A 
ATOM     40  F   UNL A   1      40.831  34.621  35.306  1.00  0.00    -0.203 F 
ATOM     41  C   UNL A   1      39.675  34.996  37.322  1.00  0.00     0.198 A 
ATOM     42  C   UNL A   1      38.181  33.322  38.179  1.00  0.00     0.198 A 
ATOM     43  F   UNL A   1      37.896  31.295  37.020  1.00  0.00    -0.203 F 
ATOM     44  F   UNL A   1      40.293  36.177  37.456  1.00  0.00    -0.200 F 
ATOM     45  C   UNL A   1      38.788  34.563  38.297  1.00  0.00     0.200 A 
ATOM     46  F   UNL A   1      37.326  32.901  39.122  1.00  0.00    -0.200 F 
ATOM     47  F   UNL A   1      38.529  35.337  39.360  1.00  0.00    -0.200 F 
ENDBRANCH  23  37
BRANCH  24  48
ATOM     48  C   UNL A   1      41.269  27.289  27.947  1.00  0.00     0.064 A 
ATOM     49  C   UNL A   1      40.800  25.974  27.797  1.00  0.00     0.173 A 
ATOM     50  C   UNL A   1      42.074  27.798  26.914  1.00  0.00     0.173 A 
ATOM     51  F   UNL A   1      40.038  25.422  28.753  1.00  0.00    -0.203 F 
ATOM     52  C   UNL A   1      41.150  25.197  26.690  1.00  0.00     0.198 A 
ATOM     53  C   UNL A   1      42.390  27.035  25.789  1.00  0.00     0.198 A 
ATOM     54  F   UNL A   1      42.553  29.049  26.987  1.00  0.00    -0.203 F 
ATOM     55  F   UNL A   1      40.741  23.923  26.612  1.00  0.00    -0.200 F 
ATOM     56  C   UNL A   1      41.942  25.729  25.684  1.00  0.00     0.200 A 
ATOM     57  F   UNL A   1      43.136  27.566  24.810  1.00  0.00    -0.200 F 
ATOM     58  F   UNL A   1      42.281  24.982  24.625  1.00  0.00    -0.200 F 
ENDBRANCH  24  48
BRANCH  36  59
ATOM     59  C   UNL A   1      44.347  28.090  34.148  1.00  0.00     0.064 A 
ATOM     60  C   UNL A   1      45.595  28.713  34.008  1.00  0.00     0.173 A 
ATOM     61  C   UNL A   1      44.279  26.895  34.877  1.00  0.00     0.173 A 
ATOM     62  F   UNL A   1      45.710  29.844  33.296  1.00  0.00    -0.203 F 
ATOM     63  C   UNL A   1      46.739  28.145  34.559  1.00  0.00     0.198 A 
ATOM     64  C   UNL A   1      45.418  26.349  35.455  1.00  0.00     0.198 A 
ATOM     65  F   UNL A   1      43.105  26.264  35.034  1.00  0.00    -0.203 F 
ATOM     66  F   UNL A   1      47.931  28.726  34.367  1.00  0.00    -0.200 F 
ATOM     67  C   UNL A   1      46.647  26.970  35.290  1.00  0.00     0.200 A 
ATOM     68  F   UNL A   1      45.327  25.220  36.172  1.00  0.00    -0.200 F 
ATOM     69  F   UNL A   1      47.749  26.428  35.827  1.00  0.00    -0.200 F 
ENDBRANCH  36  59
ENDBRANCH  10  11
ENDBRANCH   3   5
ENDBRANCH   2   3
ENDBRANCH   1   2
BRANCH   1  70
ATOM     70  C   UNL A   1      32.438  30.828  26.567  1.00  0.00     0.275 C 
BRANCH  70  71
ATOM     71  O   UNL A   1      31.925  30.075  25.464  1.00  0.00    -0.458 OA
BRANCH  71  72
ATOM     72  C   UNL A   1      31.734  28.756  25.711  1.00  0.00     0.340 C 
ATOM     73  O   UNL A   1      31.198  28.257  26.682  1.00  0.00    -0.246 OA
BRANCH  72  74
ATOM     74  C   UNL A   1      32.175  27.970  24.555  1.00  0.00     0.086 A 
ATOM     75  C   UNL A   1      33.460  27.438  24.611  1.00  0.00     0.127 A 
ATOM     76  C   UNL A   1      31.393  27.767  23.411  1.00  0.00    -0.001 A 
ATOM     77  N   UNL A   1      34.006  26.684  23.628  1.00  0.00    -0.264 NA
ATOM     78  C   UNL A   1      32.006  27.086  22.345  1.00  0.00     0.030 A 
ATOM     79  C   UNL A   1      33.270  26.531  22.513  1.00  0.00     0.111 A 
BRANCH  76  80
ATOM     80  C   UNL A   1      29.994  28.225  23.305  1.00  0.00    -0.017 A 
ATOM     81  C   UNL A   1      28.909  27.387  23.622  1.00  0.00     0.009 A 
ATOM     82  C   UNL A   1      29.702  29.544  22.952  1.00  0.00     0.021 A 
ATOM     83  C   UNL A   1      27.583  27.803  23.500  1.00  0.00     0.001 A 
ATOM     84  C   UNL A   1      28.374  30.008  22.912  1.00  0.00     0.056 A 
ATOM     85  C   UNL A   1      27.317  29.114  23.143  1.00  0.00     0.013 A 
BRANCH  84  86
ATOM     86  C   UNL A   1      28.078  31.462  22.665  1.00  0.00     0.416 C 
ATOM     87  F   UNL A   1      27.123  31.949  23.502  1.00  0.00    -0.166 F 
ATOM     88  F   UNL A   1      29.177  32.247  22.845  1.00  0.00    -0.166 F 
ATOM     89  F   UNL A   1      27.642  31.716  21.401  1.00  0.00    -0.166 F 
ENDBRANCH  84  86
ENDBRANCH  76  80
ENDBRANCH  72  74
ENDBRANCH  71  72
ENDBRANCH  70  71
ENDBRANCH   1  70
TORSDOF 13
ENDMDL
MODEL 3
REMARK VINA RESULT:     -11.4      4.056      9.307
REMARK SMILES O=C(OCCOC(=O)c1cnccc1-c1cccc(C(F)(F)F)c1)c1ccc(-c2c3nc(c(-c4c(F)c(F)c(F)c(F)c4F)c4ccc([nH]4)c(-c4c(F)c(F)c(F)c(F)c4F)c4nc(c(-c5c(F)c(F)c(F)c(F)c5F)c5ccc2[nH]5)C=C4)C=C3)cc1
REMARK SMILES IDX 4 1 3 2 2 3 1 4 25 5 26 6 87 7 27 8 86 9 28 10 29 11 30 12
REMARK SMILES IDX 80 13 31 14 85 15 79 16 81 17 32 18 84 19 78 20 77 21 33 23
REMARK SMILES IDX 65 24 45 25 64 26 46 27 49 28 63 29 82 30 47 31 48 32 62 34
REMARK SMILES IDX 83 35 50 36 34 37 35 38 43 39 36 40 37 41 41 42 44 43 38 44
REMARK SMILES IDX 39 45 42 46 40 47 66 48 67 49 75 50 68 51 69 52 73 53 76 54
REMARK SMILES IDX 70 55 71 56 74 57 72 58 51 59 52 60 60 61 53 62 54 63 58 64
REMARK SMILES IDX 61 65 55 66 56 67 59 68 57 69 5 70 6 71 7 72 8 73 9 74 10 75
REMARK SMILES IDX 14 76 11 77 13 78 12 79 15 80 16 81 24 82 17 83 19 84 18 85
REMARK SMILES IDX 20 86 21 87 22 88 23 89
REMARK H PARENT 81 22 49 33
REMARK Flexibility Score: inf
ROOT
ATOM      1  C   UNL A   1      46.538  24.308  25.258  1.00  0.00     0.275 C 
ENDROOT
BRANCH   1   2
ATOM      2  O   UNL A   1      45.744  25.368  24.692  1.00  0.00    -0.458 OA
BRANCH   2   3
ATOM      3  C   UNL A   1      45.612  26.673  25.022  1.00  0.00     0.338 C 
ATOM      4  O   UNL A   1      46.225  27.499  24.343  1.00  0.00    -0.246 OA
BRANCH   3   5
ATOM      5  C   UNL A   1      44.861  27.201  26.214  1.00  0.00     0.060 A 
ATOM      6  C   UNL A   1      44.046  26.468  27.077  1.00  0.00     0.016 A 
ATOM      7  C   UNL A   1      45.017  28.578  26.491  1.00  0.00     0.016 A 
ATOM      8  C   UNL A   1      43.455  27.066  28.199  1.00  0.00     0.010 A 
ATOM      9  C   UNL A   1      44.433  29.181  27.615  1.00  0.00     0.010 A 
ATOM     10  C   UNL A   1      43.652  28.421  28.484  1.00  0.00    -0.014 A 
BRANCH  10  11
ATOM     11  C   UNL A   1      42.971  29.023  29.659  1.00  0.00     0.031 A 
ATOM     12  C   UNL A   1      41.556  29.439  29.524  1.00  0.00     0.074 A 
ATOM     13  C   UNL A   1      43.588  29.113  30.852  1.00  0.00     0.049 A 
ATOM     14  N   UNL A   1      40.760  29.906  30.444  1.00  0.00    -0.248 NA
ATOM     15  C   UNL A   1      40.957  29.320  28.187  1.00  0.00     0.031 C 
ATOM     16  C   UNL A   1      44.965  28.729  31.041  1.00  0.00     0.029 A 
ATOM     17  N   UNL A   1      43.198  29.501  32.107  1.00  0.00    -0.354 N 
ATOM     18  C   UNL A   1      39.564  30.151  29.799  1.00  0.00     0.074 A 
ATOM     19  C   UNL A   1      39.735  29.782  28.410  1.00  0.00     0.031 C 
ATOM     20  C   UNL A   1      45.305  28.795  32.333  1.00  0.00     0.029 A 
ATOM     21  C   UNL A   1      44.184  29.357  33.063  1.00  0.00     0.049 A 
ATOM     22  H   UNL A   1      42.299  29.849  32.308  1.00  0.00     0.167 HD
ATOM     23  C   UNL A   1      38.436  30.659  30.339  1.00  0.00     0.037 A 
ATOM     24  C   UNL A   1      44.199  29.677  34.372  1.00  0.00     0.037 A 
ATOM     25  C   UNL A   1      38.320  31.054  31.716  1.00  0.00     0.049 A 
ATOM     26  C   UNL A   1      42.945  30.292  34.920  1.00  0.00     0.074 A 
ATOM     27  C   UNL A   1      37.230  31.600  32.365  1.00  0.00     0.029 A 
ATOM     28  N   UNL A   1      39.344  30.965  32.655  1.00  0.00    -0.354 N 
ATOM     29  N   UNL A   1      41.802  30.494  34.307  1.00  0.00    -0.248 NA
ATOM     30  C   UNL A   1      42.971  30.747  36.315  1.00  0.00     0.031 C 
ATOM     31  C   UNL A   1      37.610  31.897  33.677  1.00  0.00     0.029 A 
ATOM     32  C   UNL A   1      38.920  31.480  33.869  1.00  0.00     0.049 A 
ATOM     33  H   UNL A   1      40.238  30.591  32.482  1.00  0.00     0.167 HD
ATOM     34  C   UNL A   1      40.975  31.100  35.233  1.00  0.00     0.074 A 
ATOM     35  C   UNL A   1      41.731  31.190  36.468  1.00  0.00     0.031 C 
ATOM     36  C   UNL A   1      39.711  31.559  35.073  1.00  0.00     0.037 A 
BRANCH  23  37
ATOM     37  C   UNL A   1      37.292  30.881  29.404  1.00  0.00     0.064 A 
ATOM     38  C   UNL A   1      37.035  32.136  28.835  1.00  0.00     0.173 A 
ATOM     39  C   UNL A   1      36.419  29.826  29.104  1.00  0.00     0.173 A 
ATOM     40  F   UNL A   1      37.819  33.185  29.127  1.00  0.00    -0.203 F 
ATOM     41  C   UNL A   1      35.933  32.330  28.007  1.00  0.00     0.198 A 
ATOM     42  C   UNL A   1      35.333  30.018  28.257  1.00  0.00     0.198 A 
ATOM     43  F   UNL A   1      36.612  28.615  29.646  1.00  0.00    -0.203 F 
ATOM     44  F   UNL A   1      35.673  33.549  27.515  1.00  0.00    -0.200 F 
ATOM     45  C   UNL A   1      35.088  31.270  27.713  1.00  0.00     0.200 A 
ATOM     46  F   UNL A   1      34.516  28.993  27.977  1.00  0.00    -0.200 F 
ATOM     47  F   UNL A   1      34.027  31.458  26.918  1.00  0.00    -0.200 F 
ENDBRANCH  23  37
BRANCH  24  48
ATOM     48  C   UNL A   1      45.423  29.503  35.215  1.00  0.00     0.064 A 
ATOM     49  C   UNL A   1      46.405  30.502  35.302  1.00  0.00     0.173 A 
ATOM     50  C   UNL A   1      45.666  28.311  35.917  1.00  0.00     0.173 A 
ATOM     51  F   UNL A   1      46.242  31.660  34.644  1.00  0.00    -0.203 F 
ATOM     52  C   UNL A   1      47.586  30.302  36.020  1.00  0.00     0.198 A 
ATOM     53  C   UNL A   1      46.827  28.128  36.669  1.00  0.00     0.198 A 
ATOM     54  F   UNL A   1      44.768  27.314  35.884  1.00  0.00    -0.203 F 
ATOM     55  F   UNL A   1      48.533  31.251  36.026  1.00  0.00    -0.200 F 
ATOM     56  C   UNL A   1      47.795  29.117  36.707  1.00  0.00     0.200 A 
ATOM     57  F   UNL A   1      47.010  26.987  37.348  1.00  0.00    -0.200 F 
ATOM     58  F   UNL A   1      48.930  28.924  37.393  1.00  0.00    -0.200 F 
ENDBRANCH  24  48
BRANCH  36  59
ATOM     59  C   UNL A   1      39.080  32.189  36.276  1.00  0.00     0.064 A 
ATOM     60  C   UNL A   1      38.201  31.471  37.100  1.00  0.00     0.173 A 
ATOM     61  C   UNL A   1      39.378  33.515  36.617  1.00  0.00     0.173 A 
ATOM     62  F   UNL A   1      37.867  30.209  36.795  1.00  0.00    -0.203 F 
ATOM     63  C   UNL A   1      37.624  32.070  38.215  1.00  0.00     0.198 A 
ATOM     64  C   UNL A   1      38.827  34.098  37.751  1.00  0.00     0.198 A 
ATOM     65  F   UNL A   1      40.212  34.238  35.855  1.00  0.00    -0.203 F 
ATOM     66  F   UNL A   1      36.744  31.387  38.959  1.00  0.00    -0.200 F 
ATOM     67  C   UNL A   1      37.945  33.379  38.544  1.00  0.00     0.200 A 
ATOM     68  F   UNL A   1      39.147  35.358  38.076  1.00  0.00    -0.200 F 
ATOM     69  F   UNL A   1      37.395  33.952  39.623  1.00  0.00    -0.200 F 
ENDBRANCH  36  59
ENDBRANCH  10  11
ENDBRANCH   3   5
ENDBRANCH   2   3
ENDBRANCH   1   2
BRANCH   1  70
ATOM     70  C   UNL A   1      45.757  23.370  26.177  1.00  0.00     0.275 C 
BRANCH  70  71
ATOM     71  O   UNL A   1      45.548  22.088  25.578  1.00  0.00    -0.458 OA
BRANCH  71  72
ATOM     72  C   UNL A   1      44.357  21.939  24.947  1.00  0.00     0.340 C 
ATOM     73  O   UNL A   1      43.917  22.611  24.034  1.00  0.00    -0.246 OA
BRANCH  72  74
ATOM     74  C   UNL A   1      43.679  20.741  25.452  1.00  0.00     0.086 A 
ATOM     75  C   UNL A   1      44.046  19.526  24.882  1.00  0.00     0.127 A 
ATOM     76  C   UNL A   1      42.677  20.771  26.430  1.00  0.00    -0.001 A 
ATOM     77  N   UNL A   1      43.519  18.334  25.247  1.00  0.00    -0.264 NA
ATOM     78  C   UNL A   1      42.048  19.548  26.721  1.00  0.00     0.030 A 
ATOM     79  C   UNL A   1      42.525  18.372  26.153  1.00  0.00     0.111 A 
BRANCH  76  80
ATOM     80  C   UNL A   1      42.288  22.005  27.141  1.00  0.00    -0.017 A 
ATOM     81  C   UNL A   1      42.839  22.352  28.388  1.00  0.00     0.009 A 
ATOM     82  C   UNL A   1      41.403  22.913  26.556  1.00  0.00     0.021 A 
ATOM     83  C   UNL A   1      42.457  23.502  29.078  1.00  0.00     0.001 A 
ATOM     84  C   UNL A   1      41.076  24.122  27.197  1.00  0.00     0.056 A 
ATOM     85  C   UNL A   1      41.574  24.386  28.482  1.00  0.00     0.013 A 
BRANCH  84  86
ATOM     86  C   UNL A   1      40.231  25.155  26.501  1.00  0.00     0.416 C 
ATOM     87  F   UNL A   1      39.071  24.638  26.015  1.00  0.00    -0.166 F 
ATOM     88  F   UNL A   1      39.873  26.171  27.334  1.00  0.00    -0.166 F 
ATOM     89  F   UNL A   1      40.858  25.741  25.446  1.00  0.00    -0.166 F 
ENDBRANCH  84  86
ENDBRANCH  76  80
ENDBRANCH  72  74
ENDBRANCH  71  72
ENDBRANCH  70  71
ENDBRANCH   1  70
TORSDOF 13
ENDMDL
