MODEL 1
REMARK VINA RESULT:     -10.7      0.000      0.000
REMARK SMILES CC[C@H](C(=O)NCc1ccc(C(=O)OCCOC(=O)c2ccc(-c3c4nc(c(-c5c(F)c(F)c(F)c(F)c5F)c5ccc([nH]5)c(-c5c(F)c(F)c(F)c(F)c5F)c5nc(c(-c6c(F)c(F)c(F)c(F)c6F)c6ccc3[nH]6)C=C5)C=C4)cc2)o1)c1ccccc1
REMARK SMILES IDX 15 1 14 2 12 3 13 4 11 5 8 6 9 7 83 8 10 9 7 10 6 11 4 12
REMARK SMILES IDX 5 13 3 15 2 16 1 17 84 18 85 19 89 20 86 21 88 22 87 23
REMARK SMILES IDX 16 24 17 25 18 26 19 27 20 28 21 29 82 30 22 31 81 32 23 33
REMARK SMILES IDX 24 34 25 35 75 36 26 37 80 38 74 39 76 40 27 41 79 42 73 43
REMARK SMILES IDX 72 44 28 46 60 47 40 48 59 49 41 50 44 51 58 52 77 53 42 54
REMARK SMILES IDX 43 55 57 57 78 58 45 59 29 60 30 61 38 62 31 63 32 64 36 65
REMARK SMILES IDX 39 66 33 67 34 68 37 69 35 70 61 71 62 72 70 73 63 74 64 75
REMARK SMILES IDX 68 76 71 77 65 78 66 79 69 80 67 81 46 82 47 83 55 84 48 85
REMARK SMILES IDX 49 86 53 87 56 88 50 89 51 90 54 91 52 92
REMARK H PARENT 6 14 76 45 44 56
REMARK Flexibility Score: inf
ROOT
ATOM      1  C   UNL A   1      41.350  20.110  26.645  1.00  0.00     0.275 C 
ENDROOT
BRANCH   1   2
ATOM      2  O   UNL A   1      41.961  19.671  25.415  1.00  0.00    -0.456 OA
BRANCH   2   3
ATOM      3  C   UNL A   1      42.975  18.769  25.560  1.00  0.00     0.374 C 
ATOM      4  O   UNL A   1      42.819  17.611  25.933  1.00  0.00    -0.242 OA
BRANCH   3   5
ATOM      5  C   UNL A   1      44.225  19.325  25.098  1.00  0.00     0.211 A 
ATOM      6  C   UNL A   1      45.401  21.012  24.289  1.00  0.00     0.124 A 
ATOM      7  C   UNL A   1      46.320  20.074  24.716  1.00  0.00     0.048 A 
ATOM      8  O   UNL A   1      44.144  20.516  24.433  1.00  0.00    -0.452 OA
ATOM      9  C   UNL A   1      45.559  18.991  25.251  1.00  0.00     0.058 A 
BRANCH   6  10
ATOM     10  C   UNL A   1      45.437  22.465  24.019  1.00  0.00     0.191 C 
BRANCH  10  11
ATOM     11  N   UNL A   1      44.235  23.205  24.263  1.00  0.00    -0.348 N 
ATOM     12  C   UNL A   1      44.172  24.325  25.066  1.00  0.00     0.227 C 
ATOM     13  O   UNL A   1      43.375  25.195  24.709  1.00  0.00    -0.274 OA
ATOM     14  H   UNL A   1      43.405  22.895  23.833  1.00  0.00     0.163 HD
BRANCH  12  15
ATOM     15  C   UNL A   1      45.044  24.423  26.362  1.00  0.00     0.108 C 
BRANCH  15  16
ATOM     16  C   UNL A   1      45.546  25.860  26.718  1.00  0.00     0.015 C 
ATOM     17  C   UNL A   1      46.993  26.170  27.027  1.00  0.00     0.005 C 
ENDBRANCH  15  16
BRANCH  15  18
ATOM     18  C   UNL A   1      44.378  23.849  27.656  1.00  0.00    -0.036 A 
ATOM     19  C   UNL A   1      43.034  23.457  27.729  1.00  0.00     0.004 A 
ATOM     20  C   UNL A   1      45.123  23.767  28.856  1.00  0.00     0.004 A 
ATOM     21  C   UNL A   1      42.429  23.162  28.960  1.00  0.00     0.000 A 
ATOM     22  C   UNL A   1      44.520  23.487  30.085  1.00  0.00     0.000 A 
ATOM     23  C   UNL A   1      43.162  23.211  30.141  1.00  0.00     0.000 A 
ENDBRANCH  15  18
ENDBRANCH  12  15
ENDBRANCH  10  11
ENDBRANCH   6  10
ENDBRANCH   3   5
ENDBRANCH   2   3
ENDBRANCH   1   2
BRANCH   1  24
ATOM     24  C   UNL A   1      40.050  20.887  26.397  1.00  0.00     0.275 C 
BRANCH  24  25
ATOM     25  O   UNL A   1      40.274  22.293  26.168  1.00  0.00    -0.458 OA
BRANCH  25  26
ATOM     26  C   UNL A   1      39.165  23.069  26.178  1.00  0.00     0.338 C 
ATOM     27  O   UNL A   1      38.062  22.778  25.747  1.00  0.00    -0.246 OA
BRANCH  26  28
ATOM     28  C   UNL A   1      39.431  24.331  26.894  1.00  0.00     0.060 A 
ATOM     29  C   UNL A   1      40.186  25.306  26.237  1.00  0.00     0.016 A 
ATOM     30  C   UNL A   1      39.027  24.529  28.217  1.00  0.00     0.016 A 
ATOM     31  C   UNL A   1      40.547  26.477  26.902  1.00  0.00     0.010 A 
ATOM     32  C   UNL A   1      39.388  25.710  28.882  1.00  0.00     0.010 A 
ATOM     33  C   UNL A   1      40.165  26.686  28.234  1.00  0.00    -0.014 A 
BRANCH  33  34
ATOM     34  C   UNL A   1      40.604  27.918  28.942  1.00  0.00     0.031 A 
ATOM     35  C   UNL A   1      42.028  28.063  29.405  1.00  0.00     0.074 A 
ATOM     36  C   UNL A   1      39.733  28.923  29.146  1.00  0.00     0.049 A 
ATOM     37  N   UNL A   1      42.585  29.038  30.081  1.00  0.00    -0.248 NA
ATOM     38  C   UNL A   1      42.946  26.969  29.060  1.00  0.00     0.031 C 
ATOM     39  C   UNL A   1      38.336  28.927  28.713  1.00  0.00     0.029 A 
ATOM     40  N   UNL A   1      39.892  30.136  29.770  1.00  0.00    -0.354 N 
ATOM     41  C   UNL A   1      43.913  28.668  30.256  1.00  0.00     0.074 A 
ATOM     42  C   UNL A   1      44.072  27.370  29.633  1.00  0.00     0.031 C 
ATOM     43  C   UNL A   1      37.767  30.087  29.078  1.00  0.00     0.029 A 
ATOM     44  C   UNL A   1      38.743  30.887  29.813  1.00  0.00     0.049 A 
ATOM     45  H   UNL A   1      40.748  30.439  30.150  1.00  0.00     0.167 HD
ATOM     46  C   UNL A   1      44.908  29.352  30.872  1.00  0.00     0.037 A 
ATOM     47  C   UNL A   1      38.496  32.074  30.402  1.00  0.00     0.037 A 
ATOM     48  C   UNL A   1      44.754  30.649  31.482  1.00  0.00     0.049 A 
ATOM     49  C   UNL A   1      39.599  32.778  31.142  1.00  0.00     0.074 A 
ATOM     50  C   UNL A   1      45.711  31.426  32.111  1.00  0.00     0.029 A 
ATOM     51  N   UNL A   1      43.563  31.358  31.542  1.00  0.00    -0.354 N 
ATOM     52  N   UNL A   1      40.852  32.425  31.294  1.00  0.00    -0.248 NA
ATOM     53  C   UNL A   1      39.253  34.048  31.797  1.00  0.00     0.031 C 
ATOM     54  C   UNL A   1      45.089  32.584  32.594  1.00  0.00     0.029 A 
ATOM     55  C   UNL A   1      43.756  32.551  32.219  1.00  0.00     0.049 A 
ATOM     56  H   UNL A   1      42.707  31.057  31.158  1.00  0.00     0.167 HD
ATOM     57  C   UNL A   1      41.447  33.435  32.038  1.00  0.00     0.074 A 
ATOM     58  C   UNL A   1      40.423  34.423  32.296  1.00  0.00     0.031 C 
ATOM     59  C   UNL A   1      42.730  33.533  32.466  1.00  0.00     0.037 A 
BRANCH  46  60
ATOM     60  C   UNL A   1      46.258  28.698  30.943  1.00  0.00     0.064 A 
ATOM     61  C   UNL A   1      47.195  28.822  29.906  1.00  0.00     0.173 A 
ATOM     62  C   UNL A   1      46.636  27.972  32.083  1.00  0.00     0.173 A 
ATOM     63  F   UNL A   1      46.880  29.498  28.790  1.00  0.00    -0.203 F 
ATOM     64  C   UNL A   1      48.448  28.221  29.995  1.00  0.00     0.198 A 
ATOM     65  C   UNL A   1      47.899  27.395  32.181  1.00  0.00     0.198 A 
ATOM     66  F   UNL A   1      45.781  27.828  33.108  1.00  0.00    -0.203 F 
ATOM     67  F   UNL A   1      49.309  28.314  28.973  1.00  0.00    -0.200 F 
ATOM     68  C   UNL A   1      48.801  27.513  31.135  1.00  0.00     0.200 A 
ATOM     69  F   UNL A   1      48.244  26.723  33.288  1.00  0.00    -0.200 F 
ATOM     70  F   UNL A   1      50.010  26.939  31.222  1.00  0.00    -0.200 F 
ENDBRANCH  46  60
BRANCH  47  71
ATOM     71  C   UNL A   1      37.134  32.663  30.329  1.00  0.00     0.064 A 
ATOM     72  C   UNL A   1      36.767  33.501  29.267  1.00  0.00     0.173 A 
ATOM     73  C   UNL A   1      36.176  32.407  31.320  1.00  0.00     0.173 A 
ATOM     74  F   UNL A   1      37.658  33.798  28.310  1.00  0.00    -0.203 F 
ATOM     75  C   UNL A   1      35.495  34.069  29.206  1.00  0.00     0.198 A 
ATOM     76  C   UNL A   1      34.896  32.952  31.244  1.00  0.00     0.198 A 
ATOM     77  F   UNL A   1      36.480  31.615  32.360  1.00  0.00    -0.203 F 
ATOM     78  F   UNL A   1      35.184  34.901  28.203  1.00  0.00    -0.200 F 
ATOM     79  C   UNL A   1      34.559  33.788  30.190  1.00  0.00     0.200 A 
ATOM     80  F   UNL A   1      33.992  32.670  32.192  1.00  0.00    -0.200 F 
ATOM     81  F   UNL A   1      33.336  34.331  30.128  1.00  0.00    -0.200 F 
ENDBRANCH  47  71
BRANCH  59  82
ATOM     82  C   UNL A   1      43.110  34.769  33.229  1.00  0.00     0.064 A 
ATOM     83  C   UNL A   1      43.505  35.945  32.576  1.00  0.00     0.173 A 
ATOM     84  C   UNL A   1      43.038  34.788  34.630  1.00  0.00     0.173 A 
ATOM     85  F   UNL A   1      43.607  35.973  31.239  1.00  0.00    -0.203 F 
ATOM     86  C   UNL A   1      43.836  37.089  33.299  1.00  0.00     0.198 A 
ATOM     87  C   UNL A   1      43.343  35.942  35.349  1.00  0.00     0.198 A 
ATOM     88  F   UNL A   1      42.660  33.691  35.303  1.00  0.00    -0.203 F 
ATOM     89  F   UNL A   1      44.254  38.188  32.657  1.00  0.00    -0.200 F 
ATOM     90  C   UNL A   1      43.747  37.088  34.683  1.00  0.00     0.200 A 
ATOM     91  F   UNL A   1      43.245  35.943  36.686  1.00  0.00    -0.200 F 
ATOM     92  F   UNL A   1      44.059  38.192  35.377  1.00  0.00    -0.200 F 
ENDBRANCH  59  82
ENDBRANCH  33  34
ENDBRANCH  26  28
ENDBRANCH  25  26
ENDBRANCH  24  25
ENDBRANCH   1  24
TORSDOF 16
ENDMDL
MODEL 2
REMARK VINA RESULT:     -10.7      0.693      2.105
REMARK SMILES CC[C@H](C(=O)NCc1ccc(C(=O)OCCOC(=O)c2ccc(-c3c4nc(c(-c5c(F)c(F)c(F)c(F)c5F)c5ccc([nH]5)c(-c5c(F)c(F)c(F)c(F)c5F)c5nc(c(-c6c(F)c(F)c(F)c(F)c6F)c6ccc3[nH]6)C=C5)C=C4)cc2)o1)c1ccccc1
REMARK SMILES IDX 15 1 14 2 12 3 13 4 11 5 8 6 9 7 83 8 10 9 7 10 6 11 4 12
REMARK SMILES IDX 5 13 3 15 2 16 1 17 84 18 85 19 89 20 86 21 88 22 87 23
REMARK SMILES IDX 16 24 17 25 18 26 19 27 20 28 21 29 82 30 22 31 81 32 23 33
REMARK SMILES IDX 24 34 25 35 75 36 26 37 80 38 74 39 76 40 27 41 79 42 73 43
REMARK SMILES IDX 72 44 28 46 60 47 40 48 59 49 41 50 44 51 58 52 77 53 42 54
REMARK SMILES IDX 43 55 57 57 78 58 45 59 29 60 30 61 38 62 31 63 32 64 36 65
REMARK SMILES IDX 39 66 33 67 34 68 37 69 35 70 61 71 62 72 70 73 63 74 64 75
REMARK SMILES IDX 68 76 71 77 65 78 66 79 69 80 67 81 46 82 47 83 55 84 48 85
REMARK SMILES IDX 49 86 53 87 56 88 50 89 51 90 54 91 52 92
REMARK H PARENT 6 14 76 45 44 56
REMARK Flexibility Score: inf
ROOT
ATOM      1  C   UNL A   1      41.154  19.967  26.563  1.00  0.00     0.275 C 
ENDROOT
BRANCH   1   2
ATOM      2  O   UNL A   1      41.846  19.386  25.441  1.00  0.00    -0.456 OA
BRANCH   2   3
ATOM      3  C   UNL A   1      42.993  18.714  25.751  1.00  0.00     0.374 C 
ATOM      4  O   UNL A   1      43.024  17.633  26.331  1.00  0.00    -0.242 OA
BRANCH   3   5
ATOM      5  C   UNL A   1      44.146  19.383  25.196  1.00  0.00     0.211 A 
ATOM      6  C   UNL A   1      45.116  21.197  24.387  1.00  0.00     0.124 A 
ATOM      7  C   UNL A   1      46.133  20.299  24.641  1.00  0.00     0.048 A 
ATOM      8  O   UNL A   1      43.917  20.607  24.632  1.00  0.00    -0.452 OA
ATOM      9  C   UNL A   1      45.507  19.134  25.176  1.00  0.00     0.058 A 
BRANCH   6  10
ATOM     10  C   UNL A   1      45.032  22.664  24.221  1.00  0.00     0.191 C 
BRANCH  10  11
ATOM     11  N   UNL A   1      46.208  23.424  24.524  1.00  0.00    -0.348 N 
ATOM     12  C   UNL A   1      46.382  24.138  25.693  1.00  0.00     0.227 C 
ATOM     13  O   UNL A   1      47.533  24.175  26.131  1.00  0.00    -0.274 OA
ATOM     14  H   UNL A   1      46.934  23.438  23.860  1.00  0.00     0.163 HD
BRANCH  12  15
ATOM     15  C   UNL A   1      45.173  24.873  26.361  1.00  0.00     0.108 C 
BRANCH  15  16
ATOM     16  C   UNL A   1      44.076  25.383  25.371  1.00  0.00     0.015 C 
ATOM     17  C   UNL A   1      43.670  26.836  25.274  1.00  0.00     0.005 C 
ENDBRANCH  15  16
BRANCH  15  18
ATOM     18  C   UNL A   1      44.430  24.057  27.469  1.00  0.00    -0.036 A 
ATOM     19  C   UNL A   1      43.120  23.575  27.333  1.00  0.00     0.004 A 
ATOM     20  C   UNL A   1      45.056  23.831  28.718  1.00  0.00     0.004 A 
ATOM     21  C   UNL A   1      42.421  23.048  28.430  1.00  0.00     0.000 A 
ATOM     22  C   UNL A   1      44.358  23.320  29.816  1.00  0.00     0.000 A 
ATOM     23  C   UNL A   1      43.027  22.953  29.678  1.00  0.00     0.000 A 
ENDBRANCH  15  18
ENDBRANCH  12  15
ENDBRANCH  10  11
ENDBRANCH   6  10
ENDBRANCH   3   5
ENDBRANCH   2   3
ENDBRANCH   1   2
BRANCH   1  24
ATOM     24  C   UNL A   1      39.918  20.765  26.127  1.00  0.00     0.275 C 
BRANCH  24  25
ATOM     25  O   UNL A   1      40.147  22.189  26.118  1.00  0.00    -0.458 OA
BRANCH  25  26
ATOM     26  C   UNL A   1      39.033  22.959  26.130  1.00  0.00     0.338 C 
ATOM     27  O   UNL A   1      37.926  22.653  25.719  1.00  0.00    -0.246 OA
BRANCH  26  28
ATOM     28  C   UNL A   1      39.301  24.234  26.820  1.00  0.00     0.060 A 
ATOM     29  C   UNL A   1      40.040  25.203  26.135  1.00  0.00     0.016 A 
ATOM     30  C   UNL A   1      38.915  24.453  28.145  1.00  0.00     0.016 A 
ATOM     31  C   UNL A   1      40.403  26.387  26.774  1.00  0.00     0.010 A 
ATOM     32  C   UNL A   1      39.278  25.647  28.784  1.00  0.00     0.010 A 
ATOM     33  C   UNL A   1      40.038  26.618  28.108  1.00  0.00    -0.014 A 
BRANCH  33  34
ATOM     34  C   UNL A   1      40.479  27.864  28.788  1.00  0.00     0.031 A 
ATOM     35  C   UNL A   1      41.907  28.025  29.232  1.00  0.00     0.074 A 
ATOM     36  C   UNL A   1      39.605  28.869  28.983  1.00  0.00     0.049 A 
ATOM     37  N   UNL A   1      42.468  29.014  29.884  1.00  0.00    -0.248 NA
ATOM     38  C   UNL A   1      42.827  26.928  28.898  1.00  0.00     0.031 C 
ATOM     39  C   UNL A   1      38.204  28.858  28.565  1.00  0.00     0.029 A 
ATOM     40  N   UNL A   1      39.766  30.094  29.583  1.00  0.00    -0.354 N 
ATOM     41  C   UNL A   1      43.799  28.654  30.051  1.00  0.00     0.074 A 
ATOM     42  C   UNL A   1      43.957  27.345  29.450  1.00  0.00     0.031 C 
ATOM     43  C   UNL A   1      37.633  30.022  28.915  1.00  0.00     0.029 A 
ATOM     44  C   UNL A   1      38.614  30.840  29.624  1.00  0.00     0.049 A 
ATOM     45  H   UNL A   1      40.625  30.408  29.947  1.00  0.00     0.167 HD
ATOM     46  C   UNL A   1      44.797  29.354  30.643  1.00  0.00     0.037 A 
ATOM     47  C   UNL A   1      38.367  32.037  30.194  1.00  0.00     0.037 A 
ATOM     48  C   UNL A   1      44.644  30.661  31.230  1.00  0.00     0.049 A 
ATOM     49  C   UNL A   1      39.475  32.760  30.908  1.00  0.00     0.074 A 
ATOM     50  C   UNL A   1      45.603  31.455  31.834  1.00  0.00     0.029 A 
ATOM     51  N   UNL A   1      43.450  31.366  31.290  1.00  0.00    -0.354 N 
ATOM     52  N   UNL A   1      40.732  32.415  31.053  1.00  0.00    -0.248 NA
ATOM     53  C   UNL A   1      39.130  34.040  31.543  1.00  0.00     0.031 C 
ATOM     54  C   UNL A   1      44.982  32.618  32.302  1.00  0.00     0.029 A 
ATOM     55  C   UNL A   1      43.645  32.572  31.943  1.00  0.00     0.049 A 
ATOM     56  H   UNL A   1      42.592  31.054  30.922  1.00  0.00     0.167 HD
ATOM     57  C   UNL A   1      41.330  33.442  31.771  1.00  0.00     0.074 A 
ATOM     58  C   UNL A   1      40.304  34.430  32.022  1.00  0.00     0.031 C 
ATOM     59  C   UNL A   1      42.617  33.554  32.183  1.00  0.00     0.037 A 
BRANCH  46  60
ATOM     60  C   UNL A   1      46.151  28.708  30.711  1.00  0.00     0.064 A 
ATOM     61  C   UNL A   1      46.522  27.879  31.781  1.00  0.00     0.173 A 
ATOM     62  C   UNL A   1      47.076  28.886  29.670  1.00  0.00     0.173 A 
ATOM     63  F   UNL A   1      45.678  27.683  32.805  1.00  0.00    -0.203 F 
ATOM     64  C   UNL A   1      47.777  27.277  31.820  1.00  0.00     0.198 A 
ATOM     65  C   UNL A   1      48.320  28.260  29.699  1.00  0.00     0.198 A 
ATOM     66  F   UNL A   1      46.770  29.663  28.619  1.00  0.00    -0.203 F 
ATOM     67  F   UNL A   1      48.126  26.527  32.874  1.00  0.00    -0.200 F 
ATOM     68  C   UNL A   1      48.672  27.463  30.777  1.00  0.00     0.200 A 
ATOM     69  F   UNL A   1      49.178  28.431  28.684  1.00  0.00    -0.200 F 
ATOM     70  F   UNL A   1      49.878  26.878  30.814  1.00  0.00    -0.200 F 
ENDBRANCH  46  60
BRANCH  47  71
ATOM     71  C   UNL A   1      37.002  32.619  30.125  1.00  0.00     0.064 A 
ATOM     72  C   UNL A   1      36.080  32.419  31.161  1.00  0.00     0.173 A 
ATOM     73  C   UNL A   1      36.590  33.379  29.021  1.00  0.00     0.173 A 
ATOM     74  F   UNL A   1      36.418  31.675  32.224  1.00  0.00    -0.203 F 
ATOM     75  C   UNL A   1      34.793  32.949  31.090  1.00  0.00     0.198 A 
ATOM     76  C   UNL A   1      35.313  33.933  28.963  1.00  0.00     0.198 A 
ATOM     77  F   UNL A   1      37.434  33.594  28.000  1.00  0.00    -0.203 F 
ATOM     78  F   UNL A   1      33.916  32.707  32.073  1.00  0.00    -0.200 F 
ATOM     79  C   UNL A   1      34.413  33.712  29.995  1.00  0.00     0.200 A 
ATOM     80  F   UNL A   1      34.954  34.677  27.908  1.00  0.00    -0.200 F 
ATOM     81  F   UNL A   1      33.178  34.225  29.929  1.00  0.00    -0.200 F 
ENDBRANCH  47  71
BRANCH  59  82
ATOM     82  C   UNL A   1      42.999  34.805  32.919  1.00  0.00     0.064 A 
ATOM     83  C   UNL A   1      43.002  34.864  34.320  1.00  0.00     0.173 A 
ATOM     84  C   UNL A   1      43.408  35.947  32.213  1.00  0.00     0.173 A 
ATOM     85  F   UNL A   1      42.603  33.805  35.041  1.00  0.00    -0.203 F 
ATOM     86  C   UNL A   1      43.378  36.028  34.987  1.00  0.00     0.198 A 
ATOM     87  C   UNL A   1      43.810  37.100  32.883  1.00  0.00     0.198 A 
ATOM     88  F   UNL A   1      43.429  35.941  30.871  1.00  0.00    -0.203 F 
ATOM     89  F   UNL A   1      43.331  36.076  36.325  1.00  0.00    -0.200 F 
ATOM     90  C   UNL A   1      43.789  37.141  34.269  1.00  0.00     0.200 A 
ATOM     91  F   UNL A   1      44.218  38.170  32.187  1.00  0.00    -0.200 F 
ATOM     92  F   UNL A   1      44.158  38.257  34.912  1.00  0.00    -0.200 F 
ENDBRANCH  59  82
ENDBRANCH  33  34
ENDBRANCH  26  28
ENDBRANCH  25  26
ENDBRANCH  24  25
ENDBRANCH   1  24
TORSDOF 16
ENDMDL
MODEL 3
REMARK VINA RESULT:     -10.6      4.312     11.627
REMARK SMILES CC[C@H](C(=O)NCc1ccc(C(=O)OCCOC(=O)c2ccc(-c3c4nc(c(-c5c(F)c(F)c(F)c(F)c5F)c5ccc([nH]5)c(-c5c(F)c(F)c(F)c(F)c5F)c5nc(c(-c6c(F)c(F)c(F)c(F)c6F)c6ccc3[nH]6)C=C5)C=C4)cc2)o1)c1ccccc1
REMARK SMILES IDX 15 1 14 2 12 3 13 4 11 5 8 6 9 7 83 8 10 9 7 10 6 11 4 12
REMARK SMILES IDX 5 13 3 15 2 16 1 17 84 18 85 19 89 20 86 21 88 22 87 23
REMARK SMILES IDX 16 24 17 25 18 26 19 27 20 28 21 29 82 30 22 31 81 32 23 33
REMARK SMILES IDX 24 34 25 35 75 36 26 37 80 38 74 39 76 40 27 41 79 42 73 43
REMARK SMILES IDX 72 44 28 46 60 47 40 48 59 49 41 50 44 51 58 52 77 53 42 54
REMARK SMILES IDX 43 55 57 57 78 58 45 59 29 60 30 61 38 62 31 63 32 64 36 65
REMARK SMILES IDX 39 66 33 67 34 68 37 69 35 70 61 71 62 72 70 73 63 74 64 75
REMARK SMILES IDX 68 76 71 77 65 78 66 79 69 80 67 81 46 82 47 83 55 84 48 85
REMARK SMILES IDX 49 86 53 87 56 88 50 89 51 90 54 91 52 92
REMARK H PARENT 6 14 76 45 44 56
REMARK Flexibility Score: inf
ROOT
ATOM      1  C   UNL A   1      33.830  34.203  28.404  1.00  0.00     0.275 C 
ENDROOT
BRANCH   1   2
ATOM      2  O   UNL A   1      33.308  34.507  29.712  1.00  0.00    -0.456 OA
BRANCH   2   3
ATOM      3  C   UNL A   1      32.917  35.802  29.894  1.00  0.00     0.374 C 
ATOM      4  O   UNL A   1      32.270  36.449  29.077  1.00  0.00    -0.242 OA
BRANCH   3   5
ATOM      5  C   UNL A   1      33.258  36.260  31.221  1.00  0.00     0.211 A 
ATOM      6  C   UNL A   1      34.047  35.871  33.249  1.00  0.00     0.124 A 
ATOM      7  C   UNL A   1      33.999  37.243  33.112  1.00  0.00     0.048 A 
ATOM      8  O   UNL A   1      33.510  35.285  32.146  1.00  0.00    -0.452 OA
ATOM      9  C   UNL A   1      33.504  37.493  31.797  1.00  0.00     0.058 A 
BRANCH   6  10
ATOM     10  C   UNL A   1      34.783  34.930  34.120  1.00  0.00     0.191 C 
BRANCH  10  11
ATOM     11  N   UNL A   1      35.059  33.628  33.590  1.00  0.00    -0.348 N 
ATOM     12  C   UNL A   1      36.330  33.111  33.445  1.00  0.00     0.227 C 
ATOM     13  O   UNL A   1      36.438  31.897  33.625  1.00  0.00    -0.274 OA
ATOM     14  H   UNL A   1      34.297  33.070  33.312  1.00  0.00     0.163 HD
BRANCH  12  15
ATOM     15  C   UNL A   1      37.522  34.038  33.033  1.00  0.00     0.108 C 
BRANCH  15  16
ATOM     16  C   UNL A   1      38.881  33.727  33.740  1.00  0.00     0.015 C 
ATOM     17  C   UNL A   1      39.295  34.376  35.041  1.00  0.00     0.005 C 
ENDBRANCH  15  16
BRANCH  15  18
ATOM     18  C   UNL A   1      37.820  34.096  31.499  1.00  0.00    -0.036 A 
ATOM     19  C   UNL A   1      37.028  33.463  30.529  1.00  0.00     0.004 A 
ATOM     20  C   UNL A   1      38.980  34.756  31.029  1.00  0.00     0.004 A 
ATOM     21  C   UNL A   1      37.457  33.355  29.197  1.00  0.00     0.000 A 
ATOM     22  C   UNL A   1      39.416  34.638  29.707  1.00  0.00     0.000 A 
ATOM     23  C   UNL A   1      38.666  33.911  28.794  1.00  0.00     0.000 A 
ENDBRANCH  15  18
ENDBRANCH  12  15
ENDBRANCH  10  11
ENDBRANCH   6  10
ENDBRANCH   3   5
ENDBRANCH   2   3
ENDBRANCH   1   2
BRANCH   1  24
ATOM     24  C   UNL A   1      33.540  32.752  27.992  1.00  0.00     0.275 C 
BRANCH  24  25
ATOM     25  O   UNL A   1      34.344  31.796  28.711  1.00  0.00    -0.458 OA
BRANCH  25  26
ATOM     26  C   UNL A   1      34.533  30.608  28.089  1.00  0.00     0.338 C 
ATOM     27  O   UNL A   1      33.750  30.036  27.349  1.00  0.00    -0.246 OA
BRANCH  26  28
ATOM     28  C   UNL A   1      35.898  30.110  28.342  1.00  0.00     0.060 A 
ATOM     29  C   UNL A   1      36.193  29.642  29.625  1.00  0.00     0.016 A 
ATOM     30  C   UNL A   1      36.900  30.177  27.371  1.00  0.00     0.016 A 
ATOM     31  C   UNL A   1      37.491  29.249  29.945  1.00  0.00     0.010 A 
ATOM     32  C   UNL A   1      38.205  29.777  27.694  1.00  0.00     0.010 A 
ATOM     33  C   UNL A   1      38.514  29.324  28.989  1.00  0.00    -0.014 A 
BRANCH  33  34
ATOM     34  C   UNL A   1      39.903  28.950  29.365  1.00  0.00     0.031 A 
ATOM     35  C   UNL A   1      40.716  29.842  30.262  1.00  0.00     0.074 A 
ATOM     36  C   UNL A   1      40.430  27.792  28.924  1.00  0.00     0.049 A 
ATOM     37  N   UNL A   1      41.958  29.711  30.659  1.00  0.00    -0.248 NA
ATOM     38  C   UNL A   1      40.041  31.039  30.785  1.00  0.00     0.031 C 
ATOM     39  C   UNL A   1      39.736  26.819  28.081  1.00  0.00     0.029 A 
ATOM     40  N   UNL A   1      41.671  27.238  29.123  1.00  0.00    -0.354 N 
ATOM     41  C   UNL A   1      42.219  30.813  31.463  1.00  0.00     0.074 A 
ATOM     42  C   UNL A   1      41.012  31.614  31.481  1.00  0.00     0.031 C 
ATOM     43  C   UNL A   1      40.557  25.785  27.840  1.00  0.00     0.029 A 
ATOM     44  C   UNL A   1      41.850  26.044  28.469  1.00  0.00     0.049 A 
ATOM     45  H   UNL A   1      42.365  27.656  29.682  1.00  0.00     0.167 HD
ATOM     46  C   UNL A   1      43.357  31.123  32.131  1.00  0.00     0.037 A 
ATOM     47  C   UNL A   1      42.941  25.260  28.364  1.00  0.00     0.037 A 
ATOM     48  C   UNL A   1      44.554  30.321  32.125  1.00  0.00     0.049 A 
ATOM     49  C   UNL A   1      44.213  25.664  29.056  1.00  0.00     0.074 A 
ATOM     50  C   UNL A   1      45.748  30.546  32.787  1.00  0.00     0.029 A 
ATOM     51  N   UNL A   1      44.710  29.139  31.415  1.00  0.00    -0.354 N 
ATOM     52  N   UNL A   1      44.448  26.703  29.820  1.00  0.00    -0.248 NA
ATOM     53  C   UNL A   1      45.378  24.787  28.867  1.00  0.00     0.031 C 
ATOM     54  C   UNL A   1      46.643  29.527  32.442  1.00  0.00     0.029 A 
ATOM     55  C   UNL A   1      45.988  28.638  31.604  1.00  0.00     0.049 A 
ATOM     56  H   UNL A   1      44.014  28.719  30.859  1.00  0.00     0.167 HD
ATOM     57  C   UNL A   1      45.772  26.593  30.222  1.00  0.00     0.074 A 
ATOM     58  C   UNL A   1      46.289  25.379  29.628  1.00  0.00     0.031 C 
ATOM     59  C   UNL A   1      46.492  27.424  31.013  1.00  0.00     0.037 A 
BRANCH  46  60
ATOM     60  C   UNL A   1      43.375  32.406  32.912  1.00  0.00     0.064 A 
ATOM     61  C   UNL A   1      43.793  33.615  32.338  1.00  0.00     0.173 A 
ATOM     62  C   UNL A   1      42.928  32.433  34.243  1.00  0.00     0.173 A 
ATOM     63  F   UNL A   1      44.238  33.642  31.072  1.00  0.00    -0.203 F 
ATOM     64  C   UNL A   1      43.789  34.798  33.073  1.00  0.00     0.198 A 
ATOM     65  C   UNL A   1      42.899  33.622  34.967  1.00  0.00     0.198 A 
ATOM     66  F   UNL A   1      42.510  31.306  34.839  1.00  0.00    -0.203 F 
ATOM     67  F   UNL A   1      44.236  35.932  32.517  1.00  0.00    -0.200 F 
ATOM     68  C   UNL A   1      43.337  34.802  34.384  1.00  0.00     0.200 A 
ATOM     69  F   UNL A   1      42.450  33.626  36.229  1.00  0.00    -0.200 F 
ATOM     70  F   UNL A   1      43.329  35.942  35.089  1.00  0.00    -0.200 F 
ENDBRANCH  46  60
BRANCH  47  71
ATOM     71  C   UNL A   1      42.880  24.016  27.553  1.00  0.00     0.064 A 
ATOM     72  C   UNL A   1      42.479  22.801  28.126  1.00  0.00     0.173 A 
ATOM     73  C   UNL A   1      43.225  24.016  26.195  1.00  0.00     0.173 A 
ATOM     74  F   UNL A   1      42.167  22.746  29.429  1.00  0.00    -0.203 F 
ATOM     75  C   UNL A   1      42.439  21.630  27.371  1.00  0.00     0.198 A 
ATOM     76  C   UNL A   1      43.156  22.851  25.433  1.00  0.00     0.198 A 
ATOM     77  F   UNL A   1      43.620  25.152  25.601  1.00  0.00    -0.203 F 
ATOM     78  F   UNL A   1      42.095  20.473  27.953  1.00  0.00    -0.200 F 
ATOM     79  C   UNL A   1      42.769  21.657  26.025  1.00  0.00     0.200 A 
ATOM     80  F   UNL A   1      43.468  22.884  24.131  1.00  0.00    -0.200 F 
ATOM     81  F   UNL A   1      42.725  20.532  25.299  1.00  0.00    -0.200 F 
ENDBRANCH  47  71
BRANCH  59  82
ATOM     82  C   UNL A   1      47.910  27.033  31.315  1.00  0.00     0.064 A 
ATOM     83  C   UNL A   1      48.987  27.535  30.570  1.00  0.00     0.173 A 
ATOM     84  C   UNL A   1      48.197  26.177  32.389  1.00  0.00     0.173 A 
ATOM     85  F   UNL A   1      48.765  28.343  29.523  1.00  0.00    -0.203 F 
ATOM     86  C   UNL A   1      50.298  27.177  30.876  1.00  0.00     0.198 A 
ATOM     87  C   UNL A   1      49.510  25.843  32.710  1.00  0.00     0.198 A 
ATOM     88  F   UNL A   1      47.203  25.674  33.136  1.00  0.00    -0.203 F 
ATOM     89  F   UNL A   1      51.309  27.633  30.124  1.00  0.00    -0.200 F 
ATOM     90  C   UNL A   1      50.559  26.338  31.949  1.00  0.00     0.200 A 
ATOM     91  F   UNL A   1      49.761  25.041  33.754  1.00  0.00    -0.200 F 
ATOM     92  F   UNL A   1      51.821  26.000  32.247  1.00  0.00    -0.200 F 
ENDBRANCH  59  82
ENDBRANCH  33  34
ENDBRANCH  26  28
ENDBRANCH  25  26
ENDBRANCH  24  25
ENDBRANCH   1  24
TORSDOF 16
ENDMDL
