MODEL 1
REMARK VINA RESULT:     -11.2      0.000      0.000
REMARK SMILES CCc1cc(C[NH+]2CCC(CC(=O)OCCOC(=O)c3ccc(-c4c5nc(c(-c6c(F)c(F)c(F)c(F)c6F)c6ccc([nH]6)c(-c6c(F)c(F)c(F)c(F)c6F)c6nc(c(-c7c(F)c(F)c(F)c(F)c7F)c7ccc4[nH]7)C=C6)C=C5)cc3)CC2)n(C)n1
REMARK SMILES IDX 15 1 14 2 12 3 13 4 11 5 10 6 7 7 8 8 84 9 9 11 83 12 6 13
REMARK SMILES IDX 5 14 3 15 4 16 87 17 85 18 86 19 2 20 1 21 16 22 17 23 18 24
REMARK SMILES IDX 19 25 20 26 21 27 82 28 22 29 81 30 23 31 24 32 25 33 75 34
REMARK SMILES IDX 26 35 80 36 74 37 76 38 27 39 79 40 73 41 72 42 28 44 60 45
REMARK SMILES IDX 40 46 59 47 41 48 44 49 58 50 77 51 42 52 43 53 57 55 78 56
REMARK SMILES IDX 45 57 29 58 30 59 38 60 31 61 32 62 36 63 39 64 33 65 34 66
REMARK SMILES IDX 37 67 35 68 61 69 62 70 70 71 63 72 64 73 68 74 71 75 65 76
REMARK SMILES IDX 66 77 69 78 67 79 46 80 47 81 55 82 48 83 49 84 53 85 56 86
REMARK SMILES IDX 50 87 51 88 54 89 52 90
REMARK H PARENT 7 10 76 43 44 54
REMARK Flexibility Score: inf
ROOT
ATOM      1  C   UNL A   1      31.361  29.266  25.017  1.00  0.00     0.274 C 
ENDROOT
BRANCH   1   2
ATOM      2  O   UNL A   1      30.763  29.591  23.749  1.00  0.00    -0.462 OA
BRANCH   2   3
ATOM      3  C   UNL A   1      30.165  28.580  23.074  1.00  0.00     0.306 C 
ATOM      4  O   UNL A   1      29.566  28.704  22.012  1.00  0.00    -0.252 OA
BRANCH   3   5
ATOM      5  C   UNL A   1      30.249  27.262  23.813  1.00  0.00     0.126 C 
BRANCH   5   6
ATOM      6  C   UNL A   1      31.040  26.151  23.104  1.00  0.00     0.011 C 
ATOM      7  N   UNL A   1      33.098  24.059  23.265  1.00  0.00    -0.330 N 
ATOM      8  C   UNL A   1      33.346  25.275  22.485  1.00  0.00     0.262 C 
ATOM      9  C   UNL A   1      31.679  23.693  23.226  1.00  0.00     0.262 C 
ATOM     10  H   UNL A   1      33.327  24.271  24.235  1.00  0.00     0.348 HD
ATOM     11  C   UNL A   1      32.545  26.452  23.046  1.00  0.00     0.066 C 
ATOM     12  C   UNL A   1      30.815  24.808  23.820  1.00  0.00     0.066 C 
BRANCH   7  13
ATOM     13  C   UNL A   1      33.993  22.947  22.906  1.00  0.00     0.319 C 
BRANCH  13  14
ATOM     14  C   UNL A   1      35.023  22.620  23.935  1.00  0.00     0.093 A 
ATOM     15  C   UNL A   1      36.820  22.539  25.244  1.00  0.00     0.063 A 
ATOM     16  C   UNL A   1      36.363  22.952  23.976  1.00  0.00     0.055 A 
ATOM     17  N   UNL A   1      35.865  21.884  25.912  1.00  0.00    -0.178 NA
ATOM     18  N   UNL A   1      34.796  21.916  25.091  1.00  0.00    -0.267 N 
ATOM     19  C   UNL A   1      33.590  21.265  25.546  1.00  0.00     0.174 C 
BRANCH  15  20
ATOM     20  C   UNL A   1      38.155  22.836  25.844  1.00  0.00     0.055 C 
ATOM     21  C   UNL A   1      38.258  24.171  26.562  1.00  0.00     0.011 C 
ENDBRANCH  15  20
ENDBRANCH  13  14
ENDBRANCH   7  13
ENDBRANCH   5   6
ENDBRANCH   3   5
ENDBRANCH   2   3
ENDBRANCH   1   2
BRANCH   1  22
ATOM     22  C   UNL A   1      31.677  30.522  25.832  1.00  0.00     0.275 C 
BRANCH  22  23
ATOM     23  O   UNL A   1      33.069  30.573  26.193  1.00  0.00    -0.458 OA
BRANCH  23  24
ATOM     24  C   UNL A   1      33.402  31.543  27.077  1.00  0.00     0.338 C 
ATOM     25  O   UNL A   1      32.746  32.522  27.384  1.00  0.00    -0.246 OA
BRANCH  24  26
ATOM     26  C   UNL A   1      34.667  31.187  27.737  1.00  0.00     0.060 A 
ATOM     27  C   UNL A   1      34.816  29.884  28.222  1.00  0.00     0.016 A 
ATOM     28  C   UNL A   1      35.671  32.138  27.930  1.00  0.00     0.016 A 
ATOM     29  C   UNL A   1      35.975  29.527  28.908  1.00  0.00     0.010 A 
ATOM     30  C   UNL A   1      36.831  31.779  28.620  1.00  0.00     0.010 A 
ATOM     31  C   UNL A   1      36.986  30.474  29.122  1.00  0.00    -0.014 A 
BRANCH  31  32
ATOM     32  C   UNL A   1      38.185  30.111  29.912  1.00  0.00     0.031 A 
ATOM     33  C   UNL A   1      39.194  29.157  29.342  1.00  0.00     0.074 A 
ATOM     34  C   UNL A   1      38.373  30.644  31.132  1.00  0.00     0.049 A 
ATOM     35  N   UNL A   1      40.277  28.668  29.892  1.00  0.00    -0.248 NA
ATOM     36  C   UNL A   1      38.950  28.689  27.970  1.00  0.00     0.031 C 
ATOM     37  C   UNL A   1      37.481  31.606  31.778  1.00  0.00     0.029 A 
ATOM     38  N   UNL A   1      39.375  30.446  32.048  1.00  0.00    -0.354 N 
ATOM     39  C   UNL A   1      40.839  27.831  28.939  1.00  0.00     0.074 A 
ATOM     40  C   UNL A   1      39.965  27.857  27.784  1.00  0.00     0.031 C 
ATOM     41  C   UNL A   1      37.976  31.916  32.988  1.00  0.00     0.029 A 
ATOM     42  C   UNL A   1      39.198  31.147  33.215  1.00  0.00     0.049 A 
ATOM     43  H   UNL A   1      40.148  29.858  31.885  1.00  0.00     0.167 HD
ATOM     44  C   UNL A   1      41.983  27.109  29.019  1.00  0.00     0.037 A 
ATOM     45  C   UNL A   1      39.929  31.151  34.346  1.00  0.00     0.037 A 
ATOM     46  C   UNL A   1      42.852  27.088  30.167  1.00  0.00     0.049 A 
ATOM     47  C   UNL A   1      41.163  30.295  34.431  1.00  0.00     0.074 A 
ATOM     48  C   UNL A   1      44.040  26.396  30.339  1.00  0.00     0.029 A 
ATOM     49  N   UNL A   1      42.624  27.788  31.343  1.00  0.00    -0.354 N 
ATOM     50  N   UNL A   1      41.691  29.512  33.523  1.00  0.00    -0.248 NA
ATOM     51  C   UNL A   1      41.900  30.321  35.703  1.00  0.00     0.031 C 
ATOM     52  C   UNL A   1      44.511  26.650  31.632  1.00  0.00     0.029 A 
ATOM     53  C   UNL A   1      43.639  27.531  32.250  1.00  0.00     0.049 A 
ATOM     54  H   UNL A   1      41.855  28.380  31.507  1.00  0.00     0.167 HD
ATOM     55  C   UNL A   1      42.832  28.972  34.101  1.00  0.00     0.074 A 
ATOM     56  C   UNL A   1      42.926  29.525  35.437  1.00  0.00     0.031 C 
ATOM     57  C   UNL A   1      43.721  28.095  33.574  1.00  0.00     0.037 A 
BRANCH  44  58
ATOM     58  C   UNL A   1      42.349  26.264  27.836  1.00  0.00     0.064 A 
ATOM     59  C   UNL A   1      43.282  26.698  26.884  1.00  0.00     0.173 A 
ATOM     60  C   UNL A   1      41.783  24.991  27.670  1.00  0.00     0.173 A 
ATOM     61  F   UNL A   1      43.842  27.912  26.991  1.00  0.00    -0.203 F 
ATOM     62  C   UNL A   1      43.619  25.897  25.795  1.00  0.00     0.198 A 
ATOM     63  C   UNL A   1      42.140  24.183  26.593  1.00  0.00     0.198 A 
ATOM     64  F   UNL A   1      40.888  24.528  28.556  1.00  0.00    -0.203 F 
ATOM     65  F   UNL A   1      44.481  26.349  24.874  1.00  0.00    -0.200 F 
ATOM     66  C   UNL A   1      43.052  24.639  25.654  1.00  0.00     0.200 A 
ATOM     67  F   UNL A   1      41.598  22.964  26.464  1.00  0.00    -0.200 F 
ATOM     68  F   UNL A   1      43.379  23.868  24.608  1.00  0.00    -0.200 F 
ENDBRANCH  44  58
BRANCH  45  69
ATOM     69  C   UNL A   1      39.506  31.992  35.496  1.00  0.00     0.064 A 
ATOM     70  C   UNL A   1      38.590  31.511  36.440  1.00  0.00     0.173 A 
ATOM     71  C   UNL A   1      40.002  33.293  35.666  1.00  0.00     0.173 A 
ATOM     72  F   UNL A   1      38.067  30.285  36.302  1.00  0.00    -0.203 F 
ATOM     73  C   UNL A   1      38.177  32.306  37.509  1.00  0.00     0.198 A 
ATOM     74  C   UNL A   1      39.608  34.076  36.749  1.00  0.00     0.198 A 
ATOM     75  F   UNL A   1      40.877  33.799  34.786  1.00  0.00    -0.203 F 
ATOM     76  F   UNL A   1      37.269  31.838  38.376  1.00  0.00    -0.200 F 
ATOM     77  C   UNL A   1      38.691  33.584  37.665  1.00  0.00     0.200 A 
ATOM     78  F   UNL A   1      40.113  35.307  36.901  1.00  0.00    -0.200 F 
ATOM     79  F   UNL A   1      38.294  34.346  38.694  1.00  0.00    -0.200 F 
ENDBRANCH  45  69
BRANCH  57  80
ATOM     80  C   UNL A   1      44.889  27.705  34.429  1.00  0.00     0.064 A 
ATOM     81  C   UNL A   1      44.846  26.578  35.263  1.00  0.00     0.173 A 
ATOM     82  C   UNL A   1      46.079  28.448  34.389  1.00  0.00     0.173 A 
ATOM     83  F   UNL A   1      43.725  25.845  35.348  1.00  0.00    -0.203 F 
ATOM     84  C   UNL A   1      45.943  26.222  36.043  1.00  0.00     0.198 A 
ATOM     85  C   UNL A   1      47.182  28.075  35.150  1.00  0.00     0.198 A 
ATOM     86  F   UNL A   1      46.173  29.532  33.604  1.00  0.00    -0.203 F 
ATOM     87  F   UNL A   1      45.865  25.166  36.864  1.00  0.00    -0.200 F 
ATOM     88  C   UNL A   1      47.112  26.967  35.981  1.00  0.00     0.200 A 
ATOM     89  F   UNL A   1      48.315  28.790  35.082  1.00  0.00    -0.200 F 
ATOM     90  F   UNL A   1      48.169  26.620  36.729  1.00  0.00    -0.200 F 
ENDBRANCH  57  80
ENDBRANCH  31  32
ENDBRANCH  24  26
ENDBRANCH  23  24
ENDBRANCH  22  23
ENDBRANCH   1  22
TORSDOF 15
ENDMDL
MODEL 2
REMARK VINA RESULT:     -11.1      4.736      9.779
REMARK SMILES CCc1cc(C[NH+]2CCC(CC(=O)OCCOC(=O)c3ccc(-c4c5nc(c(-c6c(F)c(F)c(F)c(F)c6F)c6ccc([nH]6)c(-c6c(F)c(F)c(F)c(F)c6F)c6nc(c(-c7c(F)c(F)c(F)c(F)c7F)c7ccc4[nH]7)C=C6)C=C5)cc3)CC2)n(C)n1
REMARK SMILES IDX 15 1 14 2 12 3 13 4 11 5 10 6 7 7 8 8 84 9 9 11 83 12 6 13
REMARK SMILES IDX 5 14 3 15 4 16 87 17 85 18 86 19 2 20 1 21 16 22 17 23 18 24
REMARK SMILES IDX 19 25 20 26 21 27 82 28 22 29 81 30 23 31 24 32 25 33 75 34
REMARK SMILES IDX 26 35 80 36 74 37 76 38 27 39 79 40 73 41 72 42 28 44 60 45
REMARK SMILES IDX 40 46 59 47 41 48 44 49 58 50 77 51 42 52 43 53 57 55 78 56
REMARK SMILES IDX 45 57 29 58 30 59 38 60 31 61 32 62 36 63 39 64 33 65 34 66
REMARK SMILES IDX 37 67 35 68 61 69 62 70 70 71 63 72 64 73 68 74 71 75 65 76
REMARK SMILES IDX 66 77 69 78 67 79 46 80 47 81 55 82 48 83 49 84 53 85 56 86
REMARK SMILES IDX 50 87 51 88 54 89 52 90
REMARK H PARENT 7 10 76 43 44 54
REMARK Flexibility Score: inf
ROOT
ATOM      1  C   UNL A   1      35.387  21.082  24.799  1.00  0.00     0.274 C 
ENDROOT
BRANCH   1   2
ATOM      2  O   UNL A   1      34.492  20.021  25.179  1.00  0.00    -0.462 OA
BRANCH   2   3
ATOM      3  C   UNL A   1      33.245  20.378  25.572  1.00  0.00     0.306 C 
ATOM      4  O   UNL A   1      32.211  19.830  25.207  1.00  0.00    -0.252 OA
BRANCH   3   5
ATOM      5  C   UNL A   1      33.251  21.595  26.473  1.00  0.00     0.126 C 
BRANCH   5   6
ATOM      6  C   UNL A   1      32.479  22.815  25.946  1.00  0.00     0.011 C 
ATOM      7  N   UNL A   1      31.450  25.523  26.441  1.00  0.00    -0.330 N 
ATOM      8  C   UNL A   1      30.522  24.394  26.327  1.00  0.00     0.262 C 
ATOM      9  C   UNL A   1      32.621  25.328  25.581  1.00  0.00     0.262 C 
ATOM     10  H   UNL A   1      31.784  25.541  27.405  1.00  0.00     0.348 HD
ATOM     11  C   UNL A   1      31.200  23.089  26.751  1.00  0.00     0.066 C 
ATOM     12  C   UNL A   1      33.381  24.061  25.980  1.00  0.00     0.066 C 
BRANCH   7  13
ATOM     13  C   UNL A   1      30.800  26.830  26.248  1.00  0.00     0.319 C 
BRANCH  13  14
ATOM     14  C   UNL A   1      31.723  28.000  26.314  1.00  0.00     0.093 A 
ATOM     15  C   UNL A   1      33.260  29.512  26.863  1.00  0.00     0.063 A 
ATOM     16  C   UNL A   1      32.408  28.522  27.394  1.00  0.00     0.055 A 
ATOM     17  N   UNL A   1      33.044  29.686  25.556  1.00  0.00    -0.178 NA
ATOM     18  N   UNL A   1      32.089  28.784  25.249  1.00  0.00    -0.267 N 
ATOM     19  C   UNL A   1      31.630  28.743  23.880  1.00  0.00     0.174 C 
BRANCH  15  20
ATOM     20  C   UNL A   1      34.335  30.242  27.599  1.00  0.00     0.055 C 
ATOM     21  C   UNL A   1      35.723  29.634  27.488  1.00  0.00     0.011 C 
ENDBRANCH  15  20
ENDBRANCH  13  14
ENDBRANCH   7  13
ENDBRANCH   5   6
ENDBRANCH   3   5
ENDBRANCH   2   3
ENDBRANCH   1   2
BRANCH   1  22
ATOM     22  C   UNL A   1      36.848  20.706  25.050  1.00  0.00     0.275 C 
BRANCH  22  23
ATOM     23  O   UNL A   1      37.533  21.736  25.787  1.00  0.00    -0.458 OA
BRANCH  23  24
ATOM     24  C   UNL A   1      38.813  21.453  26.123  1.00  0.00     0.338 C 
ATOM     25  O   UNL A   1      39.397  20.393  25.989  1.00  0.00    -0.246 OA
BRANCH  24  26
ATOM     26  C   UNL A   1      39.477  22.681  26.586  1.00  0.00     0.060 A 
ATOM     27  C   UNL A   1      39.068  23.902  26.039  1.00  0.00     0.016 A 
ATOM     28  C   UNL A   1      40.530  22.628  27.502  1.00  0.00     0.016 A 
ATOM     29  C   UNL A   1      39.716  25.079  26.408  1.00  0.00     0.010 A 
ATOM     30  C   UNL A   1      41.179  23.809  27.868  1.00  0.00     0.010 A 
ATOM     31  C   UNL A   1      40.783  25.040  27.315  1.00  0.00    -0.014 A 
BRANCH  31  32
ATOM     32  C   UNL A   1      41.515  26.284  27.650  1.00  0.00     0.031 A 
ATOM     33  C   UNL A   1      40.830  27.365  28.434  1.00  0.00     0.074 A 
ATOM     34  C   UNL A   1      42.793  26.438  27.260  1.00  0.00     0.049 A 
ATOM     35  N   UNL A   1      41.274  28.548  28.779  1.00  0.00    -0.248 NA
ATOM     36  C   UNL A   1      39.462  27.077  28.890  1.00  0.00     0.031 C 
ATOM     37  C   UNL A   1      43.575  25.446  26.524  1.00  0.00     0.029 A 
ATOM     38  N   UNL A   1      43.657  27.491  27.427  1.00  0.00    -0.354 N 
ATOM     39  C   UNL A   1      40.239  29.147  29.484  1.00  0.00     0.074 A 
ATOM     40  C   UNL A   1      39.136  28.209  29.497  1.00  0.00     0.031 C 
ATOM     41  C   UNL A   1      44.804  25.938  26.300  1.00  0.00     0.029 A 
ATOM     42  C   UNL A   1      44.884  27.290  26.847  1.00  0.00     0.049 A 
ATOM     43  H   UNL A   1      43.419  28.311  27.916  1.00  0.00     0.167 HD
ATOM     44  C   UNL A   1      40.215  30.368  30.071  1.00  0.00     0.037 A 
ATOM     45  C   UNL A   1      45.945  28.115  26.750  1.00  0.00     0.037 A 
ATOM     46  C   UNL A   1      41.314  31.297  30.060  1.00  0.00     0.049 A 
ATOM     47  C   UNL A   1      45.871  29.489  27.359  1.00  0.00     0.074 A 
ATOM     48  C   UNL A   1      41.390  32.555  30.637  1.00  0.00     0.029 A 
ATOM     49  N   UNL A   1      42.533  31.072  29.436  1.00  0.00    -0.354 N 
ATOM     50  N   UNL A   1      44.892  30.045  28.029  1.00  0.00    -0.248 NA
ATOM     51  C   UNL A   1      47.049  30.351  27.193  1.00  0.00     0.031 C 
ATOM     52  C   UNL A   1      42.640  33.103  30.331  1.00  0.00     0.029 A 
ATOM     53  C   UNL A   1      43.359  32.173  29.599  1.00  0.00     0.049 A 
ATOM     54  H   UNL A   1      42.774  30.250  28.951  1.00  0.00     0.167 HD
ATOM     55  C   UNL A   1      45.342  31.309  28.386  1.00  0.00     0.074 A 
ATOM     56  C   UNL A   1      46.689  31.434  27.866  1.00  0.00     0.031 C 
ATOM     57  C   UNL A   1      44.699  32.279  29.080  1.00  0.00     0.037 A 
BRANCH  44  58
ATOM     58  C   UNL A   1      38.947  30.778  30.757  1.00  0.00     0.064 A 
ATOM     59  C   UNL A   1      38.770  30.607  32.138  1.00  0.00     0.173 A 
ATOM     60  C   UNL A   1      37.907  31.378  30.030  1.00  0.00     0.173 A 
ATOM     61  F   UNL A   1      39.729  30.027  32.875  1.00  0.00    -0.203 F 
ATOM     62  C   UNL A   1      37.589  31.001  32.762  1.00  0.00     0.198 A 
ATOM     63  C   UNL A   1      36.737  31.792  30.662  1.00  0.00     0.198 A 
ATOM     64  F   UNL A   1      38.029  31.567  28.708  1.00  0.00    -0.203 F 
ATOM     65  F   UNL A   1      37.425  30.790  34.076  1.00  0.00    -0.200 F 
ATOM     66  C   UNL A   1      36.576  31.598  32.026  1.00  0.00     0.200 A 
ATOM     67  F   UNL A   1      35.764  32.378  29.950  1.00  0.00    -0.200 F 
ATOM     68  F   UNL A   1      35.442  31.980  32.628  1.00  0.00    -0.200 F 
ENDBRANCH  44  58
BRANCH  45  69
ATOM     69  C   UNL A   1      47.168  27.664  26.039  1.00  0.00     0.064 A 
ATOM     70  C   UNL A   1      47.260  27.743  24.643  1.00  0.00     0.173 A 
ATOM     71  C   UNL A   1      48.264  27.138  26.739  1.00  0.00     0.173 A 
ATOM     72  F   UNL A   1      46.226  28.212  23.930  1.00  0.00    -0.203 F 
ATOM     73  C   UNL A   1      48.399  27.302  23.972  1.00  0.00     0.198 A 
ATOM     74  C   UNL A   1      49.412  26.722  26.069  1.00  0.00     0.198 A 
ATOM     75  F   UNL A   1      48.222  27.038  28.075  1.00  0.00    -0.203 F 
ATOM     76  F   UNL A   1      48.446  27.350  22.633  1.00  0.00    -0.200 F 
ATOM     77  C   UNL A   1      49.476  26.797  24.686  1.00  0.00     0.200 A 
ATOM     78  F   UNL A   1      50.453  26.243  26.762  1.00  0.00    -0.200 F 
ATOM     79  F   UNL A   1      50.571  26.376  24.040  1.00  0.00    -0.200 F 
ENDBRANCH  45  69
BRANCH  57  80
ATOM     80  C   UNL A   1      45.453  33.548  29.345  1.00  0.00     0.064 A 
ATOM     81  C   UNL A   1      45.381  34.642  28.470  1.00  0.00     0.173 A 
ATOM     82  C   UNL A   1      46.229  33.683  30.507  1.00  0.00     0.173 A 
ATOM     83  F   UNL A   1      44.665  34.555  27.339  1.00  0.00    -0.203 F 
ATOM     84  C   UNL A   1      46.079  35.817  28.737  1.00  0.00     0.198 A 
ATOM     85  C   UNL A   1      46.904  34.868  30.782  1.00  0.00     0.198 A 
ATOM     86  F   UNL A   1      46.326  32.668  31.377  1.00  0.00    -0.203 F 
ATOM     87  F   UNL A   1      46.031  36.835  27.866  1.00  0.00    -0.200 F 
ATOM     88  C   UNL A   1      46.834  35.932  29.895  1.00  0.00     0.200 A 
ATOM     89  F   UNL A   1      47.626  34.981  31.907  1.00  0.00    -0.200 F 
ATOM     90  F   UNL A   1      47.500  37.066  30.152  1.00  0.00    -0.200 F 
ENDBRANCH  57  80
ENDBRANCH  31  32
ENDBRANCH  24  26
ENDBRANCH  23  24
ENDBRANCH  22  23
ENDBRANCH   1  22
TORSDOF 15
ENDMDL
MODEL 3
REMARK VINA RESULT:     -11.0      4.132      8.709
REMARK SMILES CCc1cc(C[NH+]2CCC(CC(=O)OCCOC(=O)c3ccc(-c4c5nc(c(-c6c(F)c(F)c(F)c(F)c6F)c6ccc([nH]6)c(-c6c(F)c(F)c(F)c(F)c6F)c6nc(c(-c7c(F)c(F)c(F)c(F)c7F)c7ccc4[nH]7)C=C6)C=C5)cc3)CC2)n(C)n1
REMARK SMILES IDX 15 1 14 2 12 3 13 4 11 5 10 6 7 7 8 8 84 9 9 11 83 12 6 13
REMARK SMILES IDX 5 14 3 15 4 16 87 17 85 18 86 19 2 20 1 21 16 22 17 23 18 24
REMARK SMILES IDX 19 25 20 26 21 27 82 28 22 29 81 30 23 31 24 32 25 33 75 34
REMARK SMILES IDX 26 35 80 36 74 37 76 38 27 39 79 40 73 41 72 42 28 44 60 45
REMARK SMILES IDX 40 46 59 47 41 48 44 49 58 50 77 51 42 52 43 53 57 55 78 56
REMARK SMILES IDX 45 57 29 58 30 59 38 60 31 61 32 62 36 63 39 64 33 65 34 66
REMARK SMILES IDX 37 67 35 68 61 69 62 70 70 71 63 72 64 73 68 74 71 75 65 76
REMARK SMILES IDX 66 77 69 78 67 79 46 80 47 81 55 82 48 83 49 84 53 85 56 86
REMARK SMILES IDX 50 87 51 88 54 89 52 90
REMARK H PARENT 7 10 76 43 44 54
REMARK Flexibility Score: inf
ROOT
ATOM      1  C   UNL A   1      44.163  21.373  25.050  1.00  0.00     0.274 C 
ENDROOT
BRANCH   1   2
ATOM      2  O   UNL A   1      43.242  21.440  26.155  1.00  0.00    -0.462 OA
BRANCH   2   3
ATOM      3  C   UNL A   1      42.178  20.602  26.121  1.00  0.00     0.306 C 
ATOM      4  O   UNL A   1      42.121  19.568  25.465  1.00  0.00    -0.252 OA
BRANCH   3   5
ATOM      5  C   UNL A   1      41.011  21.117  26.936  1.00  0.00     0.126 C 
BRANCH   5   6
ATOM      6  C   UNL A   1      39.921  21.855  26.142  1.00  0.00     0.011 C 
ATOM      7  N   UNL A   1      37.139  22.791  25.999  1.00  0.00    -0.330 N 
ATOM      8  C   UNL A   1      37.595  21.709  25.124  1.00  0.00     0.262 C 
ATOM      9  C   UNL A   1      38.222  23.743  26.263  1.00  0.00     0.262 C 
ATOM     10  H   UNL A   1      36.885  22.370  26.892  1.00  0.00     0.348 HD
ATOM     11  C   UNL A   1      38.747  20.936  25.770  1.00  0.00     0.066 C 
ATOM     12  C   UNL A   1      39.396  23.049  26.958  1.00  0.00     0.066 C 
BRANCH   7  13
ATOM     13  C   UNL A   1      35.902  23.436  25.528  1.00  0.00     0.319 C 
BRANCH  13  14
ATOM     14  C   UNL A   1      34.739  22.515  25.373  1.00  0.00     0.093 A 
ATOM     15  C   UNL A   1      33.247  21.016  24.683  1.00  0.00     0.063 A 
ATOM     16  C   UNL A   1      34.239  21.911  24.235  1.00  0.00     0.055 A 
ATOM     17  N   UNL A   1      33.050  21.131  26.000  1.00  0.00    -0.178 NA
ATOM     18  N   UNL A   1      33.940  22.065  26.394  1.00  0.00    -0.267 N 
ATOM     19  C   UNL A   1      33.956  22.418  27.794  1.00  0.00     0.174 C 
BRANCH  15  20
ATOM     20  C   UNL A   1      32.535  19.997  23.855  1.00  0.00     0.055 C 
ATOM     21  C   UNL A   1      33.114  18.594  23.920  1.00  0.00     0.011 C 
ENDBRANCH  15  20
ENDBRANCH  13  14
ENDBRANCH   7  13
ENDBRANCH   5   6
ENDBRANCH   3   5
ENDBRANCH   2   3
ENDBRANCH   1   2
BRANCH   1  22
ATOM     22  C   UNL A   1      44.182  22.678  24.251  1.00  0.00     0.275 C 
BRANCH  22  23
ATOM     23  O   UNL A   1      43.467  23.721  24.938  1.00  0.00    -0.458 OA
BRANCH  23  24
ATOM     24  C   UNL A   1      44.193  24.825  25.229  1.00  0.00     0.338 C 
ATOM     25  O   UNL A   1      45.175  25.242  24.641  1.00  0.00    -0.246 OA
BRANCH  24  26
ATOM     26  C   UNL A   1      43.546  25.558  26.327  1.00  0.00     0.060 A 
ATOM     27  C   UNL A   1      43.917  26.889  26.545  1.00  0.00     0.016 A 
ATOM     28  C   UNL A   1      42.629  24.928  27.171  1.00  0.00     0.016 A 
ATOM     29  C   UNL A   1      43.371  27.596  27.614  1.00  0.00     0.010 A 
ATOM     30  C   UNL A   1      42.085  25.638  28.244  1.00  0.00     0.010 A 
ATOM     31  C   UNL A   1      42.460  26.973  28.478  1.00  0.00    -0.014 A 
BRANCH  31  32
ATOM     32  C   UNL A   1      41.936  27.705  29.654  1.00  0.00     0.031 A 
ATOM     33  C   UNL A   1      40.681  28.519  29.528  1.00  0.00     0.074 A 
ATOM     34  C   UNL A   1      42.579  27.632  30.832  1.00  0.00     0.049 A 
ATOM     35  N   UNL A   1      40.091  29.277  30.418  1.00  0.00    -0.248 NA
ATOM     36  C   UNL A   1      40.000  28.475  28.226  1.00  0.00     0.031 C 
ATOM     37  C   UNL A   1      43.787  26.849  31.087  1.00  0.00     0.029 A 
ATOM     38  N   UNL A   1      42.306  28.230  32.037  1.00  0.00    -0.354 N 
ATOM     39  C   UNL A   1      38.976  29.806  29.783  1.00  0.00     0.074 A 
ATOM     40  C   UNL A   1      38.984  29.303  28.425  1.00  0.00     0.031 C 
ATOM     41  C   UNL A   1      44.153  27.014  32.368  1.00  0.00     0.029 A 
ATOM     42  C   UNL A   1      43.227  27.941  33.013  1.00  0.00     0.049 A 
ATOM     43  H   UNL A   1      41.525  28.810  32.187  1.00  0.00     0.167 HD
ATOM     44  C   UNL A   1      38.029  30.632  30.290  1.00  0.00     0.037 A 
ATOM     45  C   UNL A   1      43.321  28.392  34.279  1.00  0.00     0.037 A 
ATOM     46  C   UNL A   1      38.021  31.127  31.642  1.00  0.00     0.049 A 
ATOM     47  C   UNL A   1      42.290  29.356  34.799  1.00  0.00     0.074 A 
ATOM     48  C   UNL A   1      37.098  31.961  32.252  1.00  0.00     0.029 A 
ATOM     49  N   UNL A   1      38.987  30.837  32.594  1.00  0.00    -0.354 N 
ATOM     50  N   UNL A   1      41.235  29.846  34.195  1.00  0.00    -0.248 NA
ATOM     51  C   UNL A   1      42.466  29.834  36.178  1.00  0.00     0.031 C 
ATOM     52  C   UNL A   1      37.526  32.203  33.562  1.00  0.00     0.029 A 
ATOM     53  C   UNL A   1      38.692  31.489  33.781  1.00  0.00     0.049 A 
ATOM     54  H   UNL A   1      39.767  30.254  32.448  1.00  0.00     0.167 HD
ATOM     55  C   UNL A   1      40.610  30.667  35.123  1.00  0.00     0.074 A 
ATOM     56  C   UNL A   1      41.397  30.602  36.337  1.00  0.00     0.031 C 
ATOM     57  C   UNL A   1      39.484  31.409  34.982  1.00  0.00     0.037 A 
BRANCH  44  58
ATOM     58  C   UNL A   1      36.932  31.070  29.368  1.00  0.00     0.064 A 
ATOM     59  C   UNL A   1      35.887  30.208  29.005  1.00  0.00     0.173 A 
ATOM     60  C   UNL A   1      36.908  32.380  28.864  1.00  0.00     0.173 A 
ATOM     61  F   UNL A   1      35.872  28.942  29.450  1.00  0.00    -0.203 F 
ATOM     62  C   UNL A   1      34.870  30.633  28.154  1.00  0.00     0.198 A 
ATOM     63  C   UNL A   1      35.876  32.809  28.033  1.00  0.00     0.198 A 
ATOM     64  F   UNL A   1      37.881  33.245  29.184  1.00  0.00    -0.203 F 
ATOM     65  F   UNL A   1      33.904  29.779  27.788  1.00  0.00    -0.200 F 
ATOM     66  C   UNL A   1      34.862  31.934  27.674  1.00  0.00     0.200 A 
ATOM     67  F   UNL A   1      35.865  34.070  27.577  1.00  0.00    -0.200 F 
ATOM     68  F   UNL A   1      33.881  32.343  26.858  1.00  0.00    -0.200 F 
ENDBRANCH  44  58
BRANCH  45  69
ATOM     69  C   UNL A   1      44.443  27.941  35.142  1.00  0.00     0.064 A 
ATOM     70  C   UNL A   1      44.340  26.766  35.899  1.00  0.00     0.173 A 
ATOM     71  C   UNL A   1      45.633  28.677  35.233  1.00  0.00     0.173 A 
ATOM     72  F   UNL A   1      43.211  26.045  35.866  1.00  0.00    -0.203 F 
ATOM     73  C   UNL A   1      45.383  26.351  36.725  1.00  0.00     0.198 A 
ATOM     74  C   UNL A   1      46.684  28.247  36.039  1.00  0.00     0.198 A 
ATOM     75  F   UNL A   1      45.777  29.810  34.531  1.00  0.00    -0.203 F 
ATOM     76  F   UNL A   1      45.244  25.246  37.472  1.00  0.00    -0.200 F 
ATOM     77  C   UNL A   1      46.556  27.089  36.790  1.00  0.00     0.200 A 
ATOM     78  F   UNL A   1      47.819  28.957  36.092  1.00  0.00    -0.200 F 
ATOM     79  F   UNL A   1      47.559  26.687  37.583  1.00  0.00    -0.200 F 
ENDBRANCH  45  69
BRANCH  57  80
ATOM     80  C   UNL A   1      39.020  32.185  36.179  1.00  0.00     0.064 A 
ATOM     81  C   UNL A   1      38.166  31.618  37.136  1.00  0.00     0.173 A 
ATOM     82  C   UNL A   1      39.463  33.501  36.387  1.00  0.00     0.173 A 
ATOM     83  F   UNL A   1      37.703  30.370  36.972  1.00  0.00    -0.203 F 
ATOM     84  C   UNL A   1      37.753  32.349  38.247  1.00  0.00     0.198 A 
ATOM     85  C   UNL A   1      39.068  34.219  37.512  1.00  0.00     0.198 A 
ATOM     86  F   UNL A   1      40.284  34.086  35.503  1.00  0.00    -0.203 F 
ATOM     87  F   UNL A   1      36.903  31.803  39.127  1.00  0.00    -0.200 F 
ATOM     88  C   UNL A   1      38.209  33.645  38.438  1.00  0.00     0.200 A 
ATOM     89  F   UNL A   1      39.517  35.468  37.700  1.00  0.00    -0.200 F 
ATOM     90  F   UNL A   1      37.814  34.344  39.510  1.00  0.00    -0.200 F 
ENDBRANCH  57  80
ENDBRANCH  31  32
ENDBRANCH  24  26
ENDBRANCH  23  24
ENDBRANCH  22  23
ENDBRANCH   1  22
TORSDOF 15
ENDMDL
