MODEL 1
REMARK VINA RESULT:     -12.0      0.000      0.000
REMARK SMILES COc1ccc(C(=O)N[C@@H](C(=O)OCCOC(=O)c2ccc(-c3c4nc(c(-c5c(F)c(F)c(F)c(F)c5F)c5ccc([nH]5)c(-c5c(F)c(F)c(F)c(F)c5F)c5nc(c(-c6c(F)c(F)c(F)c(F)c6F)c6ccc3[nH]6)C=C5)C=C4)cc2)C(C)C)cc1O
REMARK SMILES IDX 14 1 13 2 11 3 12 4 10 5 9 6 7 7 8 8 6 10 3 11 4 12 86 13
REMARK SMILES IDX 5 14 85 15 2 16 1 17 87 18 82 20 83 21 84 22 15 23 16 24
REMARK SMILES IDX 17 25 18 26 19 27 20 28 81 29 21 30 80 31 22 32 23 33 24 34
REMARK SMILES IDX 74 35 25 36 79 37 73 38 75 39 26 40 78 41 72 42 71 43 27 45
REMARK SMILES IDX 59 46 39 47 58 48 40 49 43 50 57 51 76 52 41 53 42 54 56 56
REMARK SMILES IDX 77 57 44 58 28 59 29 60 37 61 30 62 31 63 35 64 38 65 32 66
REMARK SMILES IDX 33 67 36 68 34 69 60 70 61 71 69 72 62 73 63 74 67 75 70 76
REMARK SMILES IDX 64 77 65 78 68 79 66 80 45 81 46 82 54 83 47 84 48 85 52 86
REMARK SMILES IDX 55 87 49 88 50 89 53 90 51 91
REMARK H PARENT 9 9 87 19 75 44 43 55
REMARK Flexibility Score: inf
ROOT
ATOM      1  C   UNL A   1      31.625  29.226  24.702  1.00  0.00     0.274 C 
ENDROOT
BRANCH   1   2
ATOM      2  O   UNL A   1      30.481  29.430  23.845  1.00  0.00    -0.461 OA
BRANCH   2   3
ATOM      3  C   UNL A   1      30.348  28.626  22.750  1.00  0.00     0.329 C 
ATOM      4  O   UNL A   1      29.811  28.971  21.705  1.00  0.00    -0.250 OA
BRANCH   3   5
ATOM      5  C   UNL A   1      30.940  27.208  22.986  1.00  0.00     0.195 C 
BRANCH   5   6
ATOM      6  N   UNL A   1      31.550  26.737  21.735  1.00  0.00    -0.338 N 
ATOM      7  C   UNL A   1      32.572  25.850  21.524  1.00  0.00     0.252 C 
ATOM      8  O   UNL A   1      32.991  25.668  20.385  1.00  0.00    -0.269 OA
ATOM      9  H   UNL A   1      31.161  27.121  20.916  1.00  0.00     0.164 HD
BRANCH   7  10
ATOM     10  C   UNL A   1      33.125  25.045  22.639  1.00  0.00     0.043 A 
ATOM     11  C   UNL A   1      34.377  23.602  24.694  1.00  0.00     0.160 A 
ATOM     12  C   UNL A   1      34.503  24.994  24.621  1.00  0.00     0.051 A 
ATOM     13  C   UNL A   1      33.551  22.948  23.772  1.00  0.00     0.158 A 
ATOM     14  C   UNL A   1      33.889  25.714  23.596  1.00  0.00     0.018 A 
ATOM     15  C   UNL A   1      32.899  23.672  22.768  1.00  0.00     0.064 A 
BRANCH  11  16
ATOM     16  O   UNL A   1      35.079  23.045  25.728  1.00  0.00    -0.493 OA
ATOM     17  C   UNL A   1      36.382  23.559  25.973  1.00  0.00     0.278 C 
ENDBRANCH  11  16
BRANCH  13  18
ATOM     18  O   UNL A   1      33.354  21.596  23.834  1.00  0.00    -0.504 OA
ATOM     19  H   UNL A   1      33.218  21.106  23.048  1.00  0.00     0.293 HD
ENDBRANCH  13  18
ENDBRANCH   7  10
ENDBRANCH   5   6
BRANCH   5  20
ATOM     20  C   UNL A   1      29.919  26.187  23.543  1.00  0.00     0.017 C 
ATOM     21  C   UNL A   1      30.350  25.645  24.913  1.00  0.00     0.010 C 
ATOM     22  C   UNL A   1      28.523  26.810  23.705  1.00  0.00     0.010 C 
ENDBRANCH   5  20
ENDBRANCH   3   5
ENDBRANCH   2   3
ENDBRANCH   1   2
BRANCH   1  23
ATOM     23  C   UNL A   1      31.708  30.337  25.742  1.00  0.00     0.275 C 
BRANCH  23  24
ATOM     24  O   UNL A   1      32.953  30.205  26.446  1.00  0.00    -0.458 OA
BRANCH  24  25
ATOM     25  C   UNL A   1      33.372  31.299  27.115  1.00  0.00     0.338 C 
ATOM     26  O   UNL A   1      32.753  32.325  27.350  1.00  0.00    -0.246 OA
BRANCH  25  27
ATOM     27  C   UNL A   1      34.725  31.048  27.624  1.00  0.00     0.060 A 
ATOM     28  C   UNL A   1      35.085  29.740  27.948  1.00  0.00     0.016 A 
ATOM     29  C   UNL A   1      35.583  32.105  27.908  1.00  0.00     0.016 A 
ATOM     30  C   UNL A   1      36.258  29.491  28.652  1.00  0.00     0.010 A 
ATOM     31  C   UNL A   1      36.808  31.841  28.525  1.00  0.00     0.010 A 
ATOM     32  C   UNL A   1      37.139  30.537  28.942  1.00  0.00    -0.014 A 
BRANCH  32  33
ATOM     33  C   UNL A   1      38.368  30.300  29.743  1.00  0.00     0.031 A 
ATOM     34  C   UNL A   1      39.465  29.447  29.169  1.00  0.00     0.074 A 
ATOM     35  C   UNL A   1      38.518  30.834  30.969  1.00  0.00     0.049 A 
ATOM     36  N   UNL A   1      40.464  28.861  29.775  1.00  0.00    -0.248 NA
ATOM     37  C   UNL A   1      39.419  29.214  27.717  1.00  0.00     0.031 C 
ATOM     38  C   UNL A   1      37.586  31.755  31.618  1.00  0.00     0.029 A 
ATOM     39  N   UNL A   1      39.519  30.666  31.895  1.00  0.00    -0.354 N 
ATOM     40  C   UNL A   1      41.111  28.119  28.797  1.00  0.00     0.074 A 
ATOM     41  C   UNL A   1      40.413  28.354  27.551  1.00  0.00     0.031 C 
ATOM     42  C   UNL A   1      38.066  32.086  32.826  1.00  0.00     0.029 A 
ATOM     43  C   UNL A   1      39.283  31.322  33.078  1.00  0.00     0.049 A 
ATOM     44  H   UNL A   1      40.328  30.129  31.727  1.00  0.00     0.167 HD
ATOM     45  C   UNL A   1      42.179  27.298  28.938  1.00  0.00     0.037 A 
ATOM     46  C   UNL A   1      39.935  31.264  34.256  1.00  0.00     0.037 A 
ATOM     47  C   UNL A   1      42.909  27.129  30.166  1.00  0.00     0.049 A 
ATOM     48  C   UNL A   1      41.110  30.339  34.400  1.00  0.00     0.074 A 
ATOM     49  C   UNL A   1      44.005  26.324  30.419  1.00  0.00     0.029 A 
ATOM     50  N   UNL A   1      42.627  27.806  31.344  1.00  0.00    -0.354 N 
ATOM     51  N   UNL A   1      41.650  29.547  33.507  1.00  0.00    -0.248 NA
ATOM     52  C   UNL A   1      41.744  30.275  35.725  1.00  0.00     0.031 C 
ATOM     53  C   UNL A   1      44.374  26.498  31.759  1.00  0.00     0.029 A 
ATOM     54  C   UNL A   1      43.527  27.435  32.329  1.00  0.00     0.049 A 
ATOM     55  H   UNL A   1      41.896  28.454  31.462  1.00  0.00     0.167 HD
ATOM     56  C   UNL A   1      42.685  28.890  34.157  1.00  0.00     0.074 A 
ATOM     57  C   UNL A   1      42.710  29.391  35.517  1.00  0.00     0.031 C 
ATOM     58  C   UNL A   1      43.534  27.952  33.672  1.00  0.00     0.037 A 
BRANCH  45  59
ATOM     59  C   UNL A   1      42.577  26.475  27.751  1.00  0.00     0.064 A 
ATOM     60  C   UNL A   1      42.008  25.224  27.484  1.00  0.00     0.173 A 
ATOM     61  C   UNL A   1      43.547  26.962  26.860  1.00  0.00     0.173 A 
ATOM     62  F   UNL A   1      41.092  24.707  28.317  1.00  0.00    -0.203 F 
ATOM     63  C   UNL A   1      42.414  24.476  26.380  1.00  0.00     0.198 A 
ATOM     64  C   UNL A   1      43.933  26.223  25.746  1.00  0.00     0.198 A 
ATOM     65  F   UNL A   1      44.122  28.155  27.073  1.00  0.00    -0.203 F 
ATOM     66  F   UNL A   1      41.890  23.261  26.167  1.00  0.00    -0.200 F 
ATOM     67  C   UNL A   1      43.371  24.978  25.510  1.00  0.00     0.200 A 
ATOM     68  F   UNL A   1      44.854  26.713  24.904  1.00  0.00    -0.200 F 
ATOM     69  F   UNL A   1      43.760  24.256  24.449  1.00  0.00    -0.200 F 
ENDBRANCH  45  59
BRANCH  46  70
ATOM     70  C   UNL A   1      39.434  32.061  35.404  1.00  0.00     0.064 A 
ATOM     71  C   UNL A   1      38.536  31.509  36.327  1.00  0.00     0.173 A 
ATOM     72  C   UNL A   1      39.877  33.374  35.625  1.00  0.00     0.173 A 
ATOM     73  F   UNL A   1      38.067  30.267  36.143  1.00  0.00    -0.203 F 
ATOM     74  C   UNL A   1      38.103  32.240  37.431  1.00  0.00     0.198 A 
ATOM     75  C   UNL A   1      39.465  34.093  36.743  1.00  0.00     0.198 A 
ATOM     76  F   UNL A   1      40.737  33.945  34.769  1.00  0.00    -0.203 F 
ATOM     77  F   UNL A   1      37.227  31.699  38.289  1.00  0.00    -0.200 F 
ATOM     78  C   UNL A   1      38.577  33.527  37.645  1.00  0.00     0.200 A 
ATOM     79  F   UNL A   1      39.936  35.330  36.953  1.00  0.00    -0.200 F 
ATOM     80  F   UNL A   1      38.176  34.221  38.719  1.00  0.00    -0.200 F 
ENDBRANCH  46  70
BRANCH  58  81
ATOM     81  C   UNL A   1      44.575  27.422  34.608  1.00  0.00     0.064 A 
ATOM     82  C   UNL A   1      44.353  26.261  35.362  1.00  0.00     0.173 A 
ATOM     83  C   UNL A   1      45.827  28.047  34.704  1.00  0.00     0.173 A 
ATOM     84  F   UNL A   1      43.165  25.641  35.311  1.00  0.00    -0.203 F 
ATOM     85  C   UNL A   1      45.349  25.749  36.188  1.00  0.00     0.198 A 
ATOM     86  C   UNL A   1      46.825  27.520  35.518  1.00  0.00     0.198 A 
ATOM     87  F   UNL A   1      46.083  29.157  33.999  1.00  0.00    -0.203 F 
ATOM     88  F   UNL A   1      45.111  24.651  36.921  1.00  0.00    -0.200 F 
ATOM     89  C   UNL A   1      46.585  26.374  36.261  1.00  0.00     0.200 A 
ATOM     90  F   UNL A   1      48.021  28.122  35.582  1.00  0.00    -0.200 F 
ATOM     91  F   UNL A   1      47.545  25.873  37.050  1.00  0.00    -0.200 F 
ENDBRANCH  58  81
ENDBRANCH  32  33
ENDBRANCH  25  27
ENDBRANCH  24  25
ENDBRANCH  23  24
ENDBRANCH   1  23
TORSDOF 16
ENDMDL
MODEL 2
REMARK VINA RESULT:     -11.8      1.351      3.764
REMARK SMILES COc1ccc(C(=O)N[C@@H](C(=O)OCCOC(=O)c2ccc(-c3c4nc(c(-c5c(F)c(F)c(F)c(F)c5F)c5ccc([nH]5)c(-c5c(F)c(F)c(F)c(F)c5F)c5nc(c(-c6c(F)c(F)c(F)c(F)c6F)c6ccc3[nH]6)C=C5)C=C4)cc2)C(C)C)cc1O
REMARK SMILES IDX 14 1 13 2 11 3 12 4 10 5 9 6 7 7 8 8 6 10 3 11 4 12 86 13
REMARK SMILES IDX 5 14 85 15 2 16 1 17 87 18 82 20 83 21 84 22 15 23 16 24
REMARK SMILES IDX 17 25 18 26 19 27 20 28 81 29 21 30 80 31 22 32 23 33 24 34
REMARK SMILES IDX 74 35 25 36 79 37 73 38 75 39 26 40 78 41 72 42 71 43 27 45
REMARK SMILES IDX 59 46 39 47 58 48 40 49 43 50 57 51 76 52 41 53 42 54 56 56
REMARK SMILES IDX 77 57 44 58 28 59 29 60 37 61 30 62 31 63 35 64 38 65 32 66
REMARK SMILES IDX 33 67 36 68 34 69 60 70 61 71 69 72 62 73 63 74 67 75 70 76
REMARK SMILES IDX 64 77 65 78 68 79 66 80 45 81 46 82 54 83 47 84 48 85 52 86
REMARK SMILES IDX 55 87 49 88 50 89 53 90 51 91
REMARK H PARENT 9 9 87 19 75 44 43 55
REMARK Flexibility Score: inf
ROOT
ATOM      1  C   UNL A   1      31.724  28.412  27.191  1.00  0.00     0.274 C 
ENDROOT
BRANCH   1   2
ATOM      2  O   UNL A   1      31.000  27.355  26.525  1.00  0.00    -0.461 OA
BRANCH   2   3
ATOM      3  C   UNL A   1      31.714  26.451  25.793  1.00  0.00     0.329 C 
ATOM      4  O   UNL A   1      32.690  25.843  26.215  1.00  0.00    -0.250 OA
BRANCH   3   5
ATOM      5  C   UNL A   1      31.159  26.293  24.350  1.00  0.00     0.195 C 
BRANCH   5   6
ATOM      6  N   UNL A   1      29.735  25.942  24.428  1.00  0.00    -0.338 N 
ATOM      7  C   UNL A   1      28.622  26.660  24.076  1.00  0.00     0.252 C 
ATOM      8  O   UNL A   1      27.507  26.205  24.315  1.00  0.00    -0.269 OA
ATOM      9  H   UNL A   1      29.550  25.045  24.792  1.00  0.00     0.164 HD
BRANCH   7  10
ATOM     10  C   UNL A   1      28.742  27.938  23.338  1.00  0.00     0.043 A 
ATOM     11  C   UNL A   1      28.810  30.283  21.798  1.00  0.00     0.160 A 
ATOM     12  C   UNL A   1      27.615  29.848  22.382  1.00  0.00     0.051 A 
ATOM     13  C   UNL A   1      29.988  29.574  22.060  1.00  0.00     0.158 A 
ATOM     14  C   UNL A   1      27.575  28.678  23.141  1.00  0.00     0.018 A 
ATOM     15  C   UNL A   1      29.961  28.425  22.856  1.00  0.00     0.064 A 
BRANCH  11  16
ATOM     16  O   UNL A   1      28.667  31.418  21.046  1.00  0.00    -0.493 OA
ATOM     17  C   UNL A   1      28.347  32.616  21.742  1.00  0.00     0.278 C 
ENDBRANCH  11  16
BRANCH  13  18
ATOM     18  O   UNL A   1      31.189  29.990  21.555  1.00  0.00    -0.504 OA
ATOM     19  H   UNL A   1      31.413  29.803  20.664  1.00  0.00     0.293 HD
ENDBRANCH  13  18
ENDBRANCH   7  10
ENDBRANCH   5   6
BRANCH   5  20
ATOM     20  C   UNL A   1      31.949  25.285  23.481  1.00  0.00     0.017 C 
ATOM     21  C   UNL A   1      31.151  23.993  23.248  1.00  0.00     0.010 C 
ATOM     22  C   UNL A   1      32.298  25.873  22.104  1.00  0.00     0.010 C 
ENDBRANCH   5  20
ENDBRANCH   3   5
ENDBRANCH   2   3
ENDBRANCH   1   2
BRANCH   1  23
ATOM     23  C   UNL A   1      31.780  29.652  26.306  1.00  0.00     0.275 C 
BRANCH  23  24
ATOM     24  O   UNL A   1      33.143  30.099  26.238  1.00  0.00    -0.458 OA
BRANCH  24  25
ATOM     25  C   UNL A   1      33.472  31.118  27.059  1.00  0.00     0.338 C 
ATOM     26  O   UNL A   1      32.778  32.057  27.415  1.00  0.00    -0.246 OA
BRANCH  25  27
ATOM     27  C   UNL A   1      34.832  30.895  27.561  1.00  0.00     0.060 A 
ATOM     28  C   UNL A   1      35.247  29.586  27.807  1.00  0.00     0.016 A 
ATOM     29  C   UNL A   1      35.642  31.969  27.915  1.00  0.00     0.016 A 
ATOM     30  C   UNL A   1      36.426  29.345  28.503  1.00  0.00     0.010 A 
ATOM     31  C   UNL A   1      36.875  31.721  28.524  1.00  0.00     0.010 A 
ATOM     32  C   UNL A   1      37.260  30.408  28.862  1.00  0.00    -0.014 A 
BRANCH  32  33
ATOM     33  C   UNL A   1      38.495  30.176  29.656  1.00  0.00     0.031 A 
ATOM     34  C   UNL A   1      39.579  29.303  29.090  1.00  0.00     0.074 A 
ATOM     35  C   UNL A   1      38.661  30.733  30.871  1.00  0.00     0.049 A 
ATOM     36  N   UNL A   1      40.578  28.719  29.698  1.00  0.00    -0.248 NA
ATOM     37  C   UNL A   1      39.516  29.041  27.643  1.00  0.00     0.031 C 
ATOM     38  C   UNL A   1      37.743  31.675  31.510  1.00  0.00     0.029 A 
ATOM     39  N   UNL A   1      39.670  30.575  31.791  1.00  0.00    -0.354 N 
ATOM     40  C   UNL A   1      41.209  27.952  28.729  1.00  0.00     0.074 A 
ATOM     41  C   UNL A   1      40.501  28.169  27.485  1.00  0.00     0.031 C 
ATOM     42  C   UNL A   1      38.238  32.025  32.707  1.00  0.00     0.029 A 
ATOM     43  C   UNL A   1      39.450  31.256  32.962  1.00  0.00     0.049 A 
ATOM     44  H   UNL A   1      40.471  30.027  31.626  1.00  0.00     0.167 HD
ATOM     45  C   UNL A   1      42.271  27.125  28.876  1.00  0.00     0.037 A 
ATOM     46  C   UNL A   1      40.113  31.215  34.135  1.00  0.00     0.037 A 
ATOM     47  C   UNL A   1      43.011  26.973  30.100  1.00  0.00     0.049 A 
ATOM     48  C   UNL A   1      41.281  30.283  34.287  1.00  0.00     0.074 A 
ATOM     49  C   UNL A   1      44.102  26.163  30.359  1.00  0.00     0.029 A 
ATOM     50  N   UNL A   1      42.746  27.676  31.267  1.00  0.00    -0.354 N 
ATOM     51  N   UNL A   1      41.805  29.468  33.404  1.00  0.00    -0.248 NA
ATOM     52  C   UNL A   1      41.927  30.239  35.606  1.00  0.00     0.031 C 
ATOM     53  C   UNL A   1      44.485  26.360  31.691  1.00  0.00     0.029 A 
ATOM     54  C   UNL A   1      43.652  27.316  32.250  1.00  0.00     0.049 A 
ATOM     55  H   UNL A   1      42.022  28.333  31.379  1.00  0.00     0.167 HD
ATOM     56  C   UNL A   1      42.841  28.815  34.057  1.00  0.00     0.074 A 
ATOM     57  C   UNL A   1      42.883  29.342  35.407  1.00  0.00     0.031 C 
ATOM     58  C   UNL A   1      43.677  27.859  33.584  1.00  0.00     0.037 A 
BRANCH  45  59
ATOM     59  C   UNL A   1      42.651  26.274  27.702  1.00  0.00     0.064 A 
ATOM     60  C   UNL A   1      43.629  26.667  26.781  1.00  0.00     0.173 A 
ATOM     61  C   UNL A   1      42.020  25.035  27.506  1.00  0.00     0.173 A 
ATOM     62  F   UNL A   1      44.246  27.851  26.914  1.00  0.00    -0.203 F 
ATOM     63  C   UNL A   1      43.947  25.860  25.689  1.00  0.00     0.198 A 
ATOM     64  C   UNL A   1      42.356  24.221  26.429  1.00  0.00     0.198 A 
ATOM     65  F   UNL A   1      41.075  24.616  28.362  1.00  0.00    -0.203 F 
ATOM     66  F   UNL A   1      44.854  26.274  24.794  1.00  0.00    -0.200 F 
ATOM     67  C   UNL A   1      43.314  24.637  25.517  1.00  0.00     0.200 A 
ATOM     68  F   UNL A   1      41.747  23.039  26.269  1.00  0.00    -0.200 F 
ATOM     69  F   UNL A   1      43.621  23.864  24.466  1.00  0.00    -0.200 F 
ENDBRANCH  45  59
BRANCH  46  70
ATOM     70  C   UNL A   1      39.630  32.039  35.272  1.00  0.00     0.064 A 
ATOM     71  C   UNL A   1      40.078  33.354  35.449  1.00  0.00     0.173 A 
ATOM     72  C   UNL A   1      38.680  31.542  36.177  1.00  0.00     0.173 A 
ATOM     73  F   UNL A   1      41.003  33.863  34.624  1.00  0.00    -0.203 F 
ATOM     74  C   UNL A   1      39.589  34.144  36.488  1.00  0.00     0.198 A 
ATOM     75  C   UNL A   1      38.173  32.341  37.198  1.00  0.00     0.198 A 
ATOM     76  F   UNL A   1      38.222  30.288  36.048  1.00  0.00    -0.203 F 
ATOM     77  F   UNL A   1      40.048  35.392  36.651  1.00  0.00    -0.200 F 
ATOM     78  C   UNL A   1      38.629  33.641  37.354  1.00  0.00     0.200 A 
ATOM     79  F   UNL A   1      37.235  31.855  38.023  1.00  0.00    -0.200 F 
ATOM     80  F   UNL A   1      38.144  34.408  38.341  1.00  0.00    -0.200 F 
ENDBRANCH  46  70
BRANCH  58  81
ATOM     81  C   UNL A   1      44.721  27.339  34.520  1.00  0.00     0.064 A 
ATOM     82  C   UNL A   1      45.962  27.977  34.654  1.00  0.00     0.173 A 
ATOM     83  C   UNL A   1      44.454  26.229  35.335  1.00  0.00     0.173 A 
ATOM     84  F   UNL A   1      46.264  29.033  33.885  1.00  0.00    -0.203 F 
ATOM     85  C   UNL A   1      46.905  27.515  35.568  1.00  0.00     0.198 A 
ATOM     86  C   UNL A   1      45.393  25.782  36.259  1.00  0.00     0.198 A 
ATOM     87  F   UNL A   1      43.279  25.590  35.242  1.00  0.00    -0.203 F 
ATOM     88  F   UNL A   1      48.095  28.123  35.666  1.00  0.00    -0.200 F 
ATOM     89  C   UNL A   1      46.617  26.422  36.374  1.00  0.00     0.200 A 
ATOM     90  F   UNL A   1      45.111  24.730  37.042  1.00  0.00    -0.200 F 
ATOM     91  F   UNL A   1      47.523  25.985  37.260  1.00  0.00    -0.200 F 
ENDBRANCH  58  81
ENDBRANCH  32  33
ENDBRANCH  25  27
ENDBRANCH  24  25
ENDBRANCH  23  24
ENDBRANCH   1  23
TORSDOF 16
ENDMDL
MODEL 3
REMARK VINA RESULT:     -11.8      1.463      3.457
REMARK SMILES COc1ccc(C(=O)N[C@@H](C(=O)OCCOC(=O)c2ccc(-c3c4nc(c(-c5c(F)c(F)c(F)c(F)c5F)c5ccc([nH]5)c(-c5c(F)c(F)c(F)c(F)c5F)c5nc(c(-c6c(F)c(F)c(F)c(F)c6F)c6ccc3[nH]6)C=C5)C=C4)cc2)C(C)C)cc1O
REMARK SMILES IDX 14 1 13 2 11 3 12 4 10 5 9 6 7 7 8 8 6 10 3 11 4 12 86 13
REMARK SMILES IDX 5 14 85 15 2 16 1 17 87 18 82 20 83 21 84 22 15 23 16 24
REMARK SMILES IDX 17 25 18 26 19 27 20 28 81 29 21 30 80 31 22 32 23 33 24 34
REMARK SMILES IDX 74 35 25 36 79 37 73 38 75 39 26 40 78 41 72 42 71 43 27 45
REMARK SMILES IDX 59 46 39 47 58 48 40 49 43 50 57 51 76 52 41 53 42 54 56 56
REMARK SMILES IDX 77 57 44 58 28 59 29 60 37 61 30 62 31 63 35 64 38 65 32 66
REMARK SMILES IDX 33 67 36 68 34 69 60 70 61 71 69 72 62 73 63 74 67 75 70 76
REMARK SMILES IDX 64 77 65 78 68 79 66 80 45 81 46 82 54 83 47 84 48 85 52 86
REMARK SMILES IDX 55 87 49 88 50 89 53 90 51 91
REMARK H PARENT 9 9 87 19 75 44 43 55
REMARK Flexibility Score: inf
ROOT
ATOM      1  C   UNL A   1      32.956  27.971  25.220  1.00  0.00     0.274 C 
ENDROOT
BRANCH   1   2
ATOM      2  O   UNL A   1      32.516  26.720  25.792  1.00  0.00    -0.461 OA
BRANCH   2   3
ATOM      3  C   UNL A   1      31.192  26.402  25.697  1.00  0.00     0.329 C 
ATOM      4  O   UNL A   1      30.453  26.243  26.660  1.00  0.00    -0.250 OA
BRANCH   3   5
ATOM      5  C   UNL A   1      30.730  26.243  24.221  1.00  0.00     0.195 C 
BRANCH   5   6
ATOM      6  N   UNL A   1      29.281  26.004  24.204  1.00  0.00    -0.338 N 
ATOM      7  C   UNL A   1      28.245  26.847  23.892  1.00  0.00     0.252 C 
ATOM      8  O   UNL A   1      27.088  26.463  24.036  1.00  0.00    -0.269 OA
ATOM      9  H   UNL A   1      29.009  25.092  24.458  1.00  0.00     0.164 HD
BRANCH   7  10
ATOM     10  C   UNL A   1      28.500  28.183  23.307  1.00  0.00     0.043 A 
ATOM     11  C   UNL A   1      28.794  30.689  22.078  1.00  0.00     0.160 A 
ATOM     12  C   UNL A   1      27.635  30.380  22.801  1.00  0.00     0.051 A 
ATOM     13  C   UNL A   1      29.838  29.758  22.045  1.00  0.00     0.158 A 
ATOM     14  C   UNL A   1      27.482  29.133  23.406  1.00  0.00     0.018 A 
ATOM     15  C   UNL A   1      29.706  28.522  22.687  1.00  0.00     0.064 A 
BRANCH  11  16
ATOM     16  O   UNL A   1      28.763  31.932  21.508  1.00  0.00    -0.493 OA
ATOM     17  C   UNL A   1      28.020  32.072  20.304  1.00  0.00     0.278 C 
ENDBRANCH  11  16
BRANCH  13  18
ATOM     18  O   UNL A   1      31.010  30.034  21.396  1.00  0.00    -0.504 OA
ATOM     19  H   UNL A   1      31.804  30.132  21.883  1.00  0.00     0.293 HD
ENDBRANCH  13  18
ENDBRANCH   7  10
ENDBRANCH   5   6
BRANCH   5  20
ATOM     20  C   UNL A   1      31.496  25.150  23.438  1.00  0.00     0.017 C 
ATOM     21  C   UNL A   1      30.683  23.851  23.337  1.00  0.00     0.010 C 
ATOM     22  C   UNL A   1      31.830  25.604  22.008  1.00  0.00     0.010 C 
ENDBRANCH   5  20
ENDBRANCH   3   5
ENDBRANCH   2   3
ENDBRANCH   1   2
BRANCH   1  23
ATOM     23  C   UNL A   1      32.295  29.140  25.942  1.00  0.00     0.275 C 
BRANCH  23  24
ATOM     24  O   UNL A   1      33.148  30.289  25.819  1.00  0.00    -0.458 OA
BRANCH  24  25
ATOM     25  C   UNL A   1      33.300  31.034  26.933  1.00  0.00     0.338 C 
ATOM     26  O   UNL A   1      32.467  31.724  27.500  1.00  0.00    -0.246 OA
BRANCH  25  27
ATOM     27  C   UNL A   1      34.657  30.833  27.452  1.00  0.00     0.060 A 
ATOM     28  C   UNL A   1      35.067  29.538  27.765  1.00  0.00     0.016 A 
ATOM     29  C   UNL A   1      35.468  31.921  27.754  1.00  0.00     0.016 A 
ATOM     30  C   UNL A   1      36.243  29.329  28.476  1.00  0.00     0.010 A 
ATOM     31  C   UNL A   1      36.698  31.701  28.380  1.00  0.00     0.010 A 
ATOM     32  C   UNL A   1      37.079  30.406  28.785  1.00  0.00    -0.014 A 
BRANCH  32  33
ATOM     33  C   UNL A   1      38.310  30.211  29.595  1.00  0.00     0.031 A 
ATOM     34  C   UNL A   1      39.427  29.372  29.042  1.00  0.00     0.074 A 
ATOM     35  C   UNL A   1      38.444  30.772  30.811  1.00  0.00     0.049 A 
ATOM     36  N   UNL A   1      40.435  28.818  29.662  1.00  0.00    -0.248 NA
ATOM     37  C   UNL A   1      39.391  29.109  27.594  1.00  0.00     0.031 C 
ATOM     38  C   UNL A   1      37.490  31.685  31.439  1.00  0.00     0.029 A 
ATOM     39  N   UNL A   1      39.445  30.644  31.744  1.00  0.00    -0.354 N 
ATOM     40  C   UNL A   1      41.102  28.071  28.701  1.00  0.00     0.074 A 
ATOM     41  C   UNL A   1      40.403  28.268  27.448  1.00  0.00     0.031 C 
ATOM     42  C   UNL A   1      37.958  32.050  32.642  1.00  0.00     0.029 A 
ATOM     43  C   UNL A   1      39.190  31.317  32.912  1.00  0.00     0.049 A 
ATOM     44  H   UNL A   1      40.265  30.121  31.589  1.00  0.00     0.167 HD
ATOM     45  C   UNL A   1      42.186  27.277  28.862  1.00  0.00     0.037 A 
ATOM     46  C   UNL A   1      39.838  31.296  34.093  1.00  0.00     0.037 A 
ATOM     47  C   UNL A   1      42.915  27.147  30.095  1.00  0.00     0.049 A 
ATOM     48  C   UNL A   1      41.032  30.399  34.260  1.00  0.00     0.074 A 
ATOM     49  C   UNL A   1      44.027  26.370  30.367  1.00  0.00     0.029 A 
ATOM     50  N   UNL A   1      42.614  27.840  31.258  1.00  0.00    -0.354 N 
ATOM     51  N   UNL A   1      41.592  29.602  33.384  1.00  0.00    -0.248 NA
ATOM     52  C   UNL A   1      41.663  30.375  35.587  1.00  0.00     0.031 C 
ATOM     53  C   UNL A   1      44.387  26.578  31.704  1.00  0.00     0.029 A 
ATOM     54  C   UNL A   1      43.518  27.507  32.253  1.00  0.00     0.049 A 
ATOM     55  H   UNL A   1      41.869  28.475  31.361  1.00  0.00     0.167 HD
ATOM     56  C   UNL A   1      42.639  28.980  34.050  1.00  0.00     0.074 A 
ATOM     57  C   UNL A   1      42.648  29.507  35.400  1.00  0.00     0.031 C 
ATOM     58  C   UNL A   1      43.510  28.050  33.587  1.00  0.00     0.037 A 
BRANCH  45  59
ATOM     59  C   UNL A   1      42.607  26.439  27.692  1.00  0.00     0.064 A 
ATOM     60  C   UNL A   1      43.610  26.846  26.803  1.00  0.00     0.173 A 
ATOM     61  C   UNL A   1      41.990  25.198  27.467  1.00  0.00     0.173 A 
ATOM     62  F   UNL A   1      44.213  28.033  26.965  1.00  0.00    -0.203 F 
ATOM     63  C   UNL A   1      43.965  26.051  25.715  1.00  0.00     0.198 A 
ATOM     64  C   UNL A   1      42.364  24.396  26.393  1.00  0.00     0.198 A 
ATOM     65  F   UNL A   1      41.024  24.764  28.290  1.00  0.00    -0.203 F 
ATOM     66  F   UNL A   1      44.895  26.479  24.851  1.00  0.00    -0.200 F 
ATOM     67  C   UNL A   1      43.346  24.826  25.514  1.00  0.00     0.200 A 
ATOM     68  F   UNL A   1      41.768  23.210  26.205  1.00  0.00    -0.200 F 
ATOM     69  F   UNL A   1      43.689  24.063  24.466  1.00  0.00    -0.200 F 
ENDBRANCH  45  59
BRANCH  46  70
ATOM     70  C   UNL A   1      39.316  32.104  35.225  1.00  0.00     0.064 A 
ATOM     71  C   UNL A   1      38.503  31.526  36.207  1.00  0.00     0.173 A 
ATOM     72  C   UNL A   1      39.657  33.458  35.368  1.00  0.00     0.173 A 
ATOM     73  F   UNL A   1      38.132  30.243  36.099  1.00  0.00    -0.203 F 
ATOM     74  C   UNL A   1      38.053  32.272  37.295  1.00  0.00     0.198 A 
ATOM     75  C   UNL A   1      39.228  34.195  36.468  1.00  0.00     0.198 A 
ATOM     76  F   UNL A   1      40.433  34.055  34.451  1.00  0.00    -0.203 F 
ATOM     77  F   UNL A   1      37.258  31.703  38.211  1.00  0.00    -0.200 F 
ATOM     78  C   UNL A   1      38.425  33.602  37.431  1.00  0.00     0.200 A 
ATOM     79  F   UNL A   1      39.602  35.474  36.602  1.00  0.00    -0.200 F 
ATOM     80  F   UNL A   1      38.008  34.313  38.488  1.00  0.00    -0.200 F 
ENDBRANCH  46  70
BRANCH  58  81
ATOM     81  C   UNL A   1      44.558  27.561  34.536  1.00  0.00     0.064 A 
ATOM     82  C   UNL A   1      44.357  26.412  35.313  1.00  0.00     0.173 A 
ATOM     83  C   UNL A   1      45.797  28.213  34.623  1.00  0.00     0.173 A 
ATOM     84  F   UNL A   1      43.182  25.766  35.271  1.00  0.00    -0.203 F 
ATOM     85  C   UNL A   1      45.360  25.937  36.153  1.00  0.00     0.198 A 
ATOM     86  C   UNL A   1      46.802  27.723  35.450  1.00  0.00     0.198 A 
ATOM     87  F   UNL A   1      46.032  29.314  33.895  1.00  0.00    -0.203 F 
ATOM     88  F   UNL A   1      45.142  24.850  36.906  1.00  0.00    -0.200 F 
ATOM     89  C   UNL A   1      46.584  26.588  36.215  1.00  0.00     0.200 A 
ATOM     90  F   UNL A   1      47.986  28.350  35.505  1.00  0.00    -0.200 F 
ATOM     91  F   UNL A   1      47.551  26.123  37.017  1.00  0.00    -0.200 F 
ENDBRANCH  58  81
ENDBRANCH  32  33
ENDBRANCH  25  27
ENDBRANCH  24  25
ENDBRANCH  23  24
ENDBRANCH   1  23
TORSDOF 16
ENDMDL
