MODEL 1
REMARK VINA RESULT:     -13.2      0.000      0.000
REMARK SMILES Cc1nsc(NC(=O)[C@H]2Cc3[nH]cnc3C[NH2+]2)c1C(=O)OCCOC(=O)c1ccc(-c2c3nc(c(-c4c(F)c(F)c(F)c(F)c4F)c4ccc([nH]4)c(-c4c(F)c(F)c(F)c(F)c4F)c4nc(c(-c5c(F)c(F)c(F)c(F)c5F)c5ccc2[nH]5)C=C4)C=C3)cc1
REMARK SMILES IDX 22 1 21 2 19 3 20 4 18 5 1 6 2 7 3 8 4 9 5 10 6 11 7 12 8 14
REMARK SMILES IDX 9 15 10 16 17 17 11 18 16 19 12 22 15 23 13 24 14 26 23 27
REMARK SMILES IDX 24 28 25 29 26 30 27 31 28 32 89 33 29 34 88 35 30 36 31 37
REMARK SMILES IDX 32 38 82 39 33 40 87 41 81 42 83 43 34 44 86 45 80 46 79 47
REMARK SMILES IDX 35 49 67 50 47 51 66 52 48 53 51 54 65 55 84 56 49 57 50 58
REMARK SMILES IDX 64 60 85 61 52 62 36 63 37 64 45 65 38 66 39 67 43 68 46 69
REMARK SMILES IDX 40 70 41 71 44 72 42 73 68 74 69 75 77 76 70 77 71 78 75 79
REMARK SMILES IDX 78 80 72 81 73 82 76 83 74 84 53 85 54 86 62 87 55 88 56 89
REMARK SMILES IDX 60 90 63 91 57 92 58 93 61 94 59 95
REMARK H PARENT 6 13 17 20 17 21 12 25 83 48 51 59
REMARK Flexibility Score: inf
ROOT
ATOM      1  C   UNL A   1      32.394  30.037  25.781  1.00  0.00     0.275 C 
ENDROOT
BRANCH   1   2
ATOM      2  O   UNL A   1      31.635  28.848  26.061  1.00  0.00    -0.458 OA
BRANCH   2   3
ATOM      3  C   UNL A   1      32.328  27.667  26.063  1.00  0.00     0.343 C 
ATOM      4  O   UNL A   1      33.001  27.262  26.985  1.00  0.00    -0.246 OA
BRANCH   3   5
ATOM      5  C   UNL A   1      31.954  26.845  24.920  1.00  0.00     0.117 A 
ATOM      6  C   UNL A   1      33.430  27.866  23.017  1.00  0.00     0.069 C 
ATOM      7  C   UNL A   1      32.313  27.034  23.536  1.00  0.00     0.068 A 
ATOM      8  N   UNL A   1      31.527  26.418  22.648  1.00  0.00    -0.195 NA
ATOM      9  S   UNL A   1      30.274  25.737  23.497  1.00  0.00    -0.017 S 
ATOM     10  C   UNL A   1      31.087  25.765  25.003  1.00  0.00     0.131 A 
BRANCH  10  11
ATOM     11  N   UNL A   1      30.620  25.097  26.106  1.00  0.00    -0.310 N 
ATOM     12  C   UNL A   1      30.858  23.858  26.615  1.00  0.00     0.283 C 
ATOM     13  H   UNL A   1      29.983  25.622  26.639  1.00  0.00     0.171 HD
ATOM     14  O   UNL A   1      30.038  23.508  27.483  1.00  0.00    -0.268 OA
BRANCH  12  15
ATOM     15  C   UNL A   1      32.063  22.912  26.296  1.00  0.00     0.279 C 
ATOM     16  C   UNL A   1      33.145  22.597  27.351  1.00  0.00     0.131 C 
ATOM     17  N   UNL A   1      31.495  21.588  25.811  1.00  0.00    -0.331 N 
ATOM     18  C   UNL A   1      34.175  21.795  26.663  1.00  0.00     0.050 A 
ATOM     19  C   UNL A   1      32.489  20.673  25.171  1.00  0.00     0.320 C 
ATOM     20  H   UNL A   1      30.763  21.787  25.128  1.00  0.00     0.347 HD
ATOM     21  H   UNL A   1      31.152  21.102  26.640  1.00  0.00     0.347 HD
ATOM     22  N   UNL A   1      35.524  21.984  26.646  1.00  0.00    -0.348 N 
ATOM     23  C   UNL A   1      33.884  20.935  25.638  1.00  0.00     0.116 A 
ATOM     24  C   UNL A   1      35.997  21.249  25.591  1.00  0.00     0.197 A 
ATOM     25  H   UNL A   1      36.051  22.536  27.267  1.00  0.00     0.167 HD
ATOM     26  N   UNL A   1      35.035  20.580  24.985  1.00  0.00    -0.236 NA
ENDBRANCH  12  15
ENDBRANCH  10  11
ENDBRANCH   3   5
ENDBRANCH   2   3
ENDBRANCH   1   2
BRANCH   1  27
ATOM     27  C   UNL A   1      33.010  30.588  27.063  1.00  0.00     0.275 C 
BRANCH  27  28
ATOM     28  O   UNL A   1      34.438  30.471  27.044  1.00  0.00    -0.458 OA
BRANCH  28  29
ATOM     29  C   UNL A   1      35.087  31.458  27.696  1.00  0.00     0.338 C 
ATOM     30  O   UNL A   1      34.950  32.658  27.530  1.00  0.00    -0.246 OA
BRANCH  29  31
ATOM     31  C   UNL A   1      36.174  30.906  28.503  1.00  0.00     0.060 A 
ATOM     32  C   UNL A   1      37.180  31.773  28.940  1.00  0.00     0.016 A 
ATOM     33  C   UNL A   1      36.333  29.515  28.527  1.00  0.00     0.016 A 
ATOM     34  C   UNL A   1      38.416  31.246  29.259  1.00  0.00     0.010 A 
ATOM     35  C   UNL A   1      37.565  28.993  28.845  1.00  0.00     0.010 A 
ATOM     36  C   UNL A   1      38.615  29.868  29.127  1.00  0.00    -0.014 A 
BRANCH  36  37
ATOM     37  C   UNL A   1      39.956  29.347  29.326  1.00  0.00     0.031 A 
ATOM     38  C   UNL A   1      40.338  29.105  30.742  1.00  0.00     0.074 A 
ATOM     39  C   UNL A   1      40.715  28.954  28.285  1.00  0.00     0.049 A 
ATOM     40  N   UNL A   1      41.412  29.467  31.365  1.00  0.00    -0.248 NA
ATOM     41  C   UNL A   1      39.352  28.416  31.594  1.00  0.00     0.031 C 
ATOM     42  C   UNL A   1      40.334  28.854  26.873  1.00  0.00     0.029 A 
ATOM     43  N   UNL A   1      41.964  28.417  28.305  1.00  0.00    -0.354 N 
ATOM     44  C   UNL A   1      41.305  28.936  32.649  1.00  0.00     0.074 A 
ATOM     45  C   UNL A   1      39.978  28.394  32.768  1.00  0.00     0.031 C 
ATOM     46  C   UNL A   1      41.226  28.065  26.232  1.00  0.00     0.029 A 
ATOM     47  C   UNL A   1      42.289  27.713  27.157  1.00  0.00     0.049 A 
ATOM     48  H   UNL A   1      42.581  28.519  29.064  1.00  0.00     0.167 HD
ATOM     49  C   UNL A   1      42.380  28.808  33.472  1.00  0.00     0.037 A 
ATOM     50  C   UNL A   1      43.297  26.816  27.029  1.00  0.00     0.037 A 
ATOM     51  C   UNL A   1      43.438  29.712  33.116  1.00  0.00     0.049 A 
ATOM     52  C   UNL A   1      44.251  27.043  28.146  1.00  0.00     0.074 A 
ATOM     53  C   UNL A   1      43.530  31.089  33.022  1.00  0.00     0.029 A 
ATOM     54  N   UNL A   1      44.539  29.229  32.456  1.00  0.00    -0.354 N 
ATOM     55  N   UNL A   1      45.004  28.102  28.266  1.00  0.00    -0.248 NA
ATOM     56  C   UNL A   1      44.042  26.285  29.372  1.00  0.00     0.031 C 
ATOM     57  C   UNL A   1      44.367  31.325  31.893  1.00  0.00     0.029 A 
ATOM     58  C   UNL A   1      44.760  30.080  31.402  1.00  0.00     0.049 A 
ATOM     59  H   UNL A   1      45.066  28.431  32.690  1.00  0.00     0.167 HD
ATOM     60  C   UNL A   1      45.020  28.374  29.626  1.00  0.00     0.074 A 
ATOM     61  C   UNL A   1      44.486  27.174  30.264  1.00  0.00     0.031 C 
ATOM     62  C   UNL A   1      45.195  29.643  30.098  1.00  0.00     0.037 A 
BRANCH  49  63
ATOM     63  C   UNL A   1      42.569  27.647  34.410  1.00  0.00     0.064 A 
ATOM     64  C   UNL A   1      43.089  26.433  33.923  1.00  0.00     0.173 A 
ATOM     65  C   UNL A   1      41.989  27.592  35.698  1.00  0.00     0.173 A 
ATOM     66  F   UNL A   1      43.633  26.365  32.698  1.00  0.00    -0.203 F 
ATOM     67  C   UNL A   1      42.982  25.243  34.648  1.00  0.00     0.198 A 
ATOM     68  C   UNL A   1      41.934  26.416  36.440  1.00  0.00     0.198 A 
ATOM     69  F   UNL A   1      41.358  28.642  36.237  1.00  0.00    -0.203 F 
ATOM     70  F   UNL A   1      43.382  24.091  34.096  1.00  0.00    -0.200 F 
ATOM     71  C   UNL A   1      42.402  25.236  35.904  1.00  0.00     0.200 A 
ATOM     72  F   UNL A   1      41.348  26.424  37.645  1.00  0.00    -0.200 F 
ATOM     73  F   UNL A   1      42.244  24.086  36.574  1.00  0.00    -0.200 F 
ENDBRANCH  49  63
BRANCH  50  74
ATOM     74  C   UNL A   1      43.287  25.575  26.218  1.00  0.00     0.064 A 
ATOM     75  C   UNL A   1      44.345  25.266  25.350  1.00  0.00     0.173 A 
ATOM     76  C   UNL A   1      42.354  24.545  26.457  1.00  0.00     0.173 A 
ATOM     77  F   UNL A   1      45.307  26.169  25.112  1.00  0.00    -0.203 F 
ATOM     78  C   UNL A   1      44.462  24.003  24.758  1.00  0.00     0.198 A 
ATOM     79  C   UNL A   1      42.463  23.291  25.856  1.00  0.00     0.198 A 
ATOM     80  F   UNL A   1      41.365  24.700  27.348  1.00  0.00    -0.203 F 
ATOM     81  F   UNL A   1      45.515  23.726  23.977  1.00  0.00    -0.200 F 
ATOM     82  C   UNL A   1      43.524  23.016  25.015  1.00  0.00     0.200 A 
ATOM     83  F   UNL A   1      41.567  22.337  26.143  1.00  0.00    -0.200 F 
ATOM     84  F   UNL A   1      43.661  21.792  24.487  1.00  0.00    -0.200 F 
ENDBRANCH  50  74
BRANCH  62  85
ATOM     85  C   UNL A   1      45.595  30.715  29.124  1.00  0.00     0.064 A 
ATOM     86  C   UNL A   1      46.928  30.979  28.765  1.00  0.00     0.173 A 
ATOM     87  C   UNL A   1      44.592  31.381  28.406  1.00  0.00     0.173 A 
ATOM     88  F   UNL A   1      47.939  30.302  29.321  1.00  0.00    -0.203 F 
ATOM     89  C   UNL A   1      47.242  31.903  27.771  1.00  0.00     0.198 A 
ATOM     90  C   UNL A   1      44.907  32.276  27.386  1.00  0.00     0.198 A 
ATOM     91  F   UNL A   1      43.299  31.122  28.658  1.00  0.00    -0.203 F 
ATOM     92  F   UNL A   1      48.524  32.143  27.457  1.00  0.00    -0.200 F 
ATOM     93  C   UNL A   1      46.231  32.545  27.077  1.00  0.00     0.200 A 
ATOM     94  F   UNL A   1      43.925  32.853  26.679  1.00  0.00    -0.200 F 
ATOM     95  F   UNL A   1      46.531  33.400  26.088  1.00  0.00    -0.200 F 
ENDBRANCH  62  85
ENDBRANCH  36  37
ENDBRANCH  29  31
ENDBRANCH  28  29
ENDBRANCH  27  28
ENDBRANCH   1  27
TORSDOF 13
ENDMDL
MODEL 2
REMARK VINA RESULT:     -13.0      3.133      8.581
REMARK SMILES Cc1nsc(NC(=O)[C@H]2Cc3[nH]cnc3C[NH2+]2)c1C(=O)OCCOC(=O)c1ccc(-c2c3nc(c(-c4c(F)c(F)c(F)c(F)c4F)c4ccc([nH]4)c(-c4c(F)c(F)c(F)c(F)c4F)c4nc(c(-c5c(F)c(F)c(F)c(F)c5F)c5ccc2[nH]5)C=C4)C=C3)cc1
REMARK SMILES IDX 22 1 21 2 19 3 20 4 18 5 1 6 2 7 3 8 4 9 5 10 6 11 7 12 8 14
REMARK SMILES IDX 9 15 10 16 17 17 11 18 16 19 12 22 15 23 13 24 14 26 23 27
REMARK SMILES IDX 24 28 25 29 26 30 27 31 28 32 89 33 29 34 88 35 30 36 31 37
REMARK SMILES IDX 32 38 82 39 33 40 87 41 81 42 83 43 34 44 86 45 80 46 79 47
REMARK SMILES IDX 35 49 67 50 47 51 66 52 48 53 51 54 65 55 84 56 49 57 50 58
REMARK SMILES IDX 64 60 85 61 52 62 36 63 37 64 45 65 38 66 39 67 43 68 46 69
REMARK SMILES IDX 40 70 41 71 44 72 42 73 68 74 69 75 77 76 70 77 71 78 75 79
REMARK SMILES IDX 78 80 72 81 73 82 76 83 74 84 53 85 54 86 62 87 55 88 56 89
REMARK SMILES IDX 60 90 63 91 57 92 58 93 61 94 59 95
REMARK H PARENT 6 13 17 20 17 21 12 25 83 48 51 59
REMARK Flexibility Score: inf
ROOT
ATOM      1  C   UNL A   1      36.528  21.140  25.397  1.00  0.00     0.275 C 
ENDROOT
BRANCH   1   2
ATOM      2  O   UNL A   1      35.872  21.810  24.306  1.00  0.00    -0.458 OA
BRANCH   2   3
ATOM      3  C   UNL A   1      35.447  23.091  24.541  1.00  0.00     0.343 C 
ATOM      4  O   UNL A   1      36.141  24.078  24.436  1.00  0.00    -0.246 OA
BRANCH   3   5
ATOM      5  C   UNL A   1      33.999  23.138  24.690  1.00  0.00     0.117 A 
ATOM      6  C   UNL A   1      33.703  22.623  27.237  1.00  0.00     0.069 C 
ATOM      7  C   UNL A   1      33.214  22.769  25.841  1.00  0.00     0.068 A 
ATOM      8  N   UNL A   1      31.926  22.503  25.599  1.00  0.00    -0.195 NA
ATOM      9  S   UNL A   1      31.719  22.560  23.953  1.00  0.00    -0.017 S 
ATOM     10  C   UNL A   1      33.133  23.478  23.660  1.00  0.00     0.131 A 
BRANCH  10  11
ATOM     11  N   UNL A   1      33.398  24.058  22.446  1.00  0.00    -0.310 N 
ATOM     12  C   UNL A   1      33.103  25.272  21.909  1.00  0.00     0.283 C 
ATOM     13  H   UNL A   1      33.908  23.476  21.839  1.00  0.00     0.171 HD
ATOM     14  O   UNL A   1      33.276  25.330  20.678  1.00  0.00    -0.268 OA
BRANCH  12  15
ATOM     15  C   UNL A   1      32.676  26.572  22.668  1.00  0.00     0.279 C 
ATOM     16  C   UNL A   1      33.647  27.758  22.854  1.00  0.00     0.131 C 
ATOM     17  N   UNL A   1      31.421  27.107  21.998  1.00  0.00    -0.331 N 
ATOM     18  C   UNL A   1      32.954  28.731  23.720  1.00  0.00     0.050 A 
ATOM     19  C   UNL A   1      30.695  28.163  22.770  1.00  0.00     0.320 C 
ATOM     20  H   UNL A   1      30.780  26.326  21.851  1.00  0.00     0.347 HD
ATOM     21  H   UNL A   1      31.725  27.548  21.129  1.00  0.00     0.347 HD
ATOM     22  N   UNL A   1      33.417  29.342  24.846  1.00  0.00    -0.348 N 
ATOM     23  C   UNL A   1      31.595  28.897  23.710  1.00  0.00     0.116 A 
ATOM     24  C   UNL A   1      32.313  29.835  25.491  1.00  0.00     0.197 A 
ATOM     25  H   UNL A   1      34.354  29.415  25.137  1.00  0.00     0.167 HD
ATOM     26  N   UNL A   1      31.203  29.610  24.813  1.00  0.00    -0.236 NA
ENDBRANCH  12  15
ENDBRANCH  10  11
ENDBRANCH   3   5
ENDBRANCH   2   3
ENDBRANCH   1   2
BRANCH   1  27
ATOM     27  C   UNL A   1      38.037  21.341  25.312  1.00  0.00     0.275 C 
BRANCH  27  28
ATOM     28  O   UNL A   1      38.464  22.425  26.146  1.00  0.00    -0.458 OA
BRANCH  28  29
ATOM     29  C   UNL A   1      39.691  22.265  26.684  1.00  0.00     0.338 C 
ATOM     30  O   UNL A   1      40.166  21.235  27.131  1.00  0.00    -0.246 OA
BRANCH  29  31
ATOM     31  C   UNL A   1      40.334  23.564  26.878  1.00  0.00     0.060 A 
ATOM     32  C   UNL A   1      41.352  23.662  27.832  1.00  0.00     0.016 A 
ATOM     33  C   UNL A   1      39.701  24.696  26.352  1.00  0.00     0.016 A 
ATOM     34  C   UNL A   1      41.630  24.900  28.378  1.00  0.00     0.010 A 
ATOM     35  C   UNL A   1      39.979  25.927  26.898  1.00  0.00     0.010 A 
ATOM     36  C   UNL A   1      40.880  26.004  27.961  1.00  0.00    -0.014 A 
BRANCH  36  37
ATOM     37  C   UNL A   1      41.084  27.268  28.646  1.00  0.00     0.031 A 
ATOM     38  C   UNL A   1      42.246  28.065  28.174  1.00  0.00     0.074 A 
ATOM     39  C   UNL A   1      40.174  27.746  29.518  1.00  0.00     0.049 A 
ATOM     40  N   UNL A   1      43.181  28.626  28.870  1.00  0.00    -0.248 NA
ATOM     41  C   UNL A   1      42.420  28.198  26.717  1.00  0.00     0.031 C 
ATOM     42  C   UNL A   1      38.848  27.205  29.830  1.00  0.00     0.029 A 
ATOM     43  N   UNL A   1      40.198  28.917  30.208  1.00  0.00    -0.354 N 
ATOM     44  C   UNL A   1      43.986  29.299  27.954  1.00  0.00     0.074 A 
ATOM     45  C   UNL A   1      43.538  28.917  26.642  1.00  0.00     0.031 C 
ATOM     46  C   UNL A   1      38.113  28.164  30.436  1.00  0.00     0.029 A 
ATOM     47  C   UNL A   1      38.953  29.329  30.655  1.00  0.00     0.049 A 
ATOM     48  H   UNL A   1      41.023  29.426  30.374  1.00  0.00     0.167 HD
ATOM     49  C   UNL A   1      44.852  30.277  28.333  1.00  0.00     0.037 A 
ATOM     50  C   UNL A   1      38.625  30.579  31.063  1.00  0.00     0.037 A 
ATOM     51  C   UNL A   1      45.218  30.162  29.717  1.00  0.00     0.049 A 
ATOM     52  C   UNL A   1      39.887  31.299  31.379  1.00  0.00     0.074 A 
ATOM     53  C   UNL A   1      45.829  29.174  30.467  1.00  0.00     0.029 A 
ATOM     54  N   UNL A   1      44.661  31.019  30.631  1.00  0.00    -0.354 N 
ATOM     55  N   UNL A   1      40.665  31.010  32.385  1.00  0.00    -0.248 NA
ATOM     56  C   UNL A   1      40.511  32.062  30.307  1.00  0.00     0.031 C 
ATOM     57  C   UNL A   1      45.169  29.210  31.729  1.00  0.00     0.029 A 
ATOM     58  C   UNL A   1      44.232  30.241  31.676  1.00  0.00     0.049 A 
ATOM     59  H   UNL A   1      44.584  31.999  30.554  1.00  0.00     0.167 HD
ATOM     60  C   UNL A   1      41.953  31.185  31.899  1.00  0.00     0.074 A 
ATOM     61  C   UNL A   1      41.794  31.918  30.646  1.00  0.00     0.031 C 
ATOM     62  C   UNL A   1      43.008  30.480  32.402  1.00  0.00     0.037 A 
BRANCH  49  63
ATOM     63  C   UNL A   1      45.121  31.507  27.508  1.00  0.00     0.064 A 
ATOM     64  C   UNL A   1      46.408  31.728  26.983  1.00  0.00     0.173 A 
ATOM     65  C   UNL A   1      44.241  32.612  27.460  1.00  0.00     0.173 A 
ATOM     66  F   UNL A   1      47.333  30.757  27.008  1.00  0.00    -0.203 F 
ATOM     67  C   UNL A   1      46.801  32.981  26.503  1.00  0.00     0.198 A 
ATOM     68  C   UNL A   1      44.619  33.843  26.930  1.00  0.00     0.198 A 
ATOM     69  F   UNL A   1      43.027  32.578  28.024  1.00  0.00    -0.203 F 
ATOM     70  F   UNL A   1      48.070  33.178  26.125  1.00  0.00    -0.200 F 
ATOM     71  C   UNL A   1      45.907  34.036  26.480  1.00  0.00     0.200 A 
ATOM     72  F   UNL A   1      43.746  34.859  26.937  1.00  0.00    -0.200 F 
ATOM     73  F   UNL A   1      46.300  35.252  26.076  1.00  0.00    -0.200 F 
ENDBRANCH  49  63
BRANCH  50  74
ATOM     74  C   UNL A   1      37.332  31.273  30.854  1.00  0.00     0.064 A 
ATOM     75  C   UNL A   1      36.502  31.604  31.935  1.00  0.00     0.173 A 
ATOM     76  C   UNL A   1      36.994  31.844  29.609  1.00  0.00     0.173 A 
ATOM     77  F   UNL A   1      36.783  31.151  33.165  1.00  0.00    -0.203 F 
ATOM     78  C   UNL A   1      35.402  32.456  31.780  1.00  0.00     0.198 A 
ATOM     79  C   UNL A   1      35.890  32.681  29.452  1.00  0.00     0.198 A 
ATOM     80  F   UNL A   1      37.779  31.676  28.535  1.00  0.00    -0.203 F 
ATOM     81  F   UNL A   1      34.663  32.793  32.845  1.00  0.00    -0.200 F 
ATOM     82  C   UNL A   1      35.099  32.996  30.540  1.00  0.00     0.200 A 
ATOM     83  F   UNL A   1      35.632  33.222  28.254  1.00  0.00    -0.200 F 
ATOM     84  F   UNL A   1      34.075  33.849  30.401  1.00  0.00    -0.200 F 
ENDBRANCH  50  74
BRANCH  62  85
ATOM     85  C   UNL A   1      42.792  29.669  33.649  1.00  0.00     0.064 A 
ATOM     86  C   UNL A   1      42.932  30.189  34.947  1.00  0.00     0.173 A 
ATOM     87  C   UNL A   1      42.263  28.377  33.528  1.00  0.00     0.173 A 
ATOM     88  F   UNL A   1      43.320  31.454  35.145  1.00  0.00    -0.203 F 
ATOM     89  C   UNL A   1      42.607  29.433  36.070  1.00  0.00     0.198 A 
ATOM     90  C   UNL A   1      41.903  27.636  34.652  1.00  0.00     0.198 A 
ATOM     91  F   UNL A   1      42.044  27.850  32.313  1.00  0.00    -0.203 F 
ATOM     92  F   UNL A   1      42.762  29.951  37.298  1.00  0.00    -0.200 F 
ATOM     93  C   UNL A   1      42.086  28.159  35.921  1.00  0.00     0.200 A 
ATOM     94  F   UNL A   1      41.347  26.426  34.501  1.00  0.00    -0.200 F 
ATOM     95  F   UNL A   1      41.729  27.448  37.001  1.00  0.00    -0.200 F 
ENDBRANCH  62  85
ENDBRANCH  36  37
ENDBRANCH  29  31
ENDBRANCH  28  29
ENDBRANCH  27  28
ENDBRANCH   1  27
TORSDOF 13
ENDMDL
MODEL 3
REMARK VINA RESULT:     -12.9      1.032      1.872
REMARK SMILES Cc1nsc(NC(=O)[C@H]2Cc3[nH]cnc3C[NH2+]2)c1C(=O)OCCOC(=O)c1ccc(-c2c3nc(c(-c4c(F)c(F)c(F)c(F)c4F)c4ccc([nH]4)c(-c4c(F)c(F)c(F)c(F)c4F)c4nc(c(-c5c(F)c(F)c(F)c(F)c5F)c5ccc2[nH]5)C=C4)C=C3)cc1
REMARK SMILES IDX 22 1 21 2 19 3 20 4 18 5 1 6 2 7 3 8 4 9 5 10 6 11 7 12 8 14
REMARK SMILES IDX 9 15 10 16 17 17 11 18 16 19 12 22 15 23 13 24 14 26 23 27
REMARK SMILES IDX 24 28 25 29 26 30 27 31 28 32 89 33 29 34 88 35 30 36 31 37
REMARK SMILES IDX 32 38 82 39 33 40 87 41 81 42 83 43 34 44 86 45 80 46 79 47
REMARK SMILES IDX 35 49 67 50 47 51 66 52 48 53 51 54 65 55 84 56 49 57 50 58
REMARK SMILES IDX 64 60 85 61 52 62 36 63 37 64 45 65 38 66 39 67 43 68 46 69
REMARK SMILES IDX 40 70 41 71 44 72 42 73 68 74 69 75 77 76 70 77 71 78 75 79
REMARK SMILES IDX 78 80 72 81 73 82 76 83 74 84 53 85 54 86 62 87 55 88 56 89
REMARK SMILES IDX 60 90 63 91 57 92 58 93 61 94 59 95
REMARK H PARENT 6 13 17 20 17 21 12 25 83 48 51 59
REMARK Flexibility Score: inf
ROOT
ATOM      1  C   UNL A   1      33.610  29.135  26.532  1.00  0.00     0.275 C 
ENDROOT
BRANCH   1   2
ATOM      2  O   UNL A   1      32.303  28.551  26.389  1.00  0.00    -0.458 OA
BRANCH   2   3
ATOM      3  C   UNL A   1      31.795  28.493  25.118  1.00  0.00     0.343 C 
ATOM      4  O   UNL A   1      31.128  29.361  24.600  1.00  0.00    -0.246 OA
BRANCH   3   5
ATOM      5  C   UNL A   1      32.362  27.370  24.384  1.00  0.00     0.117 A 
ATOM      6  C   UNL A   1      33.932  28.580  22.678  1.00  0.00     0.069 C 
ATOM      7  C   UNL A   1      33.179  27.408  23.197  1.00  0.00     0.068 A 
ATOM      8  N   UNL A   1      33.220  26.275  22.489  1.00  0.00    -0.195 NA
ATOM      9  S   UNL A   1      32.148  25.222  23.194  1.00  0.00    -0.017 S 
ATOM     10  C   UNL A   1      32.105  26.042  24.695  1.00  0.00     0.131 A 
BRANCH  10  11
ATOM     11  N   UNL A   1      31.533  25.499  25.817  1.00  0.00    -0.310 N 
ATOM     12  C   UNL A   1      31.584  24.264  26.385  1.00  0.00     0.283 C 
ATOM     13  H   UNL A   1      30.970  26.134  26.314  1.00  0.00     0.171 HD
ATOM     14  O   UNL A   1      30.711  24.075  27.251  1.00  0.00    -0.268 OA
BRANCH  12  15
ATOM     15  C   UNL A   1      32.645  23.142  26.132  1.00  0.00     0.279 C 
ATOM     16  C   UNL A   1      33.803  22.886  27.121  1.00  0.00     0.131 C 
ATOM     17  N   UNL A   1      31.897  21.831  25.951  1.00  0.00    -0.331 N 
ATOM     18  C   UNL A   1      34.664  21.863  26.496  1.00  0.00     0.050 A 
ATOM     19  C   UNL A   1      32.718  20.709  25.397  1.00  0.00     0.320 C 
ATOM     20  H   UNL A   1      31.116  21.995  25.315  1.00  0.00     0.347 HD
ATOM     21  H   UNL A   1      31.604  21.537  26.882  1.00  0.00     0.347 HD
ATOM     22  N   UNL A   1      36.014  21.887  26.320  1.00  0.00    -0.348 N 
ATOM     23  C   UNL A   1      34.176  20.882  25.676  1.00  0.00     0.116 A 
ATOM     24  C   UNL A   1      36.291  20.932  25.376  1.00  0.00     0.197 A 
ATOM     25  H   UNL A   1      36.661  22.471  26.777  1.00  0.00     0.167 HD
ATOM     26  N   UNL A   1      35.205  20.287  24.994  1.00  0.00    -0.236 NA
ENDBRANCH  12  15
ENDBRANCH  10  11
ENDBRANCH   3   5
ENDBRANCH   2   3
ENDBRANCH   1   2
BRANCH   1  27
ATOM     27  C   UNL A   1      33.496  30.598  26.946  1.00  0.00     0.275 C 
BRANCH  27  28
ATOM     28  O   UNL A   1      34.058  30.815  28.245  1.00  0.00    -0.458 OA
BRANCH  28  29
ATOM     29  C   UNL A   1      35.090  31.685  28.269  1.00  0.00     0.338 C 
ATOM     30  O   UNL A   1      35.193  32.716  27.626  1.00  0.00    -0.246 OA
BRANCH  29  31
ATOM     31  C   UNL A   1      36.212  31.121  29.016  1.00  0.00     0.060 A 
ATOM     32  C   UNL A   1      37.305  31.948  29.293  1.00  0.00     0.016 A 
ATOM     33  C   UNL A   1      36.290  29.728  29.135  1.00  0.00     0.016 A 
ATOM     34  C   UNL A   1      38.532  31.364  29.541  1.00  0.00     0.010 A 
ATOM     35  C   UNL A   1      37.513  29.149  29.382  1.00  0.00     0.010 A 
ATOM     36  C   UNL A   1      38.635  29.970  29.500  1.00  0.00    -0.014 A 
BRANCH  36  37
ATOM     37  C   UNL A   1      39.955  29.377  29.619  1.00  0.00     0.031 A 
ATOM     38  C   UNL A   1      40.489  29.290  31.003  1.00  0.00     0.074 A 
ATOM     39  C   UNL A   1      40.558  28.796  28.563  1.00  0.00     0.049 A 
ATOM     40  N   UNL A   1      41.650  29.645  31.448  1.00  0.00    -0.248 NA
ATOM     41  C   UNL A   1      39.571  28.795  32.044  1.00  0.00     0.031 C 
ATOM     42  C   UNL A   1      40.005  28.545  27.229  1.00  0.00     0.029 A 
ATOM     43  N   UNL A   1      41.765  28.171  28.518  1.00  0.00    -0.354 N 
ATOM     44  C   UNL A   1      41.665  29.293  32.797  1.00  0.00     0.074 A 
ATOM     45  C   UNL A   1      40.330  28.875  33.135  1.00  0.00     0.031 C 
ATOM     46  C   UNL A   1      40.763  27.614  26.607  1.00  0.00     0.029 A 
ATOM     47  C   UNL A   1      41.905  27.302  27.448  1.00  0.00     0.049 A 
ATOM     48  H   UNL A   1      42.474  28.321  29.183  1.00  0.00     0.167 HD
ATOM     49  C   UNL A   1      42.820  29.190  33.505  1.00  0.00     0.037 A 
ATOM     50  C   UNL A   1      42.833  26.320  27.333  1.00  0.00     0.037 A 
ATOM     51  C   UNL A   1      43.882  29.955  32.914  1.00  0.00     0.049 A 
ATOM     52  C   UNL A   1      43.926  26.615  28.296  1.00  0.00     0.074 A 
ATOM     53  C   UNL A   1      44.048  31.297  32.624  1.00  0.00     0.029 A 
ATOM     54  N   UNL A   1      44.864  29.308  32.208  1.00  0.00    -0.354 N 
ATOM     55  N   UNL A   1      44.752  27.619  28.186  1.00  0.00    -0.248 NA
ATOM     56  C   UNL A   1      43.819  26.040  29.630  1.00  0.00     0.031 C 
ATOM     57  C   UNL A   1      44.757  31.321  31.387  1.00  0.00     0.029 A 
ATOM     58  C   UNL A   1      45.010  29.997  31.031  1.00  0.00     0.049 A 
ATOM     59  H   UNL A   1      45.365  28.508  32.490  1.00  0.00     0.167 HD
ATOM     60  C   UNL A   1      44.948  28.061  29.487  1.00  0.00     0.074 A 
ATOM     61  C   UNL A   1      44.422  26.998  30.338  1.00  0.00     0.031 C 
ATOM     62  C   UNL A   1      45.257  29.363  29.758  1.00  0.00     0.037 A 
BRANCH  49  63
ATOM     63  C   UNL A   1      43.048  28.147  34.566  1.00  0.00     0.064 A 
ATOM     64  C   UNL A   1      43.477  28.538  35.848  1.00  0.00     0.173 A 
ATOM     65  C   UNL A   1      43.140  26.765  34.284  1.00  0.00     0.173 A 
ATOM     66  F   UNL A   1      43.464  29.829  36.210  1.00  0.00    -0.203 F 
ATOM     67  C   UNL A   1      44.014  27.619  36.755  1.00  0.00     0.198 A 
ATOM     68  C   UNL A   1      43.623  25.846  35.211  1.00  0.00     0.198 A 
ATOM     69  F   UNL A   1      42.873  26.269  33.069  1.00  0.00    -0.203 F 
ATOM     70  F   UNL A   1      44.520  28.053  37.917  1.00  0.00    -0.200 F 
ATOM     71  C   UNL A   1      44.088  26.276  36.435  1.00  0.00     0.200 A 
ATOM     72  F   UNL A   1      43.709  24.552  34.873  1.00  0.00    -0.200 F 
ATOM     73  F   UNL A   1      44.657  25.405  37.279  1.00  0.00    -0.200 F 
ENDBRANCH  49  63
BRANCH  50  74
ATOM     74  C   UNL A   1      42.649  24.990  26.705  1.00  0.00     0.064 A 
ATOM     75  C   UNL A   1      43.413  24.599  25.596  1.00  0.00     0.173 A 
ATOM     76  C   UNL A   1      41.889  23.979  27.329  1.00  0.00     0.173 A 
ATOM     77  F   UNL A   1      44.208  25.484  24.979  1.00  0.00    -0.203 F 
ATOM     78  C   UNL A   1      43.417  23.275  25.140  1.00  0.00     0.198 A 
ATOM     79  C   UNL A   1      41.882  22.664  26.865  1.00  0.00     0.198 A 
ATOM     80  F   UNL A   1      41.206  24.223  28.456  1.00  0.00    -0.203 F 
ATOM     81  F   UNL A   1      44.201  22.926  24.110  1.00  0.00    -0.200 F 
ATOM     82  C   UNL A   1      42.655  22.309  25.777  1.00  0.00     0.200 A 
ATOM     83  F   UNL A   1      41.167  21.735  27.514  1.00  0.00    -0.200 F 
ATOM     84  F   UNL A   1      42.695  21.033  25.370  1.00  0.00    -0.200 F 
ENDBRANCH  50  74
BRANCH  62  85
ATOM     85  C   UNL A   1      45.603  30.267  28.609  1.00  0.00     0.064 A 
ATOM     86  C   UNL A   1      44.643  30.946  27.839  1.00  0.00     0.173 A 
ATOM     87  C   UNL A   1      46.949  30.590  28.388  1.00  0.00     0.173 A 
ATOM     88  F   UNL A   1      43.335  30.782  28.067  1.00  0.00    -0.203 F 
ATOM     89  C   UNL A   1      45.015  31.864  26.860  1.00  0.00     0.198 A 
ATOM     90  C   UNL A   1      47.317  31.537  27.434  1.00  0.00     0.198 A 
ATOM     91  F   UNL A   1      47.909  30.024  29.136  1.00  0.00    -0.203 F 
ATOM     92  F   UNL A   1      44.077  32.489  26.132  1.00  0.00    -0.200 F 
ATOM     93  C   UNL A   1      46.352  32.164  26.663  1.00  0.00     0.200 A 
ATOM     94  F   UNL A   1      48.608  31.865  27.286  1.00  0.00    -0.200 F 
ATOM     95  F   UNL A   1      46.708  33.082  25.754  1.00  0.00    -0.200 F 
ENDBRANCH  62  85
ENDBRANCH  36  37
ENDBRANCH  29  31
ENDBRANCH  28  29
ENDBRANCH  27  28
ENDBRANCH   1  27
TORSDOF 13
ENDMDL
