MODEL 1
REMARK VINA RESULT:     -12.6      0.000      0.000
REMARK SMILES CCN(CC)C(=O)[C@@H]1CC=CC[C@H]1C(=O)Nc1ccc(C(=O)OCCOC(=O)c2ccc(-c3c4nc(c(-c5c(F)c(F)c(F)c(F)c5F)c5ccc([nH]5)c(-c5c(F)c(F)c(F)c(F)c5F)c5nc(c(-c6c(F)c(F)c(F)c(F)c6F)c6ccc3[nH]6)C=C5)C=C4)cc2)cc1
REMARK SMILES IDX 24 1 23 2 21 3 22 4 20 5 17 6 18 7 93 8 19 9 92 10 16 11
REMARK SMILES IDX 14 12 15 13 13 15 8 16 9 17 10 18 12 19 11 20 6 21 3 22 7 23
REMARK SMILES IDX 2 24 1 25 4 26 5 27 25 28 26 29 27 30 28 31 29 32 30 33
REMARK SMILES IDX 91 34 31 35 90 36 32 37 33 38 34 39 84 40 35 41 89 42 83 43
REMARK SMILES IDX 85 44 36 45 88 46 82 47 81 48 37 50 69 51 49 52 68 53 50 54
REMARK SMILES IDX 53 55 67 56 86 57 51 58 52 59 66 61 87 62 54 63 38 64 39 65
REMARK SMILES IDX 47 66 40 67 41 68 45 69 48 70 42 71 43 72 46 73 44 74 70 75
REMARK SMILES IDX 71 76 79 77 72 78 73 79 77 80 80 81 74 82 75 83 78 84 76 85
REMARK SMILES IDX 55 86 56 87 64 88 57 89 58 90 62 91 65 92 59 93 60 94 63 95
REMARK SMILES IDX 61 96
REMARK H PARENT 16 14 85 49 53 60
REMARK Flexibility Score: inf
ROOT
ATOM      1  C   UNL A   1      31.405  29.775  24.481  1.00  0.00     0.275 C 
ENDROOT
BRANCH   1   2
ATOM      2  O   UNL A   1      30.095  29.821  23.890  1.00  0.00    -0.458 OA
BRANCH   2   3
ATOM      3  C   UNL A   1      29.988  29.193  22.698  1.00  0.00     0.338 C 
ATOM      4  O   UNL A   1      29.918  29.726  21.599  1.00  0.00    -0.246 OA
BRANCH   3   5
ATOM      5  C   UNL A   1      30.076  27.723  22.852  1.00  0.00     0.060 A 
ATOM      6  C   UNL A   1      30.253  25.035  23.474  1.00  0.00     0.041 A 
ATOM      7  C   UNL A   1      29.120  25.741  23.865  1.00  0.00     0.027 A 
ATOM      8  C   UNL A   1      31.188  25.597  22.608  1.00  0.00     0.027 A 
ATOM      9  C   UNL A   1      29.066  27.099  23.601  1.00  0.00     0.018 A 
ATOM     10  C   UNL A   1      31.109  26.958  22.304  1.00  0.00     0.018 A 
BRANCH   6  11
ATOM     11  N   UNL A   1      30.480  23.804  24.094  1.00  0.00    -0.326 N 
ATOM     12  C   UNL A   1      31.018  23.695  25.357  1.00  0.00     0.228 C 
ATOM     13  O   UNL A   1      30.502  22.858  26.110  1.00  0.00    -0.274 OA
ATOM     14  H   UNL A   1      30.247  22.980  23.608  1.00  0.00     0.169 HD
BRANCH  12  15
ATOM     15  C   UNL A   1      32.189  24.548  25.870  1.00  0.00     0.095 C 
ATOM     16  C   UNL A   1      33.420  24.716  24.958  1.00  0.00     0.095 C 
ATOM     17  C   UNL A   1      34.362  25.841  25.508  1.00  0.00     0.041 C 
ATOM     18  C   UNL A   1      33.711  27.042  26.108  1.00  0.00    -0.030 C 
ATOM     19  C   UNL A   1      31.547  25.868  26.377  1.00  0.00     0.041 C 
ATOM     20  C   UNL A   1      32.438  27.055  26.495  1.00  0.00    -0.030 C 
BRANCH  16  21
ATOM     21  C   UNL A   1      34.404  23.575  24.532  1.00  0.00     0.226 C 
ATOM     22  N   UNL A   1      34.886  22.537  25.309  1.00  0.00    -0.343 N 
ATOM     23  O   UNL A   1      34.668  23.524  23.315  1.00  0.00    -0.275 OA
BRANCH  22  24
ATOM     24  C   UNL A   1      35.490  21.405  24.586  1.00  0.00     0.116 C 
ATOM     25  C   UNL A   1      37.012  21.463  24.652  1.00  0.00     0.027 C 
ENDBRANCH  22  24
BRANCH  22  26
ATOM     26  C   UNL A   1      34.936  22.408  26.758  1.00  0.00     0.116 C 
ATOM     27  C   UNL A   1      33.789  21.586  27.316  1.00  0.00     0.027 C 
ENDBRANCH  22  26
ENDBRANCH  16  21
ENDBRANCH  12  15
ENDBRANCH   6  11
ENDBRANCH   3   5
ENDBRANCH   2   3
ENDBRANCH   1   2
BRANCH   1  28
ATOM     28  C   UNL A   1      31.451  30.683  25.709  1.00  0.00     0.275 C 
BRANCH  28  29
ATOM     29  O   UNL A   1      32.678  30.480  26.441  1.00  0.00    -0.458 OA
BRANCH  29  30
ATOM     30  C   UNL A   1      33.173  31.570  27.073  1.00  0.00     0.338 C 
ATOM     31  O   UNL A   1      32.631  32.651  27.228  1.00  0.00    -0.246 OA
BRANCH  30  32
ATOM     32  C   UNL A   1      34.505  31.277  27.630  1.00  0.00     0.060 A 
ATOM     33  C   UNL A   1      34.805  29.973  28.006  1.00  0.00     0.016 A 
ATOM     34  C   UNL A   1      35.392  32.304  27.937  1.00  0.00     0.016 A 
ATOM     35  C   UNL A   1      35.928  29.700  28.783  1.00  0.00     0.010 A 
ATOM     36  C   UNL A   1      36.591  32.006  28.601  1.00  0.00     0.010 A 
ATOM     37  C   UNL A   1      36.864  30.704  29.064  1.00  0.00    -0.014 A 
BRANCH  37  38
ATOM     38  C   UNL A   1      38.110  30.393  29.831  1.00  0.00     0.031 A 
ATOM     39  C   UNL A   1      39.178  29.509  29.237  1.00  0.00     0.074 A 
ATOM     40  C   UNL A   1      38.297  30.895  31.071  1.00  0.00     0.049 A 
ATOM     41  N   UNL A   1      40.208  28.945  29.819  1.00  0.00    -0.248 NA
ATOM     42  C   UNL A   1      39.064  29.206  27.803  1.00  0.00     0.031 C 
ATOM     43  C   UNL A   1      37.382  31.801  31.768  1.00  0.00     0.029 A 
ATOM     44  N   UNL A   1      39.324  30.715  31.969  1.00  0.00    -0.354 N 
ATOM     45  C   UNL A   1      40.821  28.168  28.842  1.00  0.00     0.074 A 
ATOM     46  C   UNL A   1      40.050  28.337  27.628  1.00  0.00     0.031 C 
ATOM     47  C   UNL A   1      37.903  32.131  32.957  1.00  0.00     0.029 A 
ATOM     48  C   UNL A   1      39.129  31.371  33.162  1.00  0.00     0.049 A 
ATOM     49  H   UNL A   1      40.120  30.170  31.776  1.00  0.00     0.167 HD
ATOM     50  C   UNL A   1      41.920  27.383  28.952  1.00  0.00     0.037 A 
ATOM     51  C   UNL A   1      39.815  31.322  34.321  1.00  0.00     0.037 A 
ATOM     52  C   UNL A   1      42.723  27.267  30.145  1.00  0.00     0.049 A 
ATOM     53  C   UNL A   1      41.005  30.414  34.433  1.00  0.00     0.074 A 
ATOM     54  C   UNL A   1      43.877  26.528  30.340  1.00  0.00     0.029 A 
ATOM     55  N   UNL A   1      42.461  27.918  31.341  1.00  0.00    -0.354 N 
ATOM     56  N   UNL A   1      41.540  29.639  33.522  1.00  0.00    -0.248 NA
ATOM     57  C   UNL A   1      41.667  30.352  35.743  1.00  0.00     0.031 C 
ATOM     58  C   UNL A   1      44.287  26.694  31.668  1.00  0.00     0.029 A 
ATOM     59  C   UNL A   1      43.418  27.578  32.286  1.00  0.00     0.049 A 
ATOM     60  H   UNL A   1      41.708  28.533  31.496  1.00  0.00     0.167 HD
ATOM     61  C   UNL A   1      42.601  28.998  34.146  1.00  0.00     0.074 A 
ATOM     62  C   UNL A   1      42.652  29.497  35.505  1.00  0.00     0.031 C 
ATOM     63  C   UNL A   1      43.451  28.072  33.639  1.00  0.00     0.037 A 
BRANCH  50  64
ATOM     64  C   UNL A   1      42.305  26.544  27.765  1.00  0.00     0.064 A 
ATOM     65  C   UNL A   1      43.283  26.948  26.846  1.00  0.00     0.173 A 
ATOM     66  C   UNL A   1      41.708  25.287  27.572  1.00  0.00     0.173 A 
ATOM     67  F   UNL A   1      43.878  28.144  26.977  1.00  0.00    -0.203 F 
ATOM     68  C   UNL A   1      43.630  26.140  25.765  1.00  0.00     0.198 A 
ATOM     69  C   UNL A   1      42.078  24.468  26.508  1.00  0.00     0.198 A 
ATOM     70  F   UNL A   1      40.772  24.845  28.426  1.00  0.00    -0.203 F 
ATOM     71  F   UNL A   1      44.535  26.569  24.874  1.00  0.00    -0.200 F 
ATOM     72  C   UNL A   1      43.033  24.900  25.600  1.00  0.00     0.200 A 
ATOM     73  F   UNL A   1      41.511  23.263  26.362  1.00  0.00    -0.200 F 
ATOM     74  F   UNL A   1      43.374  24.121  24.564  1.00  0.00    -0.200 F 
ENDBRANCH  50  64
BRANCH  51  75
ATOM     75  C   UNL A   1      39.341  32.112  35.489  1.00  0.00     0.064 A 
ATOM     76  C   UNL A   1      38.494  31.545  36.450  1.00  0.00     0.173 A 
ATOM     77  C   UNL A   1      39.744  33.443  35.680  1.00  0.00     0.173 A 
ATOM     78  F   UNL A   1      38.056  30.287  36.297  1.00  0.00    -0.203 F 
ATOM     79  C   UNL A   1      38.071  32.278  37.558  1.00  0.00     0.198 A 
ATOM     80  C   UNL A   1      39.349  34.162  36.804  1.00  0.00     0.198 A 
ATOM     81  F   UNL A   1      40.551  34.035  34.787  1.00  0.00    -0.203 F 
ATOM     82  F   UNL A   1      37.233  31.724  38.445  1.00  0.00    -0.200 F 
ATOM     83  C   UNL A   1      38.508  33.581  37.740  1.00  0.00     0.200 A 
ATOM     84  F   UNL A   1      39.790  35.415  36.985  1.00  0.00    -0.200 F 
ATOM     85  F   UNL A   1      38.116  34.278  38.815  1.00  0.00    -0.200 F 
ENDBRANCH  51  75
BRANCH  63  86
ATOM     86  C   UNL A   1      44.516  27.551  34.557  1.00  0.00     0.064 A 
ATOM     87  C   UNL A   1      44.326  26.385  35.313  1.00  0.00     0.173 A 
ATOM     88  C   UNL A   1      45.748  28.214  34.669  1.00  0.00     0.173 A 
ATOM     89  F   UNL A   1      43.159  25.727  35.255  1.00  0.00    -0.203 F 
ATOM     90  C   UNL A   1      45.320  25.917  36.168  1.00  0.00     0.198 A 
ATOM     91  C   UNL A   1      46.750  27.727  35.503  1.00  0.00     0.198 A 
ATOM     92  F   UNL A   1      45.980  29.332  33.965  1.00  0.00    -0.203 F 
ATOM     93  F   UNL A   1      45.098  24.830  36.920  1.00  0.00    -0.200 F 
ATOM     94  C   UNL A   1      46.532  26.584  36.258  1.00  0.00     0.200 A 
ATOM     95  F   UNL A   1      47.924  28.368  35.581  1.00  0.00    -0.200 F 
ATOM     96  F   UNL A   1      47.489  26.131  37.081  1.00  0.00    -0.200 F 
ENDBRANCH  63  86
ENDBRANCH  37  38
ENDBRANCH  30  32
ENDBRANCH  29  30
ENDBRANCH  28  29
ENDBRANCH   1  28
TORSDOF 16
ENDMDL
MODEL 2
REMARK VINA RESULT:     -12.2      4.081      9.620
REMARK SMILES CCN(CC)C(=O)[C@@H]1CC=CC[C@H]1C(=O)Nc1ccc(C(=O)OCCOC(=O)c2ccc(-c3c4nc(c(-c5c(F)c(F)c(F)c(F)c5F)c5ccc([nH]5)c(-c5c(F)c(F)c(F)c(F)c5F)c5nc(c(-c6c(F)c(F)c(F)c(F)c6F)c6ccc3[nH]6)C=C5)C=C4)cc2)cc1
REMARK SMILES IDX 24 1 23 2 21 3 22 4 20 5 17 6 18 7 93 8 19 9 92 10 16 11
REMARK SMILES IDX 14 12 15 13 13 15 8 16 9 17 10 18 12 19 11 20 6 21 3 22 7 23
REMARK SMILES IDX 2 24 1 25 4 26 5 27 25 28 26 29 27 30 28 31 29 32 30 33
REMARK SMILES IDX 91 34 31 35 90 36 32 37 33 38 34 39 84 40 35 41 89 42 83 43
REMARK SMILES IDX 85 44 36 45 88 46 82 47 81 48 37 50 69 51 49 52 68 53 50 54
REMARK SMILES IDX 53 55 67 56 86 57 51 58 52 59 66 61 87 62 54 63 38 64 39 65
REMARK SMILES IDX 47 66 40 67 41 68 45 69 48 70 42 71 43 72 46 73 44 74 70 75
REMARK SMILES IDX 71 76 79 77 72 78 73 79 77 80 80 81 74 82 75 83 78 84 76 85
REMARK SMILES IDX 55 86 56 87 64 88 57 89 58 90 62 91 65 92 59 93 60 94 63 95
REMARK SMILES IDX 61 96
REMARK H PARENT 16 14 85 49 53 60
REMARK Flexibility Score: inf
ROOT
ATOM      1  C   UNL A   1      35.358  19.815  25.004  1.00  0.00     0.275 C 
ENDROOT
BRANCH   1   2
ATOM      2  O   UNL A   1      34.224  20.256  25.770  1.00  0.00    -0.458 OA
BRANCH   2   3
ATOM      3  C   UNL A   1      33.026  19.848  25.295  1.00  0.00     0.338 C 
ATOM      4  O   UNL A   1      32.532  18.736  25.427  1.00  0.00    -0.246 OA
BRANCH   3   5
ATOM      5  C   UNL A   1      32.287  20.965  24.663  1.00  0.00     0.060 A 
ATOM      6  C   UNL A   1      31.205  23.146  23.354  1.00  0.00     0.041 A 
ATOM      7  C   UNL A   1      31.741  22.109  22.599  1.00  0.00     0.027 A 
ATOM      8  C   UNL A   1      31.017  23.014  24.728  1.00  0.00     0.027 A 
ATOM      9  C   UNL A   1      32.333  21.048  23.263  1.00  0.00     0.018 A 
ATOM     10  C   UNL A   1      31.575  21.920  25.393  1.00  0.00     0.018 A 
BRANCH   6  11
ATOM     11  N   UNL A   1      30.997  24.365  22.703  1.00  0.00    -0.326 N 
ATOM     12  C   UNL A   1      32.023  25.236  22.411  1.00  0.00     0.228 C 
ATOM     13  O   UNL A   1      31.999  25.767  21.292  1.00  0.00    -0.274 OA
ATOM     14  H   UNL A   1      30.080  24.611  22.443  1.00  0.00     0.169 HD
BRANCH  12  15
ATOM     15  C   UNL A   1      33.173  25.565  23.375  1.00  0.00     0.095 C 
ATOM     16  C   UNL A   1      32.818  25.992  24.813  1.00  0.00     0.095 C 
ATOM     17  C   UNL A   1      34.097  25.992  25.718  1.00  0.00     0.041 C 
ATOM     18  C   UNL A   1      35.093  24.906  25.490  1.00  0.00    -0.030 C 
ATOM     19  C   UNL A   1      34.164  24.374  23.257  1.00  0.00     0.041 C 
ATOM     20  C   UNL A   1      35.119  24.171  24.381  1.00  0.00    -0.030 C 
BRANCH  16  21
ATOM     21  C   UNL A   1      32.070  27.308  25.216  1.00  0.00     0.226 C 
ATOM     22  N   UNL A   1      32.338  28.598  24.796  1.00  0.00    -0.343 N 
ATOM     23  O   UNL A   1      31.029  27.147  25.882  1.00  0.00    -0.275 OA
BRANCH  22  24
ATOM     24  C   UNL A   1      31.276  29.593  25.022  1.00  0.00     0.116 C 
ATOM     25  C   UNL A   1      31.703  30.621  26.065  1.00  0.00     0.027 C 
ENDBRANCH  22  24
BRANCH  22  26
ATOM     26  C   UNL A   1      33.547  29.148  24.200  1.00  0.00     0.116 C 
ATOM     27  C   UNL A   1      33.611  28.940  22.698  1.00  0.00     0.027 C 
ENDBRANCH  22  26
ENDBRANCH  16  21
ENDBRANCH  12  15
ENDBRANCH   6  11
ENDBRANCH   3   5
ENDBRANCH   2   3
ENDBRANCH   1   2
BRANCH   1  28
ATOM     28  C   UNL A   1      36.246  21.010  24.659  1.00  0.00     0.275 C 
BRANCH  28  29
ATOM     29  O   UNL A   1      36.944  21.475  25.835  1.00  0.00    -0.458 OA
BRANCH  29  30
ATOM     30  C   UNL A   1      38.284  21.281  25.837  1.00  0.00     0.338 C 
ATOM     31  O   UNL A   1      38.900  20.334  25.379  1.00  0.00    -0.246 OA
BRANCH  30  32
ATOM     32  C   UNL A   1      38.966  22.433  26.452  1.00  0.00     0.060 A 
ATOM     33  C   UNL A   1      38.526  23.716  26.148  1.00  0.00     0.016 A 
ATOM     34  C   UNL A   1      40.133  22.261  27.189  1.00  0.00     0.016 A 
ATOM     35  C   UNL A   1      39.300  24.826  26.476  1.00  0.00     0.010 A 
ATOM     36  C   UNL A   1      40.839  23.388  27.638  1.00  0.00     0.010 A 
ATOM     37  C   UNL A   1      40.452  24.688  27.261  1.00  0.00    -0.014 A 
BRANCH  37  38
ATOM     38  C   UNL A   1      41.238  25.889  27.680  1.00  0.00     0.031 A 
ATOM     39  C   UNL A   1      40.603  26.970  28.519  1.00  0.00     0.074 A 
ATOM     40  C   UNL A   1      42.530  26.028  27.311  1.00  0.00     0.049 A 
ATOM     41  N   UNL A   1      41.039  28.177  28.789  1.00  0.00    -0.248 NA
ATOM     42  C   UNL A   1      39.298  26.660  29.120  1.00  0.00     0.031 C 
ATOM     43  C   UNL A   1      43.303  25.053  26.539  1.00  0.00     0.029 A 
ATOM     44  N   UNL A   1      43.426  27.049  27.535  1.00  0.00    -0.354 N 
ATOM     45  C   UNL A   1      40.034  28.790  29.529  1.00  0.00     0.074 A 
ATOM     46  C   UNL A   1      38.967  27.820  29.670  1.00  0.00     0.031 C 
ATOM     47  C   UNL A   1      44.559  25.496  26.393  1.00  0.00     0.029 A 
ATOM     48  C   UNL A   1      44.654  26.838  26.953  1.00  0.00     0.049 A 
ATOM     49  H   UNL A   1      43.208  27.852  28.062  1.00  0.00     0.167 HD
ATOM     50  C   UNL A   1      40.004  30.046  30.037  1.00  0.00     0.037 A 
ATOM     51  C   UNL A   1      45.721  27.649  26.820  1.00  0.00     0.037 A 
ATOM     52  C   UNL A   1      41.094  30.986  29.951  1.00  0.00     0.049 A 
ATOM     53  C   UNL A   1      45.650  29.051  27.354  1.00  0.00     0.074 A 
ATOM     54  C   UNL A   1      41.173  32.267  30.469  1.00  0.00     0.029 A 
ATOM     55  N   UNL A   1      42.303  30.741  29.314  1.00  0.00    -0.354 N 
ATOM     56  N   UNL A   1      44.674  29.639  27.998  1.00  0.00    -0.248 NA
ATOM     57  C   UNL A   1      46.819  29.908  27.114  1.00  0.00     0.031 C 
ATOM     58  C   UNL A   1      42.408  32.815  30.106  1.00  0.00     0.029 A 
ATOM     59  C   UNL A   1      43.122  31.856  29.405  1.00  0.00     0.049 A 
ATOM     60  H   UNL A   1      42.543  29.899  28.865  1.00  0.00     0.167 HD
ATOM     61  C   UNL A   1      45.107  30.935  28.243  1.00  0.00     0.074 A 
ATOM     62  C   UNL A   1      46.447  31.037  27.703  1.00  0.00     0.031 C 
ATOM     63  C   UNL A   1      44.449  31.950  28.853  1.00  0.00     0.037 A 
BRANCH  50  64
ATOM     64  C   UNL A   1      38.734  30.505  30.698  1.00  0.00     0.064 A 
ATOM     65  C   UNL A   1      37.622  30.941  29.965  1.00  0.00     0.173 A 
ATOM     66  C   UNL A   1      38.618  30.461  32.097  1.00  0.00     0.173 A 
ATOM     67  F   UNL A   1      37.682  31.012  28.627  1.00  0.00    -0.203 F 
ATOM     68  C   UNL A   1      36.452  31.344  30.608  1.00  0.00     0.198 A 
ATOM     69  C   UNL A   1      37.438  30.835  32.735  1.00  0.00     0.198 A 
ATOM     70  F   UNL A   1      39.648  30.042  32.849  1.00  0.00    -0.203 F 
ATOM     71  F   UNL A   1      35.419  31.802  29.888  1.00  0.00    -0.200 F 
ATOM     72  C   UNL A   1      36.359  31.284  31.990  1.00  0.00     0.200 A 
ATOM     73  F   UNL A   1      37.346  30.760  34.070  1.00  0.00    -0.200 F 
ATOM     74  F   UNL A   1      35.230  31.665  32.605  1.00  0.00    -0.200 F 
ENDBRANCH  50  64
BRANCH  51  75
ATOM     75  C   UNL A   1      46.922  27.169  26.084  1.00  0.00     0.064 A 
ATOM     76  C   UNL A   1      47.073  27.407  24.712  1.00  0.00     0.173 A 
ATOM     77  C   UNL A   1      47.954  26.484  26.744  1.00  0.00     0.173 A 
ATOM     78  F   UNL A   1      46.101  28.030  24.030  1.00  0.00    -0.203 F 
ATOM     79  C   UNL A   1      48.210  26.978  24.029  1.00  0.00     0.198 A 
ATOM     80  C   UNL A   1      49.105  26.088  26.068  1.00  0.00     0.198 A 
ATOM     81  F   UNL A   1      47.857  26.227  28.058  1.00  0.00    -0.203 F 
ATOM     82  F   UNL A   1      48.314  27.187  22.710  1.00  0.00    -0.200 F 
ATOM     83  C   UNL A   1      49.230  26.331  24.710  1.00  0.00     0.200 A 
ATOM     84  F   UNL A   1      50.095  25.479  26.736  1.00  0.00    -0.200 F 
ATOM     85  F   UNL A   1      50.331  25.936  24.057  1.00  0.00    -0.200 F 
ENDBRANCH  51  75
BRANCH  63  86
ATOM     86  C   UNL A   1      45.178  33.255  28.980  1.00  0.00     0.064 A 
ATOM     87  C   UNL A   1      45.046  34.265  28.016  1.00  0.00     0.173 A 
ATOM     88  C   UNL A   1      46.004  33.505  30.086  1.00  0.00     0.173 A 
ATOM     89  F   UNL A   1      44.284  34.065  26.930  1.00  0.00    -0.203 F 
ATOM     90  C   UNL A   1      45.735  35.468  28.141  1.00  0.00     0.198 A 
ATOM     91  C   UNL A   1      46.669  34.720  30.223  1.00  0.00     0.198 A 
ATOM     92  F   UNL A   1      46.161  32.573  31.038  1.00  0.00    -0.203 F 
ATOM     93  F   UNL A   1      45.635  36.398  27.182  1.00  0.00    -0.200 F 
ATOM     94  C   UNL A   1      46.541  35.697  29.246  1.00  0.00     0.200 A 
ATOM     95  F   UNL A   1      47.439  34.944  31.296  1.00  0.00    -0.200 F 
ATOM     96  F   UNL A   1      47.203  36.857  29.367  1.00  0.00    -0.200 F 
ENDBRANCH  63  86
ENDBRANCH  37  38
ENDBRANCH  30  32
ENDBRANCH  29  30
ENDBRANCH  28  29
ENDBRANCH   1  28
TORSDOF 16
ENDMDL
MODEL 3
REMARK VINA RESULT:     -12.1      1.440      3.018
REMARK SMILES CCN(CC)C(=O)[C@@H]1CC=CC[C@H]1C(=O)Nc1ccc(C(=O)OCCOC(=O)c2ccc(-c3c4nc(c(-c5c(F)c(F)c(F)c(F)c5F)c5ccc([nH]5)c(-c5c(F)c(F)c(F)c(F)c5F)c5nc(c(-c6c(F)c(F)c(F)c(F)c6F)c6ccc3[nH]6)C=C5)C=C4)cc2)cc1
REMARK SMILES IDX 24 1 23 2 21 3 22 4 20 5 17 6 18 7 93 8 19 9 92 10 16 11
REMARK SMILES IDX 14 12 15 13 13 15 8 16 9 17 10 18 12 19 11 20 6 21 3 22 7 23
REMARK SMILES IDX 2 24 1 25 4 26 5 27 25 28 26 29 27 30 28 31 29 32 30 33
REMARK SMILES IDX 91 34 31 35 90 36 32 37 33 38 34 39 84 40 35 41 89 42 83 43
REMARK SMILES IDX 85 44 36 45 88 46 82 47 81 48 37 50 69 51 49 52 68 53 50 54
REMARK SMILES IDX 53 55 67 56 86 57 51 58 52 59 66 61 87 62 54 63 38 64 39 65
REMARK SMILES IDX 47 66 40 67 41 68 45 69 48 70 42 71 43 72 46 73 44 74 70 75
REMARK SMILES IDX 71 76 79 77 72 78 73 79 77 80 80 81 74 82 75 83 78 84 76 85
REMARK SMILES IDX 55 86 56 87 64 88 57 89 58 90 62 91 65 92 59 93 60 94 63 95
REMARK SMILES IDX 61 96
REMARK H PARENT 16 14 85 49 53 60
REMARK Flexibility Score: inf
ROOT
ATOM      1  C   UNL A   1      31.032  28.783  24.667  1.00  0.00     0.275 C 
ENDROOT
BRANCH   1   2
ATOM      2  O   UNL A   1      30.983  27.691  25.602  1.00  0.00    -0.458 OA
BRANCH   2   3
ATOM      3  C   UNL A   1      30.484  26.539  25.102  1.00  0.00     0.338 C 
ATOM      4  O   UNL A   1      29.759  26.424  24.124  1.00  0.00    -0.246 OA
BRANCH   3   5
ATOM      5  C   UNL A   1      31.017  25.362  25.827  1.00  0.00     0.060 A 
ATOM      6  C   UNL A   1      32.251  23.154  26.942  1.00  0.00     0.041 A 
ATOM      7  C   UNL A   1      32.933  24.366  26.922  1.00  0.00     0.027 A 
ATOM      8  C   UNL A   1      30.901  23.083  26.606  1.00  0.00     0.027 A 
ATOM      9  C   UNL A   1      32.331  25.452  26.310  1.00  0.00     0.018 A 
ATOM     10  C   UNL A   1      30.279  24.192  26.029  1.00  0.00     0.018 A 
BRANCH   6  11
ATOM     11  N   UNL A   1      33.008  22.003  27.175  1.00  0.00    -0.326 N 
ATOM     12  C   UNL A   1      33.454  21.188  26.158  1.00  0.00     0.228 C 
ATOM     13  O   UNL A   1      34.616  20.772  26.250  1.00  0.00    -0.274 OA
ATOM     14  H   UNL A   1      33.230  21.763  28.104  1.00  0.00     0.169 HD
BRANCH  12  15
ATOM     15  C   UNL A   1      32.607  20.791  24.939  1.00  0.00     0.095 C 
ATOM     16  C   UNL A   1      32.877  21.508  23.601  1.00  0.00     0.095 C 
ATOM     17  C   UNL A   1      32.142  20.774  22.427  1.00  0.00     0.041 C 
ATOM     18  C   UNL A   1      32.097  19.284  22.477  1.00  0.00    -0.030 C 
ATOM     19  C   UNL A   1      32.657  19.240  24.889  1.00  0.00     0.041 C 
ATOM     20  C   UNL A   1      32.335  18.591  23.588  1.00  0.00    -0.030 C 
BRANCH  16  21
ATOM     21  C   UNL A   1      32.628  23.026  23.311  1.00  0.00     0.226 C 
ATOM     22  N   UNL A   1      33.557  24.051  23.297  1.00  0.00    -0.343 N 
ATOM     23  O   UNL A   1      31.482  23.312  22.911  1.00  0.00    -0.275 OA
BRANCH  22  24
ATOM     24  C   UNL A   1      33.140  25.302  22.641  1.00  0.00     0.116 C 
ATOM     25  C   UNL A   1      33.776  26.512  23.319  1.00  0.00     0.027 C 
ENDBRANCH  22  24
BRANCH  22  26
ATOM     26  C   UNL A   1      34.889  24.104  23.883  1.00  0.00     0.116 C 
ATOM     27  C   UNL A   1      35.798  22.999  23.380  1.00  0.00     0.027 C 
ENDBRANCH  22  26
ENDBRANCH  16  21
ENDBRANCH  12  15
ENDBRANCH   6  11
ENDBRANCH   3   5
ENDBRANCH   2   3
ENDBRANCH   1   2
BRANCH   1  28
ATOM     28  C   UNL A   1      32.218  29.690  24.993  1.00  0.00     0.275 C 
BRANCH  28  29
ATOM     29  O   UNL A   1      32.465  29.704  26.416  1.00  0.00    -0.458 OA
BRANCH  29  30
ATOM     30  C   UNL A   1      32.927  30.872  26.920  1.00  0.00     0.338 C 
ATOM     31  O   UNL A   1      32.342  31.939  26.983  1.00  0.00    -0.246 OA
BRANCH  30  32
ATOM     32  C   UNL A   1      34.286  30.692  27.462  1.00  0.00     0.060 A 
ATOM     33  C   UNL A   1      34.717  29.412  27.785  1.00  0.00     0.016 A 
ATOM     34  C   UNL A   1      35.068  31.790  27.805  1.00  0.00     0.016 A 
ATOM     35  C   UNL A   1      35.867  29.223  28.548  1.00  0.00     0.010 A 
ATOM     36  C   UNL A   1      36.296  31.588  28.453  1.00  0.00     0.010 A 
ATOM     37  C   UNL A   1      36.700  30.304  28.865  1.00  0.00    -0.014 A 
BRANCH  37  38
ATOM     38  C   UNL A   1      37.976  30.090  29.615  1.00  0.00     0.031 A 
ATOM     39  C   UNL A   1      39.072  29.228  29.038  1.00  0.00     0.074 A 
ATOM     40  C   UNL A   1      38.167  30.661  30.824  1.00  0.00     0.049 A 
ATOM     41  N   UNL A   1      40.141  28.742  29.622  1.00  0.00    -0.248 NA
ATOM     42  C   UNL A   1      38.942  28.850  27.624  1.00  0.00     0.031 C 
ATOM     43  C   UNL A   1      37.224  31.556  31.499  1.00  0.00     0.029 A 
ATOM     44  N   UNL A   1      39.220  30.573  31.705  1.00  0.00    -0.354 N 
ATOM     45  C   UNL A   1      40.769  27.948  28.669  1.00  0.00     0.074 A 
ATOM     46  C   UNL A   1      39.964  28.021  27.467  1.00  0.00     0.031 C 
ATOM     47  C   UNL A   1      37.756  31.969  32.658  1.00  0.00     0.029 A 
ATOM     48  C   UNL A   1      39.021  31.278  32.870  1.00  0.00     0.049 A 
ATOM     49  H   UNL A   1      40.037  30.057  31.519  1.00  0.00     0.167 HD
ATOM     50  C   UNL A   1      41.906  27.221  28.790  1.00  0.00     0.037 A 
ATOM     51  C   UNL A   1      39.733  31.319  34.012  1.00  0.00     0.037 A 
ATOM     52  C   UNL A   1      42.740  27.202  29.967  1.00  0.00     0.049 A 
ATOM     53  C   UNL A   1      40.968  30.474  34.139  1.00  0.00     0.074 A 
ATOM     54  C   UNL A   1      43.932  26.529  30.170  1.00  0.00     0.029 A 
ATOM     55  N   UNL A   1      42.473  27.899  31.137  1.00  0.00    -0.354 N 
ATOM     56  N   UNL A   1      41.519  29.681  33.254  1.00  0.00    -0.248 NA
ATOM     57  C   UNL A   1      41.661  30.508  35.434  1.00  0.00     0.031 C 
ATOM     58  C   UNL A   1      44.363  26.779  31.478  1.00  0.00     0.029 A 
ATOM     59  C   UNL A   1      43.466  27.651  32.074  1.00  0.00     0.049 A 
ATOM     60  H   UNL A   1      41.695  28.485  31.281  1.00  0.00     0.167 HD
ATOM     61  C   UNL A   1      42.624  29.121  33.882  1.00  0.00     0.074 A 
ATOM     62  C   UNL A   1      42.680  29.689  35.214  1.00  0.00     0.031 C 
ATOM     63  C   UNL A   1      43.505  28.212  33.400  1.00  0.00     0.037 A 
BRANCH  50  64
ATOM     64  C   UNL A   1      42.305  26.344  27.636  1.00  0.00     0.064 A 
ATOM     65  C   UNL A   1      43.279  26.727  26.704  1.00  0.00     0.173 A 
ATOM     66  C   UNL A   1      41.726  25.072  27.490  1.00  0.00     0.173 A 
ATOM     67  F   UNL A   1      43.857  27.935  26.790  1.00  0.00    -0.203 F 
ATOM     68  C   UNL A   1      43.639  25.884  25.654  1.00  0.00     0.198 A 
ATOM     69  C   UNL A   1      42.109  24.219  26.458  1.00  0.00     0.198 A 
ATOM     70  F   UNL A   1      40.794  24.650  28.359  1.00  0.00    -0.203 F 
ATOM     71  F   UNL A   1      44.539  26.291  24.749  1.00  0.00    -0.200 F 
ATOM     72  C   UNL A   1      43.059  24.630  25.536  1.00  0.00     0.200 A 
ATOM     73  F   UNL A   1      41.558  23.002  26.357  1.00  0.00    -0.200 F 
ATOM     74  F   UNL A   1      43.412  23.817  24.530  1.00  0.00    -0.200 F 
ENDBRANCH  50  64
BRANCH  51  75
ATOM     75  C   UNL A   1      39.248  32.142  35.152  1.00  0.00     0.064 A 
ATOM     76  C   UNL A   1      39.514  33.517  35.216  1.00  0.00     0.173 A 
ATOM     77  C   UNL A   1      38.487  31.577  36.187  1.00  0.00     0.173 A 
ATOM     78  F   UNL A   1      40.262  34.098  34.268  1.00  0.00    -0.203 F 
ATOM     79  C   UNL A   1      39.036  34.292  36.271  1.00  0.00     0.198 A 
ATOM     80  C   UNL A   1      37.981  32.359  37.221  1.00  0.00     0.198 A 
ATOM     81  F   UNL A   1      38.206  30.265  36.175  1.00  0.00    -0.203 F 
ATOM     82  F   UNL A   1      39.334  35.597  36.329  1.00  0.00    -0.200 F 
ATOM     83  C   UNL A   1      38.261  33.716  37.266  1.00  0.00     0.200 A 
ATOM     84  F   UNL A   1      37.215  31.800  38.169  1.00  0.00    -0.200 F 
ATOM     85  F   UNL A   1      37.786  34.466  38.269  1.00  0.00    -0.200 F 
ENDBRANCH  51  75
BRANCH  63  86
ATOM     86  C   UNL A   1      44.614  27.788  34.316  1.00  0.00     0.064 A 
ATOM     87  C   UNL A   1      45.822  28.497  34.381  1.00  0.00     0.173 A 
ATOM     88  C   UNL A   1      44.461  26.671  35.151  1.00  0.00     0.173 A 
ATOM     89  F   UNL A   1      46.024  29.560  33.588  1.00  0.00    -0.203 F 
ATOM     90  C   UNL A   1      46.848  28.088  35.230  1.00  0.00     0.198 A 
ATOM     91  C   UNL A   1      45.477  26.282  36.019  1.00  0.00     0.198 A 
ATOM     92  F   UNL A   1      43.323  25.961  35.129  1.00  0.00    -0.203 F 
ATOM     93  F   UNL A   1      48.013  28.750  35.238  1.00  0.00    -0.200 F 
ATOM     94  C   UNL A   1      46.672  26.985  36.052  1.00  0.00     0.200 A 
ATOM     95  F   UNL A   1      45.302  25.222  36.820  1.00  0.00    -0.200 F 
ATOM     96  F   UNL A   1      47.660  26.593  36.870  1.00  0.00    -0.200 F 
ENDBRANCH  63  86
ENDBRANCH  37  38
ENDBRANCH  30  32
ENDBRANCH  29  30
ENDBRANCH  28  29
ENDBRANCH   1  28
TORSDOF 16
ENDMDL
