MODEL 1
REMARK VINA RESULT:     -14.1      0.000      0.000
REMARK SMILES Cc1c(CC(=O)OCCOC(=O)c2ccc(-c3c4nc(c(-c5c(F)c(F)c(F)c(F)c5F)c5ccc([nH]5)c(-c5c(F)c(F)c(F)c(F)c5F)c5nc(c(-c6c(F)c(F)c(F)c(F)c6F)c6ccc3[nH]6)C=C5)C=C4)cc2)cccc1-c1ccn(C(F)F)c(=O)c1
REMARK SMILES IDX 8 1 7 2 5 3 6 4 4 5 3 6 1 7 2 8 79 9 76 10 78 11 77 12 80 13
REMARK SMILES IDX 81 14 89 15 82 16 87 17 83 18 88 19 84 20 85 21 86 22 9 23
REMARK SMILES IDX 10 24 11 25 12 26 13 27 14 28 75 29 15 30 74 31 16 32 17 33
REMARK SMILES IDX 18 34 68 35 19 36 73 37 67 38 69 39 20 40 72 41 66 42 65 43
REMARK SMILES IDX 21 45 53 46 33 47 52 48 34 49 37 50 51 51 70 52 35 53 36 54
REMARK SMILES IDX 50 56 71 57 38 58 22 59 23 60 31 61 24 62 25 63 29 64 32 65
REMARK SMILES IDX 26 66 27 67 30 68 28 69 54 70 55 71 63 72 56 73 57 74 61 75
REMARK SMILES IDX 64 76 58 77 59 78 62 79 60 80 39 81 40 82 48 83 41 84 42 85
REMARK SMILES IDX 46 86 49 87 43 88 44 89 47 90 45 91
REMARK H PARENT 69 44 37 55
REMARK Flexibility Score: inf
ROOT
ATOM      1  C   UNL A   1      32.903  36.521  30.638  1.00  0.00     0.274 C 
ENDROOT
BRANCH   1   2
ATOM      2  O   UNL A   1      32.556  35.248  30.054  1.00  0.00    -0.462 OA
BRANCH   2   3
ATOM      3  C   UNL A   1      33.232  34.893  28.825  1.00  0.00     0.310 C 
ATOM      4  O   UNL A   1      34.035  35.857  28.626  1.00  0.00    -0.252 OA
BRANCH   3   5
ATOM      5  C   UNL A   1      32.881  33.072  27.688  1.00  0.00     0.158 C 
BRANCH   5   6
ATOM      6  C   UNL A   1      33.699  31.558  27.519  1.00  0.00    -0.033 A 
ATOM      7  C   UNL A   1      31.810  30.586  26.078  1.00  0.00     0.045 C 
ATOM      8  C   UNL A   1      33.088  30.444  26.870  1.00  0.00    -0.039 A 
ATOM      9  C   UNL A   1      33.746  29.187  26.916  1.00  0.00    -0.015 A 
ATOM     10  C   UNL A   1      35.060  31.438  27.877  1.00  0.00     0.004 A 
ATOM     11  C   UNL A   1      35.003  29.066  27.523  1.00  0.00     0.009 A 
ATOM     12  C   UNL A   1      35.676  30.197  27.955  1.00  0.00     0.001 A 
BRANCH   9  13
ATOM     13  C   UNL A   1      33.175  27.983  26.285  1.00  0.00    -0.011 A 
ATOM     14  C   UNL A   1      33.677  27.466  25.028  1.00  0.00     0.027 A 
ATOM     15  C   UNL A   1      32.109  27.406  26.862  1.00  0.00     0.080 A 
ATOM     16  C   UNL A   1      33.017  26.495  24.387  1.00  0.00     0.095 A 
ATOM     17  C   UNL A   1      31.400  26.284  26.188  1.00  0.00     0.255 A 
ATOM     18  N   UNL A   1      31.882  25.929  24.937  1.00  0.00    -0.258 N 
ATOM     19  O   UNL A   1      30.436  25.779  26.753  1.00  0.00    -0.269 OA
BRANCH  18  20
ATOM     20  C   UNL A   1      31.134  24.941  24.206  1.00  0.00     0.451 C 
ATOM     21  F   UNL A   1      30.921  25.331  22.928  1.00  0.00    -0.185 F 
ATOM     22  F   UNL A   1      31.796  23.758  24.183  1.00  0.00    -0.185 F 
ENDBRANCH  18  20
ENDBRANCH   9  13
ENDBRANCH   5   6
ENDBRANCH   3   5
ENDBRANCH   2   3
ENDBRANCH   1   2
BRANCH   1  23
ATOM     23  C   UNL A   1      33.389  36.291  32.075  1.00  0.00     0.275 C 
BRANCH  23  24
ATOM     24  O   UNL A   1      33.870  34.945  32.345  1.00  0.00    -0.458 OA
BRANCH  24  25
ATOM     25  C   UNL A   1      35.195  34.641  32.451  1.00  0.00     0.338 C 
ATOM     26  O   UNL A   1      36.039  35.378  32.932  1.00  0.00    -0.246 OA
BRANCH  25  27
ATOM     27  C   UNL A   1      35.590  33.524  31.572  1.00  0.00     0.060 A 
ATOM     28  C   UNL A   1      35.447  31.871  32.290  1.00  0.00     0.016 A 
ATOM     29  C   UNL A   1      36.796  33.856  30.274  1.00  0.00     0.016 A 
ATOM     30  C   UNL A   1      36.683  30.602  31.851  1.00  0.00     0.010 A 
ATOM     31  C   UNL A   1      38.003  32.588  29.836  1.00  0.00     0.010 A 
ATOM     32  C   UNL A   1      38.004  31.005  30.707  1.00  0.00    -0.014 A 
BRANCH  32  33
ATOM     33  C   UNL A   1      39.339  30.433  30.812  1.00  0.00     0.031 A 
ATOM     34  C   UNL A   1      39.643  29.146  30.185  1.00  0.00     0.074 A 
ATOM     35  C   UNL A   1      40.337  31.232  31.256  1.00  0.00     0.049 A 
ATOM     36  N   UNL A   1      40.737  28.507  30.397  1.00  0.00    -0.248 NA
ATOM     37  C   UNL A   1      38.717  28.411  29.334  1.00  0.00     0.031 C 
ATOM     38  C   UNL A   1      41.772  31.125  31.021  1.00  0.00     0.029 A 
ATOM     39  N   UNL A   1      40.246  32.296  32.135  1.00  0.00    -0.354 N 
ATOM     40  C   UNL A   1      40.811  27.505  29.465  1.00  0.00     0.074 A 
ATOM     41  C   UNL A   1      39.468  27.367  28.968  1.00  0.00     0.031 C 
ATOM     42  C   UNL A   1      42.424  31.926  31.884  1.00  0.00     0.029 A 
ATOM     43  C   UNL A   1      41.450  32.478  32.809  1.00  0.00     0.049 A 
ATOM     44  H   UNL A   1      39.441  32.848  32.267  1.00  0.00     0.167 HD
ATOM     45  C   UNL A   1      42.043  27.033  29.137  1.00  0.00     0.037 A 
ATOM     46  C   UNL A   1      41.454  32.308  34.165  1.00  0.00     0.037 A 
ATOM     47  C   UNL A   1      43.051  27.522  30.089  1.00  0.00     0.049 A 
ATOM     48  C   UNL A   1      42.056  30.969  34.571  1.00  0.00     0.074 A 
ATOM     49  C   UNL A   1      44.083  28.441  30.061  1.00  0.00     0.029 A 
ATOM     50  N   UNL A   1      42.842  27.244  31.430  1.00  0.00    -0.354 N 
ATOM     51  N   UNL A   1      42.629  30.136  33.740  1.00  0.00    -0.248 NA
ATOM     52  C   UNL A   1      42.002  30.427  35.927  1.00  0.00     0.031 C 
ATOM     53  C   UNL A   1      44.422  28.762  31.421  1.00  0.00     0.029 A 
ATOM     54  C   UNL A   1      43.636  27.997  32.269  1.00  0.00     0.049 A 
ATOM     55  H   UNL A   1      42.193  26.577  31.752  1.00  0.00     0.167 HD
ATOM     56  C   UNL A   1      42.920  28.961  34.372  1.00  0.00     0.074 A 
ATOM     57  C   UNL A   1      42.511  29.195  35.749  1.00  0.00     0.031 C 
ATOM     58  C   UNL A   1      43.432  27.874  33.713  1.00  0.00     0.037 A 
BRANCH  45  59
ATOM     59  C   UNL A   1      42.369  26.243  27.890  1.00  0.00     0.064 A 
ATOM     60  C   UNL A   1      41.892  24.923  27.755  1.00  0.00     0.173 A 
ATOM     61  C   UNL A   1      43.216  26.672  26.843  1.00  0.00     0.173 A 
ATOM     62  F   UNL A   1      41.089  24.379  28.682  1.00  0.00    -0.203 F 
ATOM     63  C   UNL A   1      42.236  24.107  26.671  1.00  0.00     0.198 A 
ATOM     64  C   UNL A   1      43.512  25.876  25.733  1.00  0.00     0.198 A 
ATOM     65  F   UNL A   1      43.850  27.848  26.867  1.00  0.00    -0.203 F 
ATOM     66  F   UNL A   1      41.797  22.842  26.626  1.00  0.00    -0.200 F 
ATOM     67  C   UNL A   1      43.035  24.589  25.653  1.00  0.00     0.200 A 
ATOM     68  F   UNL A   1      44.293  26.366  24.758  1.00  0.00    -0.200 F 
ATOM     69  F   UNL A   1      43.359  23.811  24.612  1.00  0.00    -0.200 F 
ENDBRANCH  45  59
BRANCH  46  70
ATOM     70  C   UNL A   1      40.284  33.007  34.795  1.00  0.00     0.064 A 
ATOM     71  C   UNL A   1      39.205  32.197  35.221  1.00  0.00     0.173 A 
ATOM     72  C   UNL A   1      40.370  34.287  35.352  1.00  0.00     0.173 A 
ATOM     73  F   UNL A   1      39.053  30.965  34.706  1.00  0.00    -0.203 F 
ATOM     74  C   UNL A   1      38.361  32.584  36.261  1.00  0.00     0.198 A 
ATOM     75  C   UNL A   1      39.498  34.685  36.374  1.00  0.00     0.198 A 
ATOM     76  F   UNL A   1      41.377  35.108  35.022  1.00  0.00    -0.203 F 
ATOM     77  F   UNL A   1      37.443  31.729  36.734  1.00  0.00    -0.200 F 
ATOM     78  C   UNL A   1      38.529  33.819  36.859  1.00  0.00     0.200 A 
ATOM     79  F   UNL A   1      39.682  35.868  36.980  1.00  0.00    -0.200 F 
ATOM     80  F   UNL A   1      37.799  34.155  37.933  1.00  0.00    -0.200 F 
ENDBRANCH  46  70
BRANCH  58  81
ATOM     81  C   UNL A   1      43.750  26.568  34.405  1.00  0.00     0.064 A 
ATOM     82  C   UNL A   1      45.067  26.108  34.561  1.00  0.00     0.173 A 
ATOM     83  C   UNL A   1      42.741  25.682  34.850  1.00  0.00     0.173 A 
ATOM     84  F   UNL A   1      46.103  26.815  34.087  1.00  0.00    -0.203 F 
ATOM     85  C   UNL A   1      45.354  24.895  35.193  1.00  0.00     0.198 A 
ATOM     86  C   UNL A   1      43.029  24.439  35.409  1.00  0.00     0.198 A 
ATOM     87  F   UNL A   1      41.440  25.997  34.798  1.00  0.00    -0.203 F 
ATOM     88  F   UNL A   1      46.630  24.541  35.398  1.00  0.00    -0.200 F 
ATOM     89  C   UNL A   1      44.336  24.056  35.607  1.00  0.00     0.200 A 
ATOM     90  F   UNL A   1      42.024  23.627  35.769  1.00  0.00    -0.200 F 
ATOM     91  F   UNL A   1      44.613  22.887  36.198  1.00  0.00    -0.200 F 
ENDBRANCH  58  81
ENDBRANCH  32  33
ENDBRANCH  25  27
ENDBRANCH  24  25
ENDBRANCH  23  24
ENDBRANCH   1  23
TORSDOF 14
ENDMDL
MODEL 2
REMARK VINA RESULT:     -13.6      5.210     11.321
REMARK SMILES Cc1c(CC(=O)OCCOC(=O)c2ccc(-c3c4nc(c(-c5c(F)c(F)c(F)c(F)c5F)c5ccc([nH]5)c(-c5c(F)c(F)c(F)c(F)c5F)c5nc(c(-c6c(F)c(F)c(F)c(F)c6F)c6ccc3[nH]6)C=C5)C=C4)cc2)cccc1-c1ccn(C(F)F)c(=O)c1
REMARK SMILES IDX 8 1 7 2 5 3 6 4 4 5 3 6 1 7 2 8 79 9 76 10 78 11 77 12 80 13
REMARK SMILES IDX 81 14 89 15 82 16 87 17 83 18 88 19 84 20 85 21 86 22 9 23
REMARK SMILES IDX 10 24 11 25 12 26 13 27 14 28 75 29 15 30 74 31 16 32 17 33
REMARK SMILES IDX 18 34 68 35 19 36 73 37 67 38 69 39 20 40 72 41 66 42 65 43
REMARK SMILES IDX 21 45 53 46 33 47 52 48 34 49 37 50 51 51 70 52 35 53 36 54
REMARK SMILES IDX 50 56 71 57 38 58 22 59 23 60 31 61 24 62 25 63 29 64 32 65
REMARK SMILES IDX 26 66 27 67 30 68 28 69 54 70 55 71 63 72 56 73 57 74 61 75
REMARK SMILES IDX 64 76 58 77 59 78 62 79 60 80 39 81 40 82 48 83 41 84 42 85
REMARK SMILES IDX 46 86 49 87 43 88 44 89 47 90 45 91
REMARK H PARENT 69 44 37 55
REMARK Flexibility Score: inf
ROOT
ATOM      1  C   UNL A   1      43.879  18.586  26.015  1.00  0.00     0.274 C 
ENDROOT
BRANCH   1   2
ATOM      2  O   UNL A   1      42.523  18.602  25.524  1.00  0.00    -0.462 OA
BRANCH   2   3
ATOM      3  C   UNL A   1      41.537  19.250  26.362  1.00  0.00     0.310 C 
ATOM      4  O   UNL A   1      42.070  19.257  27.515  1.00  0.00    -0.252 OA
BRANCH   3   5
ATOM      5  C   UNL A   1      39.624  20.022  25.670  1.00  0.00     0.158 C 
BRANCH   5   6
ATOM      6  C   UNL A   1      38.784  21.526  25.822  1.00  0.00    -0.033 A 
ATOM      7  C   UNL A   1      36.588  20.498  24.980  1.00  0.00     0.045 C 
ATOM      8  C   UNL A   1      37.439  21.682  25.374  1.00  0.00    -0.039 A 
ATOM      9  C   UNL A   1      36.870  22.983  25.373  1.00  0.00    -0.015 A 
ATOM     10  C   UNL A   1      39.360  22.595  26.543  1.00  0.00     0.004 A 
ATOM     11  C   UNL A   1      37.593  24.073  25.871  1.00  0.00     0.009 A 
ATOM     12  C   UNL A   1      38.811  23.870  26.498  1.00  0.00     0.001 A 
BRANCH   9  13
ATOM     13  C   UNL A   1      35.492  23.232  24.912  1.00  0.00    -0.011 A 
ATOM     14  C   UNL A   1      34.382  23.339  25.838  1.00  0.00     0.027 A 
ATOM     15  C   UNL A   1      35.261  23.280  23.591  1.00  0.00     0.080 A 
ATOM     16  C   UNL A   1      33.125  23.371  25.382  1.00  0.00     0.095 A 
ATOM     17  C   UNL A   1      33.869  23.375  23.070  1.00  0.00     0.255 A 
ATOM     18  N   UNL A   1      32.864  23.360  24.025  1.00  0.00    -0.258 N 
ATOM     19  O   UNL A   1      33.702  23.424  21.856  1.00  0.00    -0.269 OA
BRANCH  18  20
ATOM     20  C   UNL A   1      31.509  23.314  23.544  1.00  0.00     0.451 C 
ATOM     21  F   UNL A   1      30.631  23.140  24.561  1.00  0.00    -0.185 F 
ATOM     22  F   UNL A   1      31.188  24.464  22.901  1.00  0.00    -0.185 F 
ENDBRANCH  18  20
ENDBRANCH   9  13
ENDBRANCH   5   6
ENDBRANCH   3   5
ENDBRANCH   2   3
ENDBRANCH   1   2
BRANCH   1  23
ATOM     23  C   UNL A   1      44.772  19.354  25.032  1.00  0.00     0.275 C 
BRANCH  23  24
ATOM     24  O   UNL A   1      44.312  20.697  24.716  1.00  0.00    -0.458 OA
BRANCH  24  25
ATOM     25  C   UNL A   1      44.707  21.797  25.417  1.00  0.00     0.338 C 
ATOM     26  O   UNL A   1      45.738  21.874  26.064  1.00  0.00    -0.246 OA
BRANCH  25  27
ATOM     27  C   UNL A   1      43.598  22.739  25.661  1.00  0.00     0.060 A 
ATOM     28  C   UNL A   1      43.569  24.209  24.610  1.00  0.00     0.016 A 
ATOM     29  C   UNL A   1      42.874  22.781  27.312  1.00  0.00     0.016 A 
ATOM     30  C   UNL A   1      43.004  25.794  25.314  1.00  0.00     0.010 A 
ATOM     31  C   UNL A   1      42.304  24.352  27.992  1.00  0.00     0.010 A 
ATOM     32  C   UNL A   1      42.473  25.869  27.026  1.00  0.00    -0.014 A 
BRANCH  32  33
ATOM     33  C   UNL A   1      42.684  27.039  27.866  1.00  0.00     0.031 A 
ATOM     34  C   UNL A   1      41.564  27.921  28.198  1.00  0.00     0.074 A 
ATOM     35  C   UNL A   1      43.853  27.132  28.540  1.00  0.00     0.049 A 
ATOM     36  N   UNL A   1      41.718  29.058  28.776  1.00  0.00    -0.248 NA
ATOM     37  C   UNL A   1      40.178  27.655  27.839  1.00  0.00     0.031 C 
ATOM     38  C   UNL A   1      44.153  27.869  29.763  1.00  0.00     0.029 A 
ATOM     39  N   UNL A   1      45.088  26.630  28.171  1.00  0.00    -0.354 N 
ATOM     40  C   UNL A   1      40.479  29.484  29.176  1.00  0.00     0.074 A 
ATOM     41  C   UNL A   1      39.554  28.690  28.411  1.00  0.00     0.031 C 
ATOM     42  C   UNL A   1      45.487  27.946  29.919  1.00  0.00     0.029 A 
ATOM     43  C   UNL A   1      46.112  27.389  28.733  1.00  0.00     0.049 A 
ATOM     44  H   UNL A   1      45.226  25.845  27.593  1.00  0.00     0.167 HD
ATOM     45  C   UNL A   1      40.413  30.353  30.219  1.00  0.00     0.037 A 
ATOM     46  C   UNL A   1      46.950  28.057  27.884  1.00  0.00     0.037 A 
ATOM     47  C   UNL A   1      41.747  30.888  30.528  1.00  0.00     0.049 A 
ATOM     48  C   UNL A   1      46.624  29.543  27.814  1.00  0.00     0.074 A 
ATOM     49  C   UNL A   1      42.677  30.722  31.538  1.00  0.00     0.029 A 
ATOM     50  N   UNL A   1      42.429  31.521  29.501  1.00  0.00    -0.354 N 
ATOM     51  N   UNL A   1      45.743  30.141  28.574  1.00  0.00    -0.248 NA
ATOM     52  C   UNL A   1      47.210  30.462  26.840  1.00  0.00     0.031 C 
ATOM     53  C   UNL A   1      43.944  31.195  31.050  1.00  0.00     0.029 A 
ATOM     54  C   UNL A   1      43.769  31.699  29.771  1.00  0.00     0.049 A 
ATOM     55  H   UNL A   1      42.000  31.813  28.664  1.00  0.00     0.167 HD
ATOM     56  C   UNL A   1      45.561  31.431  28.164  1.00  0.00     0.074 A 
ATOM     57  C   UNL A   1      46.511  31.588  27.073  1.00  0.00     0.031 C 
ATOM     58  C   UNL A   1      44.620  32.258  28.719  1.00  0.00     0.037 A 
BRANCH  45  59
ATOM     59  C   UNL A   1      39.179  30.625  31.049  1.00  0.00     0.064 A 
ATOM     60  C   UNL A   1      38.104  31.344  30.486  1.00  0.00     0.173 A 
ATOM     61  C   UNL A   1      39.020  30.305  32.416  1.00  0.00     0.173 A 
ATOM     62  F   UNL A   1      38.124  31.727  29.201  1.00  0.00    -0.203 F 
ATOM     63  C   UNL A   1      36.975  31.710  31.228  1.00  0.00     0.198 A 
ATOM     64  C   UNL A   1      37.867  30.621  33.140  1.00  0.00     0.198 A 
ATOM     65  F   UNL A   1      39.988  29.732  33.137  1.00  0.00    -0.203 F 
ATOM     66  F   UNL A   1      36.011  32.441  30.653  1.00  0.00    -0.200 F 
ATOM     67  C   UNL A   1      36.851  31.336  32.551  1.00  0.00     0.200 A 
ATOM     68  F   UNL A   1      37.772  30.249  34.426  1.00  0.00    -0.200 F 
ATOM     69  F   UNL A   1      35.768  31.680  33.261  1.00  0.00    -0.200 F 
ENDBRANCH  45  59
BRANCH  46  70
ATOM     70  C   UNL A   1      47.388  27.168  26.756  1.00  0.00     0.064 A 
ATOM     71  C   UNL A   1      46.800  27.399  25.490  1.00  0.00     0.173 A 
ATOM     72  C   UNL A   1      48.590  26.452  26.772  1.00  0.00     0.173 A 
ATOM     73  F   UNL A   1      45.634  28.061  25.407  1.00  0.00    -0.203 F 
ATOM     74  C   UNL A   1      47.459  27.076  24.303  1.00  0.00     0.198 A 
ATOM     75  C   UNL A   1      49.231  26.099  25.577  1.00  0.00     0.198 A 
ATOM     76  F   UNL A   1      49.225  26.213  27.928  1.00  0.00    -0.203 F 
ATOM     77  F   UNL A   1      46.936  27.443  23.124  1.00  0.00    -0.200 F 
ATOM     78  C   UNL A   1      48.691  26.454  24.350  1.00  0.00     0.200 A 
ATOM     79  F   UNL A   1      50.444  25.527  25.619  1.00  0.00    -0.200 F 
ATOM     80  F   UNL A   1      49.385  26.241  23.221  1.00  0.00    -0.200 F 
ENDBRANCH  46  70
BRANCH  58  81
ATOM     81  C   UNL A   1      44.409  33.684  28.266  1.00  0.00     0.064 A 
ATOM     82  C   UNL A   1      44.725  34.781  29.083  1.00  0.00     0.173 A 
ATOM     83  C   UNL A   1      43.790  34.004  27.034  1.00  0.00     0.173 A 
ATOM     84  F   UNL A   1      45.223  34.600  30.315  1.00  0.00    -0.203 F 
ATOM     85  C   UNL A   1      44.519  36.098  28.662  1.00  0.00     0.198 A 
ATOM     86  C   UNL A   1      43.515  35.315  26.652  1.00  0.00     0.198 A 
ATOM     87  F   UNL A   1      43.463  33.066  26.136  1.00  0.00    -0.203 F 
ATOM     88  F   UNL A   1      44.919  37.112  29.441  1.00  0.00    -0.200 F 
ATOM     89  C   UNL A   1      43.904  36.364  27.452  1.00  0.00     0.200 A 
ATOM     90  F   UNL A   1      42.886  35.547  25.490  1.00  0.00    -0.200 F 
ATOM     91  F   UNL A   1      43.693  37.626  27.058  1.00  0.00    -0.200 F 
ENDBRANCH  58  81
ENDBRANCH  32  33
ENDBRANCH  25  27
ENDBRANCH  24  25
ENDBRANCH  23  24
ENDBRANCH   1  23
TORSDOF 14
ENDMDL
MODEL 3
REMARK VINA RESULT:     -13.6      4.447     10.612
REMARK SMILES Cc1c(CC(=O)OCCOC(=O)c2ccc(-c3c4nc(c(-c5c(F)c(F)c(F)c(F)c5F)c5ccc([nH]5)c(-c5c(F)c(F)c(F)c(F)c5F)c5nc(c(-c6c(F)c(F)c(F)c(F)c6F)c6ccc3[nH]6)C=C5)C=C4)cc2)cccc1-c1ccn(C(F)F)c(=O)c1
REMARK SMILES IDX 8 1 7 2 5 3 6 4 4 5 3 6 1 7 2 8 79 9 76 10 78 11 77 12 80 13
REMARK SMILES IDX 81 14 89 15 82 16 87 17 83 18 88 19 84 20 85 21 86 22 9 23
REMARK SMILES IDX 10 24 11 25 12 26 13 27 14 28 75 29 15 30 74 31 16 32 17 33
REMARK SMILES IDX 18 34 68 35 19 36 73 37 67 38 69 39 20 40 72 41 66 42 65 43
REMARK SMILES IDX 21 45 53 46 33 47 52 48 34 49 37 50 51 51 70 52 35 53 36 54
REMARK SMILES IDX 50 56 71 57 38 58 22 59 23 60 31 61 24 62 25 63 29 64 32 65
REMARK SMILES IDX 26 66 27 67 30 68 28 69 54 70 55 71 63 72 56 73 57 74 61 75
REMARK SMILES IDX 64 76 58 77 59 78 62 79 60 80 39 81 40 82 48 83 41 84 42 85
REMARK SMILES IDX 46 86 49 87 43 88 44 89 47 90 45 91
REMARK H PARENT 69 44 37 55
REMARK Flexibility Score: inf
ROOT
ATOM      1  C   UNL A   1      40.550  20.713  25.935  1.00  0.00     0.274 C 
ENDROOT
BRANCH   1   2
ATOM      2  O   UNL A   1      39.560  21.506  26.621  1.00  0.00    -0.462 OA
BRANCH   2   3
ATOM      3  C   UNL A   1      38.371  21.851  25.872  1.00  0.00     0.310 C 
ATOM      4  O   UNL A   1      38.361  23.121  25.877  1.00  0.00    -0.252 OA
BRANCH   3   5
ATOM      5  C   UNL A   1      37.007  20.418  24.966  1.00  0.00     0.158 C 
BRANCH   5   6
ATOM      6  C   UNL A   1      35.288  20.267  24.854  1.00  0.00    -0.033 A 
ATOM      7  C   UNL A   1      34.979  22.808  24.665  1.00  0.00     0.045 C 
ATOM      8  C   UNL A   1      34.435  21.410  24.839  1.00  0.00    -0.039 A 
ATOM      9  C   UNL A   1      33.032  21.211  24.916  1.00  0.00    -0.015 A 
ATOM     10  C   UNL A   1      34.696  19.008  24.610  1.00  0.00     0.004 A 
ATOM     11  C   UNL A   1      32.499  19.916  24.932  1.00  0.00     0.009 A 
ATOM     12  C   UNL A   1      33.325  18.823  24.729  1.00  0.00     0.001 A 
BRANCH   9  13
ATOM     13  C   UNL A   1      32.082  22.339  24.921  1.00  0.00    -0.011 A 
ATOM     14  C   UNL A   1      31.912  23.203  23.770  1.00  0.00     0.027 A 
ATOM     15  C   UNL A   1      31.420  22.609  26.058  1.00  0.00     0.080 A 
ATOM     16  C   UNL A   1      31.193  24.326  23.871  1.00  0.00     0.095 A 
ATOM     17  C   UNL A   1      30.568  23.825  26.165  1.00  0.00     0.255 A 
ATOM     18  N   UNL A   1      30.553  24.653  25.052  1.00  0.00    -0.258 N 
ATOM     19  O   UNL A   1      29.975  24.032  27.218  1.00  0.00    -0.269 OA
BRANCH  18  20
ATOM     20  C   UNL A   1      29.847  25.900  25.177  1.00  0.00     0.451 C 
ATOM     21  F   UNL A   1      30.701  26.950  25.189  1.00  0.00    -0.185 F 
ATOM     22  F   UNL A   1      28.984  26.069  24.144  1.00  0.00    -0.185 F 
ENDBRANCH  18  20
ENDBRANCH   9  13
ENDBRANCH   5   6
ENDBRANCH   3   5
ENDBRANCH   2   3
ENDBRANCH   1   2
BRANCH   1  23
ATOM     23  C   UNL A   1      41.938  21.303  26.213  1.00  0.00     0.275 C 
BRANCH  23  24
ATOM     24  O   UNL A   1      42.109  22.682  25.781  1.00  0.00    -0.458 OA
BRANCH  24  25
ATOM     25  C   UNL A   1      42.433  23.690  26.639  1.00  0.00     0.338 C 
ATOM     26  O   UNL A   1      43.280  23.612  27.513  1.00  0.00    -0.246 OA
BRANCH  25  27
ATOM     27  C   UNL A   1      41.399  24.741  26.690  1.00  0.00     0.060 A 
ATOM     28  C   UNL A   1      41.701  26.192  25.655  1.00  0.00     0.016 A 
ATOM     29  C   UNL A   1      40.408  24.878  28.190  1.00  0.00     0.016 A 
ATOM     30  C   UNL A   1      41.185  27.836  26.256  1.00  0.00     0.010 A 
ATOM     31  C   UNL A   1      39.889  26.508  28.767  1.00  0.00     0.010 A 
ATOM     32  C   UNL A   1      40.376  27.986  27.849  1.00  0.00    -0.014 A 
BRANCH  32  33
ATOM     33  C   UNL A   1      40.555  29.142  28.718  1.00  0.00     0.031 A 
ATOM     34  C   UNL A   1      39.494  30.143  28.843  1.00  0.00     0.074 A 
ATOM     35  C   UNL A   1      41.586  29.122  29.594  1.00  0.00     0.049 A 
ATOM     36  N   UNL A   1      39.662  31.267  29.443  1.00  0.00    -0.248 NA
ATOM     37  C   UNL A   1      38.176  30.019  28.236  1.00  0.00     0.031 C 
ATOM     38  C   UNL A   1      41.735  29.842  30.853  1.00  0.00     0.029 A 
ATOM     39  N   UNL A   1      42.806  28.485  29.455  1.00  0.00    -0.354 N 
ATOM     40  C   UNL A   1      38.424  31.827  29.611  1.00  0.00     0.074 A 
ATOM     41  C   UNL A   1      37.573  31.124  28.688  1.00  0.00     0.031 C 
ATOM     42  C   UNL A   1      43.020  29.780  31.250  1.00  0.00     0.029 A 
ATOM     43  C   UNL A   1      43.786  29.141  30.196  1.00  0.00     0.049 A 
ATOM     44  H   UNL A   1      42.961  27.681  28.908  1.00  0.00     0.167 HD
ATOM     45  C   UNL A   1      38.263  32.716  30.628  1.00  0.00     0.037 A 
ATOM     46  C   UNL A   1      44.830  29.702  29.516  1.00  0.00     0.037 A 
ATOM     47  C   UNL A   1      39.568  33.111  31.176  1.00  0.00     0.049 A 
ATOM     48  C   UNL A   1      44.684  31.213  29.392  1.00  0.00     0.074 A 
ATOM     49  C   UNL A   1      40.275  32.864  32.338  1.00  0.00     0.029 A 
ATOM     50  N   UNL A   1      40.489  33.652  30.293  1.00  0.00    -0.354 N 
ATOM     51  N   UNL A   1      43.749  31.914  29.981  1.00  0.00    -0.248 NA
ATOM     52  C   UNL A   1      45.532  32.049  28.545  1.00  0.00     0.031 C 
ATOM     53  C   UNL A   1      41.653  33.193  32.091  1.00  0.00     0.029 A 
ATOM     54  C   UNL A   1      41.768  33.691  30.803  1.00  0.00     0.049 A 
ATOM     55  H   UNL A   1      40.253  33.974  29.393  1.00  0.00     0.167 HD
ATOM     56  C   UNL A   1      43.784  33.209  29.549  1.00  0.00     0.074 A 
ATOM     57  C   UNL A   1      44.927  33.246  28.649  1.00  0.00     0.031 C 
ATOM     58  C   UNL A   1      42.851  34.140  29.926  1.00  0.00     0.037 A 
BRANCH  45  59
ATOM     59  C   UNL A   1      36.935  33.131  31.220  1.00  0.00     0.064 A 
ATOM     60  C   UNL A   1      36.028  33.880  30.442  1.00  0.00     0.173 A 
ATOM     61  C   UNL A   1      36.528  32.920  32.557  1.00  0.00     0.173 A 
ATOM     62  F   UNL A   1      36.290  34.170  29.159  1.00  0.00    -0.203 F 
ATOM     63  C   UNL A   1      34.825  34.375  30.961  1.00  0.00     0.198 A 
ATOM     64  C   UNL A   1      35.301  33.365  33.056  1.00  0.00     0.198 A 
ATOM     65  F   UNL A   1      37.316  32.333  33.463  1.00  0.00    -0.203 F 
ATOM     66  F   UNL A   1      34.030  35.130  30.189  1.00  0.00    -0.200 F 
ATOM     67  C   UNL A   1      34.456  34.106  32.263  1.00  0.00     0.200 A 
ATOM     68  F   UNL A   1      34.966  33.092  34.326  1.00  0.00    -0.200 F 
ATOM     69  F   UNL A   1      33.302  34.573  32.758  1.00  0.00    -0.200 F 
ENDBRANCH  45  59
BRANCH  46  70
ATOM     70  C   UNL A   1      45.368  28.754  28.484  1.00  0.00     0.064 A 
ATOM     71  C   UNL A   1      46.025  27.593  28.958  1.00  0.00     0.173 A 
ATOM     72  C   UNL A   1      44.907  28.723  27.163  1.00  0.00     0.173 A 
ATOM     73  F   UNL A   1      46.510  27.567  30.209  1.00  0.00    -0.203 F 
ATOM     74  C   UNL A   1      46.072  26.418  28.209  1.00  0.00     0.198 A 
ATOM     75  C   UNL A   1      44.988  27.549  26.402  1.00  0.00     0.198 A 
ATOM     76  F   UNL A   1      44.252  29.772  26.645  1.00  0.00    -0.203 F 
ATOM     77  F   UNL A   1      46.573  25.297  28.749  1.00  0.00    -0.200 F 
ATOM     78  C   UNL A   1      45.523  26.389  26.940  1.00  0.00     0.200 A 
ATOM     79  F   UNL A   1      44.425  27.508  25.184  1.00  0.00    -0.200 F 
ATOM     80  F   UNL A   1      45.461  25.236  26.257  1.00  0.00    -0.200 F 
ENDBRANCH  46  70
BRANCH  58  81
ATOM     81  C   UNL A   1      42.880  35.573  29.446  1.00  0.00     0.064 A 
ATOM     82  C   UNL A   1      43.394  36.613  30.235  1.00  0.00     0.173 A 
ATOM     83  C   UNL A   1      42.304  35.971  28.217  1.00  0.00     0.173 A 
ATOM     84  F   UNL A   1      43.875  36.372  31.464  1.00  0.00    -0.203 F 
ATOM     85  C   UNL A   1      43.409  37.938  29.791  1.00  0.00     0.198 A 
ATOM     86  C   UNL A   1      42.251  37.303  27.811  1.00  0.00     0.198 A 
ATOM     87  F   UNL A   1      41.805  35.088  27.343  1.00  0.00    -0.203 F 
ATOM     88  F   UNL A   1      43.991  38.882  30.542  1.00  0.00    -0.200 F 
ATOM     89  C   UNL A   1      42.828  38.284  28.584  1.00  0.00     0.200 A 
ATOM     90  F   UNL A   1      41.650  37.619  26.655  1.00  0.00    -0.200 F 
ATOM     91  F   UNL A   1      42.830  39.557  28.167  1.00  0.00    -0.200 F 
ENDBRANCH  58  81
ENDBRANCH  32  33
ENDBRANCH  25  27
ENDBRANCH  24  25
ENDBRANCH  23  24
ENDBRANCH   1  23
TORSDOF 14
ENDMDL
