MODEL 1
REMARK VINA RESULT:     -15.1      0.000      0.000
REMARK SMILES Cc1ccc(C(=O)N2CCCC[C@@H]2C(=O)OCCOC(=O)c2ccc(-c3c4nc(c(-c5c(F)c(F)c(F)c(F)c5F)c5ccc([nH]5)c(-c5c(F)c(F)c(F)c(F)c5F)c5nc(c(-c6c(F)c(F)c(F)c(F)c6F)c6ccc3[nH]6)C=C5)C=C4)cc2)cc1S(=O)(=O)N1CCCCC1
REMARK SMILES IDX 17 1 16 2 14 3 15 4 13 5 8 6 9 7 10 8 12 9 11 10 6 11 7 12
REMARK SMILES IDX 5 13 1 14 2 15 3 16 86 17 4 18 85 19 87 20 88 21 89 22 90 23
REMARK SMILES IDX 91 24 95 25 92 26 94 27 93 28 18 29 19 30 20 31 21 32 22 33
REMARK SMILES IDX 23 34 84 35 24 36 83 37 25 38 26 39 27 40 77 41 28 42 82 43
REMARK SMILES IDX 76 44 78 45 29 46 81 47 75 48 74 49 30 51 62 52 42 53 61 54
REMARK SMILES IDX 43 55 46 56 60 57 79 58 44 59 45 60 59 62 80 63 47 64 31 65
REMARK SMILES IDX 32 66 40 67 33 68 34 69 38 70 41 71 35 72 36 73 39 74 37 75
REMARK SMILES IDX 63 76 64 77 72 78 65 79 66 80 70 81 73 82 67 83 68 84 71 85
REMARK SMILES IDX 69 86 48 87 49 88 57 89 50 90 51 91 55 92 58 93 52 94 53 95
REMARK SMILES IDX 56 96 54 97
REMARK H PARENT 78 50 46 61
REMARK Flexibility Score: inf
ROOT
ATOM      1  C   UNL A   1      46.558  28.862  28.445  1.00  0.00     0.274 C 
ENDROOT
BRANCH   1   2
ATOM      2  O   UNL A   1      46.827  27.804  27.037  1.00  0.00    -0.461 OA
BRANCH   2   3
ATOM      3  C   UNL A   1      46.074  27.211  25.415  1.00  0.00     0.328 C 
ATOM      4  O   UNL A   1      45.849  27.931  24.404  1.00  0.00    -0.250 OA
BRANCH   3   5
ATOM      5  C   UNL A   1      45.824  25.511  25.029  1.00  0.00     0.195 C 
ATOM      6  N   UNL A   1      44.934  25.002  26.004  1.00  0.00    -0.325 N 
ATOM      7  C   UNL A   1      44.600  23.547  26.086  1.00  0.00     0.121 C 
ATOM      8  C   UNL A   1      45.764  22.613  25.881  1.00  0.00     0.022 C 
ATOM      9  C   UNL A   1      46.879  24.431  24.610  1.00  0.00     0.037 C 
ATOM     10  C   UNL A   1      46.404  22.974  24.558  1.00  0.00     0.005 C 
BRANCH   6  11
ATOM     11  C   UNL A   1      43.936  25.868  26.402  1.00  0.00     0.254 C 
ATOM     12  O   UNL A   1      44.107  26.108  27.625  1.00  0.00    -0.269 OA
BRANCH  11  13
ATOM     13  C   UNL A   1      42.645  26.793  25.244  1.00  0.00     0.041 A 
ATOM     14  C   UNL A   1      39.520  25.541  28.365  1.00  0.00     0.046 C 
ATOM     15  C   UNL A   1      40.787  26.174  27.954  1.00  0.00    -0.031 A 
ATOM     16  C   UNL A   1      40.936  28.027  27.661  1.00  0.00     0.005 A 
ATOM     17  C   UNL A   1      41.337  24.882  26.880  1.00  0.00     0.086 A 
ATOM     18  C   UNL A   1      41.828  28.530  26.002  1.00  0.00     0.014 A 
ATOM     19  C   UNL A   1      42.215  25.187  25.622  1.00  0.00     0.035 A 
BRANCH  17  20
ATOM     20  S   UNL A   1      40.528  22.940  26.637  1.00  0.00     0.243 S 
ATOM     21  O   UNL A   1      41.499  22.227  25.817  1.00  0.00    -0.207 OA
ATOM     22  O   UNL A   1      40.195  22.486  27.970  1.00  0.00    -0.207 OA
BRANCH  20  23
ATOM     23  N   UNL A   1      38.832  22.867  25.562  1.00  0.00    -0.198 NA
ATOM     24  C   UNL A   1      37.875  23.841  26.155  1.00  0.00     0.102 C 
ATOM     25  C   UNL A   1      38.008  21.521  25.454  1.00  0.00     0.102 C 
ATOM     26  C   UNL A   1      36.479  23.766  25.477  1.00  0.00     0.017 C 
ATOM     27  C   UNL A   1      36.909  21.631  24.319  1.00  0.00     0.017 C 
ATOM     28  C   UNL A   1      36.421  23.050  24.129  1.00  0.00     0.003 C 
ENDBRANCH  20  23
ENDBRANCH  17  20
ENDBRANCH  11  13
ENDBRANCH   6  11
ENDBRANCH   3   5
ENDBRANCH   2   3
ENDBRANCH   1   2
BRANCH   1  29
ATOM     29  C   UNL A   1      46.695  30.518  28.406  1.00  0.00     0.275 C 
BRANCH  29  30
ATOM     30  O   UNL A   1      45.764  31.447  27.746  1.00  0.00    -0.458 OA
BRANCH  30  31
ATOM     31  C   UNL A   1      45.971  31.843  26.473  1.00  0.00     0.338 C 
ATOM     32  O   UNL A   1      45.928  31.191  25.452  1.00  0.00    -0.246 OA
BRANCH  31  33
ATOM     33  C   UNL A   1      46.659  33.075  26.635  1.00  0.00     0.060 A 
ATOM     34  C   UNL A   1      48.427  33.586  26.561  1.00  0.00     0.016 A 
ATOM     35  C   UNL A   1      45.366  34.357  26.799  1.00  0.00     0.016 A 
ATOM     36  C   UNL A   1      48.854  35.392  26.922  1.00  0.00     0.010 A 
ATOM     37  C   UNL A   1      45.868  36.041  26.901  1.00  0.00     0.010 A 
ATOM     38  C   UNL A   1      47.594  36.682  27.295  1.00  0.00    -0.014 A 
BRANCH  38  39
ATOM     39  C   UNL A   1      47.395  38.011  28.874  1.00  0.00     0.031 A 
ATOM     40  C   UNL A   1      47.414  39.576  28.035  1.00  0.00     0.074 A 
ATOM     41  C   UNL A   1      46.202  37.279  30.240  1.00  0.00     0.049 A 
ATOM     42  N   UNL A   1      46.802  40.690  28.415  1.00  0.00    -0.248 NA
ATOM     43  C   UNL A   1      47.809  39.661  26.631  1.00  0.00     0.031 C 
ATOM     44  C   UNL A   1      44.339  37.437  30.089  1.00  0.00     0.029 A 
ATOM     45  N   UNL A   1      45.748  35.897  30.743  1.00  0.00    -0.354 N 
ATOM     46  C   UNL A   1      46.232  41.222  27.268  1.00  0.00     0.074 A 
ATOM     47  C   UNL A   1      47.152  40.767  26.238  1.00  0.00     0.031 C 
ATOM     48  C   UNL A   1      43.572  36.560  30.698  1.00  0.00     0.029 A 
ATOM     49  C   UNL A   1      44.493  35.867  31.443  1.00  0.00     0.049 A 
ATOM     50  H   UNL A   1      46.282  35.084  30.593  1.00  0.00     0.167 HD
ATOM     51  C   UNL A   1      44.925  41.691  27.211  1.00  0.00     0.037 A 
ATOM     52  C   UNL A   1      44.417  35.893  32.785  1.00  0.00     0.037 A 
ATOM     53  C   UNL A   1      44.062  41.384  28.415  1.00  0.00     0.049 A 
ATOM     54  C   UNL A   1      44.028  37.592  33.199  1.00  0.00     0.074 A 
ATOM     55  C   UNL A   1      42.854  40.686  28.526  1.00  0.00     0.029 A 
ATOM     56  N   UNL A   1      44.449  41.611  29.749  1.00  0.00    -0.354 N 
ATOM     57  N   UNL A   1      43.476  38.534  32.375  1.00  0.00    -0.248 NA
ATOM     58  C   UNL A   1      44.183  38.310  34.491  1.00  0.00     0.031 C 
ATOM     59  C   UNL A   1      42.519  40.500  29.900  1.00  0.00     0.029 A 
ATOM     60  C   UNL A   1      43.524  41.040  30.675  1.00  0.00     0.049 A 
ATOM     61  H   UNL A   1      45.259  42.105  30.013  1.00  0.00     0.167 HD
ATOM     62  C   UNL A   1      43.579  39.875  32.888  1.00  0.00     0.074 A 
ATOM     63  C   UNL A   1      43.903  39.615  34.272  1.00  0.00     0.031 C 
ATOM     64  C   UNL A   1      43.721  41.091  32.152  1.00  0.00     0.037 A 
BRANCH  51  65
ATOM     65  C   UNL A   1      44.198  42.271  25.956  1.00  0.00     0.064 A 
ATOM     66  C   UNL A   1      44.565  43.557  25.464  1.00  0.00     0.173 A 
ATOM     67  C   UNL A   1      43.199  41.656  25.172  1.00  0.00     0.173 A 
ATOM     68  F   UNL A   1      45.537  44.279  26.035  1.00  0.00    -0.203 F 
ATOM     69  C   UNL A   1      43.980  44.161  24.342  1.00  0.00     0.198 A 
ATOM     70  C   UNL A   1      42.648  42.240  24.017  1.00  0.00     0.198 A 
ATOM     71  F   UNL A   1      42.679  40.466  25.464  1.00  0.00    -0.203 F 
ATOM     72  F   UNL A   1      44.360  45.393  23.977  1.00  0.00    -0.200 F 
ATOM     73  C   UNL A   1      43.035  43.493  23.603  1.00  0.00     0.200 A 
ATOM     74  F   UNL A   1      41.733  41.562  23.307  1.00  0.00    -0.200 F 
ATOM     75  F   UNL A   1      42.508  44.043  22.501  1.00  0.00    -0.200 F 
ENDBRANCH  51  65
BRANCH  52  76
ATOM     76  C   UNL A   1      45.414  34.600  32.928  1.00  0.00     0.064 A 
ATOM     77  C   UNL A   1      46.711  34.640  33.500  1.00  0.00     0.173 A 
ATOM     78  C   UNL A   1      44.911  33.315  33.171  1.00  0.00     0.173 A 
ATOM     79  F   UNL A   1      47.397  35.788  33.482  1.00  0.00    -0.203 F 
ATOM     80  C   UNL A   1      47.329  33.529  34.200  1.00  0.00     0.198 A 
ATOM     81  C   UNL A   1      45.474  32.189  33.819  1.00  0.00     0.198 A 
ATOM     82  F   UNL A   1      43.660  33.207  32.850  1.00  0.00    -0.203 F 
ATOM     83  F   UNL A   1      48.540  33.676  34.754  1.00  0.00    -0.200 F 
ATOM     84  C   UNL A   1      46.696  32.311  34.377  1.00  0.00     0.200 A 
ATOM     85  F   UNL A   1      44.800  31.033  33.928  1.00  0.00    -0.200 F 
ATOM     86  F   UNL A   1      47.228  31.301  35.078  1.00  0.00    -0.200 F 
ENDBRANCH  52  76
BRANCH  64  87
ATOM     87  C   UNL A   1      44.251  42.481  32.682  1.00  0.00     0.064 A 
ATOM     88  C   UNL A   1      45.597  42.852  32.868  1.00  0.00     0.173 A 
ATOM     89  C   UNL A   1      43.339  43.554  32.929  1.00  0.00     0.173 A 
ATOM     90  F   UNL A   1      46.601  42.093  32.412  1.00  0.00    -0.203 F 
ATOM     91  C   UNL A   1      45.968  44.068  33.485  1.00  0.00     0.198 A 
ATOM     92  C   UNL A   1      43.716  44.794  33.459  1.00  0.00     0.198 A 
ATOM     93  F   UNL A   1      42.031  43.447  32.656  1.00  0.00    -0.203 F 
ATOM     94  F   UNL A   1      47.256  44.306  33.770  1.00  0.00    -0.200 F 
ATOM     95  C   UNL A   1      45.022  45.020  33.814  1.00  0.00     0.200 A 
ATOM     96  F   UNL A   1      42.794  45.752  33.641  1.00  0.00    -0.200 F 
ATOM     97  F   UNL A   1      45.364  46.143  34.462  1.00  0.00    -0.200 F 
ENDBRANCH  64  87
ENDBRANCH  38  39
ENDBRANCH  31  33
ENDBRANCH  30  31
ENDBRANCH  29  30
ENDBRANCH   1  29
TORSDOF 15
ENDMDL
MODEL 2
REMARK VINA RESULT:     -14.9      6.317     12.227
REMARK SMILES Cc1ccc(C(=O)N2CCCC[C@@H]2C(=O)OCCOC(=O)c2ccc(-c3c4nc(c(-c5c(F)c(F)c(F)c(F)c5F)c5ccc([nH]5)c(-c5c(F)c(F)c(F)c(F)c5F)c5nc(c(-c6c(F)c(F)c(F)c(F)c6F)c6ccc3[nH]6)C=C5)C=C4)cc2)cc1S(=O)(=O)N1CCCCC1
REMARK SMILES IDX 17 1 16 2 14 3 15 4 13 5 8 6 9 7 10 8 12 9 11 10 6 11 7 12
REMARK SMILES IDX 5 13 1 14 2 15 3 16 86 17 4 18 85 19 87 20 88 21 89 22 90 23
REMARK SMILES IDX 91 24 95 25 92 26 94 27 93 28 18 29 19 30 20 31 21 32 22 33
REMARK SMILES IDX 23 34 84 35 24 36 83 37 25 38 26 39 27 40 77 41 28 42 82 43
REMARK SMILES IDX 76 44 78 45 29 46 81 47 75 48 74 49 30 51 62 52 42 53 61 54
REMARK SMILES IDX 43 55 46 56 60 57 79 58 44 59 45 60 59 62 80 63 47 64 31 65
REMARK SMILES IDX 32 66 40 67 33 68 34 69 38 70 41 71 35 72 36 73 39 74 37 75
REMARK SMILES IDX 63 76 64 77 72 78 65 79 66 80 70 81 73 82 67 83 68 84 71 85
REMARK SMILES IDX 69 86 48 87 49 88 57 89 50 90 51 91 55 92 58 93 52 94 53 95
REMARK SMILES IDX 56 96 54 97
REMARK H PARENT 78 50 46 61
REMARK Flexibility Score: inf
ROOT
ATOM      1  C   UNL A   1      38.426  23.735  26.539  1.00  0.00     0.274 C 
ENDROOT
BRANCH   1   2
ATOM      2  O   UNL A   1      36.806  23.273  25.961  1.00  0.00    -0.461 OA
BRANCH   2   3
ATOM      3  C   UNL A   1      35.430  22.000  26.150  1.00  0.00     0.328 C 
ATOM      4  O   UNL A   1      34.854  21.697  27.231  1.00  0.00    -0.250 OA
BRANCH   3   5
ATOM      5  C   UNL A   1      34.608  21.255  24.783  1.00  0.00     0.195 C 
ATOM      6  N   UNL A   1      33.656  22.195  24.322  1.00  0.00    -0.325 N 
ATOM      7  C   UNL A   1      32.663  21.858  23.257  1.00  0.00     0.121 C 
ATOM      8  C   UNL A   1      32.053  20.485  23.366  1.00  0.00     0.022 C 
ATOM      9  C   UNL A   1      34.070  19.790  24.636  1.00  0.00     0.037 C 
ATOM     10  C   UNL A   1      33.191  19.488  23.416  1.00  0.00     0.005 C 
BRANCH   6  11
ATOM     11  C   UNL A   1      34.060  23.514  24.368  1.00  0.00     0.254 C 
ATOM     12  O   UNL A   1      34.484  23.822  23.224  1.00  0.00    -0.269 OA
BRANCH  11  13
ATOM     13  C   UNL A   1      33.782  24.784  25.843  1.00  0.00     0.041 A 
ATOM     14  C   UNL A   1      29.653  25.483  23.963  1.00  0.00     0.046 C 
ATOM     15  C   UNL A   1      30.719  24.625  24.514  1.00  0.00    -0.031 A 
ATOM     16  C   UNL A   1      30.701  24.017  26.295  1.00  0.00     0.005 A 
ATOM     17  C   UNL A   1      32.070  25.386  23.665  1.00  0.00     0.086 A 
ATOM     18  C   UNL A   1      32.382  24.238  27.258  1.00  0.00     0.014 A 
ATOM     19  C   UNL A   1      33.500  25.442  24.296  1.00  0.00     0.035 A 
BRANCH  17  20
ATOM     20  S   UNL A   1      32.006  26.816  22.104  1.00  0.00     0.243 S 
ATOM     21  O   UNL A   1      33.365  27.331  22.008  1.00  0.00    -0.207 OA
ATOM     22  O   UNL A   1      31.377  26.145  20.986  1.00  0.00    -0.207 OA
BRANCH  20  23
ATOM     23  N   UNL A   1      30.893  28.441  22.501  1.00  0.00    -0.198 NA
ATOM     24  C   UNL A   1      31.260  28.922  23.863  1.00  0.00     0.102 C 
ATOM     25  C   UNL A   1      29.315  28.345  22.531  1.00  0.00     0.102 C 
ATOM     26  C   UNL A   1      30.358  30.100  24.322  1.00  0.00     0.017 C 
ATOM     27  C   UNL A   1      28.670  29.792  22.550  1.00  0.00     0.017 C 
ATOM     28  C   UNL A   1      29.562  30.808  23.227  1.00  0.00     0.003 C 
ENDBRANCH  20  23
ENDBRANCH  17  20
ENDBRANCH  11  13
ENDBRANCH   6  11
ENDBRANCH   3   5
ENDBRANCH   2   3
ENDBRANCH   1   2
BRANCH   1  29
ATOM     29  C   UNL A   1      39.654  22.655  26.834  1.00  0.00     0.275 C 
BRANCH  29  30
ATOM     30  O   UNL A   1      40.208  21.691  25.870  1.00  0.00    -0.458 OA
BRANCH  30  31
ATOM     31  C   UNL A   1      41.283  20.940  26.184  1.00  0.00     0.338 C 
ATOM     32  O   UNL A   1      41.356  19.743  26.362  1.00  0.00    -0.246 OA
BRANCH  31  33
ATOM     33  C   UNL A   1      42.208  21.902  26.670  1.00  0.00     0.060 A 
ATOM     34  C   UNL A   1      42.786  22.405  28.345  1.00  0.00     0.016 A 
ATOM     35  C   UNL A   1      43.024  22.610  25.195  1.00  0.00     0.016 A 
ATOM     36  C   UNL A   1      44.023  23.830  28.476  1.00  0.00     0.010 A 
ATOM     37  C   UNL A   1      44.328  23.768  25.436  1.00  0.00     0.010 A 
ATOM     38  C   UNL A   1      44.720  24.711  27.018  1.00  0.00    -0.014 A 
BRANCH  38  39
ATOM     39  C   UNL A   1      44.791  26.721  26.515  1.00  0.00     0.031 A 
ATOM     40  C   UNL A   1      43.095  27.206  26.720  1.00  0.00     0.074 A 
ATOM     41  C   UNL A   1      46.460  27.526  27.139  1.00  0.00     0.049 A 
ATOM     42  N   UNL A   1      42.646  28.405  27.069  1.00  0.00    -0.248 NA
ATOM     43  C   UNL A   1      42.050  26.199  26.887  1.00  0.00     0.031 C 
ATOM     44  C   UNL A   1      46.646  28.132  28.904  1.00  0.00     0.029 A 
ATOM     45  N   UNL A   1      47.900  27.080  27.453  1.00  0.00    -0.354 N 
ATOM     46  C   UNL A   1      41.642  28.181  27.999  1.00  0.00     0.074 A 
ATOM     47  C   UNL A   1      41.123  26.891  27.573  1.00  0.00     0.031 C 
ATOM     48  C   UNL A   1      47.849  28.197  29.434  1.00  0.00     0.029 A 
ATOM     49  C   UNL A   1      48.639  27.931  28.343  1.00  0.00     0.049 A 
ATOM     50  H   UNL A   1      48.290  26.262  27.069  1.00  0.00     0.167 HD
ATOM     51  C   UNL A   1      41.540  28.879  29.196  1.00  0.00     0.037 A 
ATOM     52  C   UNL A   1      49.494  28.869  27.899  1.00  0.00     0.037 A 
ATOM     53  C   UNL A   1      42.722  29.754  29.551  1.00  0.00     0.049 A 
ATOM     54  C   UNL A   1      48.587  30.411  27.993  1.00  0.00     0.074 A 
ATOM     55  C   UNL A   1      43.567  29.749  30.666  1.00  0.00     0.029 A 
ATOM     56  N   UNL A   1      43.324  30.672  28.671  1.00  0.00    -0.354 N 
ATOM     57  N   UNL A   1      47.484  30.672  28.758  1.00  0.00    -0.248 NA
ATOM     58  C   UNL A   1      48.850  31.705  27.311  1.00  0.00     0.031 C 
ATOM     59  C   UNL A   1      44.655  30.649  30.462  1.00  0.00     0.029 A 
ATOM     60  C   UNL A   1      44.537  31.205  29.206  1.00  0.00     0.049 A 
ATOM     61  H   UNL A   1      42.954  30.918  27.792  1.00  0.00     0.167 HD
ATOM     62  C   UNL A   1      46.799  31.882  28.382  1.00  0.00     0.074 A 
ATOM     63  C   UNL A   1      47.807  32.526  27.572  1.00  0.00     0.031 C 
ATOM     64  C   UNL A   1      45.401  32.160  28.456  1.00  0.00     0.037 A 
BRANCH  51  65
ATOM     65  C   UNL A   1      40.465  28.665  30.309  1.00  0.00     0.064 A 
ATOM     66  C   UNL A   1      39.102  28.974  30.037  1.00  0.00     0.173 A 
ATOM     67  C   UNL A   1      40.655  28.146  31.608  1.00  0.00     0.173 A 
ATOM     68  F   UNL A   1      38.706  29.424  28.839  1.00  0.00    -0.203 F 
ATOM     69  C   UNL A   1      38.062  28.810  30.963  1.00  0.00     0.198 A 
ATOM     70  C   UNL A   1      39.605  27.933  32.520  1.00  0.00     0.198 A 
ATOM     71  F   UNL A   1      41.851  27.820  32.091  1.00  0.00    -0.203 F 
ATOM     72  F   UNL A   1      36.814  29.168  30.633  1.00  0.00    -0.200 F 
ATOM     73  C   UNL A   1      38.310  28.268  32.201  1.00  0.00     0.200 A 
ATOM     74  F   UNL A   1      39.873  27.394  33.719  1.00  0.00    -0.200 F 
ATOM     75  F   UNL A   1      37.315  28.062  33.073  1.00  0.00    -0.200 F 
ENDBRANCH  51  65
BRANCH  52  76
ATOM     76  C   UNL A   1      50.326  27.775  27.007  1.00  0.00     0.064 A 
ATOM     77  C   UNL A   1      50.325  27.720  25.590  1.00  0.00     0.173 A 
ATOM     78  C   UNL A   1      51.575  27.294  27.422  1.00  0.00     0.173 A 
ATOM     79  F   UNL A   1      49.270  28.199  24.920  1.00  0.00    -0.203 F 
ATOM     80  C   UNL A   1      51.443  27.256  24.790  1.00  0.00     0.198 A 
ATOM     81  C   UNL A   1      52.687  26.805  26.695  1.00  0.00     0.198 A 
ATOM     82  F   UNL A   1      51.768  27.458  28.693  1.00  0.00    -0.203 F 
ATOM     83  F   UNL A   1      51.369  27.288  23.452  1.00  0.00    -0.200 F 
ATOM     84  C   UNL A   1      52.632  26.820  25.347  1.00  0.00     0.200 A 
ATOM     85  F   UNL A   1      53.799  26.378  27.315  1.00  0.00    -0.200 F 
ATOM     86  F   UNL A   1      53.695  26.452  24.618  1.00  0.00    -0.200 F 
ENDBRANCH  52  76
BRANCH  64  87
ATOM     87  C   UNL A   1      44.599  33.276  27.677  1.00  0.00     0.064 A 
ATOM     88  C   UNL A   1      44.405  33.356  26.284  1.00  0.00     0.173 A 
ATOM     89  C   UNL A   1      43.891  34.290  28.396  1.00  0.00     0.173 A 
ATOM     90  F   UNL A   1      44.737  32.343  25.474  1.00  0.00    -0.203 F 
ATOM     91  C   UNL A   1      43.797  34.472  25.668  1.00  0.00     0.198 A 
ATOM     92  C   UNL A   1      43.210  35.351  27.785  1.00  0.00     0.198 A 
ATOM     93  F   UNL A   1      43.821  34.290  29.734  1.00  0.00    -0.203 F 
ATOM     94  F   UNL A   1      43.769  34.563  24.331  1.00  0.00    -0.200 F 
ATOM     95  C   UNL A   1      43.235  35.486  26.420  1.00  0.00     0.200 A 
ATOM     96  F   UNL A   1      42.556  36.248  28.538  1.00  0.00    -0.200 F 
ATOM     97  F   UNL A   1      42.719  36.578  25.837  1.00  0.00    -0.200 F 
ENDBRANCH  64  87
ENDBRANCH  38  39
ENDBRANCH  31  33
ENDBRANCH  30  31
ENDBRANCH  29  30
ENDBRANCH   1  29
TORSDOF 15
ENDMDL
MODEL 3
REMARK VINA RESULT:     -14.9      6.327     12.148
REMARK SMILES Cc1ccc(C(=O)N2CCCC[C@@H]2C(=O)OCCOC(=O)c2ccc(-c3c4nc(c(-c5c(F)c(F)c(F)c(F)c5F)c5ccc([nH]5)c(-c5c(F)c(F)c(F)c(F)c5F)c5nc(c(-c6c(F)c(F)c(F)c(F)c6F)c6ccc3[nH]6)C=C5)C=C4)cc2)cc1S(=O)(=O)N1CCCCC1
REMARK SMILES IDX 17 1 16 2 14 3 15 4 13 5 8 6 9 7 10 8 12 9 11 10 6 11 7 12
REMARK SMILES IDX 5 13 1 14 2 15 3 16 86 17 4 18 85 19 87 20 88 21 89 22 90 23
REMARK SMILES IDX 91 24 95 25 92 26 94 27 93 28 18 29 19 30 20 31 21 32 22 33
REMARK SMILES IDX 23 34 84 35 24 36 83 37 25 38 26 39 27 40 77 41 28 42 82 43
REMARK SMILES IDX 76 44 78 45 29 46 81 47 75 48 74 49 30 51 62 52 42 53 61 54
REMARK SMILES IDX 43 55 46 56 60 57 79 58 44 59 45 60 59 62 80 63 47 64 31 65
REMARK SMILES IDX 32 66 40 67 33 68 34 69 38 70 41 71 35 72 36 73 39 74 37 75
REMARK SMILES IDX 63 76 64 77 72 78 65 79 66 80 70 81 73 82 67 83 68 84 71 85
REMARK SMILES IDX 69 86 48 87 49 88 57 89 50 90 51 91 55 92 58 93 52 94 53 95
REMARK SMILES IDX 56 96 54 97
REMARK H PARENT 78 50 46 61
REMARK Flexibility Score: inf
ROOT
ATOM      1  C   UNL A   1      38.172  24.064  26.119  1.00  0.00     0.274 C 
ENDROOT
BRANCH   1   2
ATOM      2  O   UNL A   1      37.121  23.877  24.694  1.00  0.00    -0.461 OA
BRANCH   2   3
ATOM      3  C   UNL A   1      35.436  23.261  24.118  1.00  0.00     0.328 C 
ATOM      4  O   UNL A   1      35.067  23.150  22.917  1.00  0.00    -0.250 OA
BRANCH   3   5
ATOM      5  C   UNL A   1      34.256  22.523  25.196  1.00  0.00     0.195 C 
ATOM      6  N   UNL A   1      33.597  23.584  25.861  1.00  0.00    -0.325 N 
ATOM      7  C   UNL A   1      32.623  23.340  26.968  1.00  0.00     0.121 C 
ATOM      8  C   UNL A   1      33.019  22.259  27.940  1.00  0.00     0.022 C 
ATOM      9  C   UNL A   1      34.423  21.283  26.139  1.00  0.00     0.037 C 
ATOM     10  C   UNL A   1      33.290  21.006  27.136  1.00  0.00     0.005 C 
BRANCH   6  11
ATOM     11  C   UNL A   1      33.362  24.707  25.093  1.00  0.00     0.254 C 
ATOM     12  O   UNL A   1      34.365  25.458  25.200  1.00  0.00    -0.269 OA
BRANCH  11  13
ATOM     13  C   UNL A   1      31.877  24.987  23.836  1.00  0.00     0.041 A 
ATOM     14  C   UNL A   1      33.663  29.173  23.242  1.00  0.00     0.046 C 
ATOM     15  C   UNL A   1      33.745  27.701  23.274  1.00  0.00    -0.031 A 
ATOM     16  C   UNL A   1      33.613  26.652  21.717  1.00  0.00     0.005 A 
ATOM     17  C   UNL A   1      32.865  27.467  24.789  1.00  0.00     0.086 A 
ATOM     18  C   UNL A   1      32.391  25.139  21.844  1.00  0.00     0.014 A 
ATOM     19  C   UNL A   1      32.003  26.186  25.041  1.00  0.00     0.035 A 
BRANCH  17  20
ATOM     20  S   UNL A   1      32.263  28.927  26.200  1.00  0.00     0.243 S 
ATOM     21  O   UNL A   1      31.386  29.826  25.462  1.00  0.00    -0.207 OA
ATOM     22  O   UNL A   1      31.784  28.187  27.349  1.00  0.00    -0.207 OA
BRANCH  20  23
ATOM     23  N   UNL A   1      33.742  30.118  26.856  1.00  0.00    -0.198 NA
ATOM     24  C   UNL A   1      34.725  29.266  27.581  1.00  0.00     0.102 C 
ATOM     25  C   UNL A   1      33.435  31.302  27.858  1.00  0.00     0.102 C 
ATOM     26  C   UNL A   1      35.845  30.113  28.247  1.00  0.00     0.017 C 
ATOM     27  C   UNL A   1      34.682  32.271  27.975  1.00  0.00     0.017 C 
ATOM     28  C   UNL A   1      35.992  31.549  27.747  1.00  0.00     0.003 C 
ENDBRANCH  20  23
ENDBRANCH  17  20
ENDBRANCH  11  13
ENDBRANCH   6  11
ENDBRANCH   3   5
ENDBRANCH   2   3
ENDBRANCH   1   2
BRANCH   1  29
ATOM     29  C   UNL A   1      39.281  22.929  26.616  1.00  0.00     0.275 C 
BRANCH  29  30
ATOM     30  O   UNL A   1      39.874  21.876  25.777  1.00  0.00    -0.458 OA
BRANCH  30  31
ATOM     31  C   UNL A   1      40.832  21.061  26.265  1.00  0.00     0.338 C 
ATOM     32  O   UNL A   1      40.766  19.882  26.542  1.00  0.00    -0.246 OA
BRANCH  31  33
ATOM     33  C   UNL A   1      41.791  21.974  26.778  1.00  0.00     0.060 A 
ATOM     34  C   UNL A   1      42.320  22.477  28.469  1.00  0.00     0.016 A 
ATOM     35  C   UNL A   1      42.719  22.597  25.331  1.00  0.00     0.016 A 
ATOM     36  C   UNL A   1      43.636  23.825  28.633  1.00  0.00     0.010 A 
ATOM     37  C   UNL A   1      44.080  23.676  25.613  1.00  0.00     0.010 A 
ATOM     38  C   UNL A   1      44.456  24.628  27.194  1.00  0.00    -0.014 A 
BRANCH  38  39
ATOM     39  C   UNL A   1      44.678  26.619  26.657  1.00  0.00     0.031 A 
ATOM     40  C   UNL A   1      43.031  27.242  26.887  1.00  0.00     0.074 A 
ATOM     41  C   UNL A   1      46.420  27.295  27.233  1.00  0.00     0.049 A 
ATOM     42  N   UNL A   1      42.688  28.478  27.225  1.00  0.00    -0.248 NA
ATOM     43  C   UNL A   1      41.912  26.325  27.092  1.00  0.00     0.031 C 
ATOM     44  C   UNL A   1      46.692  27.910  28.984  1.00  0.00     0.029 A 
ATOM     45  N   UNL A   1      47.825  26.738  27.526  1.00  0.00    -0.354 N 
ATOM     46  C   UNL A   1      41.689  28.349  28.179  1.00  0.00     0.074 A 
ATOM     47  C   UNL A   1      41.059  27.100  27.785  1.00  0.00     0.031 C 
ATOM     48  C   UNL A   1      47.906  27.885  29.489  1.00  0.00     0.029 A 
ATOM     49  C   UNL A   1      48.649  27.541  28.387  1.00  0.00     0.049 A 
ATOM     50  H   UNL A   1      48.140  25.886  27.147  1.00  0.00     0.167 HD
ATOM     51  C   UNL A   1      41.670  29.071  29.367  1.00  0.00     0.037 A 
ATOM     52  C   UNL A   1      49.567  28.399  27.911  1.00  0.00     0.037 A 
ATOM     53  C   UNL A   1      42.925  29.853  29.683  1.00  0.00     0.049 A 
ATOM     54  C   UNL A   1      48.790  30.011  27.997  1.00  0.00     0.074 A 
ATOM     55  C   UNL A   1      43.791  29.796  30.781  1.00  0.00     0.029 A 
ATOM     56  N   UNL A   1      43.580  30.706  28.776  1.00  0.00    -0.354 N 
ATOM     57  N   UNL A   1      47.727  30.371  28.779  1.00  0.00    -0.248 NA
ATOM     58  C   UNL A   1      49.141  31.269  27.289  1.00  0.00     0.031 C 
ATOM     59  C   UNL A   1      44.943  30.602  30.540  1.00  0.00     0.029 A 
ATOM     60  C   UNL A   1      44.843  31.147  29.278  1.00  0.00     0.049 A 
ATOM     61  H   UNL A   1      43.213  30.969  27.901  1.00  0.00     0.167 HD
ATOM     62  C   UNL A   1      47.135  31.627  28.397  1.00  0.00     0.074 A 
ATOM     63  C   UNL A   1      48.173  32.175  27.557  1.00  0.00     0.031 C 
ATOM     64  C   UNL A   1      45.765  32.019  28.495  1.00  0.00     0.037 A 
BRANCH  51  65
ATOM     65  C   UNL A   1      40.605  28.961  30.504  1.00  0.00     0.064 A 
ATOM     66  C   UNL A   1      39.358  29.635  30.367  1.00  0.00     0.173 A 
ATOM     67  C   UNL A   1      40.690  28.219  31.702  1.00  0.00     0.173 A 
ATOM     68  F   UNL A   1      39.058  30.347  29.272  1.00  0.00    -0.203 F 
ATOM     69  C   UNL A   1      38.335  29.593  31.325  1.00  0.00     0.198 A 
ATOM     70  C   UNL A   1      39.645  28.135  32.640  1.00  0.00     0.198 A 
ATOM     71  F   UNL A   1      41.777  27.538  32.057  1.00  0.00    -0.203 F 
ATOM     72  F   UNL A   1      37.210  30.294  31.129  1.00  0.00    -0.200 F 
ATOM     73  C   UNL A   1      38.470  28.823  32.455  1.00  0.00     0.200 A 
ATOM     74  F   UNL A   1      39.799  27.369  33.731  1.00  0.00    -0.200 F 
ATOM     75  F   UNL A   1      37.478  28.738  33.350  1.00  0.00    -0.200 F 
ENDBRANCH  51  65
BRANCH  52  76
ATOM     76  C   UNL A   1      50.289  27.229  27.020  1.00  0.00     0.064 A 
ATOM     77  C   UNL A   1      50.306  27.186  25.602  1.00  0.00     0.173 A 
ATOM     78  C   UNL A   1      51.470  26.610  27.449  1.00  0.00     0.173 A 
ATOM     79  F   UNL A   1      49.321  27.784  24.921  1.00  0.00    -0.203 F 
ATOM     80  C   UNL A   1      51.379  26.610  24.815  1.00  0.00     0.198 A 
ATOM     81  C   UNL A   1      52.534  26.008  26.734  1.00  0.00     0.198 A 
ATOM     82  F   UNL A   1      51.659  26.740  28.725  1.00  0.00    -0.203 F 
ATOM     83  F   UNL A   1      51.332  26.662  23.476  1.00  0.00    -0.200 F 
ATOM     84  C   UNL A   1      52.504  26.041  25.386  1.00  0.00     0.200 A 
ATOM     85  F   UNL A   1      53.582  25.456  27.367  1.00  0.00    -0.200 F 
ATOM     86  F   UNL A   1      53.532  25.566  24.670  1.00  0.00    -0.200 F 
ENDBRANCH  52  76
BRANCH  64  87
ATOM     87  C   UNL A   1      45.039  33.184  27.715  1.00  0.00     0.064 A 
ATOM     88  C   UNL A   1      44.784  34.485  28.191  1.00  0.00     0.173 A 
ATOM     89  C   UNL A   1      44.658  33.008  26.347  1.00  0.00     0.173 A 
ATOM     90  F   UNL A   1      45.327  34.930  29.331  1.00  0.00    -0.203 F 
ATOM     91  C   UNL A   1      43.998  35.413  27.472  1.00  0.00     0.198 A 
ATOM     92  C   UNL A   1      43.955  33.964  25.602  1.00  0.00     0.198 A 
ATOM     93  F   UNL A   1      44.961  31.894  25.667  1.00  0.00    -0.203 F 
ATOM     94  F   UNL A   1      43.664  36.583  28.035  1.00  0.00    -0.200 F 
ATOM     95  C   UNL A   1      43.553  35.135  26.194  1.00  0.00     0.200 A 
ATOM     96  F   UNL A   1      43.654  33.721  24.318  1.00  0.00    -0.200 F 
ATOM     97  F   UNL A   1      42.751  35.985  25.538  1.00  0.00    -0.200 F 
ENDBRANCH  64  87
ENDBRANCH  38  39
ENDBRANCH  31  33
ENDBRANCH  30  31
ENDBRANCH  29  30
ENDBRANCH   1  29
TORSDOF 15
ENDMDL
