MODEL 1
REMARK VINA RESULT:     -12.9      0.000      0.000
REMARK SMILES Cc1ncc(CO)c([C@H]2[NH2+][C@@H](C(=O)OCCOC(=O)c3ccc(-c4c5nc(c(-c6c(F)c(F)c(F)c(F)c6F)c6ccc([nH]6)c(-c6c(F)c(F)c(F)c(F)c6F)c6nc(c(-c7c(F)c(F)c(F)c(F)c7F)c7ccc4[nH]7)C=C6)C=C5)cc3)Cc3[nH]cnc32)c1O
REMARK SMILES IDX 15 1 14 2 12 3 13 4 11 5 9 6 10 7 88 8 84 11 87 12 83 13
REMARK SMILES IDX 85 14 86 15 8 17 1 18 2 19 3 20 89 21 4 22 5 23 90 24 6 26
REMARK SMILES IDX 7 27 16 29 17 30 18 31 19 32 20 33 21 34 82 35 22 36 81 37
REMARK SMILES IDX 23 38 24 39 25 40 75 41 26 42 80 43 74 44 76 45 27 46 79 47
REMARK SMILES IDX 73 48 72 49 28 51 60 52 40 53 59 54 41 55 44 56 58 57 77 58
REMARK SMILES IDX 42 59 43 60 57 62 78 63 45 64 29 65 30 66 38 67 31 68 32 69
REMARK SMILES IDX 36 70 39 71 33 72 34 73 37 74 35 75 61 76 62 77 70 78 63 79
REMARK SMILES IDX 64 80 68 81 71 82 65 83 66 84 69 85 67 86 46 87 47 88 55 89
REMARK SMILES IDX 48 90 49 91 53 92 56 93 50 94 51 95 54 96 52 97
REMARK H PARENT 10 9 10 10 85 16 90 25 7 28 76 50 44 61
REMARK Flexibility Score: inf
ROOT
ATOM      1  C   UNL A   1      33.448  30.548  27.395  1.00  0.00     0.274 C 
ENDROOT
BRANCH   1   2
ATOM      2  O   UNL A   1      33.425  30.024  26.054  1.00  0.00    -0.458 OA
BRANCH   2   3
ATOM      3  C   UNL A   1      33.600  28.670  25.912  1.00  0.00     0.365 C 
ATOM      4  O   UNL A   1      33.943  27.914  26.798  1.00  0.00    -0.245 OA
BRANCH   3   5
ATOM      5  C   UNL A   1      33.195  28.261  24.488  1.00  0.00     0.300 C 
ATOM      6  C   UNL A   1      31.332  28.225  22.913  1.00  0.00     0.270 C 
ATOM      7  N   UNL A   1      31.704  28.296  24.358  1.00  0.00    -0.323 N 
ATOM      8  C   UNL A   1      31.886  26.940  22.367  1.00  0.00     0.124 A 
ATOM      9  H   UNL A   1      31.301  27.499  24.853  1.00  0.00     0.347 HD
ATOM     10  H   UNL A   1      31.346  29.161  24.762  1.00  0.00     0.347 HD
ATOM     11  C   UNL A   1      33.034  26.375  22.906  1.00  0.00     0.051 A 
ATOM     12  N   UNL A   1      31.561  26.297  21.199  1.00  0.00    -0.235 NA
ATOM     13  C   UNL A   1      33.758  26.868  24.117  1.00  0.00     0.133 C 
ATOM     14  N   UNL A   1      33.377  25.348  22.085  1.00  0.00    -0.348 N 
ATOM     15  C   UNL A   1      32.458  25.340  21.070  1.00  0.00     0.197 A 
ATOM     16  H   UNL A   1      34.138  24.732  22.198  1.00  0.00     0.167 HD
BRANCH   6  17
ATOM     17  C   UNL A   1      29.854  28.541  22.746  1.00  0.00     0.066 A 
ATOM     18  C   UNL A   1      28.083  31.678  21.373  1.00  0.00     0.071 C 
ATOM     19  C   UNL A   1      28.328  30.327  21.976  1.00  0.00     0.079 A 
ATOM     20  N   UNL A   1      27.249  29.672  22.439  1.00  0.00    -0.257 NA
ATOM     21  C   UNL A   1      29.607  29.781  22.085  1.00  0.00     0.146 A 
ATOM     22  C   UNL A   1      27.468  28.478  23.039  1.00  0.00     0.118 A 
ATOM     23  C   UNL A   1      28.724  27.884  23.270  1.00  0.00     0.009 A 
BRANCH  21  24
ATOM     24  O   UNL A   1      30.678  30.508  21.613  1.00  0.00    -0.505 OA
ATOM     25  H   UNL A   1      30.745  30.704  20.699  1.00  0.00     0.293 HD
ENDBRANCH  21  24
BRANCH  23  26
ATOM     26  C   UNL A   1      28.714  26.586  24.029  1.00  0.00     0.194 C 
BRANCH  26  27
ATOM     27  O   UNL A   1      27.380  26.068  24.100  1.00  0.00    -0.392 OA
ATOM     28  H   UNL A   1      26.989  26.059  23.213  1.00  0.00     0.211 HD
ENDBRANCH  26  27
ENDBRANCH  23  26
ENDBRANCH   6  17
ENDBRANCH   3   5
ENDBRANCH   2   3
ENDBRANCH   1   2
BRANCH   1  29
ATOM     29  C   UNL A   1      34.765  31.257  27.677  1.00  0.00     0.275 C 
BRANCH  29  30
ATOM     30  O   UNL A   1      35.623  30.432  28.466  1.00  0.00    -0.458 OA
BRANCH  30  31
ATOM     31  C   UNL A   1      36.567  31.091  29.169  1.00  0.00     0.338 C 
ATOM     32  O   UNL A   1      36.428  32.113  29.832  1.00  0.00    -0.246 OA
BRANCH  31  33
ATOM     33  C   UNL A   1      37.886  30.528  28.869  1.00  0.00     0.060 A 
ATOM     34  C   UNL A   1      37.928  29.244  28.319  1.00  0.00     0.016 A 
ATOM     35  C   UNL A   1      39.022  31.130  29.420  1.00  0.00     0.016 A 
ATOM     36  C   UNL A   1      39.053  28.473  28.505  1.00  0.00     0.010 A 
ATOM     37  C   UNL A   1      40.150  30.366  29.599  1.00  0.00     0.010 A 
ATOM     38  C   UNL A   1      40.120  29.024  29.215  1.00  0.00    -0.014 A 
BRANCH  38  39
ATOM     39  C   UNL A   1      41.240  28.168  29.540  1.00  0.00     0.031 A 
ATOM     40  C   UNL A   1      41.591  28.113  30.979  1.00  0.00     0.074 A 
ATOM     41  C   UNL A   1      41.778  27.363  28.604  1.00  0.00     0.049 A 
ATOM     42  N   UNL A   1      42.752  28.269  31.526  1.00  0.00    -0.248 NA
ATOM     43  C   UNL A   1      40.490  27.934  31.940  1.00  0.00     0.031 C 
ATOM     44  C   UNL A   1      41.307  27.135  27.234  1.00  0.00     0.029 A 
ATOM     45  N   UNL A   1      42.785  26.462  28.739  1.00  0.00    -0.354 N 
ATOM     46  C   UNL A   1      42.558  28.070  32.890  1.00  0.00     0.074 A 
ATOM     47  C   UNL A   1      41.137  27.988  33.102  1.00  0.00     0.031 C 
ATOM     48  C   UNL A   1      41.869  26.001  26.761  1.00  0.00     0.029 A 
ATOM     49  C   UNL A   1      42.803  25.491  27.752  1.00  0.00     0.049 A 
ATOM     50  H   UNL A   1      43.442  26.495  29.472  1.00  0.00     0.167 HD
ATOM     51  C   UNL A   1      43.591  27.785  33.724  1.00  0.00     0.037 A 
ATOM     52  C   UNL A   1      43.458  24.306  27.806  1.00  0.00     0.037 A 
ATOM     53  C   UNL A   1      44.853  28.190  33.168  1.00  0.00     0.049 A 
ATOM     54  C   UNL A   1      44.487  24.410  28.876  1.00  0.00     0.074 A 
ATOM     55  C   UNL A   1      45.372  29.403  32.755  1.00  0.00     0.029 A 
ATOM     56  N   UNL A   1      45.678  27.233  32.631  1.00  0.00    -0.354 N 
ATOM     57  N   UNL A   1      45.558  25.150  28.792  1.00  0.00    -0.248 NA
ATOM     58  C   UNL A   1      44.100  24.030  30.229  1.00  0.00     0.031 C 
ATOM     59  C   UNL A   1      46.160  29.098  31.610  1.00  0.00     0.029 A 
ATOM     60  C   UNL A   1      46.107  27.717  31.421  1.00  0.00     0.049 A 
ATOM     61  H   UNL A   1      45.916  26.368  33.036  1.00  0.00     0.167 HD
ATOM     62  C   UNL A   1      45.726  25.676  30.065  1.00  0.00     0.074 A 
ATOM     63  C   UNL A   1      44.864  24.874  30.927  1.00  0.00     0.031 C 
ATOM     64  C   UNL A   1      46.318  26.890  30.257  1.00  0.00     0.037 A 
BRANCH  51  65
ATOM     65  C   UNL A   1      43.477  26.848  34.895  1.00  0.00     0.064 A 
ATOM     66  C   UNL A   1      43.687  27.340  36.198  1.00  0.00     0.173 A 
ATOM     67  C   UNL A   1      43.465  25.442  34.766  1.00  0.00     0.173 A 
ATOM     68  F   UNL A   1      43.742  28.660  36.428  1.00  0.00    -0.203 F 
ATOM     69  C   UNL A   1      43.936  26.486  37.274  1.00  0.00     0.198 A 
ATOM     70  C   UNL A   1      43.658  24.593  35.852  1.00  0.00     0.198 A 
ATOM     71  F   UNL A   1      43.382  24.839  33.573  1.00  0.00    -0.203 F 
ATOM     72  F   UNL A   1      44.256  27.000  38.469  1.00  0.00    -0.200 F 
ATOM     73  C   UNL A   1      43.927  25.113  37.099  1.00  0.00     0.200 A 
ATOM     74  F   UNL A   1      43.663  23.266  35.657  1.00  0.00    -0.200 F 
ATOM     75  F   UNL A   1      44.227  24.295  38.116  1.00  0.00    -0.200 F 
ENDBRANCH  51  65
BRANCH  52  76
ATOM     76  C   UNL A   1      43.059  23.018  27.192  1.00  0.00     0.064 A 
ATOM     77  C   UNL A   1      43.840  22.416  26.193  1.00  0.00     0.173 A 
ATOM     78  C   UNL A   1      42.021  22.228  27.730  1.00  0.00     0.173 A 
ATOM     79  F   UNL A   1      44.882  23.073  25.664  1.00  0.00    -0.203 F 
ATOM     80  C   UNL A   1      43.601  21.105  25.763  1.00  0.00     0.198 A 
ATOM     81  C   UNL A   1      41.772  20.928  27.288  1.00  0.00     0.198 A 
ATOM     82  F   UNL A   1      41.281  22.664  28.758  1.00  0.00    -0.203 F 
ATOM     83  F   UNL A   1      44.404  20.545  24.848  1.00  0.00    -0.200 F 
ATOM     84  C   UNL A   1      42.569  20.363  26.314  1.00  0.00     0.200 A 
ATOM     85  F   UNL A   1      40.790  20.213  27.855  1.00  0.00    -0.200 F 
ATOM     86  F   UNL A   1      42.367  19.092  25.935  1.00  0.00    -0.200 F 
ENDBRANCH  52  76
BRANCH  64  87
ATOM     87  C   UNL A   1      46.999  27.538  29.086  1.00  0.00     0.064 A 
ATOM     88  C   UNL A   1      46.334  28.355  28.156  1.00  0.00     0.173 A 
ATOM     89  C   UNL A   1      48.395  27.458  28.991  1.00  0.00     0.173 A 
ATOM     90  F   UNL A   1      45.018  28.573  28.245  1.00  0.00    -0.203 F 
ATOM     91  C   UNL A   1      47.030  29.019  27.147  1.00  0.00     0.198 A 
ATOM     92  C   UNL A   1      49.091  28.153  28.006  1.00  0.00     0.198 A 
ATOM     93  F   UNL A   1      49.091  26.742  29.889  1.00  0.00    -0.203 F 
ATOM     94  F   UNL A   1      46.366  29.777  26.261  1.00  0.00    -0.200 F 
ATOM     95  C   UNL A   1      48.408  28.923  27.077  1.00  0.00     0.200 A 
ATOM     96  F   UNL A   1      50.430  28.097  27.972  1.00  0.00    -0.200 F 
ATOM     97  F   UNL A   1      49.082  29.591  26.131  1.00  0.00    -0.200 F 
ENDBRANCH  64  87
ENDBRANCH  38  39
ENDBRANCH  31  33
ENDBRANCH  30  31
ENDBRANCH  29  30
ENDBRANCH   1  29
TORSDOF 15
ENDMDL
MODEL 2
REMARK VINA RESULT:     -12.8      1.119      1.908
REMARK SMILES Cc1ncc(CO)c([C@H]2[NH2+][C@@H](C(=O)OCCOC(=O)c3ccc(-c4c5nc(c(-c6c(F)c(F)c(F)c(F)c6F)c6ccc([nH]6)c(-c6c(F)c(F)c(F)c(F)c6F)c6nc(c(-c7c(F)c(F)c(F)c(F)c7F)c7ccc4[nH]7)C=C6)C=C5)cc3)Cc3[nH]cnc32)c1O
REMARK SMILES IDX 15 1 14 2 12 3 13 4 11 5 9 6 10 7 88 8 84 11 87 12 83 13
REMARK SMILES IDX 85 14 86 15 8 17 1 18 2 19 3 20 89 21 4 22 5 23 90 24 6 26
REMARK SMILES IDX 7 27 16 29 17 30 18 31 19 32 20 33 21 34 82 35 22 36 81 37
REMARK SMILES IDX 23 38 24 39 25 40 75 41 26 42 80 43 74 44 76 45 27 46 79 47
REMARK SMILES IDX 73 48 72 49 28 51 60 52 40 53 59 54 41 55 44 56 58 57 77 58
REMARK SMILES IDX 42 59 43 60 57 62 78 63 45 64 29 65 30 66 38 67 31 68 32 69
REMARK SMILES IDX 36 70 39 71 33 72 34 73 37 74 35 75 61 76 62 77 70 78 63 79
REMARK SMILES IDX 64 80 68 81 71 82 65 83 66 84 69 85 67 86 46 87 47 88 55 89
REMARK SMILES IDX 48 90 49 91 53 92 56 93 50 94 51 95 54 96 52 97
REMARK H PARENT 10 9 10 10 85 16 90 25 7 28 76 50 44 61
REMARK Flexibility Score: inf
ROOT
ATOM      1  C   UNL A   1      33.393  30.708  27.406  1.00  0.00     0.274 C 
ENDROOT
BRANCH   1   2
ATOM      2  O   UNL A   1      33.427  30.105  26.100  1.00  0.00    -0.458 OA
BRANCH   2   3
ATOM      3  C   UNL A   1      33.651  28.751  26.045  1.00  0.00     0.365 C 
ATOM      4  O   UNL A   1      34.004  28.064  26.982  1.00  0.00    -0.245 OA
BRANCH   3   5
ATOM      5  C   UNL A   1      33.289  28.241  24.642  1.00  0.00     0.300 C 
ATOM      6  C   UNL A   1      31.477  28.104  23.014  1.00  0.00     0.270 C 
ATOM      7  N   UNL A   1      31.803  28.278  24.461  1.00  0.00    -0.323 N 
ATOM      8  C   UNL A   1      32.035  26.778  22.583  1.00  0.00     0.124 A 
ATOM      9  H   UNL A   1      31.376  27.524  25.000  1.00  0.00     0.347 HD
ATOM     10  H   UNL A   1      31.441  29.174  24.788  1.00  0.00     0.347 HD
ATOM     11  C   UNL A   1      33.158  26.246  23.199  1.00  0.00     0.051 A 
ATOM     12  N   UNL A   1      31.741  26.053  21.455  1.00  0.00    -0.235 NA
ATOM     13  C   UNL A   1      33.848  26.821  24.393  1.00  0.00     0.133 C 
ATOM     14  N   UNL A   1      33.518  25.158  22.468  1.00  0.00    -0.348 N 
ATOM     15  C   UNL A   1      32.631  25.082  21.426  1.00  0.00     0.197 A 
ATOM     16  H   UNL A   1      34.267  24.546  22.651  1.00  0.00     0.167 HD
BRANCH   6  17
ATOM     17  C   UNL A   1      30.008  28.419  22.776  1.00  0.00     0.066 A 
ATOM     18  C   UNL A   1      28.315  31.462  21.122  1.00  0.00     0.071 C 
ATOM     19  C   UNL A   1      28.526  30.156  21.828  1.00  0.00     0.079 A 
ATOM     20  N   UNL A   1      27.426  29.545  22.302  1.00  0.00    -0.257 NA
ATOM     21  C   UNL A   1      29.796  29.610  22.019  1.00  0.00     0.146 A 
ATOM     22  C   UNL A   1      27.614  28.396  22.993  1.00  0.00     0.118 A 
ATOM     23  C   UNL A   1      28.855  27.810  23.308  1.00  0.00     0.009 A 
BRANCH  21  24
ATOM     24  O   UNL A   1      30.888  30.292  21.532  1.00  0.00    -0.505 OA
ATOM     25  H   UNL A   1      31.058  30.308  20.611  1.00  0.00     0.293 HD
ENDBRANCH  21  24
BRANCH  23  26
ATOM     26  C   UNL A   1      28.807  26.571  24.158  1.00  0.00     0.194 C 
BRANCH  26  27
ATOM     27  O   UNL A   1      27.453  26.127  24.305  1.00  0.00    -0.392 OA
ATOM     28  H   UNL A   1      27.297  25.366  23.723  1.00  0.00     0.211 HD
ENDBRANCH  26  27
ENDBRANCH  23  26
ENDBRANCH   6  17
ENDBRANCH   3   5
ENDBRANCH   2   3
ENDBRANCH   1   2
BRANCH   1  29
ATOM     29  C   UNL A   1      34.665  31.501  27.670  1.00  0.00     0.275 C 
BRANCH  29  30
ATOM     30  O   UNL A   1      35.533  30.785  28.549  1.00  0.00    -0.458 OA
BRANCH  30  31
ATOM     31  C   UNL A   1      36.557  31.501  29.055  1.00  0.00     0.338 C 
ATOM     32  O   UNL A   1      36.513  32.623  29.549  1.00  0.00    -0.246 OA
BRANCH  31  33
ATOM     33  C   UNL A   1      37.824  30.833  28.749  1.00  0.00     0.060 A 
ATOM     34  C   UNL A   1      37.760  29.608  28.078  1.00  0.00     0.016 A 
ATOM     35  C   UNL A   1      38.989  31.257  29.395  1.00  0.00     0.016 A 
ATOM     36  C   UNL A   1      38.792  28.709  28.228  1.00  0.00     0.010 A 
ATOM     37  C   UNL A   1      40.025  30.366  29.539  1.00  0.00     0.010 A 
ATOM     38  C   UNL A   1      39.876  29.075  29.025  1.00  0.00    -0.014 A 
BRANCH  38  39
ATOM     39  C   UNL A   1      40.888  28.080  29.304  1.00  0.00     0.031 A 
ATOM     40  C   UNL A   1      41.395  28.075  30.697  1.00  0.00     0.074 A 
ATOM     41  C   UNL A   1      41.185  27.135  28.393  1.00  0.00     0.049 A 
ATOM     42  N   UNL A   1      42.623  28.085  31.102  1.00  0.00    -0.248 NA
ATOM     43  C   UNL A   1      40.401  28.141  31.782  1.00  0.00     0.031 C 
ATOM     44  C   UNL A   1      40.527  26.885  27.107  1.00  0.00     0.029 A 
ATOM     45  N   UNL A   1      42.057  26.099  28.500  1.00  0.00    -0.354 N 
ATOM     46  C   UNL A   1      42.565  28.018  32.490  1.00  0.00     0.074 A 
ATOM     47  C   UNL A   1      41.182  28.176  32.859  1.00  0.00     0.031 C 
ATOM     48  C   UNL A   1      40.854  25.647  26.680  1.00  0.00     0.029 A 
ATOM     49  C   UNL A   1      41.814  25.069  27.607  1.00  0.00     0.049 A 
ATOM     50  H   UNL A   1      42.794  26.081  29.152  1.00  0.00     0.167 HD
ATOM     51  C   UNL A   1      43.636  27.635  33.232  1.00  0.00     0.037 A 
ATOM     52  C   UNL A   1      42.288  23.802  27.697  1.00  0.00     0.037 A 
ATOM     53  C   UNL A   1      44.869  27.795  32.511  1.00  0.00     0.049 A 
ATOM     54  C   UNL A   1      43.441  23.820  28.638  1.00  0.00     0.074 A 
ATOM     55  C   UNL A   1      45.509  28.879  31.939  1.00  0.00     0.029 A 
ATOM     56  N   UNL A   1      45.474  26.684  31.977  1.00  0.00    -0.354 N 
ATOM     57  N   UNL A   1      44.591  24.375  28.374  1.00  0.00    -0.248 NA
ATOM     58  C   UNL A   1      43.165  23.604  30.053  1.00  0.00     0.031 C 
ATOM     59  C   UNL A   1      46.102  28.371  30.748  1.00  0.00     0.029 A 
ATOM     60  C   UNL A   1      45.823  27.007  30.690  1.00  0.00     0.049 A 
ATOM     61  H   UNL A   1      45.628  25.824  32.431  1.00  0.00     0.167 HD
ATOM     62  C   UNL A   1      44.985  24.958  29.570  1.00  0.00     0.074 A 
ATOM     63  C   UNL A   1      44.122  24.366  30.588  1.00  0.00     0.031 C 
ATOM     64  C   UNL A   1      45.769  26.075  29.589  1.00  0.00     0.037 A 
BRANCH  51  65
ATOM     65  C   UNL A   1      43.525  26.815  34.488  1.00  0.00     0.064 A 
ATOM     66  C   UNL A   1      43.703  27.437  35.739  1.00  0.00     0.173 A 
ATOM     67  C   UNL A   1      43.546  25.403  34.497  1.00  0.00     0.173 A 
ATOM     68  F   UNL A   1      43.725  28.774  35.839  1.00  0.00    -0.203 F 
ATOM     69  C   UNL A   1      43.954  26.698  36.897  1.00  0.00     0.198 A 
ATOM     70  C   UNL A   1      43.741  24.668  35.663  1.00  0.00     0.198 A 
ATOM     71  F   UNL A   1      43.496  24.684  33.368  1.00  0.00    -0.203 F 
ATOM     72  F   UNL A   1      44.244  27.333  38.040  1.00  0.00    -0.200 F 
ATOM     73  C   UNL A   1      43.978  25.315  36.857  1.00  0.00     0.200 A 
ATOM     74  F   UNL A   1      43.778  23.330  35.600  1.00  0.00    -0.200 F 
ATOM     75  F   UNL A   1      44.281  24.608  37.953  1.00  0.00    -0.200 F 
ENDBRANCH  51  65
BRANCH  52  76
ATOM     76  C   UNL A   1      41.632  22.552  27.247  1.00  0.00     0.064 A 
ATOM     77  C   UNL A   1      40.235  22.457  27.153  1.00  0.00     0.173 A 
ATOM     78  C   UNL A   1      42.368  21.492  26.676  1.00  0.00     0.173 A 
ATOM     79  F   UNL A   1      39.459  23.445  27.620  1.00  0.00    -0.203 F 
ATOM     80  C   UNL A   1      39.613  21.372  26.524  1.00  0.00     0.198 A 
ATOM     81  C   UNL A   1      41.746  20.401  26.065  1.00  0.00     0.198 A 
ATOM     82  F   UNL A   1      43.706  21.529  26.616  1.00  0.00    -0.203 F 
ATOM     83  F   UNL A   1      38.278  21.344  26.404  1.00  0.00    -0.200 F 
ATOM     84  C   UNL A   1      40.370  20.347  25.979  1.00  0.00     0.200 A 
ATOM     85  F   UNL A   1      42.494  19.436  25.514  1.00  0.00    -0.200 F 
ATOM     86  F   UNL A   1      39.776  19.331  25.337  1.00  0.00    -0.200 F 
ENDBRANCH  52  76
BRANCH  64  87
ATOM     87  C   UNL A   1      46.395  26.521  28.299  1.00  0.00     0.064 A 
ATOM     88  C   UNL A   1      47.637  26.053  27.836  1.00  0.00     0.173 A 
ATOM     89  C   UNL A   1      45.644  27.323  27.429  1.00  0.00     0.173 A 
ATOM     90  F   UNL A   1      48.365  25.194  28.559  1.00  0.00    -0.203 F 
ATOM     91  C   UNL A   1      48.127  26.415  26.582  1.00  0.00     0.198 A 
ATOM     92  C   UNL A   1      46.118  27.652  26.162  1.00  0.00     0.198 A 
ATOM     93  F   UNL A   1      44.424  27.749  27.791  1.00  0.00    -0.203 F 
ATOM     94  F   UNL A   1      49.324  25.969  26.175  1.00  0.00    -0.200 F 
ATOM     95  C   UNL A   1      47.363  27.208  25.744  1.00  0.00     0.200 A 
ATOM     96  F   UNL A   1      45.356  28.379  25.334  1.00  0.00    -0.200 F 
ATOM     97  F   UNL A   1      47.816  27.526  24.524  1.00  0.00    -0.200 F 
ENDBRANCH  64  87
ENDBRANCH  38  39
ENDBRANCH  31  33
ENDBRANCH  30  31
ENDBRANCH  29  30
ENDBRANCH   1  29
TORSDOF 15
ENDMDL
MODEL 3
REMARK VINA RESULT:     -12.8      2.074      7.117
REMARK SMILES Cc1ncc(CO)c([C@H]2[NH2+][C@@H](C(=O)OCCOC(=O)c3ccc(-c4c5nc(c(-c6c(F)c(F)c(F)c(F)c6F)c6ccc([nH]6)c(-c6c(F)c(F)c(F)c(F)c6F)c6nc(c(-c7c(F)c(F)c(F)c(F)c7F)c7ccc4[nH]7)C=C6)C=C5)cc3)Cc3[nH]cnc32)c1O
REMARK SMILES IDX 15 1 14 2 12 3 13 4 11 5 9 6 10 7 88 8 84 11 87 12 83 13
REMARK SMILES IDX 85 14 86 15 8 17 1 18 2 19 3 20 89 21 4 22 5 23 90 24 6 26
REMARK SMILES IDX 7 27 16 29 17 30 18 31 19 32 20 33 21 34 82 35 22 36 81 37
REMARK SMILES IDX 23 38 24 39 25 40 75 41 26 42 80 43 74 44 76 45 27 46 79 47
REMARK SMILES IDX 73 48 72 49 28 51 60 52 40 53 59 54 41 55 44 56 58 57 77 58
REMARK SMILES IDX 42 59 43 60 57 62 78 63 45 64 29 65 30 66 38 67 31 68 32 69
REMARK SMILES IDX 36 70 39 71 33 72 34 73 37 74 35 75 61 76 62 77 70 78 63 79
REMARK SMILES IDX 64 80 68 81 71 82 65 83 66 84 69 85 67 86 46 87 47 88 55 89
REMARK SMILES IDX 48 90 49 91 53 92 56 93 50 94 51 95 54 96 52 97
REMARK H PARENT 10 9 10 10 85 16 90 25 7 28 76 50 44 61
REMARK Flexibility Score: inf
ROOT
ATOM      1  C   UNL A   1      33.364  30.609  27.363  1.00  0.00     0.274 C 
ENDROOT
BRANCH   1   2
ATOM      2  O   UNL A   1      33.499  30.077  26.033  1.00  0.00    -0.458 OA
BRANCH   2   3
ATOM      3  C   UNL A   1      33.636  28.715  25.919  1.00  0.00     0.365 C 
ATOM      4  O   UNL A   1      33.958  27.968  26.821  1.00  0.00    -0.245 OA
BRANCH   3   5
ATOM      5  C   UNL A   1      33.220  28.288  24.503  1.00  0.00     0.300 C 
ATOM      6  C   UNL A   1      31.341  28.222  22.948  1.00  0.00     0.270 C 
ATOM      7  N   UNL A   1      31.727  28.311  24.389  1.00  0.00    -0.323 N 
ATOM      8  C   UNL A   1      31.898  26.935  22.411  1.00  0.00     0.124 A 
ATOM      9  H   UNL A   1      31.335  27.518  24.897  1.00  0.00     0.347 HD
ATOM     10  H   UNL A   1      31.367  29.178  24.787  1.00  0.00     0.347 HD
ATOM     11  C   UNL A   1      33.055  26.384  22.944  1.00  0.00     0.051 A 
ATOM     12  N   UNL A   1      31.566  26.278  21.253  1.00  0.00    -0.235 NA
ATOM     13  C   UNL A   1      33.788  26.895  24.142  1.00  0.00     0.133 C 
ATOM     14  N   UNL A   1      33.397  25.350  22.131  1.00  0.00    -0.348 N 
ATOM     15  C   UNL A   1      32.467  25.325  21.125  1.00  0.00     0.197 A 
ATOM     16  H   UNL A   1      34.163  24.741  22.243  1.00  0.00     0.167 HD
BRANCH   6  17
ATOM     17  C   UNL A   1      29.859  28.527  22.793  1.00  0.00     0.066 A 
ATOM     18  C   UNL A   1      28.054  31.604  21.333  1.00  0.00     0.071 C 
ATOM     19  C   UNL A   1      28.314  30.277  21.981  1.00  0.00     0.079 A 
ATOM     20  N   UNL A   1      27.245  29.636  22.485  1.00  0.00    -0.257 NA
ATOM     21  C   UNL A   1      29.597  29.741  22.090  1.00  0.00     0.146 A 
ATOM     22  C   UNL A   1      27.479  28.466  23.126  1.00  0.00     0.118 A 
ATOM     23  C   UNL A   1      28.740  27.885  23.359  1.00  0.00     0.009 A 
BRANCH  21  24
ATOM     24  O   UNL A   1      30.657  30.453  21.575  1.00  0.00    -0.505 OA
ATOM     25  H   UNL A   1      30.773  31.353  21.806  1.00  0.00     0.293 HD
ENDBRANCH  21  24
BRANCH  23  26
ATOM     26  C   UNL A   1      28.747  26.617  24.166  1.00  0.00     0.194 C 
BRANCH  26  27
ATOM     27  O   UNL A   1      27.483  25.953  24.050  1.00  0.00    -0.392 OA
ATOM     28  H   UNL A   1      26.864  26.519  23.562  1.00  0.00     0.211 HD
ENDBRANCH  26  27
ENDBRANCH  23  26
ENDBRANCH   6  17
ENDBRANCH   3   5
ENDBRANCH   2   3
ENDBRANCH   1   2
BRANCH   1  29
ATOM     29  C   UNL A   1      34.564  31.475  27.724  1.00  0.00     0.275 C 
BRANCH  29  30
ATOM     30  O   UNL A   1      35.775  30.726  27.624  1.00  0.00    -0.458 OA
BRANCH  30  31
ATOM     31  C   UNL A   1      36.338  30.382  28.800  1.00  0.00     0.338 C 
ATOM     32  O   UNL A   1      36.127  30.876  29.902  1.00  0.00    -0.246 OA
BRANCH  31  33
ATOM     33  C   UNL A   1      37.433  29.438  28.564  1.00  0.00     0.060 A 
ATOM     34  C   UNL A   1      37.776  28.577  29.610  1.00  0.00     0.016 A 
ATOM     35  C   UNL A   1      38.279  29.639  27.469  1.00  0.00     0.016 A 
ATOM     36  C   UNL A   1      39.057  28.074  29.670  1.00  0.00     0.010 A 
ATOM     37  C   UNL A   1      39.555  29.131  27.521  1.00  0.00     0.010 A 
ATOM     38  C   UNL A   1      39.951  28.428  28.660  1.00  0.00    -0.014 A 
BRANCH  38  39
ATOM     39  C   UNL A   1      41.334  28.024  28.799  1.00  0.00     0.031 A 
ATOM     40  C   UNL A   1      41.690  26.760  28.109  1.00  0.00     0.074 A 
ATOM     41  C   UNL A   1      42.233  28.850  29.364  1.00  0.00     0.049 A 
ATOM     42  N   UNL A   1      42.316  25.736  28.589  1.00  0.00    -0.248 NA
ATOM     43  C   UNL A   1      41.222  26.588  26.724  1.00  0.00     0.031 C 
ATOM     44  C   UNL A   1      42.031  30.234  29.806  1.00  0.00     0.029 A 
ATOM     45  N   UNL A   1      43.569  28.666  29.526  1.00  0.00    -0.354 N 
ATOM     46  C   UNL A   1      42.446  24.842  27.531  1.00  0.00     0.074 A 
ATOM     47  C   UNL A   1      41.655  25.360  26.445  1.00  0.00     0.031 C 
ATOM     48  C   UNL A   1      43.235  30.827  29.953  1.00  0.00     0.029 A 
ATOM     49  C   UNL A   1      44.277  29.841  29.715  1.00  0.00     0.049 A 
ATOM     50  H   UNL A   1      43.995  27.779  29.511  1.00  0.00     0.167 HD
ATOM     51  C   UNL A   1      43.361  23.838  27.553  1.00  0.00     0.037 A 
ATOM     52  C   UNL A   1      45.615  30.001  29.572  1.00  0.00     0.037 A 
ATOM     53  C   UNL A   1      43.777  23.525  28.892  1.00  0.00     0.049 A 
ATOM     54  C   UNL A   1      46.237  28.649  29.620  1.00  0.00     0.074 A 
ATOM     55  C   UNL A   1      43.111  23.097  30.026  1.00  0.00     0.029 A 
ATOM     56  N   UNL A   1      45.000  23.973  29.328  1.00  0.00    -0.354 N 
ATOM     57  N   UNL A   1      46.304  27.913  30.694  1.00  0.00    -0.248 NA
ATOM     58  C   UNL A   1      46.392  27.928  28.362  1.00  0.00     0.031 C 
ATOM     59  C   UNL A   1      43.757  23.762  31.107  1.00  0.00     0.029 A 
ATOM     60  C   UNL A   1      44.798  24.518  30.571  1.00  0.00     0.049 A 
ATOM     61  H   UNL A   1      45.854  23.913  28.843  1.00  0.00     0.167 HD
ATOM     62  C   UNL A   1      46.079  26.617  30.250  1.00  0.00     0.074 A 
ATOM     63  C   UNL A   1      46.242  26.676  28.801  1.00  0.00     0.031 C 
ATOM     64  C   UNL A   1      45.499  25.682  31.057  1.00  0.00     0.037 A 
BRANCH  51  65
ATOM     65  C   UNL A   1      44.108  23.370  26.334  1.00  0.00     0.064 A 
ATOM     66  C   UNL A   1      44.024  22.019  25.947  1.00  0.00     0.173 A 
ATOM     67  C   UNL A   1      45.130  24.123  25.715  1.00  0.00     0.173 A 
ATOM     68  F   UNL A   1      43.106  21.209  26.493  1.00  0.00    -0.203 F 
ATOM     69  C   UNL A   1      44.940  21.451  25.059  1.00  0.00     0.198 A 
ATOM     70  C   UNL A   1      46.007  23.567  24.787  1.00  0.00     0.198 A 
ATOM     71  F   UNL A   1      45.393  25.388  26.065  1.00  0.00    -0.203 F 
ATOM     72  F   UNL A   1      44.901  20.134  24.816  1.00  0.00    -0.200 F 
ATOM     73  C   UNL A   1      45.934  22.224  24.484  1.00  0.00     0.200 A 
ATOM     74  F   UNL A   1      46.973  24.328  24.255  1.00  0.00    -0.200 F 
ATOM     75  F   UNL A   1      46.851  21.667  23.682  1.00  0.00    -0.200 F 
ENDBRANCH  51  65
BRANCH  52  76
ATOM     76  C   UNL A   1      46.343  31.209  29.118  1.00  0.00     0.064 A 
ATOM     77  C   UNL A   1      46.266  31.647  27.787  1.00  0.00     0.173 A 
ATOM     78  C   UNL A   1      46.950  32.097  30.031  1.00  0.00     0.173 A 
ATOM     79  F   UNL A   1      45.656  30.891  26.863  1.00  0.00    -0.203 F 
ATOM     80  C   UNL A   1      46.760  32.897  27.394  1.00  0.00     0.198 A 
ATOM     81  C   UNL A   1      47.459  33.335  29.635  1.00  0.00     0.198 A 
ATOM     82  F   UNL A   1      46.985  31.827  31.343  1.00  0.00    -0.203 F 
ATOM     83  F   UNL A   1      46.616  33.304  26.126  1.00  0.00    -0.200 F 
ATOM     84  C   UNL A   1      47.353  33.739  28.320  1.00  0.00     0.200 A 
ATOM     85  F   UNL A   1      48.000  34.152  30.550  1.00  0.00    -0.200 F 
ATOM     86  F   UNL A   1      47.786  34.955  27.954  1.00  0.00    -0.200 F 
ENDBRANCH  52  76
BRANCH  64  87
ATOM     87  C   UNL A   1      45.327  26.013  32.512  1.00  0.00     0.064 A 
ATOM     88  C   UNL A   1      44.196  26.667  33.030  1.00  0.00     0.173 A 
ATOM     89  C   UNL A   1      46.259  25.514  33.431  1.00  0.00     0.173 A 
ATOM     90  F   UNL A   1      43.206  27.076  32.228  1.00  0.00    -0.203 F 
ATOM     91  C   UNL A   1      44.034  26.858  34.401  1.00  0.00     0.198 A 
ATOM     92  C   UNL A   1      46.076  25.671  34.801  1.00  0.00     0.198 A 
ATOM     93  F   UNL A   1      47.328  24.827  32.998  1.00  0.00    -0.203 F 
ATOM     94  F   UNL A   1      42.954  27.503  34.866  1.00  0.00    -0.200 F 
ATOM     95  C   UNL A   1      44.971  26.353  35.286  1.00  0.00     0.200 A 
ATOM     96  F   UNL A   1      46.960  25.139  35.657  1.00  0.00    -0.200 F 
ATOM     97  F   UNL A   1      44.797  26.503  36.606  1.00  0.00    -0.200 F 
ENDBRANCH  64  87
ENDBRANCH  38  39
ENDBRANCH  31  33
ENDBRANCH  30  31
ENDBRANCH  29  30
ENDBRANCH   1  29
TORSDOF 15
ENDMDL
