MODEL 1
REMARK VINA RESULT:     -10.8      0.000      0.000
REMARK SMILES CCN(CC)C(=O)CN(CC(=O)OCCOC(=O)c1ccc(-c2c3nc(c(-c4c(F)c(F)c(F)c(F)c4F)c4ccc([nH]4)c(-c4c(F)c(F)c(F)c(F)c4F)c4nc(c(-c5c(F)c(F)c(F)c(F)c5F)c5ccc2[nH]5)C=C4)C=C3)cc1)c1ccccc1
REMARK SMILES IDX 14 1 13 2 11 3 12 4 10 5 9 6 8 7 6 8 3 9 7 10 2 11 1 12 4 13
REMARK SMILES IDX 5 14 82 15 83 16 87 17 84 18 86 19 85 20 15 21 16 22 17 23
REMARK SMILES IDX 18 24 19 25 20 26 81 27 21 28 80 29 22 30 23 31 24 32 74 33
REMARK SMILES IDX 25 34 79 35 73 36 75 37 26 38 78 39 72 40 71 41 27 43 59 44
REMARK SMILES IDX 39 45 58 46 40 47 43 48 57 49 76 50 41 51 42 52 56 54 77 55
REMARK SMILES IDX 44 56 28 57 29 58 37 59 30 60 31 61 35 62 38 63 32 64 33 65
REMARK SMILES IDX 36 66 34 67 60 68 61 69 69 70 62 71 63 72 67 73 70 74 64 75
REMARK SMILES IDX 65 76 68 77 66 78 45 79 46 80 54 81 47 82 48 83 52 84 55 85
REMARK SMILES IDX 49 86 50 87 53 88 51 89
REMARK H PARENT 75 42 43 53
REMARK Flexibility Score: inf
ROOT
ATOM      1  C   UNL A   1      31.812  28.915  27.026  1.00  0.00     0.274 C 
ENDROOT
BRANCH   1   2
ATOM      2  O   UNL A   1      31.475  28.285  25.775  1.00  0.00    -0.461 OA
BRANCH   2   3
ATOM      3  C   UNL A   1      31.045  27.003  25.855  1.00  0.00     0.325 C 
ATOM      4  O   UNL A   1      31.172  26.291  26.850  1.00  0.00    -0.250 OA
BRANCH   3   5
ATOM      5  C   UNL A   1      30.208  26.555  24.671  1.00  0.00     0.239 C 
BRANCH   5   6
ATOM      6  N   UNL A   1      30.474  27.140  23.352  1.00  0.00    -0.351 N 
BRANCH   6   7
ATOM      7  C   UNL A   1      31.327  26.403  22.404  1.00  0.00     0.217 C 
BRANCH   7   8
ATOM      8  C   UNL A   1      32.756  26.032  22.858  1.00  0.00     0.242 C 
ATOM      9  N   UNL A   1      33.054  24.756  23.347  1.00  0.00    -0.342 N 
ATOM     10  O   UNL A   1      33.626  26.912  22.849  1.00  0.00    -0.273 OA
BRANCH   9  11
ATOM     11  C   UNL A   1      34.421  24.509  23.811  1.00  0.00     0.116 C 
ATOM     12  C   UNL A   1      34.546  24.692  25.318  1.00  0.00     0.027 C 
ENDBRANCH   9  11
BRANCH   9  13
ATOM     13  C   UNL A   1      32.166  23.596  23.341  1.00  0.00     0.116 C 
ATOM     14  C   UNL A   1      32.872  22.317  22.929  1.00  0.00     0.027 C 
ENDBRANCH   9  13
ENDBRANCH   7   8
ENDBRANCH   6   7
BRANCH   6  15
ATOM     15  C   UNL A   1      29.637  28.161  22.927  1.00  0.00     0.038 A 
ATOM     16  C   UNL A   1      30.156  29.305  22.313  1.00  0.00     0.026 A 
ATOM     17  C   UNL A   1      28.257  28.139  23.171  1.00  0.00     0.026 A 
ATOM     18  C   UNL A   1      29.334  30.388  21.973  1.00  0.00     0.002 A 
ATOM     19  C   UNL A   1      27.426  29.207  22.821  1.00  0.00     0.002 A 
ATOM     20  C   UNL A   1      27.968  30.340  22.228  1.00  0.00     0.000 A 
ENDBRANCH   6  15
ENDBRANCH   5   6
ENDBRANCH   3   5
ENDBRANCH   2   3
ENDBRANCH   1   2
BRANCH   1  21
ATOM     21  C   UNL A   1      31.744  30.430  26.860  1.00  0.00     0.275 C 
BRANCH  21  22
ATOM     22  O   UNL A   1      33.030  30.936  26.442  1.00  0.00    -0.458 OA
BRANCH  22  23
ATOM     23  C   UNL A   1      33.568  31.843  27.291  1.00  0.00     0.338 C 
ATOM     24  O   UNL A   1      33.130  32.945  27.572  1.00  0.00    -0.246 OA
BRANCH  23  25
ATOM     25  C   UNL A   1      34.862  31.378  27.809  1.00  0.00     0.060 A 
ATOM     26  C   UNL A   1      35.045  30.060  28.230  1.00  0.00     0.016 A 
ATOM     27  C   UNL A   1      35.849  32.338  28.034  1.00  0.00     0.016 A 
ATOM     28  C   UNL A   1      36.182  29.722  28.964  1.00  0.00     0.010 A 
ATOM     29  C   UNL A   1      37.015  31.984  28.710  1.00  0.00     0.010 A 
ATOM     30  C   UNL A   1      37.173  30.684  29.213  1.00  0.00    -0.014 A 
BRANCH  30  31
ATOM     31  C   UNL A   1      38.396  30.340  29.973  1.00  0.00     0.031 A 
ATOM     32  C   UNL A   1      39.435  29.431  29.383  1.00  0.00     0.074 A 
ATOM     33  C   UNL A   1      38.542  30.820  31.220  1.00  0.00     0.049 A 
ATOM     34  N   UNL A   1      40.492  28.906  29.951  1.00  0.00    -0.248 NA
ATOM     35  C   UNL A   1      39.264  29.058  27.971  1.00  0.00     0.031 C 
ATOM     36  C   UNL A   1      37.605  31.725  31.885  1.00  0.00     0.029 A 
ATOM     37  N   UNL A   1      39.522  30.604  32.154  1.00  0.00    -0.354 N 
ATOM     38  C   UNL A   1      41.098  28.123  28.979  1.00  0.00     0.074 A 
ATOM     39  C   UNL A   1      40.290  28.238  27.781  1.00  0.00     0.031 C 
ATOM     40  C   UNL A   1      38.058  31.993  33.119  1.00  0.00     0.029 A 
ATOM     41  C   UNL A   1      39.284  31.234  33.348  1.00  0.00     0.049 A 
ATOM     42  H   UNL A   1      40.318  30.050  31.983  1.00  0.00     0.167 HD
ATOM     43  C   UNL A   1      42.223  27.375  29.083  1.00  0.00     0.037 A 
ATOM     44  C   UNL A   1      39.957  31.180  34.510  1.00  0.00     0.037 A 
ATOM     45  C   UNL A   1      43.025  27.274  30.274  1.00  0.00     0.049 A 
ATOM     46  C   UNL A   1      41.180  30.319  34.609  1.00  0.00     0.074 A 
ATOM     47  C   UNL A   1      44.191  26.554  30.476  1.00  0.00     0.029 A 
ATOM     48  N   UNL A   1      42.744  27.918  31.471  1.00  0.00    -0.354 N 
ATOM     49  N   UNL A   1      41.734  29.566  33.690  1.00  0.00    -0.248 NA
ATOM     50  C   UNL A   1      41.864  30.288  35.908  1.00  0.00     0.031 C 
ATOM     51  C   UNL A   1      44.597  26.740  31.803  1.00  0.00     0.029 A 
ATOM     52  C   UNL A   1      43.704  27.601  32.418  1.00  0.00     0.049 A 
ATOM     53  H   UNL A   1      41.974  28.514  31.623  1.00  0.00     0.167 HD
ATOM     54  C   UNL A   1      42.832  28.975  34.295  1.00  0.00     0.074 A 
ATOM     55  C   UNL A   1      42.877  29.470  35.656  1.00  0.00     0.031 C 
ATOM     56  C   UNL A   1      43.721  28.096  33.770  1.00  0.00     0.037 A 
BRANCH  43  57
ATOM     57  C   UNL A   1      42.643  26.580  27.882  1.00  0.00     0.064 A 
ATOM     58  C   UNL A   1      43.533  27.100  26.932  1.00  0.00     0.173 A 
ATOM     59  C   UNL A   1      42.191  25.264  27.709  1.00  0.00     0.173 A 
ATOM     60  F   UNL A   1      43.987  28.357  27.048  1.00  0.00    -0.203 F 
ATOM     61  C   UNL A   1      43.946  26.333  25.844  1.00  0.00     0.198 A 
ATOM     62  C   UNL A   1      42.618  24.494  26.630  1.00  0.00     0.198 A 
ATOM     63  F   UNL A   1      41.341  24.720  28.593  1.00  0.00    -0.203 F 
ATOM     64  F   UNL A   1      44.778  26.858  24.934  1.00  0.00    -0.200 F 
ATOM     65  C   UNL A   1      43.494  25.030  25.697  1.00  0.00     0.200 A 
ATOM     66  F   UNL A   1      42.187  23.232  26.495  1.00  0.00    -0.200 F 
ATOM     67  F   UNL A   1      43.898  24.292  24.654  1.00  0.00    -0.200 F 
ENDBRANCH  43  57
BRANCH  44  68
ATOM     68  C   UNL A   1      39.465  31.965  35.668  1.00  0.00     0.064 A 
ATOM     69  C   UNL A   1      38.497  31.437  36.531  1.00  0.00     0.173 A 
ATOM     70  C   UNL A   1      39.997  33.227  35.968  1.00  0.00     0.173 A 
ATOM     71  F   UNL A   1      37.950  30.240  36.272  1.00  0.00    -0.203 F 
ATOM     72  C   UNL A   1      38.083  32.142  37.658  1.00  0.00     0.198 A 
ATOM     73  C   UNL A   1      39.599  33.921  37.106  1.00  0.00     0.198 A 
ATOM     74  F   UNL A   1      40.932  33.768  35.172  1.00  0.00    -0.203 F 
ATOM     75  F   UNL A   1      37.145  31.623  38.463  1.00  0.00    -0.200 F 
ATOM     76  C   UNL A   1      38.640  33.378  37.951  1.00  0.00     0.200 A 
ATOM     77  F   UNL A   1      40.151  35.107  37.395  1.00  0.00    -0.200 F 
ATOM     78  F   UNL A   1      38.257  34.046  39.047  1.00  0.00    -0.200 F 
ENDBRANCH  44  68
BRANCH  56  79
ATOM     79  C   UNL A   1      44.816  27.626  34.677  1.00  0.00     0.064 A 
ATOM     80  C   UNL A   1      46.019  28.337  34.792  1.00  0.00     0.173 A 
ATOM     81  C   UNL A   1      44.657  26.464  35.443  1.00  0.00     0.173 A 
ATOM     82  F   UNL A   1      46.220  29.445  34.063  1.00  0.00    -0.203 F 
ATOM     83  C   UNL A   1      47.034  27.888  35.631  1.00  0.00     0.198 A 
ATOM     84  C   UNL A   1      45.667  26.028  36.295  1.00  0.00     0.198 A 
ATOM     85  F   UNL A   1      43.523  25.752  35.365  1.00  0.00    -0.203 F 
ATOM     86  F   UNL A   1      48.192  28.560  35.698  1.00  0.00    -0.200 F 
ATOM     87  C   UNL A   1      46.857  26.736  36.384  1.00  0.00     0.200 A 
ATOM     88  F   UNL A   1      45.495  24.917  37.024  1.00  0.00    -0.200 F 
ATOM     89  F   UNL A   1      47.838  26.303  37.187  1.00  0.00    -0.200 F 
ENDBRANCH  56  79
ENDBRANCH  30  31
ENDBRANCH  23  25
ENDBRANCH  22  23
ENDBRANCH  21  22
ENDBRANCH   1  21
TORSDOF 17
ENDMDL
MODEL 2
REMARK VINA RESULT:     -10.8      0.455      1.674
REMARK SMILES CCN(CC)C(=O)CN(CC(=O)OCCOC(=O)c1ccc(-c2c3nc(c(-c4c(F)c(F)c(F)c(F)c4F)c4ccc([nH]4)c(-c4c(F)c(F)c(F)c(F)c4F)c4nc(c(-c5c(F)c(F)c(F)c(F)c5F)c5ccc2[nH]5)C=C4)C=C3)cc1)c1ccccc1
REMARK SMILES IDX 14 1 13 2 11 3 12 4 10 5 9 6 8 7 6 8 3 9 7 10 2 11 1 12 4 13
REMARK SMILES IDX 5 14 82 15 83 16 87 17 84 18 86 19 85 20 15 21 16 22 17 23
REMARK SMILES IDX 18 24 19 25 20 26 81 27 21 28 80 29 22 30 23 31 24 32 74 33
REMARK SMILES IDX 25 34 79 35 73 36 75 37 26 38 78 39 72 40 71 41 27 43 59 44
REMARK SMILES IDX 39 45 58 46 40 47 43 48 57 49 76 50 41 51 42 52 56 54 77 55
REMARK SMILES IDX 44 56 28 57 29 58 37 59 30 60 31 61 35 62 38 63 32 64 33 65
REMARK SMILES IDX 36 66 34 67 60 68 61 69 69 70 62 71 63 72 67 73 70 74 64 75
REMARK SMILES IDX 65 76 68 77 66 78 45 79 46 80 54 81 47 82 48 83 52 84 55 85
REMARK SMILES IDX 49 86 50 87 53 88 51 89
REMARK H PARENT 75 42 43 53
REMARK Flexibility Score: inf
ROOT
ATOM      1  C   UNL A   1      32.443  28.544  25.606  1.00  0.00     0.274 C 
ENDROOT
BRANCH   1   2
ATOM      2  O   UNL A   1      31.262  27.979  26.205  1.00  0.00    -0.461 OA
BRANCH   2   3
ATOM      3  C   UNL A   1      31.073  26.653  26.003  1.00  0.00     0.325 C 
ATOM      4  O   UNL A   1      31.487  25.772  26.754  1.00  0.00    -0.250 OA
BRANCH   3   5
ATOM      5  C   UNL A   1      30.129  26.328  24.859  1.00  0.00     0.239 C 
BRANCH   5   6
ATOM      6  N   UNL A   1      30.466  26.793  23.509  1.00  0.00    -0.351 N 
BRANCH   6   7
ATOM      7  C   UNL A   1      31.231  25.904  22.618  1.00  0.00     0.217 C 
BRANCH   7   8
ATOM      8  C   UNL A   1      32.723  25.671  22.941  1.00  0.00     0.242 C 
ATOM      9  N   UNL A   1      33.143  24.555  23.671  1.00  0.00    -0.342 N 
ATOM     10  O   UNL A   1      33.543  26.535  22.600  1.00  0.00    -0.273 OA
BRANCH   9  11
ATOM     11  C   UNL A   1      34.570  24.445  23.983  1.00  0.00     0.116 C 
ATOM     12  C   UNL A   1      34.811  24.327  25.483  1.00  0.00     0.027 C 
ENDBRANCH   9  11
BRANCH   9  13
ATOM     13  C   UNL A   1      32.317  23.418  24.067  1.00  0.00     0.116 C 
ATOM     14  C   UNL A   1      32.472  22.226  23.139  1.00  0.00     0.027 C 
ENDBRANCH   9  13
ENDBRANCH   7   8
ENDBRANCH   6   7
BRANCH   6  15
ATOM     15  C   UNL A   1      29.752  27.874  23.011  1.00  0.00     0.038 A 
ATOM     16  C   UNL A   1      30.410  28.944  22.396  1.00  0.00     0.026 A 
ATOM     17  C   UNL A   1      28.366  27.989  23.179  1.00  0.00     0.026 A 
ATOM     18  C   UNL A   1      29.714  30.087  21.982  1.00  0.00     0.002 A 
ATOM     19  C   UNL A   1      27.661  29.119  22.756  1.00  0.00     0.002 A 
ATOM     20  C   UNL A   1      28.338  30.176  22.163  1.00  0.00     0.000 A 
ENDBRANCH   6  15
ENDBRANCH   5   6
ENDBRANCH   3   5
ENDBRANCH   2   3
ENDBRANCH   1   2
BRANCH   1  21
ATOM     21  C   UNL A   1      32.360  30.066  25.671  1.00  0.00     0.275 C 
BRANCH  21  22
ATOM     22  O   UNL A   1      32.426  30.504  27.045  1.00  0.00    -0.458 OA
BRANCH  22  23
ATOM     23  C   UNL A   1      33.244  31.563  27.248  1.00  0.00     0.338 C 
ATOM     24  O   UNL A   1      33.022  32.731  26.980  1.00  0.00    -0.246 OA
BRANCH  23  25
ATOM     25  C   UNL A   1      34.545  31.132  27.776  1.00  0.00     0.060 A 
ATOM     26  C   UNL A   1      34.765  29.815  28.180  1.00  0.00     0.016 A 
ATOM     27  C   UNL A   1      35.499  32.119  28.026  1.00  0.00     0.016 A 
ATOM     28  C   UNL A   1      35.903  29.503  28.925  1.00  0.00     0.010 A 
ATOM     29  C   UNL A   1      36.667  31.793  28.712  1.00  0.00     0.010 A 
ATOM     30  C   UNL A   1      36.860  30.491  29.199  1.00  0.00    -0.014 A 
BRANCH  30  31
ATOM     31  C   UNL A   1      38.084  30.176  29.970  1.00  0.00     0.031 A 
ATOM     32  C   UNL A   1      39.131  29.260  29.404  1.00  0.00     0.074 A 
ATOM     33  C   UNL A   1      38.224  30.688  31.204  1.00  0.00     0.049 A 
ATOM     34  N   UNL A   1      40.190  28.757  29.988  1.00  0.00    -0.248 NA
ATOM     35  C   UNL A   1      38.965  28.851  28.002  1.00  0.00     0.031 C 
ATOM     36  C   UNL A   1      37.279  31.603  31.845  1.00  0.00     0.029 A 
ATOM     37  N   UNL A   1      39.203  30.502  32.145  1.00  0.00    -0.354 N 
ATOM     38  C   UNL A   1      40.803  27.954  29.036  1.00  0.00     0.074 A 
ATOM     39  C   UNL A   1      39.998  28.033  27.835  1.00  0.00     0.031 C 
ATOM     40  C   UNL A   1      37.727  31.905  33.072  1.00  0.00     0.029 A 
ATOM     41  C   UNL A   1      38.958  31.161  33.322  1.00  0.00     0.049 A 
ATOM     42  H   UNL A   1      40.004  29.950  31.990  1.00  0.00     0.167 HD
ATOM     43  C   UNL A   1      41.934  27.217  29.161  1.00  0.00     0.037 A 
ATOM     44  C   UNL A   1      39.629  31.141  34.487  1.00  0.00     0.037 A 
ATOM     45  C   UNL A   1      42.734  27.152  30.356  1.00  0.00     0.049 A 
ATOM     46  C   UNL A   1      40.859  30.291  34.610  1.00  0.00     0.074 A 
ATOM     47  C   UNL A   1      43.905  26.446  30.578  1.00  0.00     0.029 A 
ATOM     48  N   UNL A   1      42.446  27.824  31.536  1.00  0.00    -0.354 N 
ATOM     49  N   UNL A   1      41.420  29.520  33.711  1.00  0.00    -0.248 NA
ATOM     50  C   UNL A   1      41.540  30.298  35.910  1.00  0.00     0.031 C 
ATOM     51  C   UNL A   1      44.307  26.668  31.900  1.00  0.00     0.029 A 
ATOM     52  C   UNL A   1      43.406  27.538  32.492  1.00  0.00     0.049 A 
ATOM     53  H   UNL A   1      41.671  28.418  31.672  1.00  0.00     0.167 HD
ATOM     54  C   UNL A   1      42.521  28.952  34.332  1.00  0.00     0.074 A 
ATOM     55  C   UNL A   1      42.559  29.481  35.681  1.00  0.00     0.031 C 
ATOM     56  C   UNL A   1      43.417  28.066  33.831  1.00  0.00     0.037 A 
BRANCH  43  57
ATOM     57  C   UNL A   1      42.362  26.396  27.981  1.00  0.00     0.064 A 
ATOM     58  C   UNL A   1      41.856  25.107  27.761  1.00  0.00     0.173 A 
ATOM     59  C   UNL A   1      43.249  26.925  27.033  1.00  0.00     0.173 A 
ATOM     60  F   UNL A   1      41.013  24.552  28.645  1.00  0.00    -0.203 F 
ATOM     61  C   UNL A   1      42.234  24.373  26.639  1.00  0.00     0.198 A 
ATOM     62  C   UNL A   1      43.611  26.196  25.903  1.00  0.00     0.198 A 
ATOM     63  F   UNL A   1      43.758  28.156  27.197  1.00  0.00    -0.203 F 
ATOM     64  F   UNL A   1      41.758  23.132  26.461  1.00  0.00    -0.200 F 
ATOM     65  C   UNL A   1      43.105  24.919  25.708  1.00  0.00     0.200 A 
ATOM     66  F   UNL A   1      44.446  26.729  25.000  1.00  0.00    -0.200 F 
ATOM     67  F   UNL A   1      43.460  24.214  24.625  1.00  0.00    -0.200 F 
ENDBRANCH  43  57
BRANCH  44  68
ATOM     68  C   UNL A   1      39.129  31.950  35.624  1.00  0.00     0.064 A 
ATOM     69  C   UNL A   1      38.285  31.386  36.588  1.00  0.00     0.173 A 
ATOM     70  C   UNL A   1      39.536  33.281  35.801  1.00  0.00     0.173 A 
ATOM     71  F   UNL A   1      37.859  30.122  36.448  1.00  0.00    -0.203 F 
ATOM     72  C   UNL A   1      37.869  32.123  37.694  1.00  0.00     0.198 A 
ATOM     73  C   UNL A   1      39.137  34.009  36.918  1.00  0.00     0.198 A 
ATOM     74  F   UNL A   1      40.350  33.860  34.906  1.00  0.00    -0.203 F 
ATOM     75  F   UNL A   1      37.050  31.567  38.597  1.00  0.00    -0.200 F 
ATOM     76  C   UNL A   1      38.303  33.430  37.863  1.00  0.00     0.200 A 
ATOM     77  F   UNL A   1      39.572  35.266  37.087  1.00  0.00    -0.200 F 
ATOM     78  F   UNL A   1      37.919  34.131  38.939  1.00  0.00    -0.200 F 
ENDBRANCH  44  68
BRANCH  56  79
ATOM     79  C   UNL A   1      44.514  27.627  34.751  1.00  0.00     0.064 A 
ATOM     80  C   UNL A   1      44.373  26.491  35.560  1.00  0.00     0.173 A 
ATOM     81  C   UNL A   1      45.718  28.342  34.816  1.00  0.00     0.173 A 
ATOM     82  F   UNL A   1      43.231  25.788  35.543  1.00  0.00    -0.203 F 
ATOM     83  C   UNL A   1      45.395  26.096  36.418  1.00  0.00     0.198 A 
ATOM     84  C   UNL A   1      46.744  27.934  35.662  1.00  0.00     0.198 A 
ATOM     85  F   UNL A   1      45.897  29.436  34.061  1.00  0.00    -0.203 F 
ATOM     86  F   UNL A   1      45.227  25.030  37.212  1.00  0.00    -0.200 F 
ATOM     87  C   UNL A   1      46.581  26.815  36.467  1.00  0.00     0.200 A 
ATOM     88  F   UNL A   1      47.891  28.627  35.707  1.00  0.00    -0.200 F 
ATOM     89  F   UNL A   1      47.561  26.436  37.297  1.00  0.00    -0.200 F 
ENDBRANCH  56  79
ENDBRANCH  30  31
ENDBRANCH  23  25
ENDBRANCH  22  23
ENDBRANCH  21  22
ENDBRANCH   1  21
TORSDOF 17
ENDMDL
MODEL 3
REMARK VINA RESULT:     -10.5      4.364      9.889
REMARK SMILES CCN(CC)C(=O)CN(CC(=O)OCCOC(=O)c1ccc(-c2c3nc(c(-c4c(F)c(F)c(F)c(F)c4F)c4ccc([nH]4)c(-c4c(F)c(F)c(F)c(F)c4F)c4nc(c(-c5c(F)c(F)c(F)c(F)c5F)c5ccc2[nH]5)C=C4)C=C3)cc1)c1ccccc1
REMARK SMILES IDX 14 1 13 2 11 3 12 4 10 5 9 6 8 7 6 8 3 9 7 10 2 11 1 12 4 13
REMARK SMILES IDX 5 14 82 15 83 16 87 17 84 18 86 19 85 20 15 21 16 22 17 23
REMARK SMILES IDX 18 24 19 25 20 26 81 27 21 28 80 29 22 30 23 31 24 32 74 33
REMARK SMILES IDX 25 34 79 35 73 36 75 37 26 38 78 39 72 40 71 41 27 43 59 44
REMARK SMILES IDX 39 45 58 46 40 47 43 48 57 49 76 50 41 51 42 52 56 54 77 55
REMARK SMILES IDX 44 56 28 57 29 58 37 59 30 60 31 61 35 62 38 63 32 64 33 65
REMARK SMILES IDX 36 66 34 67 60 68 61 69 69 70 62 71 63 72 67 73 70 74 64 75
REMARK SMILES IDX 65 76 68 77 66 78 45 79 46 80 54 81 47 82 48 83 52 84 55 85
REMARK SMILES IDX 49 86 50 87 53 88 51 89
REMARK H PARENT 75 42 43 53
REMARK Flexibility Score: inf
ROOT
ATOM      1  C   UNL A   1      36.679  22.462  23.828  1.00  0.00     0.274 C 
ENDROOT
BRANCH   1   2
ATOM      2  O   UNL A   1      35.246  22.330  23.905  1.00  0.00    -0.461 OA
BRANCH   2   3
ATOM      3  C   UNL A   1      34.534  23.458  23.671  1.00  0.00     0.325 C 
ATOM      4  O   UNL A   1      34.763  24.243  22.753  1.00  0.00    -0.250 OA
BRANCH   3   5
ATOM      5  C   UNL A   1      33.286  23.592  24.525  1.00  0.00     0.239 C 
BRANCH   5   6
ATOM      6  N   UNL A   1      32.072  22.872  24.124  1.00  0.00    -0.351 N 
BRANCH   6   7
ATOM      7  C   UNL A   1      30.971  23.623  23.498  1.00  0.00     0.217 C 
BRANCH   7   8
ATOM      8  C   UNL A   1      31.205  25.118  23.186  1.00  0.00     0.242 C 
ATOM      9  N   UNL A   1      30.833  26.116  24.092  1.00  0.00    -0.342 N 
ATOM     10  O   UNL A   1      31.668  25.426  22.079  1.00  0.00    -0.273 OA
BRANCH   9  11
ATOM     11  C   UNL A   1      31.037  27.510  23.689  1.00  0.00     0.116 C 
ATOM     12  C   UNL A   1      29.765  28.124  23.120  1.00  0.00     0.027 C 
ENDBRANCH   9  11
BRANCH   9  13
ATOM     13  C   UNL A   1      30.359  25.914  25.458  1.00  0.00     0.116 C 
ATOM     14  C   UNL A   1      31.415  26.230  26.502  1.00  0.00     0.027 C 
ENDBRANCH   9  13
ENDBRANCH   7   8
ENDBRANCH   6   7
BRANCH   6  15
ATOM     15  C   UNL A   1      32.156  21.491  24.017  1.00  0.00     0.038 A 
ATOM     16  C   UNL A   1      32.343  20.694  25.151  1.00  0.00     0.026 A 
ATOM     17  C   UNL A   1      32.152  20.842  22.775  1.00  0.00     0.026 A 
ATOM     18  C   UNL A   1      32.534  19.310  25.047  1.00  0.00     0.002 A 
ATOM     19  C   UNL A   1      32.325  19.460  22.662  1.00  0.00     0.002 A 
ATOM     20  C   UNL A   1      32.526  18.692  23.802  1.00  0.00     0.000 A 
ENDBRANCH   6  15
ENDBRANCH   5   6
ENDBRANCH   3   5
ENDBRANCH   2   3
ENDBRANCH   1   2
BRANCH   1  21
ATOM     21  C   UNL A   1      37.331  21.256  24.495  1.00  0.00     0.275 C 
BRANCH  21  22
ATOM     22  O   UNL A   1      37.660  21.571  25.866  1.00  0.00    -0.458 OA
BRANCH  22  23
ATOM     23  C   UNL A   1      38.983  21.509  26.144  1.00  0.00     0.338 C 
ATOM     24  O   UNL A   1      39.714  20.538  26.052  1.00  0.00    -0.246 OA
BRANCH  23  25
ATOM     25  C   UNL A   1      39.468  22.784  26.688  1.00  0.00     0.060 A 
ATOM     26  C   UNL A   1      39.021  24.005  26.185  1.00  0.00     0.016 A 
ATOM     27  C   UNL A   1      40.522  22.736  27.602  1.00  0.00     0.016 A 
ATOM     28  C   UNL A   1      39.695  25.180  26.524  1.00  0.00     0.010 A 
ATOM     29  C   UNL A   1      41.153  23.916  27.992  1.00  0.00     0.010 A 
ATOM     30  C   UNL A   1      40.768  25.142  27.427  1.00  0.00    -0.014 A 
BRANCH  30  31
ATOM     31  C   UNL A   1      41.482  26.379  27.816  1.00  0.00     0.031 A 
ATOM     32  C   UNL A   1      40.785  27.453  28.600  1.00  0.00     0.074 A 
ATOM     33  C   UNL A   1      42.755  26.546  27.416  1.00  0.00     0.049 A 
ATOM     34  N   UNL A   1      41.202  28.657  28.903  1.00  0.00    -0.248 NA
ATOM     35  C   UNL A   1      39.443  27.135  29.109  1.00  0.00     0.031 C 
ATOM     36  C   UNL A   1      43.535  25.562  26.667  1.00  0.00     0.029 A 
ATOM     37  N   UNL A   1      43.610  27.606  27.571  1.00  0.00    -0.354 N 
ATOM     38  C   UNL A   1      40.168  29.250  29.613  1.00  0.00     0.074 A 
ATOM     39  C   UNL A   1      39.100  28.275  29.696  1.00  0.00     0.031 C 
ATOM     40  C   UNL A   1      44.758  26.060  26.432  1.00  0.00     0.029 A 
ATOM     41  C   UNL A   1      44.825  27.418  26.964  1.00  0.00     0.049 A 
ATOM     42  H   UNL A   1      43.374  28.422  28.070  1.00  0.00     0.167 HD
ATOM     43  C   UNL A   1      40.118  30.497  30.141  1.00  0.00     0.037 A 
ATOM     44  C   UNL A   1      45.865  28.258  26.819  1.00  0.00     0.037 A 
ATOM     45  C   UNL A   1      41.189  31.457  30.061  1.00  0.00     0.049 A 
ATOM     46  C   UNL A   1      45.772  29.644  27.384  1.00  0.00     0.074 A 
ATOM     47  C   UNL A   1      41.241  32.741  30.577  1.00  0.00     0.029 A 
ATOM     48  N   UNL A   1      42.402  31.234  29.425  1.00  0.00    -0.354 N 
ATOM     49  N   UNL A   1      44.782  30.202  28.037  1.00  0.00    -0.248 NA
ATOM     50  C   UNL A   1      46.933  30.519  27.181  1.00  0.00     0.031 C 
ATOM     51  C   UNL A   1      42.474  33.305  30.226  1.00  0.00     0.029 A 
ATOM     52  C   UNL A   1      43.202  32.361  29.521  1.00  0.00     0.049 A 
ATOM     53  H   UNL A   1      42.655  30.397  28.971  1.00  0.00     0.167 HD
ATOM     54  C   UNL A   1      45.199  31.492  28.326  1.00  0.00     0.074 A 
ATOM     55  C   UNL A   1      46.540  31.628  27.794  1.00  0.00     0.031 C 
ATOM     56  C   UNL A   1      44.528  32.478  28.972  1.00  0.00     0.037 A 
BRANCH  43  57
ATOM     57  C   UNL A   1      38.852  30.911  30.831  1.00  0.00     0.064 A 
ATOM     58  C   UNL A   1      38.706  30.807  32.221  1.00  0.00     0.173 A 
ATOM     59  C   UNL A   1      37.793  31.465  30.098  1.00  0.00     0.173 A 
ATOM     60  F   UNL A   1      39.687  30.274  32.966  1.00  0.00    -0.203 F 
ATOM     61  C   UNL A   1      37.539  31.234  32.851  1.00  0.00     0.198 A 
ATOM     62  C   UNL A   1      36.635  31.907  30.732  1.00  0.00     0.198 A 
ATOM     63  F   UNL A   1      37.886  31.589  28.765  1.00  0.00    -0.203 F 
ATOM     64  F   UNL A   1      37.410  31.103  34.179  1.00  0.00    -0.200 F 
ATOM     65  C   UNL A   1      36.508  31.789  32.108  1.00  0.00     0.200 A 
ATOM     66  F   UNL A   1      35.643  32.451  30.013  1.00  0.00    -0.200 F 
ATOM     67  F   UNL A   1      35.389  32.206  32.717  1.00  0.00    -0.200 F 
ENDBRANCH  43  57
BRANCH  44  68
ATOM     68  C   UNL A   1      47.072  27.794  26.095  1.00  0.00     0.064 A 
ATOM     69  C   UNL A   1      48.160  27.250  26.789  1.00  0.00     0.173 A 
ATOM     70  C   UNL A   1      47.135  27.829  24.694  1.00  0.00     0.173 A 
ATOM     71  F   UNL A   1      48.147  27.213  28.129  1.00  0.00    -0.203 F 
ATOM     72  C   UNL A   1      49.266  26.750  26.107  1.00  0.00     0.198 A 
ATOM     73  C   UNL A   1      48.232  27.309  24.013  1.00  0.00     0.198 A 
ATOM     74  F   UNL A   1      46.113  28.336  23.988  1.00  0.00    -0.203 F 
ATOM     75  F   UNL A   1      50.301  26.246  26.793  1.00  0.00    -0.200 F 
ATOM     76  C   UNL A   1      49.298  26.771  24.720  1.00  0.00     0.200 A 
ATOM     77  F   UNL A   1      48.252  27.316  22.673  1.00  0.00    -0.200 F 
ATOM     78  F   UNL A   1      50.353  26.270  24.065  1.00  0.00    -0.200 F 
ENDBRANCH  44  68
BRANCH  56  79
ATOM     79  C   UNL A   1      45.246  33.781  29.139  1.00  0.00     0.064 A 
ATOM     80  C   UNL A   1      46.062  34.024  30.253  1.00  0.00     0.173 A 
ATOM     81  C   UNL A   1      45.126  34.789  28.172  1.00  0.00     0.173 A 
ATOM     82  F   UNL A   1      46.190  33.094  31.211  1.00  0.00    -0.203 F 
ATOM     83  C   UNL A   1      46.718  35.242  30.402  1.00  0.00     0.198 A 
ATOM     84  C   UNL A   1      45.798  35.998  28.317  1.00  0.00     0.198 A 
ATOM     85  F   UNL A   1      44.356  34.600  27.090  1.00  0.00    -0.203 F 
ATOM     86  F   UNL A   1      47.461  35.471  31.494  1.00  0.00    -0.200 F 
ATOM     87  C   UNL A   1      46.589  36.227  29.434  1.00  0.00     0.200 A 
ATOM     88  F   UNL A   1      45.675  36.949  27.379  1.00  0.00    -0.200 F 
ATOM     89  F   UNL A   1      47.217  37.400  29.582  1.00  0.00    -0.200 F 
ENDBRANCH  56  79
ENDBRANCH  30  31
ENDBRANCH  23  25
ENDBRANCH  22  23
ENDBRANCH  21  22
ENDBRANCH   1  21
TORSDOF 17
ENDMDL
