MODEL 1
REMARK VINA RESULT:     -12.7      0.000      0.000
REMARK SMILES C#Cc1cc(Cl)cc2c1O[C@H](C(F)(F)F)C(C(=O)OCCOC(=O)c1ccc(-c3c4nc(c(-c5c(F)c(F)c(F)c(F)c5F)c5ccc([nH]5)c(-c5c(F)c(F)c(F)c(F)c5F)c5nc(c(-c6c(F)c(F)c(F)c(F)c6F)c6ccc3[nH]6)C=C5)C=C4)cc1)=C2
REMARK SMILES IDX 21 1 20 2 19 3 17 4 18 5 16 6 3 7 4 8 9 9 5 10 8 11 10 12
REMARK SMILES IDX 6 13 7 14 88 15 11 16 2 17 1 18 12 19 13 20 14 21 15 22
REMARK SMILES IDX 22 23 23 24 24 25 25 26 26 27 87 28 27 29 86 30 28 31 29 32
REMARK SMILES IDX 30 33 80 34 31 35 85 36 79 37 81 38 32 39 84 40 78 41 77 42
REMARK SMILES IDX 33 44 65 45 45 46 64 47 46 48 49 49 63 50 82 51 47 52 48 53
REMARK SMILES IDX 62 55 83 56 50 57 34 58 35 59 43 60 36 61 37 62 41 63 44 64
REMARK SMILES IDX 38 65 39 66 42 67 40 68 66 69 67 70 75 71 68 72 69 73 73 74
REMARK SMILES IDX 76 75 70 76 71 77 74 78 72 79 51 80 52 81 60 82 53 83 54 84
REMARK SMILES IDX 58 85 61 86 55 87 56 88 59 89 57 90
REMARK H PARENT 81 43 49 54
REMARK Flexibility Score: inf
ROOT
ATOM      1  C   UNL A   1      31.799  30.037  25.375  1.00  0.00     0.275 C 
ENDROOT
BRANCH   1   2
ATOM      2  C   UNL A   1      31.550  28.633  24.819  1.00  0.00     0.275 C 
BRANCH   2   3
ATOM      3  O   UNL A   1      32.341  27.642  25.515  1.00  0.00    -0.459 OA
BRANCH   3   4
ATOM      4  C   UNL A   1      31.637  26.696  26.176  1.00  0.00     0.338 C 
ATOM      5  O   UNL A   1      30.653  26.879  26.876  1.00  0.00    -0.246 OA
BRANCH   4   6
ATOM      6  C   UNL A   1      32.204  25.354  25.940  1.00  0.00     0.087 C 
ATOM      7  C   UNL A   1      33.950  21.741  24.739  1.00  0.00     0.068 A 
ATOM      8  C   UNL A   1      35.344  21.605  24.794  1.00  0.00     0.041 A 
ATOM      9  C   UNL A   1      33.337  22.918  25.193  1.00  0.00     0.143 A 
ATOM     10  C   UNL A   1      36.123  22.631  25.318  1.00  0.00     0.043 A 
ATOM     11  C   UNL A   1      34.132  23.940  25.710  1.00  0.00     0.020 A 
ATOM     12  O   UNL A   1      31.970  23.011  25.126  1.00  0.00    -0.474 OA
ATOM     13  Cl  UNL A   1      37.835  22.474  25.377  1.00  0.00    -0.084 Cl
ATOM     14  C   UNL A   1      35.524  23.796  25.785  1.00  0.00     0.032 A 
ATOM     15  C   UNL A   1      33.517  25.182  26.126  1.00  0.00     0.027 C 
ATOM     16  C   UNL A   1      31.325  24.299  25.341  1.00  0.00     0.316 C 
BRANCH   7  17
ATOM     17  C   UNL A   1      33.174  20.670  24.193  1.00  0.00    -0.067 C 
ATOM     18  C   UNL A   1      32.528  19.765  23.737  1.00  0.00     0.010 C 
ENDBRANCH   7  17
BRANCH  16  19
ATOM     19  C   UNL A   1      30.711  24.783  24.018  1.00  0.00     0.430 C 
ATOM     20  F   UNL A   1      30.278  23.748  23.261  1.00  0.00    -0.167 F 
ATOM     21  F   UNL A   1      29.635  25.580  24.232  1.00  0.00    -0.167 F 
ATOM     22  F   UNL A   1      31.594  25.491  23.276  1.00  0.00    -0.167 F 
ENDBRANCH  16  19
ENDBRANCH   4   6
ENDBRANCH   3   4
ENDBRANCH   2   3
ENDBRANCH   1   2
BRANCH   1  23
ATOM     23  O   UNL A   1      32.398  29.976  26.684  1.00  0.00    -0.458 OA
BRANCH  23  24
ATOM     24  C   UNL A   1      32.971  31.127  27.093  1.00  0.00     0.338 C 
ATOM     25  O   UNL A   1      32.434  32.212  27.251  1.00  0.00    -0.246 OA
BRANCH  24  26
ATOM     26  C   UNL A   1      34.372  30.904  27.465  1.00  0.00     0.060 A 
ATOM     27  C   UNL A   1      34.778  29.595  27.675  1.00  0.00     0.016 A 
ATOM     28  C   UNL A   1      35.186  31.958  27.865  1.00  0.00     0.016 A 
ATOM     29  C   UNL A   1      35.879  29.328  28.473  1.00  0.00     0.010 A 
ATOM     30  C   UNL A   1      36.403  31.677  28.498  1.00  0.00     0.010 A 
ATOM     31  C   UNL A   1      36.738  30.360  28.865  1.00  0.00    -0.014 A 
BRANCH  31  32
ATOM     32  C   UNL A   1      37.964  30.048  29.654  1.00  0.00     0.031 A 
ATOM     33  C   UNL A   1      39.046  29.173  29.072  1.00  0.00     0.074 A 
ATOM     34  C   UNL A   1      38.121  30.571  30.890  1.00  0.00     0.049 A 
ATOM     35  N   UNL A   1      40.088  28.643  29.665  1.00  0.00    -0.248 NA
ATOM     36  C   UNL A   1      38.940  28.836  27.643  1.00  0.00     0.031 C 
ATOM     37  C   UNL A   1      37.184  31.484  31.553  1.00  0.00     0.029 A 
ATOM     38  N   UNL A   1      39.130  30.423  31.811  1.00  0.00    -0.354 N 
ATOM     39  C   UNL A   1      40.729  27.880  28.696  1.00  0.00     0.074 A 
ATOM     40  C   UNL A   1      39.949  27.991  27.484  1.00  0.00     0.031 C 
ATOM     41  C   UNL A   1      37.686  31.859  32.736  1.00  0.00     0.029 A 
ATOM     42  C   UNL A   1      38.913  31.116  32.979  1.00  0.00     0.049 A 
ATOM     43  H   UNL A   1      39.930  29.875  31.650  1.00  0.00     0.167 HD
ATOM     44  C   UNL A   1      41.871  27.162  28.813  1.00  0.00     0.037 A 
ATOM     45  C   UNL A   1      39.587  31.115  34.143  1.00  0.00     0.037 A 
ATOM     46  C   UNL A   1      42.664  27.099  30.014  1.00  0.00     0.049 A 
ATOM     47  C   UNL A   1      40.798  30.235  34.271  1.00  0.00     0.074 A 
ATOM     48  C   UNL A   1      43.838  26.399  30.233  1.00  0.00     0.029 A 
ATOM     49  N   UNL A   1      42.374  27.773  31.191  1.00  0.00    -0.354 N 
ATOM     50  N   UNL A   1      41.368  29.480  33.365  1.00  0.00    -0.248 NA
ATOM     51  C   UNL A   1      41.448  30.193  35.587  1.00  0.00     0.031 C 
ATOM     52  C   UNL A   1      44.225  26.602  31.559  1.00  0.00     0.029 A 
ATOM     53  C   UNL A   1      43.333  27.483  32.148  1.00  0.00     0.049 A 
ATOM     54  H   UNL A   1      41.601  28.368  31.326  1.00  0.00     0.167 HD
ATOM     55  C   UNL A   1      42.459  28.895  33.990  1.00  0.00     0.074 A 
ATOM     56  C   UNL A   1      42.484  29.401  35.348  1.00  0.00     0.031 C 
ATOM     57  C   UNL A   1      43.354  28.011  33.488  1.00  0.00     0.037 A 
BRANCH  44  58
ATOM     58  C   UNL A   1      42.345  26.374  27.624  1.00  0.00     0.064 A 
ATOM     59  C   UNL A   1      43.365  26.843  26.784  1.00  0.00     0.173 A 
ATOM     60  C   UNL A   1      41.842  25.084  27.384  1.00  0.00     0.173 A 
ATOM     61  F   UNL A   1      43.874  28.072  26.961  1.00  0.00    -0.203 F 
ATOM     62  C   UNL A   1      43.860  26.054  25.748  1.00  0.00     0.198 A 
ATOM     63  C   UNL A   1      42.361  24.286  26.367  1.00  0.00     0.198 A 
ATOM     64  F   UNL A   1      40.869  24.583  28.160  1.00  0.00    -0.203 F 
ATOM     65  F   UNL A   1      44.818  26.534  24.942  1.00  0.00    -0.200 F 
ATOM     66  C   UNL A   1      43.369  24.773  25.550  1.00  0.00     0.200 A 
ATOM     67  F   UNL A   1      41.898  23.041  26.191  1.00  0.00    -0.200 F 
ATOM     68  F   UNL A   1      43.868  24.005  24.571  1.00  0.00    -0.200 F 
ENDBRANCH  44  58
BRANCH  45  69
ATOM     69  C   UNL A   1      39.111  31.943  35.286  1.00  0.00     0.064 A 
ATOM     70  C   UNL A   1      38.344  31.376  36.312  1.00  0.00     0.173 A 
ATOM     71  C   UNL A   1      39.414  33.311  35.382  1.00  0.00     0.173 A 
ATOM     72  F   UNL A   1      38.008  30.078  36.258  1.00  0.00    -0.203 F 
ATOM     73  C   UNL A   1      37.883  32.147  37.378  1.00  0.00     0.198 A 
ATOM     74  C   UNL A   1      38.989  34.071  36.469  1.00  0.00     0.198 A 
ATOM     75  F   UNL A   1      40.146  33.908  34.430  1.00  0.00    -0.203 F 
ATOM     76  F   UNL A   1      37.107  31.590  38.317  1.00  0.00    -0.200 F 
ATOM     77  C   UNL A   1      38.214  33.490  37.461  1.00  0.00     0.200 A 
ATOM     78  F   UNL A   1      39.331  35.363  36.556  1.00  0.00    -0.200 F 
ATOM     79  F   UNL A   1      37.781  34.228  38.492  1.00  0.00    -0.200 F 
ENDBRANCH  45  69
BRANCH  57  80
ATOM     80  C   UNL A   1      44.463  27.557  34.391  1.00  0.00     0.064 A 
ATOM     81  C   UNL A   1      44.351  26.391  35.162  1.00  0.00     0.173 A 
ATOM     82  C   UNL A   1      45.679  28.257  34.428  1.00  0.00     0.173 A 
ATOM     83  F   UNL A   1      43.205  25.695  35.173  1.00  0.00    -0.203 F 
ATOM     84  C   UNL A   1      45.412  25.951  35.950  1.00  0.00     0.198 A 
ATOM     85  C   UNL A   1      46.749  27.793  35.186  1.00  0.00     0.198 A 
ATOM     86  F   UNL A   1      45.840  29.374  33.702  1.00  0.00    -0.203 F 
ATOM     87  F   UNL A   1      45.268  24.858  36.712  1.00  0.00    -0.200 F 
ATOM     88  C   UNL A   1      46.613  26.644  35.951  1.00  0.00     0.200 A 
ATOM     89  F   UNL A   1      47.916  28.452  35.169  1.00  0.00    -0.200 F 
ATOM     90  F   UNL A   1      47.640  26.205  36.691  1.00  0.00    -0.200 F 
ENDBRANCH  57  80
ENDBRANCH  31  32
ENDBRANCH  24  26
ENDBRANCH  23  24
ENDBRANCH   1  23
TORSDOF 13
ENDMDL
MODEL 2
REMARK VINA RESULT:     -12.7      0.192      1.661
REMARK SMILES C#Cc1cc(Cl)cc2c1O[C@H](C(F)(F)F)C(C(=O)OCCOC(=O)c1ccc(-c3c4nc(c(-c5c(F)c(F)c(F)c(F)c5F)c5ccc([nH]5)c(-c5c(F)c(F)c(F)c(F)c5F)c5nc(c(-c6c(F)c(F)c(F)c(F)c6F)c6ccc3[nH]6)C=C5)C=C4)cc1)=C2
REMARK SMILES IDX 21 1 20 2 19 3 17 4 18 5 16 6 3 7 4 8 9 9 5 10 8 11 10 12
REMARK SMILES IDX 6 13 7 14 88 15 11 16 2 17 1 18 12 19 13 20 14 21 15 22
REMARK SMILES IDX 22 23 23 24 24 25 25 26 26 27 87 28 27 29 86 30 28 31 29 32
REMARK SMILES IDX 30 33 80 34 31 35 85 36 79 37 81 38 32 39 84 40 78 41 77 42
REMARK SMILES IDX 33 44 65 45 45 46 64 47 46 48 49 49 63 50 82 51 47 52 48 53
REMARK SMILES IDX 62 55 83 56 50 57 34 58 35 59 43 60 36 61 37 62 41 63 44 64
REMARK SMILES IDX 38 65 39 66 42 67 40 68 66 69 67 70 75 71 68 72 69 73 73 74
REMARK SMILES IDX 76 75 70 76 71 77 74 78 72 79 51 80 52 81 60 82 53 83 54 84
REMARK SMILES IDX 58 85 61 86 55 87 56 88 59 89 57 90
REMARK H PARENT 81 43 49 54
REMARK Flexibility Score: inf
ROOT
ATOM      1  C   UNL A   1      32.161  29.911  25.314  1.00  0.00     0.275 C 
ENDROOT
BRANCH   1   2
ATOM      2  C   UNL A   1      31.484  28.583  24.968  1.00  0.00     0.275 C 
BRANCH   2   3
ATOM      3  O   UNL A   1      32.302  27.456  25.360  1.00  0.00    -0.459 OA
BRANCH   3   4
ATOM      4  C   UNL A   1      31.693  26.540  26.146  1.00  0.00     0.338 C 
ATOM      5  O   UNL A   1      30.791  26.751  26.943  1.00  0.00    -0.246 OA
BRANCH   4   6
ATOM      6  C   UNL A   1      32.250  25.193  25.918  1.00  0.00     0.087 C 
ATOM      7  C   UNL A   1      33.967  21.559  24.738  1.00  0.00     0.068 A 
ATOM      8  C   UNL A   1      35.360  21.415  24.786  1.00  0.00     0.041 A 
ATOM      9  C   UNL A   1      33.364  22.744  25.186  1.00  0.00     0.143 A 
ATOM     10  C   UNL A   1      36.149  22.441  25.296  1.00  0.00     0.043 A 
ATOM     11  C   UNL A   1      34.168  23.765  25.689  1.00  0.00     0.020 A 
ATOM     12  O   UNL A   1      31.996  22.845  25.126  1.00  0.00    -0.474 OA
ATOM     13  Cl  UNL A   1      37.860  22.274  25.346  1.00  0.00    -0.084 Cl
ATOM     14  C   UNL A   1      35.559  23.614  25.757  1.00  0.00     0.032 A 
ATOM     15  C   UNL A   1      33.563  25.015  26.098  1.00  0.00     0.027 C 
ATOM     16  C   UNL A   1      31.361  24.138  25.334  1.00  0.00     0.316 C 
BRANCH   7  17
ATOM     17  C   UNL A   1      33.181  20.488  24.207  1.00  0.00    -0.067 C 
ATOM     18  C   UNL A   1      32.515  19.593  23.759  1.00  0.00     0.010 C 
ENDBRANCH   7  17
BRANCH  16  19
ATOM     19  C   UNL A   1      30.742  24.614  24.010  1.00  0.00     0.430 C 
ATOM     20  F   UNL A   1      31.655  25.236  23.228  1.00  0.00    -0.167 F 
ATOM     21  F   UNL A   1      30.258  23.575  23.286  1.00  0.00    -0.167 F 
ATOM     22  F   UNL A   1      29.718  25.476  24.209  1.00  0.00    -0.167 F 
ENDBRANCH  16  19
ENDBRANCH   4   6
ENDBRANCH   3   4
ENDBRANCH   2   3
ENDBRANCH   1   2
BRANCH   1  23
ATOM     23  O   UNL A   1      32.434  30.000  26.726  1.00  0.00    -0.458 OA
BRANCH  23  24
ATOM     24  C   UNL A   1      32.997  31.162  27.116  1.00  0.00     0.338 C 
ATOM     25  O   UNL A   1      32.449  32.242  27.267  1.00  0.00    -0.246 OA
BRANCH  24  26
ATOM     26  C   UNL A   1      34.404  30.960  27.479  1.00  0.00     0.060 A 
ATOM     27  C   UNL A   1      34.836  29.656  27.669  1.00  0.00     0.016 A 
ATOM     28  C   UNL A   1      35.200  32.023  27.889  1.00  0.00     0.016 A 
ATOM     29  C   UNL A   1      35.946  29.398  28.457  1.00  0.00     0.010 A 
ATOM     30  C   UNL A   1      36.426  31.756  28.512  1.00  0.00     0.010 A 
ATOM     31  C   UNL A   1      36.787  30.441  28.859  1.00  0.00    -0.014 A 
BRANCH  31  32
ATOM     32  C   UNL A   1      38.022  30.141  29.638  1.00  0.00     0.031 A 
ATOM     33  C   UNL A   1      39.112  29.284  29.043  1.00  0.00     0.074 A 
ATOM     34  C   UNL A   1      38.181  30.659  30.875  1.00  0.00     0.049 A 
ATOM     35  N   UNL A   1      40.165  28.765  29.625  1.00  0.00    -0.248 NA
ATOM     36  C   UNL A   1      39.000  28.953  27.613  1.00  0.00     0.031 C 
ATOM     37  C   UNL A   1      37.237  31.556  31.550  1.00  0.00     0.029 A 
ATOM     38  N   UNL A   1      39.199  30.520  31.788  1.00  0.00    -0.354 N 
ATOM     39  C   UNL A   1      40.809  28.015  28.648  1.00  0.00     0.074 A 
ATOM     40  C   UNL A   1      40.020  28.123  27.441  1.00  0.00     0.031 C 
ATOM     41  C   UNL A   1      37.742  31.930  32.731  1.00  0.00     0.029 A 
ATOM     42  C   UNL A   1      38.981  31.203  32.962  1.00  0.00     0.049 A 
ATOM     43  H   UNL A   1      40.005  29.983  31.618  1.00  0.00     0.167 HD
ATOM     44  C   UNL A   1      41.962  27.312  28.752  1.00  0.00     0.037 A 
ATOM     45  C   UNL A   1      39.663  31.204  34.121  1.00  0.00     0.037 A 
ATOM     46  C   UNL A   1      42.764  27.253  29.947  1.00  0.00     0.049 A 
ATOM     47  C   UNL A   1      40.887  30.339  34.236  1.00  0.00     0.074 A 
ATOM     48  C   UNL A   1      43.949  26.567  30.154  1.00  0.00     0.029 A 
ATOM     49  N   UNL A   1      42.473  27.916  31.130  1.00  0.00    -0.354 N 
ATOM     50  N   UNL A   1      41.461  29.597  33.321  1.00  0.00    -0.248 NA
ATOM     51  C   UNL A   1      41.547  30.299  35.546  1.00  0.00     0.031 C 
ATOM     52  C   UNL A   1      44.343  26.768  31.479  1.00  0.00     0.029 A 
ATOM     53  C   UNL A   1      43.443  27.634  32.079  1.00  0.00     0.049 A 
ATOM     54  H   UNL A   1      41.694  28.500  31.275  1.00  0.00     0.167 HD
ATOM     55  C   UNL A   1      42.564  29.024  33.936  1.00  0.00     0.074 A 
ATOM     56  C   UNL A   1      42.591  29.522  35.295  1.00  0.00     0.031 C 
ATOM     57  C   UNL A   1      43.467  28.155  33.422  1.00  0.00     0.037 A 
BRANCH  44  58
ATOM     58  C   UNL A   1      42.438  26.537  27.556  1.00  0.00     0.064 A 
ATOM     59  C   UNL A   1      43.411  27.046  26.684  1.00  0.00     0.173 A 
ATOM     60  C   UNL A   1      41.988  25.224  27.339  1.00  0.00     0.173 A 
ATOM     61  F   UNL A   1      43.867  28.298  26.837  1.00  0.00    -0.203 F 
ATOM     62  C   UNL A   1      43.912  26.272  25.639  1.00  0.00     0.198 A 
ATOM     63  C   UNL A   1      42.515  24.443  26.313  1.00  0.00     0.198 A 
ATOM     64  F   UNL A   1      41.062  24.685  28.146  1.00  0.00    -0.203 F 
ATOM     65  F   UNL A   1      44.824  26.790  24.802  1.00  0.00    -0.200 F 
ATOM     66  C   UNL A   1      43.475  24.969  25.464  1.00  0.00     0.200 A 
ATOM     67  F   UNL A   1      42.105  23.176  26.159  1.00  0.00    -0.200 F 
ATOM     68  F   UNL A   1      43.982  24.216  24.476  1.00  0.00    -0.200 F 
ENDBRANCH  44  58
BRANCH  45  69
ATOM     69  C   UNL A   1      39.185  32.019  35.272  1.00  0.00     0.064 A 
ATOM     70  C   UNL A   1      39.486  33.385  35.358  1.00  0.00     0.173 A 
ATOM     71  C   UNL A   1      38.415  31.458  36.304  1.00  0.00     0.173 A 
ATOM     72  F   UNL A   1      40.236  33.965  34.410  1.00  0.00    -0.203 F 
ATOM     73  C   UNL A   1      39.053  34.152  36.438  1.00  0.00     0.198 A 
ATOM     74  C   UNL A   1      37.948  32.234  37.362  1.00  0.00     0.198 A 
ATOM     75  F   UNL A   1      38.094  30.156  36.275  1.00  0.00    -0.203 F 
ATOM     76  F   UNL A   1      39.402  35.443  36.521  1.00  0.00    -0.200 F 
ATOM     77  C   UNL A   1      38.276  33.579  37.433  1.00  0.00     0.200 A 
ATOM     78  F   UNL A   1      37.178  31.681  38.308  1.00  0.00    -0.200 F 
ATOM     79  F   UNL A   1      37.851  34.320  38.465  1.00  0.00    -0.200 F 
ENDBRANCH  45  69
BRANCH  57  80
ATOM     80  C   UNL A   1      44.588  27.711  34.315  1.00  0.00     0.064 A 
ATOM     81  C   UNL A   1      45.781  28.440  34.413  1.00  0.00     0.173 A 
ATOM     82  C   UNL A   1      44.437  26.582  35.136  1.00  0.00     0.173 A 
ATOM     83  F   UNL A   1      45.981  29.518  33.639  1.00  0.00    -0.203 F 
ATOM     84  C   UNL A   1      46.789  28.047  35.290  1.00  0.00     0.198 A 
ATOM     85  C   UNL A   1      45.430  26.216  36.038  1.00  0.00     0.198 A 
ATOM     86  F   UNL A   1      43.311  25.855  35.085  1.00  0.00    -0.203 F 
ATOM     87  F   UNL A   1      47.938  28.735  35.336  1.00  0.00    -0.200 F 
ATOM     88  C   UNL A   1      46.607  26.944  36.110  1.00  0.00     0.200 A 
ATOM     89  F   UNL A   1      45.242  25.162  36.845  1.00  0.00    -0.200 F 
ATOM     90  F   UNL A   1      47.568  26.582  36.971  1.00  0.00    -0.200 F 
ENDBRANCH  57  80
ENDBRANCH  31  32
ENDBRANCH  24  26
ENDBRANCH  23  24
ENDBRANCH   1  23
TORSDOF 13
ENDMDL
MODEL 3
REMARK VINA RESULT:     -12.6      0.356      1.688
REMARK SMILES C#Cc1cc(Cl)cc2c1O[C@H](C(F)(F)F)C(C(=O)OCCOC(=O)c1ccc(-c3c4nc(c(-c5c(F)c(F)c(F)c(F)c5F)c5ccc([nH]5)c(-c5c(F)c(F)c(F)c(F)c5F)c5nc(c(-c6c(F)c(F)c(F)c(F)c6F)c6ccc3[nH]6)C=C5)C=C4)cc1)=C2
REMARK SMILES IDX 21 1 20 2 19 3 17 4 18 5 16 6 3 7 4 8 9 9 5 10 8 11 10 12
REMARK SMILES IDX 6 13 7 14 88 15 11 16 2 17 1 18 12 19 13 20 14 21 15 22
REMARK SMILES IDX 22 23 23 24 24 25 25 26 26 27 87 28 27 29 86 30 28 31 29 32
REMARK SMILES IDX 30 33 80 34 31 35 85 36 79 37 81 38 32 39 84 40 78 41 77 42
REMARK SMILES IDX 33 44 65 45 45 46 64 47 46 48 49 49 63 50 82 51 47 52 48 53
REMARK SMILES IDX 62 55 83 56 50 57 34 58 35 59 43 60 36 61 37 62 41 63 44 64
REMARK SMILES IDX 38 65 39 66 42 67 40 68 66 69 67 70 75 71 68 72 69 73 73 74
REMARK SMILES IDX 76 75 70 76 71 77 74 78 72 79 51 80 52 81 60 82 53 83 54 84
REMARK SMILES IDX 58 85 61 86 55 87 56 88 59 89 57 90
REMARK H PARENT 81 43 49 54
REMARK Flexibility Score: inf
ROOT
ATOM      1  C   UNL A   1      31.751  30.219  25.723  1.00  0.00     0.275 C 
ENDROOT
BRANCH   1   2
ATOM      2  C   UNL A   1      31.451  28.892  25.022  1.00  0.00     0.275 C 
BRANCH   2   3
ATOM      3  O   UNL A   1      32.280  27.825  25.537  1.00  0.00    -0.459 OA
BRANCH   3   4
ATOM      4  C   UNL A   1      31.631  26.873  26.244  1.00  0.00     0.338 C 
ATOM      5  O   UNL A   1      30.708  27.049  27.024  1.00  0.00    -0.246 OA
BRANCH   4   6
ATOM      6  C   UNL A   1      32.174  25.532  25.948  1.00  0.00     0.087 C 
ATOM      7  C   UNL A   1      33.837  21.939  24.580  1.00  0.00     0.068 A 
ATOM      8  C   UNL A   1      35.230  21.786  24.585  1.00  0.00     0.041 A 
ATOM      9  C   UNL A   1      33.252  23.108  25.091  1.00  0.00     0.143 A 
ATOM     10  C   UNL A   1      36.037  22.787  25.114  1.00  0.00     0.043 A 
ATOM     11  C   UNL A   1      34.076  24.105  25.612  1.00  0.00     0.020 A 
ATOM     12  O   UNL A   1      31.885  23.219  25.072  1.00  0.00    -0.474 OA
ATOM     13  Cl  UNL A   1      37.748  22.609  25.112  1.00  0.00    -0.084 Cl
ATOM     14  C   UNL A   1      35.468  23.944  25.636  1.00  0.00     0.032 A 
ATOM     15  C   UNL A   1      33.490  25.340  26.085  1.00  0.00     0.027 C 
ATOM     16  C   UNL A   1      31.264  24.506  25.347  1.00  0.00     0.316 C 
BRANCH   7  17
ATOM     17  C   UNL A   1      33.030  20.894  24.028  1.00  0.00    -0.067 C 
ATOM     18  C   UNL A   1      32.357  20.010  23.569  1.00  0.00     0.010 C 
ENDBRANCH   7  17
BRANCH  16  19
ATOM     19  C   UNL A   1      30.612  25.037  24.060  1.00  0.00     0.430 C 
ATOM     20  F   UNL A   1      29.561  25.846  24.331  1.00  0.00    -0.167 F 
ATOM     21  F   UNL A   1      31.485  25.772  23.328  1.00  0.00    -0.167 F 
ATOM     22  F   UNL A   1      30.165  24.037  23.266  1.00  0.00    -0.167 F 
ENDBRANCH  16  19
ENDBRANCH   4   6
ENDBRANCH   3   4
ENDBRANCH   2   3
ENDBRANCH   1   2
BRANCH   1  23
ATOM     23  O   UNL A   1      32.720  30.042  26.775  1.00  0.00    -0.458 OA
BRANCH  23  24
ATOM     24  C   UNL A   1      33.308  31.181  27.193  1.00  0.00     0.338 C 
ATOM     25  O   UNL A   1      32.789  32.275  27.348  1.00  0.00    -0.246 OA
BRANCH  24  26
ATOM     26  C   UNL A   1      34.701  30.932  27.581  1.00  0.00     0.060 A 
ATOM     27  C   UNL A   1      35.062  29.625  27.867  1.00  0.00     0.016 A 
ATOM     28  C   UNL A   1      35.550  31.979  27.921  1.00  0.00     0.016 A 
ATOM     29  C   UNL A   1      36.153  29.367  28.682  1.00  0.00     0.010 A 
ATOM     30  C   UNL A   1      36.757  31.694  28.571  1.00  0.00     0.010 A 
ATOM     31  C   UNL A   1      37.046  30.390  29.015  1.00  0.00    -0.014 A 
BRANCH  31  32
ATOM     32  C   UNL A   1      38.261  30.083  29.824  1.00  0.00     0.031 A 
ATOM     33  C   UNL A   1      39.345  29.194  29.268  1.00  0.00     0.074 A 
ATOM     34  C   UNL A   1      38.406  30.623  31.053  1.00  0.00     0.049 A 
ATOM     35  N   UNL A   1      40.376  28.667  29.881  1.00  0.00    -0.248 NA
ATOM     36  C   UNL A   1      39.254  28.835  27.843  1.00  0.00     0.031 C 
ATOM     37  C   UNL A   1      37.466  31.552  31.691  1.00  0.00     0.029 A 
ATOM     38  N   UNL A   1      39.403  30.484  31.988  1.00  0.00    -0.354 N 
ATOM     39  C   UNL A   1      41.024  27.885  28.932  1.00  0.00     0.074 A 
ATOM     40  C   UNL A   1      40.260  27.982  27.708  1.00  0.00     0.031 C 
ATOM     41  C   UNL A   1      37.956  31.941  32.874  1.00  0.00     0.029 A 
ATOM     42  C   UNL A   1      39.176  31.195  33.144  1.00  0.00     0.049 A 
ATOM     43  H   UNL A   1      40.202  29.929  31.846  1.00  0.00     0.167 HD
ATOM     44  C   UNL A   1      42.161  27.163  29.073  1.00  0.00     0.037 A 
ATOM     45  C   UNL A   1      39.836  31.207  34.316  1.00  0.00     0.037 A 
ATOM     46  C   UNL A   1      42.939  27.113  30.284  1.00  0.00     0.049 A 
ATOM     47  C   UNL A   1      41.039  30.322  34.472  1.00  0.00     0.074 A 
ATOM     48  C   UNL A   1      44.106  26.409  30.529  1.00  0.00     0.029 A 
ATOM     49  N   UNL A   1      42.638  27.806  31.448  1.00  0.00    -0.354 N 
ATOM     50  N   UNL A   1      41.616  29.551  33.584  1.00  0.00    -0.248 NA
ATOM     51  C   UNL A   1      41.674  30.296  35.796  1.00  0.00     0.031 C 
ATOM     52  C   UNL A   1      44.478  26.630  31.856  1.00  0.00     0.029 A 
ATOM     53  C   UNL A   1      43.584  27.525  32.421  1.00  0.00     0.049 A 
ATOM     54  H   UNL A   1      41.868  28.407  31.565  1.00  0.00     0.167 HD
ATOM     55  C   UNL A   1      42.696  28.969  34.231  1.00  0.00     0.074 A 
ATOM     56  C   UNL A   1      42.707  29.495  35.581  1.00  0.00     0.031 C 
ATOM     57  C   UNL A   1      43.592  28.073  33.753  1.00  0.00     0.037 A 
BRANCH  44  58
ATOM     58  C   UNL A   1      42.645  26.354  27.902  1.00  0.00     0.064 A 
ATOM     59  C   UNL A   1      42.168  25.061  27.649  1.00  0.00     0.173 A 
ATOM     60  C   UNL A   1      43.520  26.924  26.961  1.00  0.00     0.173 A 
ATOM     61  F   UNL A   1      41.340  24.464  28.519  1.00  0.00    -0.203 F 
ATOM     62  C   UNL A   1      42.551  24.366  26.503  1.00  0.00     0.198 A 
ATOM     63  C   UNL A   1      43.875  26.240  25.802  1.00  0.00     0.198 A 
ATOM     64  F   UNL A   1      44.002  28.162  27.151  1.00  0.00    -0.203 F 
ATOM     65  F   UNL A   1      42.103  23.120  26.296  1.00  0.00    -0.200 F 
ATOM     66  C   UNL A   1      43.392  24.961  25.575  1.00  0.00     0.200 A 
ATOM     67  F   UNL A   1      44.672  26.825  24.897  1.00  0.00    -0.200 F 
ATOM     68  F   UNL A   1      43.734  24.303  24.459  1.00  0.00    -0.200 F 
ENDBRANCH  44  58
BRANCH  45  69
ATOM     69  C   UNL A   1      39.351  32.055  35.440  1.00  0.00     0.064 A 
ATOM     70  C   UNL A   1      38.508  31.525  36.427  1.00  0.00     0.173 A 
ATOM     71  C   UNL A   1      39.719  33.405  35.558  1.00  0.00     0.173 A 
ATOM     72  F   UNL A   1      38.109  30.247  36.350  1.00  0.00    -0.203 F 
ATOM     73  C   UNL A   1      38.040  32.315  37.475  1.00  0.00     0.198 A 
ATOM     74  C   UNL A   1      39.284  34.183  36.629  1.00  0.00     0.198 A 
ATOM     75  F   UNL A   1      40.524  33.967  34.644  1.00  0.00    -0.203 F 
ATOM     76  F   UNL A   1      37.193  31.796  38.374  1.00  0.00    -0.200 F 
ATOM     77  C   UNL A   1      38.435  33.639  37.581  1.00  0.00     0.200 A 
ATOM     78  F   UNL A   1      39.688  35.455  36.738  1.00  0.00    -0.200 F 
ATOM     79  F   UNL A   1      37.993  34.395  38.595  1.00  0.00    -0.200 F 
ENDBRANCH  45  69
BRANCH  57  80
ATOM     80  C   UNL A   1      44.687  27.626  34.676  1.00  0.00     0.064 A 
ATOM     81  C   UNL A   1      45.885  28.345  34.797  1.00  0.00     0.173 A 
ATOM     82  C   UNL A   1      44.505  26.507  35.503  1.00  0.00     0.173 A 
ATOM     83  F   UNL A   1      46.114  29.414  34.019  1.00  0.00    -0.203 F 
ATOM     84  C   UNL A   1      46.867  27.951  35.702  1.00  0.00     0.198 A 
ATOM     85  C   UNL A   1      45.472  26.138  36.432  1.00  0.00     0.198 A 
ATOM     86  F   UNL A   1      43.374  25.789  35.432  1.00  0.00    -0.203 F 
ATOM     87  F   UNL A   1      48.021  28.628  35.770  1.00  0.00    -0.200 F 
ATOM     88  C   UNL A   1      46.655  26.856  36.527  1.00  0.00     0.200 A 
ATOM     89  F   UNL A   1      45.256  25.093  37.244  1.00  0.00    -0.200 F 
ATOM     90  F   UNL A   1      47.592  26.493  37.413  1.00  0.00    -0.200 F 
ENDBRANCH  57  80
ENDBRANCH  31  32
ENDBRANCH  24  26
ENDBRANCH  23  24
ENDBRANCH   1  23
TORSDOF 13
ENDMDL
