MODEL 1
REMARK VINA RESULT:     -10.7      0.000      0.000
REMARK SMILES [NH3+][C@@H]1C=C[C@H](C(=O)NC[C@H](O)C(=O)OCCOC(=O)c2ccc(-c3c4nc(c(-c5c(F)c(F)c(F)c(F)c5F)c5ccc([nH]5)c(-c5c(F)c(F)c(F)c(F)c5F)c5nc(c(-c6c(F)c(F)c(F)c(F)c6F)c6ccc3[nH]6)C=C5)C=C4)cc2)C1
REMARK SMILES IDX 15 1 14 2 12 3 13 4 10 5 9 6 8 7 6 8 7 9 5 11 2 12 3 13
REMARK SMILES IDX 83 14 4 15 1 16 11 20 16 22 17 23 18 24 19 25 20 26 21 27
REMARK SMILES IDX 82 28 22 29 81 30 23 31 24 32 25 33 75 34 26 35 80 36 74 37
REMARK SMILES IDX 76 38 27 39 79 40 73 41 72 42 28 44 60 45 40 46 59 47 41 48
REMARK SMILES IDX 44 49 58 50 77 51 42 52 43 53 57 55 78 56 45 57 29 58 30 59
REMARK SMILES IDX 38 60 31 61 32 62 36 63 39 64 33 65 34 66 37 67 35 68 61 69
REMARK SMILES IDX 62 70 70 71 63 72 64 73 68 74 71 75 65 76 66 77 69 78 67 79
REMARK SMILES IDX 46 80 47 81 55 82 48 83 49 84 53 85 56 86 50 87 51 88 54 89
REMARK SMILES IDX 52 90
REMARK H PARENT 8 10 1 17 1 18 1 19 11 21 76 43 44 54
REMARK Flexibility Score: inf
ROOT
ATOM      1  C   UNL A   1      41.572  20.102  26.128  1.00  0.00     0.274 C 
ENDROOT
BRANCH   1   2
ATOM      2  O   UNL A   1      43.003  19.969  26.089  1.00  0.00    -0.460 OA
BRANCH   2   3
ATOM      3  C   UNL A   1      43.506  18.750  25.747  1.00  0.00     0.336 C 
ATOM      4  O   UNL A   1      42.849  17.724  25.614  1.00  0.00    -0.249 OA
BRANCH   3   5
ATOM      5  C   UNL A   1      45.001  18.845  25.435  1.00  0.00     0.243 C 
BRANCH   5   6
ATOM      6  C   UNL A   1      45.213  19.236  23.973  1.00  0.00     0.159 C 
BRANCH   6   7
ATOM      7  N   UNL A   1      44.557  20.495  23.631  1.00  0.00    -0.352 N 
ATOM      8  C   UNL A   1      44.809  21.787  23.959  1.00  0.00     0.227 C 
ATOM      9  O   UNL A   1      43.974  22.613  23.569  1.00  0.00    -0.274 OA
ATOM     10  H   UNL A   1      43.772  20.383  23.045  1.00  0.00     0.163 HD
BRANCH   8  11
ATOM     11  C   UNL A   1      46.045  22.270  24.746  1.00  0.00     0.107 C 
ATOM     12  C   UNL A   1      45.407  24.044  26.315  1.00  0.00     0.205 C 
ATOM     13  C   UNL A   1      46.323  24.552  25.251  1.00  0.00     0.033 C 
ATOM     14  C   UNL A   1      45.635  22.528  26.211  1.00  0.00     0.087 C 
ATOM     15  C   UNL A   1      46.703  23.574  24.419  1.00  0.00    -0.012 C 
BRANCH  12  16
ATOM     16  N   UNL A   1      44.035  24.431  26.041  1.00  0.00    -0.352 N 
ATOM     17  H   UNL A   1      44.008  25.029  25.216  1.00  0.00     0.345 HD
ATOM     18  H   UNL A   1      43.658  24.938  26.841  1.00  0.00     0.345 HD
ATOM     19  H   UNL A   1      43.473  23.596  25.873  1.00  0.00     0.345 HD
ENDBRANCH  12  16
ENDBRANCH   8  11
ENDBRANCH   6   7
ENDBRANCH   5   6
BRANCH   5  20
ATOM     20  O   UNL A   1      45.744  17.667  25.743  1.00  0.00    -0.380 OA
ATOM     21  H   UNL A   1      45.938  17.646  26.693  1.00  0.00     0.211 HD
ENDBRANCH   5  20
ENDBRANCH   3   5
ENDBRANCH   2   3
ENDBRANCH   1   2
BRANCH   1  22
ATOM     22  C   UNL A   1      41.183  21.585  26.128  1.00  0.00     0.275 C 
BRANCH  22  23
ATOM     23  O   UNL A   1      39.963  21.824  26.860  1.00  0.00    -0.458 OA
BRANCH  23  24
ATOM     24  C   UNL A   1      39.128  22.748  26.328  1.00  0.00     0.338 C 
ATOM     25  O   UNL A   1      38.193  22.547  25.570  1.00  0.00    -0.246 OA
BRANCH  24  26
ATOM     26  C   UNL A   1      39.406  24.071  26.920  1.00  0.00     0.060 A 
ATOM     27  C   UNL A   1      40.065  25.018  26.130  1.00  0.00     0.016 A 
ATOM     28  C   UNL A   1      39.085  24.366  28.248  1.00  0.00     0.016 A 
ATOM     29  C   UNL A   1      40.427  26.249  26.663  1.00  0.00     0.010 A 
ATOM     30  C   UNL A   1      39.441  25.610  28.781  1.00  0.00     0.010 A 
ATOM     31  C   UNL A   1      40.127  26.553  27.996  1.00  0.00    -0.014 A 
BRANCH  31  32
ATOM     32  C   UNL A   1      40.578  27.846  28.562  1.00  0.00     0.031 A 
ATOM     33  C   UNL A   1      42.032  28.067  28.857  1.00  0.00     0.074 A 
ATOM     34  C   UNL A   1      39.687  28.834  28.763  1.00  0.00     0.049 A 
ATOM     35  N   UNL A   1      42.621  29.104  29.397  1.00  0.00    -0.248 NA
ATOM     36  C   UNL A   1      42.948  26.974  28.496  1.00  0.00     0.031 C 
ATOM     37  C   UNL A   1      38.258  28.754  28.462  1.00  0.00     0.029 A 
ATOM     38  N   UNL A   1      39.855  30.102  29.261  1.00  0.00    -0.354 N 
ATOM     39  C   UNL A   1      43.970  28.783  29.457  1.00  0.00     0.074 A 
ATOM     40  C   UNL A   1      44.113  27.448  28.917  1.00  0.00     0.031 C 
ATOM     41  C   UNL A   1      37.679  29.925  28.774  1.00  0.00     0.029 A 
ATOM     42  C   UNL A   1      38.686  30.818  29.339  1.00  0.00     0.049 A 
ATOM     43  H   UNL A   1      40.729  30.462  29.535  1.00  0.00     0.167 HD
ATOM     44  C   UNL A   1      44.994  29.540  29.918  1.00  0.00     0.037 A 
ATOM     45  C   UNL A   1      38.453  32.048  29.834  1.00  0.00     0.037 A 
ATOM     46  C   UNL A   1      44.848  30.875  30.437  1.00  0.00     0.049 A 
ATOM     47  C   UNL A   1      39.601  32.843  30.393  1.00  0.00     0.074 A 
ATOM     48  C   UNL A   1      45.827  31.727  30.919  1.00  0.00     0.029 A 
ATOM     49  N   UNL A   1      43.642  31.555  30.538  1.00  0.00    -0.354 N 
ATOM     50  N   UNL A   1      40.871  32.530  30.457  1.00  0.00    -0.248 NA
ATOM     51  C   UNL A   1      39.280  34.163  30.953  1.00  0.00     0.031 C 
ATOM     52  C   UNL A   1      45.208  32.906  31.351  1.00  0.00     0.029 A 
ATOM     53  C   UNL A   1      43.850  32.807  31.095  1.00  0.00     0.049 A 
ATOM     54  H   UNL A   1      42.769  31.199  30.255  1.00  0.00     0.167 HD
ATOM     55  C   UNL A   1      41.504  33.617  31.043  1.00  0.00     0.074 A 
ATOM     56  C   UNL A   1      40.480  34.606  31.302  1.00  0.00     0.031 C 
ATOM     57  C   UNL A   1      42.817  33.780  31.341  1.00  0.00     0.037 A 
BRANCH  44  58
ATOM     58  C   UNL A   1      46.364  28.928  29.912  1.00  0.00     0.064 A 
ATOM     59  C   UNL A   1      47.239  29.086  28.829  1.00  0.00     0.173 A 
ATOM     60  C   UNL A   1      46.817  28.200  31.022  1.00  0.00     0.173 A 
ATOM     61  F   UNL A   1      46.848  29.761  27.737  1.00  0.00    -0.203 F 
ATOM     62  C   UNL A   1      48.511  28.516  28.847  1.00  0.00     0.198 A 
ATOM     63  C   UNL A   1      48.098  27.653  31.048  1.00  0.00     0.198 A 
ATOM     64  F   UNL A   1      46.019  28.021  32.086  1.00  0.00    -0.203 F 
ATOM     65  F   UNL A   1      49.316  28.642  27.783  1.00  0.00    -0.200 F 
ATOM     66  C   UNL A   1      48.941  27.807  29.958  1.00  0.00     0.200 A 
ATOM     67  F   UNL A   1      48.514  26.976  32.127  1.00  0.00    -0.200 F 
ATOM     68  F   UNL A   1      50.166  27.263  29.977  1.00  0.00    -0.200 F 
ENDBRANCH  44  58
BRANCH  45  69
ATOM     69  C   UNL A   1      37.070  32.591  29.844  1.00  0.00     0.064 A 
ATOM     70  C   UNL A   1      36.565  33.308  28.751  1.00  0.00     0.173 A 
ATOM     71  C   UNL A   1      36.227  32.407  30.951  1.00  0.00     0.173 A 
ATOM     72  F   UNL A   1      37.344  33.534  27.682  1.00  0.00    -0.203 F 
ATOM     73  C   UNL A   1      35.275  33.833  28.769  1.00  0.00     0.198 A 
ATOM     74  C   UNL A   1      34.928  32.908  30.957  1.00  0.00     0.198 A 
ATOM     75  F   UNL A   1      36.665  31.733  32.023  1.00  0.00    -0.203 F 
ATOM     76  F   UNL A   1      34.833  34.554  27.731  1.00  0.00    -0.200 F 
ATOM     77  C   UNL A   1      34.455  33.627  29.869  1.00  0.00     0.200 A 
ATOM     78  F   UNL A   1      34.137  32.700  32.017  1.00  0.00    -0.200 F 
ATOM     79  F   UNL A   1      33.214  34.131  29.885  1.00  0.00    -0.200 F 
ENDBRANCH  45  69
BRANCH  57  80
ATOM     80  C   UNL A   1      43.221  35.088  31.955  1.00  0.00     0.064 A 
ATOM     81  C   UNL A   1      43.687  36.154  31.172  1.00  0.00     0.173 A 
ATOM     82  C   UNL A   1      43.109  35.286  33.339  1.00  0.00     0.173 A 
ATOM     83  F   UNL A   1      43.827  36.007  29.847  1.00  0.00    -0.203 F 
ATOM     84  C   UNL A   1      44.049  37.365  31.757  1.00  0.00     0.198 A 
ATOM     85  C   UNL A   1      43.445  36.507  33.917  1.00  0.00     0.198 A 
ATOM     86  F   UNL A   1      42.663  34.300  34.131  1.00  0.00    -0.203 F 
ATOM     87  F   UNL A   1      44.533  38.356  30.995  1.00  0.00    -0.200 F 
ATOM     88  C   UNL A   1      43.921  37.543  33.127  1.00  0.00     0.200 A 
ATOM     89  F   UNL A   1      43.312  36.682  35.239  1.00  0.00    -0.200 F 
ATOM     90  F   UNL A   1      44.265  38.711  33.686  1.00  0.00    -0.200 F 
ENDBRANCH  57  80
ENDBRANCH  31  32
ENDBRANCH  24  26
ENDBRANCH  23  24
ENDBRANCH  22  23
ENDBRANCH   1  22
TORSDOF 16
ENDMDL
MODEL 2
REMARK VINA RESULT:     -10.6      5.900     10.183
REMARK SMILES [NH3+][C@@H]1C=C[C@H](C(=O)NC[C@H](O)C(=O)OCCOC(=O)c2ccc(-c3c4nc(c(-c5c(F)c(F)c(F)c(F)c5F)c5ccc([nH]5)c(-c5c(F)c(F)c(F)c(F)c5F)c5nc(c(-c6c(F)c(F)c(F)c(F)c6F)c6ccc3[nH]6)C=C5)C=C4)cc2)C1
REMARK SMILES IDX 15 1 14 2 12 3 13 4 10 5 9 6 8 7 6 8 7 9 5 11 2 12 3 13
REMARK SMILES IDX 83 14 4 15 1 16 11 20 16 22 17 23 18 24 19 25 20 26 21 27
REMARK SMILES IDX 82 28 22 29 81 30 23 31 24 32 25 33 75 34 26 35 80 36 74 37
REMARK SMILES IDX 76 38 27 39 79 40 73 41 72 42 28 44 60 45 40 46 59 47 41 48
REMARK SMILES IDX 44 49 58 50 77 51 42 52 43 53 57 55 78 56 45 57 29 58 30 59
REMARK SMILES IDX 38 60 31 61 32 62 36 63 39 64 33 65 34 66 37 67 35 68 61 69
REMARK SMILES IDX 62 70 70 71 63 72 64 73 68 74 71 75 65 76 66 77 69 78 67 79
REMARK SMILES IDX 46 80 47 81 55 82 48 83 49 84 53 85 56 86 50 87 51 88 54 89
REMARK SMILES IDX 52 90
REMARK H PARENT 8 10 1 17 1 18 1 19 11 21 76 43 44 54
REMARK Flexibility Score: inf
ROOT
ATOM      1  C   UNL A   1      32.390  28.595  25.659  1.00  0.00     0.274 C 
ENDROOT
BRANCH   1   2
ATOM      2  O   UNL A   1      31.056  28.068  25.575  1.00  0.00    -0.460 OA
BRANCH   2   3
ATOM      3  C   UNL A   1      30.905  26.726  25.749  1.00  0.00     0.336 C 
ATOM      4  O   UNL A   1      31.022  26.131  26.814  1.00  0.00    -0.249 OA
BRANCH   3   5
ATOM      5  C   UNL A   1      30.452  26.056  24.449  1.00  0.00     0.243 C 
BRANCH   5   6
ATOM      6  C   UNL A   1      29.452  26.947  23.713  1.00  0.00     0.159 C 
BRANCH   6   7
ATOM      7  N   UNL A   1      30.108  27.989  22.926  1.00  0.00    -0.352 N 
ATOM      8  C   UNL A   1      29.637  29.060  22.239  1.00  0.00     0.227 C 
ATOM      9  O   UNL A   1      30.479  29.691  21.586  1.00  0.00    -0.274 OA
ATOM     10  H   UNL A   1      31.088  27.894  22.886  1.00  0.00     0.163 HD
BRANCH   8  11
ATOM     11  C   UNL A   1      28.168  29.531  22.239  1.00  0.00     0.107 C 
ATOM     12  C   UNL A   1      28.064  31.977  22.099  1.00  0.00     0.205 C 
ATOM     13  C   UNL A   1      27.537  31.477  23.403  1.00  0.00     0.033 C 
ATOM     14  C   UNL A   1      28.017  30.701  21.245  1.00  0.00     0.087 C 
ATOM     15  C   UNL A   1      27.557  30.139  23.463  1.00  0.00    -0.012 C 
BRANCH  12  16
ATOM     16  N   UNL A   1      29.407  32.506  22.255  1.00  0.00    -0.352 N 
ATOM     17  H   UNL A   1      29.816  32.669  21.335  1.00  0.00     0.345 HD
ATOM     18  H   UNL A   1      29.979  31.836  22.768  1.00  0.00     0.345 HD
ATOM     19  H   UNL A   1      29.368  33.385  22.770  1.00  0.00     0.345 HD
ENDBRANCH  12  16
ENDBRANCH   8  11
ENDBRANCH   6   7
ENDBRANCH   5   6
BRANCH   5  20
ATOM     20  O   UNL A   1      29.913  24.746  24.618  1.00  0.00    -0.380 OA
ATOM     21  H   UNL A   1      29.252  24.758  25.329  1.00  0.00     0.211 HD
ENDBRANCH   5  20
ENDBRANCH   3   5
ENDBRANCH   2   3
ENDBRANCH   1   2
BRANCH   1  22
ATOM     22  C   UNL A   1      32.345  30.124  25.764  1.00  0.00     0.275 C 
BRANCH  22  23
ATOM     23  O   UNL A   1      32.604  30.583  27.107  1.00  0.00    -0.458 OA
BRANCH  23  24
ATOM     24  C   UNL A   1      33.387  31.682  27.215  1.00  0.00     0.338 C 
ATOM     25  O   UNL A   1      33.080  32.834  26.954  1.00  0.00    -0.246 OA
BRANCH  24  26
ATOM     26  C   UNL A   1      34.667  31.321  27.854  1.00  0.00     0.060 A 
ATOM     27  C   UNL A   1      34.807  30.024  28.355  1.00  0.00     0.016 A 
ATOM     28  C   UNL A   1      35.695  32.252  28.021  1.00  0.00     0.016 A 
ATOM     29  C   UNL A   1      35.958  29.655  29.041  1.00  0.00     0.010 A 
ATOM     30  C   UNL A   1      36.859  31.878  28.703  1.00  0.00     0.010 A 
ATOM     31  C   UNL A   1      36.991  30.581  29.230  1.00  0.00    -0.014 A 
BRANCH  31  32
ATOM     32  C   UNL A   1      38.181  30.186  30.019  1.00  0.00     0.031 A 
ATOM     33  C   UNL A   1      39.199  29.259  29.424  1.00  0.00     0.074 A 
ATOM     34  C   UNL A   1      38.367  30.700  31.248  1.00  0.00     0.049 A 
ATOM     35  N   UNL A   1      40.281  28.757  29.965  1.00  0.00    -0.248 NA
ATOM     36  C   UNL A   1      38.972  28.841  28.032  1.00  0.00     0.031 C 
ATOM     37  C   UNL A   1      37.474  31.652  31.908  1.00  0.00     0.029 A 
ATOM     38  N   UNL A   1      39.375  30.499  32.158  1.00  0.00    -0.354 N 
ATOM     39  C   UNL A   1      40.852  27.951  28.989  1.00  0.00     0.074 A 
ATOM     40  C   UNL A   1      39.989  28.015  27.829  1.00  0.00     0.031 C 
ATOM     41  C   UNL A   1      37.977  31.959  33.114  1.00  0.00     0.029 A 
ATOM     42  C   UNL A   1      39.199  31.192  33.330  1.00  0.00     0.049 A 
ATOM     43  H   UNL A   1      40.149  29.915  31.985  1.00  0.00     0.167 HD
ATOM     44  C   UNL A   1      41.995  27.229  29.059  1.00  0.00     0.037 A 
ATOM     45  C   UNL A   1      39.931  31.186  34.460  1.00  0.00     0.037 A 
ATOM     46  C   UNL A   1      42.859  27.185  30.210  1.00  0.00     0.049 A 
ATOM     47  C   UNL A   1      41.166  30.330  34.530  1.00  0.00     0.074 A 
ATOM     48  C   UNL A   1      44.045  26.490  30.375  1.00  0.00     0.029 A 
ATOM     49  N   UNL A   1      42.628  27.868  31.396  1.00  0.00    -0.354 N 
ATOM     50  N   UNL A   1      41.694  29.562  33.608  1.00  0.00    -0.248 NA
ATOM     51  C   UNL A   1      41.904  30.336  35.800  1.00  0.00     0.031 C 
ATOM     52  C   UNL A   1      44.510  26.720  31.675  1.00  0.00     0.029 A 
ATOM     53  C   UNL A   1      43.639  27.594  32.304  1.00  0.00     0.049 A 
ATOM     54  H   UNL A   1      41.860  28.461  31.566  1.00  0.00     0.167 HD
ATOM     55  C   UNL A   1      42.833  29.011  34.176  1.00  0.00     0.074 A 
ATOM     56  C   UNL A   1      42.930  29.544  35.519  1.00  0.00     0.031 C 
ATOM     57  C   UNL A   1      43.720  28.139  33.635  1.00  0.00     0.037 A 
BRANCH  44  58
ATOM     58  C   UNL A   1      42.363  26.400  27.864  1.00  0.00     0.064 A 
ATOM     59  C   UNL A   1      43.273  26.855  26.900  1.00  0.00     0.173 A 
ATOM     60  C   UNL A   1      41.821  25.116  27.701  1.00  0.00     0.173 A 
ATOM     61  F   UNL A   1      43.809  28.082  27.003  1.00  0.00    -0.203 F 
ATOM     62  C   UNL A   1      43.609  26.065  25.802  1.00  0.00     0.198 A 
ATOM     63  C   UNL A   1      42.177  24.319  26.617  1.00  0.00     0.198 A 
ATOM     64  F   UNL A   1      40.947  24.632  28.597  1.00  0.00    -0.203 F 
ATOM     65  F   UNL A   1      44.447  26.538  24.869  1.00  0.00    -0.200 F 
ATOM     66  C   UNL A   1      43.066  24.797  25.665  1.00  0.00     0.200 A 
ATOM     67  F   UNL A   1      41.659  23.090  26.491  1.00  0.00    -0.200 F 
ATOM     68  F   UNL A   1      43.393  24.036  24.611  1.00  0.00    -0.200 F 
ENDBRANCH  44  58
BRANCH  45  69
ATOM     69  C   UNL A   1      39.501  32.003  35.623  1.00  0.00     0.064 A 
ATOM     70  C   UNL A   1      38.561  31.517  36.543  1.00  0.00     0.173 A 
ATOM     71  C   UNL A   1      40.018  33.290  35.836  1.00  0.00     0.173 A 
ATOM     72  F   UNL A   1      38.017  30.303  36.365  1.00  0.00    -0.203 F 
ATOM     73  C   UNL A   1      38.145  32.292  37.623  1.00  0.00     0.198 A 
ATOM     74  C   UNL A   1      39.622  34.053  36.932  1.00  0.00     0.198 A 
ATOM     75  F   UNL A   1      40.915  33.803  34.982  1.00  0.00    -0.203 F 
ATOM     76  F   UNL A   1      37.211  31.823  38.461  1.00  0.00    -0.200 F 
ATOM     77  C   UNL A   1      38.679  33.557  37.820  1.00  0.00     0.200 A 
ATOM     78  F   UNL A   1      40.147  35.270  37.123  1.00  0.00    -0.200 F 
ATOM     79  F   UNL A   1      38.280  34.301  38.860  1.00  0.00    -0.200 F 
ENDBRANCH  45  69
BRANCH  57  80
ATOM     80  C   UNL A   1      44.886  27.732  34.487  1.00  0.00     0.064 A 
ATOM     81  C   UNL A   1      46.074  28.477  34.510  1.00  0.00     0.173 A 
ATOM     82  C   UNL A   1      44.800  26.602  35.314  1.00  0.00     0.173 A 
ATOM     83  F   UNL A   1      46.211  29.555  33.725  1.00  0.00    -0.203 F 
ATOM     84  C   UNL A   1      47.143  28.091  35.314  1.00  0.00     0.198 A 
ATOM     85  C   UNL A   1      45.860  26.235  36.138  1.00  0.00     0.198 A 
ATOM     86  F   UNL A   1      43.682  25.861  35.332  1.00  0.00    -0.203 F 
ATOM     87  F   UNL A   1      48.286  28.792  35.289  1.00  0.00    -0.200 F 
ATOM     88  C   UNL A   1      47.033  26.975  36.132  1.00  0.00     0.200 A 
ATOM     89  F   UNL A   1      45.749  25.164  36.935  1.00  0.00    -0.200 F 
ATOM     90  F   UNL A   1      48.062  26.609  36.909  1.00  0.00    -0.200 F 
ENDBRANCH  57  80
ENDBRANCH  31  32
ENDBRANCH  24  26
ENDBRANCH  23  24
ENDBRANCH  22  23
ENDBRANCH   1  22
TORSDOF 16
ENDMDL
MODEL 3
REMARK VINA RESULT:     -10.5      5.898     10.292
REMARK SMILES [NH3+][C@@H]1C=C[C@H](C(=O)NC[C@H](O)C(=O)OCCOC(=O)c2ccc(-c3c4nc(c(-c5c(F)c(F)c(F)c(F)c5F)c5ccc([nH]5)c(-c5c(F)c(F)c(F)c(F)c5F)c5nc(c(-c6c(F)c(F)c(F)c(F)c6F)c6ccc3[nH]6)C=C5)C=C4)cc2)C1
REMARK SMILES IDX 15 1 14 2 12 3 13 4 10 5 9 6 8 7 6 8 7 9 5 11 2 12 3 13
REMARK SMILES IDX 83 14 4 15 1 16 11 20 16 22 17 23 18 24 19 25 20 26 21 27
REMARK SMILES IDX 82 28 22 29 81 30 23 31 24 32 25 33 75 34 26 35 80 36 74 37
REMARK SMILES IDX 76 38 27 39 79 40 73 41 72 42 28 44 60 45 40 46 59 47 41 48
REMARK SMILES IDX 44 49 58 50 77 51 42 52 43 53 57 55 78 56 45 57 29 58 30 59
REMARK SMILES IDX 38 60 31 61 32 62 36 63 39 64 33 65 34 66 37 67 35 68 61 69
REMARK SMILES IDX 62 70 70 71 63 72 64 73 68 74 71 75 65 76 66 77 69 78 67 79
REMARK SMILES IDX 46 80 47 81 55 82 48 83 49 84 53 85 56 86 50 87 51 88 54 89
REMARK SMILES IDX 52 90
REMARK H PARENT 8 10 1 17 1 18 1 19 11 21 76 43 44 54
REMARK Flexibility Score: inf
ROOT
ATOM      1  C   UNL A   1      31.407  29.509  25.293  1.00  0.00     0.274 C 
ENDROOT
BRANCH   1   2
ATOM      2  O   UNL A   1      31.374  28.144  25.743  1.00  0.00    -0.460 OA
BRANCH   2   3
ATOM      3  C   UNL A   1      31.623  27.178  24.816  1.00  0.00     0.336 C 
ATOM      4  O   UNL A   1      32.703  26.978  24.272  1.00  0.00    -0.249 OA
BRANCH   3   5
ATOM      5  C   UNL A   1      30.396  26.285  24.616  1.00  0.00     0.243 C 
BRANCH   5   6
ATOM      6  C   UNL A   1      29.435  26.922  23.612  1.00  0.00     0.159 C 
BRANCH   6   7
ATOM      7  N   UNL A   1      30.075  27.961  22.809  1.00  0.00    -0.352 N 
ATOM      8  C   UNL A   1      29.596  29.049  22.155  1.00  0.00     0.227 C 
ATOM      9  O   UNL A   1      30.421  29.672  21.474  1.00  0.00    -0.274 OA
ATOM     10  H   UNL A   1      31.051  27.848  22.725  1.00  0.00     0.163 HD
BRANCH   8  11
ATOM     11  C   UNL A   1      28.137  29.546  22.225  1.00  0.00     0.107 C 
ATOM     12  C   UNL A   1      28.074  31.996  22.123  1.00  0.00     0.205 C 
ATOM     13  C   UNL A   1      27.594  31.486  23.441  1.00  0.00     0.033 C 
ATOM     14  C   UNL A   1      27.966  30.733  21.255  1.00  0.00     0.087 C 
ATOM     15  C   UNL A   1      27.591  30.148  23.482  1.00  0.00    -0.012 C 
BRANCH  12  16
ATOM     16  N   UNL A   1      29.432  32.498  22.228  1.00  0.00    -0.352 N 
ATOM     17  H   UNL A   1      30.035  31.770  22.610  1.00  0.00     0.345 HD
ATOM     18  H   UNL A   1      29.448  33.311  22.844  1.00  0.00     0.345 HD
ATOM     19  H   UNL A   1      29.768  32.765  21.303  1.00  0.00     0.345 HD
ENDBRANCH  12  16
ENDBRANCH   8  11
ENDBRANCH   6   7
ENDBRANCH   5   6
BRANCH   5  20
ATOM     20  O   UNL A   1      29.704  25.956  25.819  1.00  0.00    -0.380 OA
ATOM     21  H   UNL A   1      29.809  25.010  26.004  1.00  0.00     0.211 HD
ENDBRANCH   5  20
ENDBRANCH   3   5
ENDBRANCH   2   3
ENDBRANCH   1   2
BRANCH   1  22
ATOM     22  C   UNL A   1      31.830  30.430  26.444  1.00  0.00     0.275 C 
BRANCH  22  23
ATOM     23  O   UNL A   1      33.238  30.741  26.399  1.00  0.00    -0.458 OA
BRANCH  23  24
ATOM     24  C   UNL A   1      33.649  31.738  27.218  1.00  0.00     0.338 C 
ATOM     25  O   UNL A   1      33.040  32.758  27.500  1.00  0.00    -0.246 OA
BRANCH  24  26
ATOM     26  C   UNL A   1      34.914  31.357  27.874  1.00  0.00     0.060 A 
ATOM     27  C   UNL A   1      35.028  30.055  28.371  1.00  0.00     0.016 A 
ATOM     28  C   UNL A   1      35.953  32.272  28.058  1.00  0.00     0.016 A 
ATOM     29  C   UNL A   1      36.164  29.666  29.071  1.00  0.00     0.010 A 
ATOM     30  C   UNL A   1      37.101  31.878  28.755  1.00  0.00     0.010 A 
ATOM     31  C   UNL A   1      37.207  30.577  29.278  1.00  0.00    -0.014 A 
BRANCH  31  32
ATOM     32  C   UNL A   1      38.381  30.161  30.082  1.00  0.00     0.031 A 
ATOM     33  C   UNL A   1      39.395  29.224  29.496  1.00  0.00     0.074 A 
ATOM     34  C   UNL A   1      38.556  30.666  31.317  1.00  0.00     0.049 A 
ATOM     35  N   UNL A   1      40.461  28.704  30.050  1.00  0.00    -0.248 NA
ATOM     36  C   UNL A   1      39.182  28.817  28.099  1.00  0.00     0.031 C 
ATOM     37  C   UNL A   1      37.666  31.626  31.969  1.00  0.00     0.029 A 
ATOM     38  N   UNL A   1      39.547  30.447  32.240  1.00  0.00    -0.354 N 
ATOM     39  C   UNL A   1      41.036  27.897  29.078  1.00  0.00     0.074 A 
ATOM     40  C   UNL A   1      40.191  27.978  27.906  1.00  0.00     0.031 C 
ATOM     41  C   UNL A   1      38.156  31.920  33.184  1.00  0.00     0.029 A 
ATOM     42  C   UNL A   1      39.364  31.134  33.413  1.00  0.00     0.049 A 
ATOM     43  H   UNL A   1      40.316  29.853  32.075  1.00  0.00     0.167 HD
ATOM     44  C   UNL A   1      42.168  27.159  29.160  1.00  0.00     0.037 A 
ATOM     45  C   UNL A   1      40.080  31.112  34.553  1.00  0.00     0.037 A 
ATOM     46  C   UNL A   1      43.015  27.097  30.323  1.00  0.00     0.049 A 
ATOM     47  C   UNL A   1      41.301  30.239  34.636  1.00  0.00     0.074 A 
ATOM     48  C   UNL A   1      44.188  26.385  30.501  1.00  0.00     0.029 A 
ATOM     49  N   UNL A   1      42.776  27.776  31.510  1.00  0.00    -0.354 N 
ATOM     50  N   UNL A   1      41.832  29.470  33.718  1.00  0.00    -0.248 NA
ATOM     51  C   UNL A   1      42.021  30.228  35.917  1.00  0.00     0.031 C 
ATOM     52  C   UNL A   1      44.638  26.601  31.809  1.00  0.00     0.029 A 
ATOM     53  C   UNL A   1      43.769  27.483  32.431  1.00  0.00     0.049 A 
ATOM     54  H   UNL A   1      42.014  28.378  31.672  1.00  0.00     0.167 HD
ATOM     55  C   UNL A   1      42.956  28.900  34.299  1.00  0.00     0.074 A 
ATOM     56  C   UNL A   1      43.040  29.425  35.646  1.00  0.00     0.031 C 
ATOM     57  C   UNL A   1      43.839  28.020  33.766  1.00  0.00     0.037 A 
BRANCH  44  58
ATOM     58  C   UNL A   1      42.543  26.332  27.966  1.00  0.00     0.064 A 
ATOM     59  C   UNL A   1      42.019  25.048  27.762  1.00  0.00     0.173 A 
ATOM     60  C   UNL A   1      43.414  26.848  26.995  1.00  0.00     0.173 A 
ATOM     61  F   UNL A   1      41.193  24.504  28.669  1.00  0.00    -0.203 F 
ATOM     62  C   UNL A   1      42.372  24.300  26.640  1.00  0.00     0.198 A 
ATOM     63  C   UNL A   1      43.746  26.108  25.863  1.00  0.00     0.198 A 
ATOM     64  F   UNL A   1      43.942  28.072  27.141  1.00  0.00    -0.203 F 
ATOM     65  F   UNL A   1      41.894  23.057  26.488  1.00  0.00    -0.200 F 
ATOM     66  C   UNL A   1      43.230  24.832  25.690  1.00  0.00     0.200 A 
ATOM     67  F   UNL A   1      44.567  26.628  24.941  1.00  0.00    -0.200 F 
ATOM     68  F   UNL A   1      43.566  24.114  24.610  1.00  0.00    -0.200 F 
ENDBRANCH  44  58
BRANCH  45  69
ATOM     69  C   UNL A   1      39.643  31.929  35.716  1.00  0.00     0.064 A 
ATOM     70  C   UNL A   1      40.232  33.170  35.992  1.00  0.00     0.173 A 
ATOM     71  C   UNL A   1      38.631  31.479  36.578  1.00  0.00     0.173 A 
ATOM     72  F   UNL A   1      41.224  33.628  35.213  1.00  0.00    -0.203 F 
ATOM     73  C   UNL A   1      39.835  33.925  37.094  1.00  0.00     0.198 A 
ATOM     74  C   UNL A   1      38.215  32.248  37.662  1.00  0.00     0.198 A 
ATOM     75  F   UNL A   1      38.039  30.296  36.359  1.00  0.00    -0.203 F 
ATOM     76  F   UNL A   1      40.446  35.086  37.362  1.00  0.00    -0.200 F 
ATOM     77  C   UNL A   1      38.823  33.467  37.924  1.00  0.00     0.200 A 
ATOM     78  F   UNL A   1      37.231  31.805  38.456  1.00  0.00    -0.200 F 
ATOM     79  F   UNL A   1      38.440  34.194  38.981  1.00  0.00    -0.200 F 
ENDBRANCH  45  69
BRANCH  57  80
ATOM     80  C   UNL A   1      44.986  27.592  34.632  1.00  0.00     0.064 A 
ATOM     81  C   UNL A   1      44.899  26.463  35.461  1.00  0.00     0.173 A 
ATOM     82  C   UNL A   1      46.197  28.299  34.606  1.00  0.00     0.173 A 
ATOM     83  F   UNL A   1      43.757  25.764  35.533  1.00  0.00    -0.203 F 
ATOM     84  C   UNL A   1      45.977  26.073  36.251  1.00  0.00     0.198 A 
ATOM     85  C   UNL A   1      47.282  27.890  35.376  1.00  0.00     0.198 A 
ATOM     86  F   UNL A   1      46.332  29.381  33.825  1.00  0.00    -0.203 F 
ATOM     87  F   UNL A   1      45.859  25.018  37.070  1.00  0.00    -0.200 F 
ATOM     88  C   UNL A   1      47.169  26.782  36.203  1.00  0.00     0.200 A 
ATOM     89  F   UNL A   1      48.436  28.568  35.321  1.00  0.00    -0.200 F 
ATOM     90  F   UNL A   1      48.207  26.401  36.961  1.00  0.00    -0.200 F 
ENDBRANCH  57  80
ENDBRANCH  31  32
ENDBRANCH  24  26
ENDBRANCH  23  24
ENDBRANCH  22  23
ENDBRANCH   1  22
TORSDOF 16
ENDMDL
