MODEL 1
REMARK VINA RESULT:     -11.1      0.000      0.000
REMARK SMILES CCCCCCNC(=O)Oc1cccc(-c2ccc([C@@H](C)C(=O)OCCOC(=O)c3ccc(-c4c5nc(c(-c6c(F)c(F)c(F)c(F)c6F)c6ccc([nH]6)c(-c6c(F)c(F)c(F)c(F)c6F)c6nc(c(-c7c(F)c(F)c(F)c(F)c7F)c7ccc4[nH]7)C=C6)C=C5)cc3)cc2N)c1
REMARK SMILES IDX 20 1 21 2 19 3 16 4 17 5 94 6 18 7 93 8 15 9 11 10 12 11
REMARK SMILES IDX 96 12 13 13 14 14 10 15 8 16 7 17 9 19 6 20 5 21 4 22 3 23
REMARK SMILES IDX 2 24 1 25 95 26 22 29 23 30 24 31 25 32 26 33 27 34 28 35
REMARK SMILES IDX 29 36 30 37 31 38 92 39 32 40 91 41 33 42 34 43 35 44 85 45
REMARK SMILES IDX 36 46 90 47 84 48 86 49 37 50 89 51 83 52 82 53 38 55 70 56
REMARK SMILES IDX 50 57 69 58 51 59 54 60 68 61 87 62 52 63 53 64 67 66 88 67
REMARK SMILES IDX 55 68 39 69 40 70 48 71 41 72 42 73 46 74 49 75 43 76 44 77
REMARK SMILES IDX 47 78 45 79 71 80 72 81 80 82 73 83 74 84 78 85 81 86 75 87
REMARK SMILES IDX 76 88 79 89 77 90 56 91 57 92 65 93 58 94 59 95 63 96 66 97
REMARK SMILES IDX 60 98 61 99 64 100 62 101
REMARK H PARENT 7 18 95 27 95 28 86 54 54 65
REMARK Flexibility Score: inf
ROOT
ATOM      1  C   UNL A   1      35.557  32.973  28.679  1.00  0.00     0.126 C 
ATOM      2  C   UNL A   1      37.076  33.065  28.549  1.00  0.00     0.025 C 
ENDROOT
BRANCH   1   3
ATOM      3  C   UNL A   1      34.992  31.702  28.063  1.00  0.00    -0.032 A 
ATOM      4  C   UNL A   1      33.872  29.359  26.905  1.00  0.00     0.005 A 
ATOM      5  C   UNL A   1      35.207  29.395  27.351  1.00  0.00     0.011 A 
ATOM      6  C   UNL A   1      33.091  30.528  27.029  1.00  0.00     0.040 A 
ATOM      7  C   UNL A   1      35.757  30.542  27.924  1.00  0.00     0.005 A 
ATOM      8  C   UNL A   1      33.656  31.668  27.628  1.00  0.00     0.030 A 
BRANCH   4   9
ATOM      9  C   UNL A   1      33.353  28.104  26.325  1.00  0.00    -0.013 A 
ATOM     10  C   UNL A   1      33.091  26.566  24.467  1.00  0.00     0.133 A 
ATOM     11  C   UNL A   1      32.340  25.698  25.257  1.00  0.00     0.047 A 
ATOM     12  C   UNL A   1      33.596  27.760  24.985  1.00  0.00     0.056 A 
ATOM     13  C   UNL A   1      32.106  26.018  26.592  1.00  0.00     0.004 A 
ATOM     14  C   UNL A   1      32.606  27.212  27.118  1.00  0.00     0.009 A 
BRANCH  10  15
ATOM     15  O   UNL A   1      33.200  26.240  23.105  1.00  0.00    -0.410 OA
BRANCH  15  16
ATOM     16  C   UNL A   1      33.145  27.262  22.170  1.00  0.00     0.412 C 
ATOM     17  N   UNL A   1      31.866  27.655  21.880  1.00  0.00    -0.321 N 
ATOM     18  H   UNL A   1      31.769  28.393  21.235  1.00  0.00     0.167 HD
ATOM     19  O   UNL A   1      34.102  27.789  21.616  1.00  0.00    -0.224 OA
BRANCH  17  20
ATOM     20  C   UNL A   1      30.640  27.102  22.421  1.00  0.00     0.119 C 
BRANCH  20  21
ATOM     21  C   UNL A   1      29.915  28.088  23.334  1.00  0.00     0.021 C 
BRANCH  21  22
ATOM     22  C   UNL A   1      29.532  29.420  22.675  1.00  0.00     0.002 C 
BRANCH  22  23
ATOM     23  C   UNL A   1      28.052  29.809  22.775  1.00  0.00    -0.000 C 
BRANCH  23  24
ATOM     24  C   UNL A   1      27.765  31.129  23.493  1.00  0.00    -0.003 C 
ATOM     25  C   UNL A   1      28.413  32.333  22.829  1.00  0.00     0.004 C 
ENDBRANCH  23  24
ENDBRANCH  22  23
ENDBRANCH  21  22
ENDBRANCH  20  21
ENDBRANCH  17  20
ENDBRANCH  15  16
ENDBRANCH  10  15
ENDBRANCH   4   9
BRANCH   6  26
ATOM     26  N   UNL A   1      31.730  30.554  26.721  1.00  0.00    -0.398 N 
ATOM     27  H   UNL A   1      31.416  30.222  25.848  1.00  0.00     0.156 HD
ATOM     28  H   UNL A   1      31.083  30.903  27.377  1.00  0.00     0.156 HD
ENDBRANCH   6  26
ENDBRANCH   1   3
BRANCH   1  29
ATOM     29  C   UNL A   1      34.915  34.276  28.215  1.00  0.00     0.313 C 
ATOM     30  O   UNL A   1      34.779  34.550  27.026  1.00  0.00    -0.252 OA
BRANCH  29  31
ATOM     31  O   UNL A   1      34.473  35.059  29.234  1.00  0.00    -0.462 OA
BRANCH  31  32
ATOM     32  C   UNL A   1      33.660  36.196  28.885  1.00  0.00     0.274 C 
BRANCH  32  33
ATOM     33  C   UNL A   1      32.534  36.416  29.898  1.00  0.00     0.275 C 
BRANCH  33  34
ATOM     34  O   UNL A   1      32.475  35.340  30.851  1.00  0.00    -0.458 OA
BRANCH  34  35
ATOM     35  C   UNL A   1      32.674  35.709  32.138  1.00  0.00     0.338 C 
ATOM     36  O   UNL A   1      31.963  36.418  32.826  1.00  0.00    -0.246 OA
BRANCH  35  37
ATOM     37  C   UNL A   1      33.852  35.014  32.675  1.00  0.00     0.060 A 
ATOM     38  C   UNL A   1      35.097  35.621  32.502  1.00  0.00     0.016 A 
ATOM     39  C   UNL A   1      33.752  33.746  33.248  1.00  0.00     0.016 A 
ATOM     40  C   UNL A   1      36.257  34.955  32.880  1.00  0.00     0.010 A 
ATOM     41  C   UNL A   1      34.919  33.078  33.635  1.00  0.00     0.010 A 
ATOM     42  C   UNL A   1      36.177  33.671  33.433  1.00  0.00    -0.014 A 
BRANCH  42  43
ATOM     43  C   UNL A   1      37.428  32.939  33.735  1.00  0.00     0.031 A 
ATOM     44  C   UNL A   1      38.167  33.216  35.010  1.00  0.00     0.074 A 
ATOM     45  C   UNL A   1      37.871  31.995  32.886  1.00  0.00     0.049 A 
ATOM     46  N   UNL A   1      39.273  32.678  35.462  1.00  0.00    -0.248 NA
ATOM     47  C   UNL A   1      37.587  34.235  35.896  1.00  0.00     0.031 C 
ATOM     48  C   UNL A   1      37.222  31.623  31.631  1.00  0.00     0.029 A 
ATOM     49  N   UNL A   1      38.969  31.175  32.957  1.00  0.00    -0.354 N 
ATOM     50  C   UNL A   1      39.527  33.301  36.675  1.00  0.00     0.074 A 
ATOM     51  C   UNL A   1      38.474  34.275  36.879  1.00  0.00     0.031 C 
ATOM     52  C   UNL A   1      37.934  30.646  31.046  1.00  0.00     0.029 A 
ATOM     53  C   UNL A   1      39.101  30.345  31.872  1.00  0.00     0.049 A 
ATOM     54  H   UNL A   1      39.600  31.182  33.711  1.00  0.00     0.167 HD
ATOM     55  C   UNL A   1      40.542  33.075  37.542  1.00  0.00     0.037 A 
ATOM     56  C   UNL A   1      40.063  29.452  31.574  1.00  0.00     0.037 A 
ATOM     57  C   UNL A   1      41.582  32.100  37.340  1.00  0.00     0.049 A 
ATOM     58  C   UNL A   1      41.194  29.237  32.538  1.00  0.00     0.074 A 
ATOM     59  C   UNL A   1      42.640  31.778  38.173  1.00  0.00     0.029 A 
ATOM     60  N   UNL A   1      41.695  31.289  36.220  1.00  0.00    -0.354 N 
ATOM     61  N   UNL A   1      41.416  29.814  33.694  1.00  0.00    -0.248 NA
ATOM     62  C   UNL A   1      42.208  28.242  32.161  1.00  0.00     0.031 C 
ATOM     63  C   UNL A   1      43.416  30.802  37.538  1.00  0.00     0.029 A 
ATOM     64  C   UNL A   1      42.817  30.483  36.328  1.00  0.00     0.049 A 
ATOM     65  H   UNL A   1      41.069  31.287  35.459  1.00  0.00     0.167 HD
ATOM     66  C   UNL A   1      42.583  29.249  34.188  1.00  0.00     0.074 A 
ATOM     67  C   UNL A   1      43.016  28.268  33.212  1.00  0.00     0.031 C 
ATOM     68  C   UNL A   1      43.237  29.518  35.344  1.00  0.00     0.037 A 
BRANCH  55  69
ATOM     69  C   UNL A   1      40.588  33.925  38.777  1.00  0.00     0.064 A 
ATOM     70  C   UNL A   1      41.306  35.130  38.818  1.00  0.00     0.173 A 
ATOM     71  C   UNL A   1      39.902  33.531  39.936  1.00  0.00     0.173 A 
ATOM     72  F   UNL A   1      41.991  35.544  37.741  1.00  0.00    -0.203 F 
ATOM     73  C   UNL A   1      41.363  35.891  39.983  1.00  0.00     0.198 A 
ATOM     74  C   UNL A   1      39.940  34.307  41.090  1.00  0.00     0.198 A 
ATOM     75  F   UNL A   1      39.198  32.389  39.948  1.00  0.00    -0.203 F 
ATOM     76  F   UNL A   1      42.098  37.011  40.015  1.00  0.00    -0.200 F 
ATOM     77  C   UNL A   1      40.676  35.482  41.116  1.00  0.00     0.200 A 
ATOM     78  F   UNL A   1      39.270  33.914  42.183  1.00  0.00    -0.200 F 
ATOM     79  F   UNL A   1      40.735  36.213  42.238  1.00  0.00    -0.200 F 
ENDBRANCH  55  69
BRANCH  56  80
ATOM     80  C   UNL A   1      39.984  28.701  30.296  1.00  0.00     0.064 A 
ATOM     81  C   UNL A   1      40.540  29.217  29.119  1.00  0.00     0.173 A 
ATOM     82  C   UNL A   1      39.381  27.436  30.239  1.00  0.00     0.173 A 
ATOM     83  F   UNL A   1      41.106  30.433  29.122  1.00  0.00    -0.203 F 
ATOM     84  C   UNL A   1      40.496  28.494  27.929  1.00  0.00     0.198 A 
ATOM     85  C   UNL A   1      39.358  26.704  29.054  1.00  0.00     0.198 A 
ATOM     86  F   UNL A   1      38.836  26.902  31.341  1.00  0.00    -0.203 F 
ATOM     87  F   UNL A   1      41.013  29.018  26.809  1.00  0.00    -0.200 F 
ATOM     88  C   UNL A   1      39.913  27.234  27.900  1.00  0.00     0.200 A 
ATOM     89  F   UNL A   1      38.805  25.484  29.033  1.00  0.00    -0.200 F 
ATOM     90  F   UNL A   1      39.885  26.534  26.758  1.00  0.00    -0.200 F 
ENDBRANCH  56  80
BRANCH  68  91
ATOM     91  C   UNL A   1      44.485  28.734  35.624  1.00  0.00     0.064 A 
ATOM     92  C   UNL A   1      45.746  29.197  35.220  1.00  0.00     0.173 A 
ATOM     93  C   UNL A   1      44.424  27.528  36.338  1.00  0.00     0.173 A 
ATOM     94  F   UNL A   1      45.854  30.337  34.521  1.00  0.00    -0.203 F 
ATOM     95  C   UNL A   1      46.899  28.470  35.505  1.00  0.00     0.198 A 
ATOM     96  C   UNL A   1      45.580  26.816  36.641  1.00  0.00     0.198 A 
ATOM     97  F   UNL A   1      43.242  27.047  36.751  1.00  0.00    -0.203 F 
ATOM     98  F   UNL A   1      48.090  28.911  35.076  1.00  0.00    -0.200 F 
ATOM     99  C   UNL A   1      46.816  27.285  36.220  1.00  0.00     0.200 A 
ATOM    100  F   UNL A   1      45.499  25.676  37.342  1.00  0.00    -0.200 F 
ATOM    101  F   UNL A   1      47.928  26.589  36.498  1.00  0.00    -0.200 F 
ENDBRANCH  68  91
ENDBRANCH  42  43
ENDBRANCH  35  37
ENDBRANCH  34  35
ENDBRANCH  33  34
ENDBRANCH  32  33
ENDBRANCH  31  32
ENDBRANCH  29  31
ENDBRANCH   1  29
TORSDOF 21
ENDMDL
MODEL 2
REMARK VINA RESULT:     -11.0      2.880      4.628
REMARK SMILES CCCCCCNC(=O)Oc1cccc(-c2ccc([C@@H](C)C(=O)OCCOC(=O)c3ccc(-c4c5nc(c(-c6c(F)c(F)c(F)c(F)c6F)c6ccc([nH]6)c(-c6c(F)c(F)c(F)c(F)c6F)c6nc(c(-c7c(F)c(F)c(F)c(F)c7F)c7ccc4[nH]7)C=C6)C=C5)cc3)cc2N)c1
REMARK SMILES IDX 20 1 21 2 19 3 16 4 17 5 94 6 18 7 93 8 15 9 11 10 12 11
REMARK SMILES IDX 96 12 13 13 14 14 10 15 8 16 7 17 9 19 6 20 5 21 4 22 3 23
REMARK SMILES IDX 2 24 1 25 95 26 22 29 23 30 24 31 25 32 26 33 27 34 28 35
REMARK SMILES IDX 29 36 30 37 31 38 92 39 32 40 91 41 33 42 34 43 35 44 85 45
REMARK SMILES IDX 36 46 90 47 84 48 86 49 37 50 89 51 83 52 82 53 38 55 70 56
REMARK SMILES IDX 50 57 69 58 51 59 54 60 68 61 87 62 52 63 53 64 67 66 88 67
REMARK SMILES IDX 55 68 39 69 40 70 48 71 41 72 42 73 46 74 49 75 43 76 44 77
REMARK SMILES IDX 47 78 45 79 71 80 72 81 80 82 73 83 74 84 78 85 81 86 75 87
REMARK SMILES IDX 76 88 79 89 77 90 56 91 57 92 65 93 58 94 59 95 63 96 66 97
REMARK SMILES IDX 60 98 61 99 64 100 62 101
REMARK H PARENT 7 18 95 27 95 28 86 54 54 65
REMARK Flexibility Score: inf
ROOT
ATOM      1  C   UNL A   1      32.766  28.904  27.011  1.00  0.00     0.126 C 
ATOM      2  C   UNL A   1      34.215  29.318  27.263  1.00  0.00     0.025 C 
ENDROOT
BRANCH   1   3
ATOM      3  C   UNL A   1      32.651  27.514  26.402  1.00  0.00    -0.032 A 
ATOM      4  C   UNL A   1      32.368  24.913  25.288  1.00  0.00     0.005 A 
ATOM      5  C   UNL A   1      33.583  25.620  25.212  1.00  0.00     0.011 A 
ATOM      6  C   UNL A   1      31.269  25.533  25.923  1.00  0.00     0.040 A 
ATOM      7  C   UNL A   1      33.726  26.894  25.762  1.00  0.00     0.005 A 
ATOM      8  C   UNL A   1      31.438  26.809  26.489  1.00  0.00     0.030 A 
BRANCH   4   9
ATOM      9  C   UNL A   1      32.297  23.561  24.699  1.00  0.00    -0.013 A 
ATOM     10  C   UNL A   1      32.458  21.147  24.884  1.00  0.00     0.133 A 
ATOM     11  C   UNL A   1      32.155  20.996  23.533  1.00  0.00     0.047 A 
ATOM     12  C   UNL A   1      32.532  22.411  25.472  1.00  0.00     0.056 A 
ATOM     13  C   UNL A   1      31.903  22.126  22.759  1.00  0.00     0.004 A 
ATOM     14  C   UNL A   1      31.978  23.396  23.338  1.00  0.00     0.009 A 
BRANCH  10  15
ATOM     15  O   UNL A   1      32.807  19.980  25.584  1.00  0.00    -0.410 OA
BRANCH  15  16
ATOM     16  C   UNL A   1      33.495  18.981  24.912  1.00  0.00     0.412 C 
ATOM     17  N   UNL A   1      34.845  19.201  24.862  1.00  0.00    -0.321 N 
ATOM     18  H   UNL A   1      35.387  18.512  24.413  1.00  0.00     0.167 HD
ATOM     19  O   UNL A   1      33.002  17.992  24.385  1.00  0.00    -0.224 OA
BRANCH  17  20
ATOM     20  C   UNL A   1      35.564  20.339  25.400  1.00  0.00     0.119 C 
BRANCH  20  21
ATOM     21  C   UNL A   1      37.029  20.355  24.967  1.00  0.00     0.021 C 
BRANCH  21  22
ATOM     22  C   UNL A   1      37.812  21.610  25.374  1.00  0.00     0.002 C 
BRANCH  22  23
ATOM     23  C   UNL A   1      37.158  22.948  25.009  1.00  0.00    -0.000 C 
BRANCH  23  24
ATOM     24  C   UNL A   1      36.935  23.186  23.513  1.00  0.00    -0.003 C 
ATOM     25  C   UNL A   1      35.467  23.264  23.125  1.00  0.00     0.004 C 
ENDBRANCH  23  24
ENDBRANCH  22  23
ENDBRANCH  21  22
ENDBRANCH  20  21
ENDBRANCH  17  20
ENDBRANCH  15  16
ENDBRANCH  10  15
ENDBRANCH   4   9
BRANCH   6  26
ATOM     26  N   UNL A   1      30.063  24.869  26.147  1.00  0.00    -0.398 N 
ATOM     27  H   UNL A   1      29.220  25.251  25.809  1.00  0.00     0.156 HD
ATOM     28  H   UNL A   1      30.054  24.018  26.641  1.00  0.00     0.156 HD
ENDBRANCH   6  26
ENDBRANCH   1   3
BRANCH   1  29
ATOM     29  C   UNL A   1      32.028  30.014  26.271  1.00  0.00     0.313 C 
ATOM     30  O   UNL A   1      31.884  30.002  25.051  1.00  0.00    -0.252 OA
BRANCH  29  31
ATOM     31  O   UNL A   1      31.513  30.967  27.091  1.00  0.00    -0.462 OA
BRANCH  31  32
ATOM     32  C   UNL A   1      31.556  32.329  26.623  1.00  0.00     0.274 C 
BRANCH  32  33
ATOM     33  C   UNL A   1      32.726  33.100  27.238  1.00  0.00     0.275 C 
BRANCH  33  34
ATOM     34  O   UNL A   1      32.270  34.022  28.244  1.00  0.00    -0.458 OA
BRANCH  34  35
ATOM     35  C   UNL A   1      33.157  34.988  28.574  1.00  0.00     0.338 C 
ATOM     36  O   UNL A   1      33.059  36.186  28.380  1.00  0.00    -0.246 OA
BRANCH  35  37
ATOM     37  C   UNL A   1      34.262  34.403  29.346  1.00  0.00     0.060 A 
ATOM     38  C   UNL A   1      35.556  34.554  28.845  1.00  0.00     0.016 A 
ATOM     39  C   UNL A   1      34.026  33.634  30.486  1.00  0.00     0.016 A 
ATOM     40  C   UNL A   1      36.625  33.919  29.466  1.00  0.00     0.010 A 
ATOM     41  C   UNL A   1      35.103  33.000  31.117  1.00  0.00     0.010 A 
ATOM     42  C   UNL A   1      36.403  33.123  30.597  1.00  0.00    -0.014 A 
BRANCH  42  43
ATOM     43  C   UNL A   1      37.538  32.375  31.183  1.00  0.00     0.031 A 
ATOM     44  C   UNL A   1      38.015  32.703  32.567  1.00  0.00     0.074 A 
ATOM     45  C   UNL A   1      38.106  31.372  30.490  1.00  0.00     0.049 A 
ATOM     46  N   UNL A   1      38.985  32.162  33.260  1.00  0.00    -0.248 NA
ATOM     47  C   UNL A   1      37.308  33.787  33.263  1.00  0.00     0.031 C 
ATOM     48  C   UNL A   1      37.710  30.948  29.150  1.00  0.00     0.029 A 
ATOM     49  N   UNL A   1      39.134  30.528  30.824  1.00  0.00    -0.354 N 
ATOM     50  C   UNL A   1      39.013  32.846  34.467  1.00  0.00     0.074 A 
ATOM     51  C   UNL A   1      37.980  33.859  34.403  1.00  0.00     0.031 C 
ATOM     52  C   UNL A   1      38.487  29.919  28.772  1.00  0.00     0.029 A 
ATOM     53  C   UNL A   1      39.450  29.634  29.832  1.00  0.00     0.049 A 
ATOM     54  H   UNL A   1      39.601  30.560  31.689  1.00  0.00     0.167 HD
ATOM     55  C   UNL A   1      39.823  32.642  35.532  1.00  0.00     0.037 A 
ATOM     56  C   UNL A   1      40.417  28.699  29.781  1.00  0.00     0.037 A 
ATOM     57  C   UNL A   1      40.844  31.628  35.596  1.00  0.00     0.049 A 
ATOM     58  C   UNL A   1      41.322  28.508  30.965  1.00  0.00     0.074 A 
ATOM     59  C   UNL A   1      41.699  31.325  36.641  1.00  0.00     0.029 A 
ATOM     60  N   UNL A   1      41.149  30.751  34.563  1.00  0.00    -0.354 N 
ATOM     61  N   UNL A   1      41.328  29.144  32.111  1.00  0.00    -0.248 NA
ATOM     62  C   UNL A   1      42.352  27.465  30.852  1.00  0.00     0.031 C 
ATOM     63  C   UNL A   1      42.549  30.293  36.227  1.00  0.00     0.029 A 
ATOM     64  C   UNL A   1      42.195  29.923  34.938  1.00  0.00     0.049 A 
ATOM     65  H   UNL A   1      40.690  30.724  33.693  1.00  0.00     0.167 HD
ATOM     66  C   UNL A   1      42.348  28.575  32.860  1.00  0.00     0.074 A 
ATOM     67  C   UNL A   1      42.931  27.529  32.043  1.00  0.00     0.031 C 
ATOM     68  C   UNL A   1      42.766  28.892  34.110  1.00  0.00     0.037 A 
BRANCH  55  69
ATOM     69  C   UNL A   1      39.653  33.559  36.707  1.00  0.00     0.064 A 
ATOM     70  C   UNL A   1      40.334  34.782  36.793  1.00  0.00     0.173 A 
ATOM     71  C   UNL A   1      38.793  33.211  37.760  1.00  0.00     0.173 A 
ATOM     72  F   UNL A   1      41.179  35.154  35.820  1.00  0.00    -0.203 F 
ATOM     73  C   UNL A   1      40.186  35.608  37.906  1.00  0.00     0.198 A 
ATOM     74  C   UNL A   1      38.627  34.050  38.857  1.00  0.00     0.198 A 
ATOM     75  F   UNL A   1      38.115  32.054  37.724  1.00  0.00    -0.203 F 
ATOM     76  F   UNL A   1      40.888  36.746  37.991  1.00  0.00    -0.200 F 
ATOM     77  C   UNL A   1      39.331  35.244  38.934  1.00  0.00     0.200 A 
ATOM     78  F   UNL A   1      37.794  33.701  39.848  1.00  0.00    -0.200 F 
ATOM     79  F   UNL A   1      39.193  36.037  40.006  1.00  0.00    -0.200 F 
ENDBRANCH  55  69
BRANCH  56  80
ATOM     80  C   UNL A   1      40.568  27.879  28.553  1.00  0.00     0.064 A 
ATOM     81  C   UNL A   1      39.916  26.646  28.423  1.00  0.00     0.173 A 
ATOM     82  C   UNL A   1      41.340  28.332  27.473  1.00  0.00     0.173 A 
ATOM     83  F   UNL A   1      39.188  26.162  29.439  1.00  0.00    -0.203 F 
ATOM     84  C   UNL A   1      40.031  25.895  27.255  1.00  0.00     0.198 A 
ATOM     85  C   UNL A   1      41.434  27.592  26.297  1.00  0.00     0.198 A 
ATOM     86  F   UNL A   1      41.981  29.507  27.552  1.00  0.00    -0.203 F 
ATOM     87  F   UNL A   1      39.419  24.708  27.162  1.00  0.00    -0.200 F 
ATOM     88  C   UNL A   1      40.782  26.373  26.190  1.00  0.00     0.200 A 
ATOM     89  F   UNL A   1      42.151  28.061  25.267  1.00  0.00    -0.200 F 
ATOM     90  F   UNL A   1      40.879  25.656  25.062  1.00  0.00    -0.200 F 
ENDBRANCH  56  80
BRANCH  68  91
ATOM     91  C   UNL A   1      43.901  28.090  34.677  1.00  0.00     0.064 A 
ATOM     92  C   UNL A   1      45.233  28.498  34.521  1.00  0.00     0.173 A 
ATOM     93  C   UNL A   1      43.650  26.925  35.417  1.00  0.00     0.173 A 
ATOM     94  F   UNL A   1      45.524  29.597  33.808  1.00  0.00    -0.203 F 
ATOM     95  C   UNL A   1      46.276  27.757  35.071  1.00  0.00     0.198 A 
ATOM     96  C   UNL A   1      44.693  26.200  35.985  1.00  0.00     0.198 A 
ATOM     97  F   UNL A   1      42.392  26.497  35.598  1.00  0.00    -0.203 F 
ATOM     98  F   UNL A   1      47.545  28.143  34.878  1.00  0.00    -0.200 F 
ATOM     99  C   UNL A   1      46.005  26.613  35.807  1.00  0.00     0.200 A 
ATOM    100  F   UNL A   1      44.429  25.100  36.704  1.00  0.00    -0.200 F 
ATOM    101  F   UNL A   1      47.010  25.904  36.340  1.00  0.00    -0.200 F 
ENDBRANCH  68  91
ENDBRANCH  42  43
ENDBRANCH  35  37
ENDBRANCH  34  35
ENDBRANCH  33  34
ENDBRANCH  32  33
ENDBRANCH  31  32
ENDBRANCH  29  31
ENDBRANCH   1  29
TORSDOF 21
ENDMDL
MODEL 3
REMARK VINA RESULT:     -11.0      4.287     10.307
REMARK SMILES CCCCCCNC(=O)Oc1cccc(-c2ccc([C@@H](C)C(=O)OCCOC(=O)c3ccc(-c4c5nc(c(-c6c(F)c(F)c(F)c(F)c6F)c6ccc([nH]6)c(-c6c(F)c(F)c(F)c(F)c6F)c6nc(c(-c7c(F)c(F)c(F)c(F)c7F)c7ccc4[nH]7)C=C6)C=C5)cc3)cc2N)c1
REMARK SMILES IDX 20 1 21 2 19 3 16 4 17 5 94 6 18 7 93 8 15 9 11 10 12 11
REMARK SMILES IDX 96 12 13 13 14 14 10 15 8 16 7 17 9 19 6 20 5 21 4 22 3 23
REMARK SMILES IDX 2 24 1 25 95 26 22 29 23 30 24 31 25 32 26 33 27 34 28 35
REMARK SMILES IDX 29 36 30 37 31 38 92 39 32 40 91 41 33 42 34 43 35 44 85 45
REMARK SMILES IDX 36 46 90 47 84 48 86 49 37 50 89 51 83 52 82 53 38 55 70 56
REMARK SMILES IDX 50 57 69 58 51 59 54 60 68 61 87 62 52 63 53 64 67 66 88 67
REMARK SMILES IDX 55 68 39 69 40 70 48 71 41 72 42 73 46 74 49 75 43 76 44 77
REMARK SMILES IDX 47 78 45 79 71 80 72 81 80 82 73 83 74 84 78 85 81 86 75 87
REMARK SMILES IDX 76 88 79 89 77 90 56 91 57 92 65 93 58 94 59 95 63 96 66 97
REMARK SMILES IDX 60 98 61 99 64 100 62 101
REMARK H PARENT 7 18 95 27 95 28 86 54 54 65
REMARK Flexibility Score: inf
ROOT
ATOM      1  C   UNL A   1      41.194  20.227  26.646  1.00  0.00     0.126 C 
ATOM      2  C   UNL A   1      41.586  18.911  25.979  1.00  0.00     0.025 C 
ENDROOT
BRANCH   1   3
ATOM      3  C   UNL A   1      39.846  20.747  26.171  1.00  0.00    -0.032 A 
ATOM      4  C   UNL A   1      37.338  21.782  25.317  1.00  0.00     0.005 A 
ATOM      5  C   UNL A   1      37.743  20.472  24.997  1.00  0.00     0.011 A 
ATOM      6  C   UNL A   1      38.218  22.592  26.068  1.00  0.00     0.040 A 
ATOM      7  C   UNL A   1      38.971  19.961  25.419  1.00  0.00     0.005 A 
ATOM      8  C   UNL A   1      39.442  22.053  26.501  1.00  0.00     0.030 A 
BRANCH   4   9
ATOM      9  C   UNL A   1      36.017  22.248  24.851  1.00  0.00    -0.013 A 
ATOM     10  C   UNL A   1      33.627  22.525  25.161  1.00  0.00     0.133 A 
ATOM     11  C   UNL A   1      33.511  23.149  23.921  1.00  0.00     0.047 A 
ATOM     12  C   UNL A   1      34.861  22.074  25.631  1.00  0.00     0.056 A 
ATOM     13  C   UNL A   1      34.651  23.343  23.145  1.00  0.00     0.004 A 
ATOM     14  C   UNL A   1      35.890  22.893  23.606  1.00  0.00     0.009 A 
BRANCH  10  15
ATOM     15  O   UNL A   1      32.429  22.262  25.846  1.00  0.00    -0.410 OA
BRANCH  15  16
ATOM     16  C   UNL A   1      32.218  22.867  27.076  1.00  0.00     0.412 C 
ATOM     17  N   UNL A   1      31.341  23.916  27.014  1.00  0.00    -0.321 N 
ATOM     18  H   UNL A   1      31.138  24.371  27.864  1.00  0.00     0.167 HD
ATOM     19  O   UNL A   1      32.742  22.552  28.137  1.00  0.00    -0.224 OA
BRANCH  17  20
ATOM     20  C   UNL A   1      30.677  24.429  25.832  1.00  0.00     0.119 C 
BRANCH  20  21
ATOM     21  C   UNL A   1      30.716  25.955  25.763  1.00  0.00     0.021 C 
BRANCH  21  22
ATOM     22  C   UNL A   1      31.942  26.602  26.421  1.00  0.00     0.002 C 
BRANCH  22  23
ATOM     23  C   UNL A   1      33.284  26.339  25.728  1.00  0.00    -0.000 C 
BRANCH  23  24
ATOM     24  C   UNL A   1      33.496  27.074  24.402  1.00  0.00    -0.003 C 
ATOM     25  C   UNL A   1      33.872  28.537  24.574  1.00  0.00     0.004 C 
ENDBRANCH  23  24
ENDBRANCH  22  23
ENDBRANCH  21  22
ENDBRANCH  20  21
ENDBRANCH  17  20
ENDBRANCH  15  16
ENDBRANCH  10  15
ENDBRANCH   4   9
BRANCH   6  26
ATOM     26  N   UNL A   1      37.858  23.859  26.528  1.00  0.00    -0.398 N 
ATOM     27  H   UNL A   1      37.231  24.413  26.008  1.00  0.00     0.156 HD
ATOM     28  H   UNL A   1      38.230  24.199  27.374  1.00  0.00     0.156 HD
ENDBRANCH   6  26
ENDBRANCH   1   3
BRANCH   1  29
ATOM     29  C   UNL A   1      42.351  21.217  26.566  1.00  0.00     0.313 C 
ATOM     30  O   UNL A   1      42.741  21.846  27.546  1.00  0.00    -0.252 OA
BRANCH  29  31
ATOM     31  O   UNL A   1      42.924  21.289  25.336  1.00  0.00    -0.462 OA
BRANCH  31  32
ATOM     32  C   UNL A   1      44.254  21.835  25.261  1.00  0.00     0.274 C 
BRANCH  32  33
ATOM     33  C   UNL A   1      44.338  22.978  24.246  1.00  0.00     0.275 C 
BRANCH  33  34
ATOM     34  O   UNL A   1      43.586  24.123  24.690  1.00  0.00    -0.458 OA
BRANCH  34  35
ATOM     35  C   UNL A   1      44.337  25.167  25.110  1.00  0.00     0.338 C 
ATOM     36  O   UNL A   1      45.398  25.552  24.655  1.00  0.00    -0.246 OA
BRANCH  35  37
ATOM     37  C   UNL A   1      43.619  25.899  26.163  1.00  0.00     0.060 A 
ATOM     38  C   UNL A   1      43.949  27.241  26.359  1.00  0.00     0.016 A 
ATOM     39  C   UNL A   1      42.713  25.257  27.008  1.00  0.00     0.016 A 
ATOM     40  C   UNL A   1      43.392  27.949  27.418  1.00  0.00     0.010 A 
ATOM     41  C   UNL A   1      42.147  25.972  28.070  1.00  0.00     0.010 A 
ATOM     42  C   UNL A   1      42.500  27.315  28.291  1.00  0.00    -0.014 A 
BRANCH  42  43
ATOM     43  C   UNL A   1      41.997  28.056  29.470  1.00  0.00     0.031 A 
ATOM     44  C   UNL A   1      40.700  28.804  29.385  1.00  0.00     0.074 A 
ATOM     45  C   UNL A   1      42.683  28.017  30.626  1.00  0.00     0.049 A 
ATOM     46  N   UNL A   1      40.086  29.507  30.304  1.00  0.00    -0.248 NA
ATOM     47  C   UNL A   1      40.000  28.757  28.094  1.00  0.00     0.031 C 
ATOM     48  C   UNL A   1      43.941  27.304  30.833  1.00  0.00     0.029 A 
ATOM     49  N   UNL A   1      42.413  28.589  31.843  1.00  0.00    -0.354 N 
ATOM     50  C   UNL A   1      38.936  29.995  29.699  1.00  0.00     0.074 A 
ATOM     51  C   UNL A   1      38.950  29.529  28.328  1.00  0.00     0.031 C 
ATOM     52  C   UNL A   1      44.336  27.478  32.104  1.00  0.00     0.029 A 
ATOM     53  C   UNL A   1      43.374  28.338  32.790  1.00  0.00     0.049 A 
ATOM     54  H   UNL A   1      41.609  29.127  32.021  1.00  0.00     0.167 HD
ATOM     55  C   UNL A   1      37.957  30.756  30.242  1.00  0.00     0.037 A 
ATOM     56  C   UNL A   1      43.472  28.765  34.062  1.00  0.00     0.037 A 
ATOM     57  C   UNL A   1      37.943  31.210  31.608  1.00  0.00     0.049 A 
ATOM     58  C   UNL A   1      42.387  29.631  34.636  1.00  0.00     0.074 A 
ATOM     59  C   UNL A   1      36.982  31.963  32.260  1.00  0.00     0.029 A 
ATOM     60  N   UNL A   1      38.944  30.951  32.535  1.00  0.00    -0.354 N 
ATOM     61  N   UNL A   1      41.292  30.070  34.065  1.00  0.00    -0.248 NA
ATOM     62  C   UNL A   1      42.546  30.057  36.033  1.00  0.00     0.031 C 
ATOM     63  C   UNL A   1      37.421  32.196  33.569  1.00  0.00     0.029 A 
ATOM     64  C   UNL A   1      38.636  31.551  33.746  1.00  0.00     0.049 A 
ATOM     65  H   UNL A   1      39.754  30.421  32.357  1.00  0.00     0.167 HD
ATOM     66  C   UNL A   1      40.627  30.812  35.030  1.00  0.00     0.074 A 
ATOM     67  C   UNL A   1      41.434  30.751  36.232  1.00  0.00     0.031 C 
ATOM     68  C   UNL A   1      39.454  31.485  34.929  1.00  0.00     0.037 A 
BRANCH  55  69
ATOM     69  C   UNL A   1      36.833  31.169  29.339  1.00  0.00     0.064 A 
ATOM     70  C   UNL A   1      36.729  32.476  28.840  1.00  0.00     0.173 A 
ATOM     71  C   UNL A   1      35.846  30.244  28.966  1.00  0.00     0.173 A 
ATOM     72  F   UNL A   1      37.639  33.402  29.179  1.00  0.00    -0.203 F 
ATOM     73  C   UNL A   1      35.661  32.850  28.027  1.00  0.00     0.198 A 
ATOM     74  C   UNL A   1      34.795  30.614  28.133  1.00  0.00     0.198 A 
ATOM     75  F   UNL A   1      35.900  28.981  29.414  1.00  0.00    -0.203 F 
ATOM     76  F   UNL A   1      35.555  34.118  27.605  1.00  0.00    -0.200 F 
ATOM     77  C   UNL A   1      34.698  31.919  27.671  1.00  0.00     0.200 A 
ATOM     78  F   UNL A   1      33.868  29.711  27.784  1.00  0.00    -0.200 F 
ATOM     79  F   UNL A   1      33.669  32.281  26.893  1.00  0.00    -0.200 F 
ENDBRANCH  55  69
BRANCH  56  80
ATOM     80  C   UNL A   1      44.654  28.371  34.870  1.00  0.00     0.064 A 
ATOM     81  C   UNL A   1      44.641  27.208  35.649  1.00  0.00     0.173 A 
ATOM     82  C   UNL A   1      45.831  29.134  34.846  1.00  0.00     0.173 A 
ATOM     83  F   UNL A   1      43.529  26.461  35.721  1.00  0.00    -0.203 F 
ATOM     84  C   UNL A   1      45.764  26.822  36.378  1.00  0.00     0.198 A 
ATOM     85  C   UNL A   1      46.961  28.734  35.555  1.00  0.00     0.198 A 
ATOM     86  F   UNL A   1      45.890  30.255  34.112  1.00  0.00    -0.203 F 
ATOM     87  F   UNL A   1      45.721  25.719  37.137  1.00  0.00    -0.200 F 
ATOM     88  C   UNL A   1      46.925  27.580  36.323  1.00  0.00     0.200 A 
ATOM     89  F   UNL A   1      48.083  29.462  35.491  1.00  0.00    -0.200 F 
ATOM     90  F   UNL A   1      48.009  27.199  37.013  1.00  0.00    -0.200 F 
ENDBRANCH  56  80
BRANCH  68  91
ATOM     91  C   UNL A   1      38.967  32.200  36.155  1.00  0.00     0.064 A 
ATOM     92  C   UNL A   1      38.164  31.555  37.107  1.00  0.00     0.173 A 
ATOM     93  C   UNL A   1      39.341  33.529  36.400  1.00  0.00     0.173 A 
ATOM     94  F   UNL A   1      37.768  30.289  36.910  1.00  0.00    -0.203 F 
ATOM     95  C   UNL A   1      37.736  32.223  38.252  1.00  0.00     0.198 A 
ATOM     96  C   UNL A   1      38.931  34.187  37.556  1.00  0.00     0.198 A 
ATOM     97  F   UNL A   1      40.113  34.187  35.522  1.00  0.00    -0.203 F 
ATOM     98  F   UNL A   1      36.937  31.601  39.130  1.00  0.00    -0.200 F 
ATOM     99  C   UNL A   1      38.125  33.536  38.478  1.00  0.00     0.200 A 
ATOM    100  F   UNL A   1      39.316  35.451  37.779  1.00  0.00    -0.200 F 
ATOM    101  F   UNL A   1      37.717  34.176  39.583  1.00  0.00    -0.200 F 
ENDBRANCH  68  91
ENDBRANCH  42  43
ENDBRANCH  35  37
ENDBRANCH  34  35
ENDBRANCH  33  34
ENDBRANCH  32  33
ENDBRANCH  31  32
ENDBRANCH  29  31
ENDBRANCH   1  29
TORSDOF 21
ENDMDL
