MODEL 1
REMARK VINA RESULT:     -12.0      0.000      0.000
REMARK SMILES O=C(OCCOC(=O)c1ccc(S(=O)(=O)Cc2ncccn2)c(F)c1)c1ccc(-c2c3nc(c(-c4c(F)c(F)c(F)c(F)c4F)c4ccc([nH]4)c(-c4c(F)c(F)c(F)c(F)c4F)c4nc(c(-c5c(F)c(F)c(F)c(F)c5F)c5ccc2[nH]5)C=C4)C=C3)cc1
REMARK SMILES IDX 5 1 4 2 3 3 2 4 1 5 26 6 27 7 88 8 28 9 87 10 29 11 30 12
REMARK SMILES IDX 31 13 81 14 32 15 86 16 80 17 82 18 33 19 85 20 79 21 78 22
REMARK SMILES IDX 34 24 66 25 46 26 65 27 47 28 50 29 64 30 83 31 48 32 49 33
REMARK SMILES IDX 63 35 84 36 51 37 35 38 36 39 44 40 37 41 38 42 42 43 45 44
REMARK SMILES IDX 39 45 40 46 43 47 41 48 67 49 68 50 76 51 69 52 70 53 74 54
REMARK SMILES IDX 77 55 71 56 72 57 75 58 73 59 52 60 53 61 61 62 54 63 55 64
REMARK SMILES IDX 59 65 62 66 56 67 57 68 60 69 58 70 6 71 7 72 8 73 9 74
REMARK SMILES IDX 10 75 25 76 11 77 23 78 12 79 24 80 13 81 14 82 15 83 16 84
REMARK SMILES IDX 17 85 18 86 22 87 19 88 21 89 20 90
REMARK H PARENT 82 23 50 34
REMARK Flexibility Score: inf
ROOT
ATOM      1  C   UNL A   1      33.073  31.740  27.230  1.00  0.00     0.275 C 
ENDROOT
BRANCH   1   2
ATOM      2  C   UNL A   1      31.925  32.749  27.302  1.00  0.00     0.275 C 
BRANCH   2   3
ATOM      3  O   UNL A   1      32.360  34.114  27.407  1.00  0.00    -0.458 OA
BRANCH   3   4
ATOM      4  C   UNL A   1      32.926  34.723  28.477  1.00  0.00     0.338 C 
ATOM      5  O   UNL A   1      32.519  35.828  28.829  1.00  0.00    -0.246 OA
BRANCH   4   6
ATOM      6  C   UNL A   1      34.184  34.218  29.105  1.00  0.00     0.060 A 
ATOM      7  C   UNL A   1      35.473  34.328  28.575  1.00  0.00     0.016 A 
ATOM      8  C   UNL A   1      34.027  33.532  30.321  1.00  0.00     0.016 A 
ATOM      9  C   UNL A   1      36.583  33.840  29.276  1.00  0.00     0.010 A 
ATOM     10  C   UNL A   1      35.132  33.060  31.032  1.00  0.00     0.010 A 
ATOM     11  C   UNL A   1      36.420  33.211  30.512  1.00  0.00    -0.014 A 
BRANCH  11  12
ATOM     12  C   UNL A   1      37.567  32.577  31.201  1.00  0.00     0.031 A 
ATOM     13  C   UNL A   1      38.174  31.347  30.593  1.00  0.00     0.074 A 
ATOM     14  C   UNL A   1      38.037  33.065  32.362  1.00  0.00     0.049 A 
ATOM     15  N   UNL A   1      39.147  30.595  31.036  1.00  0.00    -0.248 NA
ATOM     16  C   UNL A   1      37.619  30.915  29.299  1.00  0.00     0.031 C 
ATOM     17  C   UNL A   1      37.548  34.266  33.033  1.00  0.00     0.029 A 
ATOM     18  N   UNL A   1      38.998  32.576  33.212  1.00  0.00    -0.354 N 
ATOM     19  C   UNL A   1      39.336  29.623  30.067  1.00  0.00     0.074 A 
ATOM     20  C   UNL A   1      38.333  29.830  29.046  1.00  0.00     0.031 C 
ATOM     21  C   UNL A   1      38.141  34.370  34.235  1.00  0.00     0.029 A 
ATOM     22  C   UNL A   1      39.059  33.247  34.408  1.00  0.00     0.049 A 
ATOM     23  H   UNL A   1      39.585  31.820  32.985  1.00  0.00     0.167 HD
ATOM     24  C   UNL A   1      40.293  28.669  30.013  1.00  0.00     0.037 A 
ATOM     25  C   UNL A   1      39.757  32.967  35.525  1.00  0.00     0.037 A 
ATOM     26  C   UNL A   1      41.274  28.463  31.041  1.00  0.00     0.049 A 
ATOM     27  C   UNL A   1      40.722  31.816  35.514  1.00  0.00     0.074 A 
ATOM     28  C   UNL A   1      42.330  27.572  31.061  1.00  0.00     0.029 A 
ATOM     29  N   UNL A   1      41.297  29.149  32.247  1.00  0.00    -0.354 N 
ATOM     30  N   UNL A   1      40.975  30.965  34.548  1.00  0.00    -0.248 NA
ATOM     31  C   UNL A   1      41.526  31.603  36.725  1.00  0.00     0.031 C 
ATOM     32  C   UNL A   1      42.968  27.688  32.301  1.00  0.00     0.029 A 
ATOM     33  C   UNL A   1      42.333  28.679  33.035  1.00  0.00     0.049 A 
ATOM     34  H   UNL A   1      40.671  29.864  32.503  1.00  0.00     0.167 HD
ATOM     35  C   UNL A   1      41.997  30.151  35.011  1.00  0.00     0.074 A 
ATOM     36  C   UNL A   1      42.306  30.593  36.356  1.00  0.00     0.031 C 
ATOM     37  C   UNL A   1      42.636  29.145  34.366  1.00  0.00     0.037 A 
BRANCH  24  38
ATOM     38  C   UNL A   1      40.317  27.803  28.793  1.00  0.00     0.064 A 
ATOM     39  C   UNL A   1      41.059  28.175  27.664  1.00  0.00     0.173 A 
ATOM     40  C   UNL A   1      39.618  26.586  28.752  1.00  0.00     0.173 A 
ATOM     41  F   UNL A   1      41.746  29.327  27.653  1.00  0.00    -0.203 F 
ATOM     42  C   UNL A   1      41.107  27.354  26.539  1.00  0.00     0.198 A 
ATOM     43  C   UNL A   1      39.687  25.757  27.636  1.00  0.00     0.198 A 
ATOM     44  F   UNL A   1      38.908  26.179  29.816  1.00  0.00    -0.203 F 
ATOM     45  F   UNL A   1      41.821  27.728  25.469  1.00  0.00    -0.200 F 
ATOM     46  C   UNL A   1      40.430  26.143  26.530  1.00  0.00     0.200 A 
ATOM     47  F   UNL A   1      39.057  24.575  27.642  1.00  0.00    -0.200 F 
ATOM     48  F   UNL A   1      40.503  25.341  25.460  1.00  0.00    -0.200 F 
ENDBRANCH  24  38
BRANCH  25  49
ATOM     49  C   UNL A   1      39.570  33.814  36.730  1.00  0.00     0.064 A 
ATOM     50  C   UNL A   1      40.292  35.006  36.892  1.00  0.00     0.173 A 
ATOM     51  C   UNL A   1      38.710  33.426  37.763  1.00  0.00     0.173 A 
ATOM     52  F   UNL A   1      41.125  35.419  35.927  1.00  0.00    -0.203 F 
ATOM     53  C   UNL A   1      40.173  35.768  38.053  1.00  0.00     0.198 A 
ATOM     54  C   UNL A   1      38.579  34.197  38.917  1.00  0.00     0.198 A 
ATOM     55  F   UNL A   1      37.986  32.303  37.646  1.00  0.00    -0.203 F 
ATOM     56  F   UNL A   1      40.893  36.890  38.197  1.00  0.00    -0.200 F 
ATOM     57  C   UNL A   1      39.317  35.362  39.064  1.00  0.00     0.200 A 
ATOM     58  F   UNL A   1      37.742  33.810  39.890  1.00  0.00    -0.200 F 
ATOM     59  F   UNL A   1      39.203  36.093  40.182  1.00  0.00    -0.200 F 
ENDBRANCH  25  49
BRANCH  37  60
ATOM     60  C   UNL A   1      43.775  28.475  35.070  1.00  0.00     0.064 A 
ATOM     61  C   UNL A   1      45.086  28.939  34.882  1.00  0.00     0.173 A 
ATOM     62  C   UNL A   1      43.587  27.310  35.822  1.00  0.00     0.173 A 
ATOM     63  F   UNL A   1      45.313  30.049  34.162  1.00  0.00    -0.203 F 
ATOM     64  C   UNL A   1      46.172  28.241  35.399  1.00  0.00     0.198 A 
ATOM     65  C   UNL A   1      44.675  26.626  36.358  1.00  0.00     0.198 A 
ATOM     66  F   UNL A   1      42.350  26.837  36.040  1.00  0.00    -0.203 F 
ATOM     67  F   UNL A   1      47.419  28.676  35.167  1.00  0.00    -0.200 F 
ATOM     68  C   UNL A   1      45.966  27.084  36.133  1.00  0.00     0.200 A 
ATOM     69  F   UNL A   1      44.477  25.517  37.083  1.00  0.00    -0.200 F 
ATOM     70  F   UNL A   1      47.014  26.405  36.623  1.00  0.00    -0.200 F 
ENDBRANCH  37  60
ENDBRANCH  11  12
ENDBRANCH   4   6
ENDBRANCH   3   4
ENDBRANCH   2   3
ENDBRANCH   1   2
BRANCH   1  71
ATOM     71  O   UNL A   1      32.645  30.432  26.818  1.00  0.00    -0.458 OA
BRANCH  71  72
ATOM     72  C   UNL A   1      33.606  29.472  26.868  1.00  0.00     0.338 C 
ATOM     73  O   UNL A   1      34.778  29.607  27.170  1.00  0.00    -0.246 OA
BRANCH  72  74
ATOM     74  C   UNL A   1      32.973  28.163  26.640  1.00  0.00     0.063 A 
ATOM     75  C   UNL A   1      31.639  27.930  26.983  1.00  0.00     0.017 A 
ATOM     76  C   UNL A   1      33.768  27.136  26.130  1.00  0.00     0.056 A 
ATOM     77  C   UNL A   1      31.114  26.642  26.845  1.00  0.00     0.024 A 
ATOM     78  C   UNL A   1      33.258  25.841  26.077  1.00  0.00     0.142 A 
ATOM     79  C   UNL A   1      31.940  25.588  26.426  1.00  0.00     0.103 A 
ATOM     80  F   UNL A   1      34.104  24.848  25.781  1.00  0.00    -0.206 F 
BRANCH  79  81
ATOM     81  S   UNL A   1      31.285  23.947  26.473  1.00  0.00     0.188 S 
ATOM     82  O   UNL A   1      32.208  23.222  27.334  1.00  0.00    -0.223 OA
ATOM     83  O   UNL A   1      29.894  24.071  26.877  1.00  0.00    -0.223 OA
BRANCH  81  84
ATOM     84  C   UNL A   1      31.344  23.141  24.917  1.00  0.00     0.219 C 
BRANCH  84  85
ATOM     85  C   UNL A   1      32.299  21.999  24.872  1.00  0.00     0.143 A 
ATOM     86  N   UNL A   1      33.590  22.184  24.549  1.00  0.00    -0.240 NA
ATOM     87  N   UNL A   1      31.779  20.801  25.216  1.00  0.00    -0.240 NA
ATOM     88  C   UNL A   1      34.397  21.109  24.626  1.00  0.00     0.115 A 
ATOM     89  C   UNL A   1      32.626  19.758  25.276  1.00  0.00     0.115 A 
ATOM     90  C   UNL A   1      33.965  19.860  24.997  1.00  0.00     0.040 A 
ENDBRANCH  84  85
ENDBRANCH  81  84
ENDBRANCH  79  81
ENDBRANCH  72  74
ENDBRANCH  71  72
ENDBRANCH   1  71
TORSDOF 14
ENDMDL
MODEL 2
REMARK VINA RESULT:     -12.0      3.353      9.005
REMARK SMILES O=C(OCCOC(=O)c1ccc(S(=O)(=O)Cc2ncccn2)c(F)c1)c1ccc(-c2c3nc(c(-c4c(F)c(F)c(F)c(F)c4F)c4ccc([nH]4)c(-c4c(F)c(F)c(F)c(F)c4F)c4nc(c(-c5c(F)c(F)c(F)c(F)c5F)c5ccc2[nH]5)C=C4)C=C3)cc1
REMARK SMILES IDX 5 1 4 2 3 3 2 4 1 5 26 6 27 7 88 8 28 9 87 10 29 11 30 12
REMARK SMILES IDX 31 13 81 14 32 15 86 16 80 17 82 18 33 19 85 20 79 21 78 22
REMARK SMILES IDX 34 24 66 25 46 26 65 27 47 28 50 29 64 30 83 31 48 32 49 33
REMARK SMILES IDX 63 35 84 36 51 37 35 38 36 39 44 40 37 41 38 42 42 43 45 44
REMARK SMILES IDX 39 45 40 46 43 47 41 48 67 49 68 50 76 51 69 52 70 53 74 54
REMARK SMILES IDX 77 55 71 56 72 57 75 58 73 59 52 60 53 61 61 62 54 63 55 64
REMARK SMILES IDX 59 65 62 66 56 67 57 68 60 69 58 70 6 71 7 72 8 73 9 74
REMARK SMILES IDX 10 75 25 76 11 77 23 78 12 79 24 80 13 81 14 82 15 83 16 84
REMARK SMILES IDX 17 85 18 86 22 87 19 88 21 89 20 90
REMARK H PARENT 82 23 50 34
REMARK Flexibility Score: inf
ROOT
ATOM      1  C   UNL A   1      42.433  21.073  26.074  1.00  0.00     0.275 C 
ENDROOT
BRANCH   1   2
ATOM      2  C   UNL A   1      43.542  21.773  25.286  1.00  0.00     0.275 C 
BRANCH   2   3
ATOM      3  O   UNL A   1      43.143  23.034  24.722  1.00  0.00    -0.458 OA
BRANCH   3   4
ATOM      4  C   UNL A   1      43.621  24.264  25.026  1.00  0.00     0.338 C 
ATOM      5  O   UNL A   1      44.633  24.676  24.462  1.00  0.00    -0.246 OA
BRANCH   4   6
ATOM      6  C   UNL A   1      43.110  25.049  26.190  1.00  0.00     0.060 A 
ATOM      7  C   UNL A   1      42.095  24.659  27.067  1.00  0.00     0.016 A 
ATOM      8  C   UNL A   1      43.690  26.315  26.374  1.00  0.00     0.016 A 
ATOM      9  C   UNL A   1      41.724  25.472  28.146  1.00  0.00     0.010 A 
ATOM     10  C   UNL A   1      43.338  27.121  27.458  1.00  0.00     0.010 A 
ATOM     11  C   UNL A   1      42.348  26.703  28.353  1.00  0.00    -0.014 A 
BRANCH  11  12
ATOM     12  C   UNL A   1      41.877  27.628  29.409  1.00  0.00     0.031 A 
ATOM     13  C   UNL A   1      42.521  27.554  30.762  1.00  0.00     0.074 A 
ATOM     14  C   UNL A   1      40.873  28.492  29.180  1.00  0.00     0.049 A 
ATOM     15  N   UNL A   1      42.247  28.223  31.850  1.00  0.00    -0.248 NA
ATOM     16  C   UNL A   1      43.640  26.606  30.902  1.00  0.00     0.031 C 
ATOM     17  C   UNL A   1      40.190  28.674  27.902  1.00  0.00     0.029 A 
ATOM     18  N   UNL A   1      40.216  29.343  30.033  1.00  0.00    -0.354 N 
ATOM     19  C   UNL A   1      43.171  27.798  32.790  1.00  0.00     0.074 A 
ATOM     20  C   UNL A   1      43.970  26.762  32.174  1.00  0.00     0.031 C 
ATOM     21  C   UNL A   1      39.149  29.507  28.075  1.00  0.00     0.029 A 
ATOM     22  C   UNL A   1      39.104  29.922  29.475  1.00  0.00     0.049 A 
ATOM     23  H   UNL A   1      40.514  29.521  30.954  1.00  0.00     0.167 HD
ATOM     24  C   UNL A   1      43.366  28.266  34.044  1.00  0.00     0.037 A 
ATOM     25  C   UNL A   1      38.143  30.679  30.039  1.00  0.00     0.037 A 
ATOM     26  C   UNL A   1      42.558  29.285  34.651  1.00  0.00     0.049 A 
ATOM     27  C   UNL A   1      38.285  31.085  31.479  1.00  0.00     0.074 A 
ATOM     28  C   UNL A   1      42.705  29.882  35.889  1.00  0.00     0.029 A 
ATOM     29  N   UNL A   1      41.428  29.838  34.064  1.00  0.00    -0.354 N 
ATOM     30  N   UNL A   1      39.228  30.766  32.333  1.00  0.00    -0.248 NA
ATOM     31  C   UNL A   1      37.260  31.983  32.027  1.00  0.00     0.031 C 
ATOM     32  C   UNL A   1      41.636  30.767  36.070  1.00  0.00     0.029 A 
ATOM     33  C   UNL A   1      40.848  30.749  34.929  1.00  0.00     0.049 A 
ATOM     34  H   UNL A   1      41.091  29.616  33.166  1.00  0.00     0.167 HD
ATOM     35  C   UNL A   1      38.941  31.459  33.499  1.00  0.00     0.074 A 
ATOM     36  C   UNL A   1      37.721  32.201  33.253  1.00  0.00     0.031 C 
ATOM     37  C   UNL A   1      39.642  31.493  34.659  1.00  0.00     0.037 A 
BRANCH  24  38
ATOM     38  C   UNL A   1      44.509  27.681  34.815  1.00  0.00     0.064 A 
ATOM     39  C   UNL A   1      44.326  26.550  35.621  1.00  0.00     0.173 A 
ATOM     40  C   UNL A   1      45.796  28.235  34.736  1.00  0.00     0.173 A 
ATOM     41  F   UNL A   1      43.115  25.982  35.729  1.00  0.00    -0.203 F 
ATOM     42  C   UNL A   1      45.395  25.988  36.315  1.00  0.00     0.198 A 
ATOM     43  C   UNL A   1      46.867  27.657  35.411  1.00  0.00     0.198 A 
ATOM     44  F   UNL A   1      46.024  29.308  33.963  1.00  0.00    -0.203 F 
ATOM     45  F   UNL A   1      45.201  24.907  37.081  1.00  0.00    -0.200 F 
ATOM     46  C   UNL A   1      46.665  26.535  36.201  1.00  0.00     0.200 A 
ATOM     47  F   UNL A   1      48.098  28.170  35.275  1.00  0.00    -0.200 F 
ATOM     48  F   UNL A   1      47.699  25.973  36.843  1.00  0.00    -0.200 F 
ENDBRANCH  24  38
BRANCH  25  49
ATOM     49  C   UNL A   1      36.981  31.108  29.222  1.00  0.00     0.064 A 
ATOM     50  C   UNL A   1      36.876  32.426  28.754  1.00  0.00     0.173 A 
ATOM     51  C   UNL A   1      35.931  30.227  28.935  1.00  0.00     0.173 A 
ATOM     52  F   UNL A   1      37.859  33.303  29.001  1.00  0.00    -0.203 F 
ATOM     53  C   UNL A   1      35.754  32.852  28.046  1.00  0.00     0.198 A 
ATOM     54  C   UNL A   1      34.816  30.650  28.213  1.00  0.00     0.198 A 
ATOM     55  F   UNL A   1      35.994  28.953  29.347  1.00  0.00    -0.203 F 
ATOM     56  F   UNL A   1      35.664  34.124  27.633  1.00  0.00    -0.200 F 
ATOM     57  C   UNL A   1      34.725  31.964  27.777  1.00  0.00     0.200 A 
ATOM     58  F   UNL A   1      33.827  29.787  27.943  1.00  0.00    -0.200 F 
ATOM     59  F   UNL A   1      33.644  32.373  27.098  1.00  0.00    -0.200 F 
ENDBRANCH  25  49
BRANCH  37  60
ATOM     60  C   UNL A   1      39.154  32.400  35.745  1.00  0.00     0.064 A 
ATOM     61  C   UNL A   1      39.655  33.707  35.846  1.00  0.00     0.173 A 
ATOM     62  C   UNL A   1      38.293  31.942  36.749  1.00  0.00     0.173 A 
ATOM     63  F   UNL A   1      40.489  34.185  34.909  1.00  0.00    -0.203 F 
ATOM     64  C   UNL A   1      39.335  34.512  36.933  1.00  0.00     0.198 A 
ATOM     65  C   UNL A   1      37.956  32.759  37.824  1.00  0.00     0.198 A 
ATOM     66  F   UNL A   1      37.778  30.704  36.686  1.00  0.00    -0.203 F 
ATOM     67  F   UNL A   1      39.863  35.741  37.035  1.00  0.00    -0.200 F 
ATOM     68  C   UNL A   1      38.488  34.038  37.922  1.00  0.00     0.200 A 
ATOM     69  F   UNL A   1      37.124  32.308  38.773  1.00  0.00    -0.200 F 
ATOM     70  F   UNL A   1      38.188  34.810  38.976  1.00  0.00    -0.200 F 
ENDBRANCH  37  60
ENDBRANCH  11  12
ENDBRANCH   4   6
ENDBRANCH   3   4
ENDBRANCH   2   3
ENDBRANCH   1   2
BRANCH   1  71
ATOM     71  O   UNL A   1      41.116  21.469  25.660  1.00  0.00    -0.458 OA
BRANCH  71  72
ATOM     72  C   UNL A   1      40.210  21.585  26.667  1.00  0.00     0.338 C 
ATOM     73  O   UNL A   1      40.407  21.472  27.863  1.00  0.00    -0.246 OA
BRANCH  72  74
ATOM     74  C   UNL A   1      38.930  22.032  26.095  1.00  0.00     0.063 A 
ATOM     75  C   UNL A   1      38.491  23.351  26.235  1.00  0.00     0.017 A 
ATOM     76  C   UNL A   1      38.130  21.079  25.464  1.00  0.00     0.056 A 
ATOM     77  C   UNL A   1      37.221  23.702  25.767  1.00  0.00     0.024 A 
ATOM     78  C   UNL A   1      36.836  21.420  25.078  1.00  0.00     0.142 A 
ATOM     79  C   UNL A   1      36.379  22.721  25.221  1.00  0.00     0.103 A 
ATOM     80  F   UNL A   1      36.026  20.438  24.667  1.00  0.00    -0.206 F 
BRANCH  79  81
ATOM     81  S   UNL A   1      34.712  23.172  24.842  1.00  0.00     0.188 S 
ATOM     82  O   UNL A   1      34.376  22.347  23.692  1.00  0.00    -0.223 OA
ATOM     83  O   UNL A   1      33.953  23.010  26.072  1.00  0.00    -0.223 OA
BRANCH  81  84
ATOM     84  C   UNL A   1      34.556  24.834  24.306  1.00  0.00     0.219 C 
BRANCH  84  85
ATOM     85  C   UNL A   1      33.424  25.563  24.944  1.00  0.00     0.143 A 
ATOM     86  N   UNL A   1      33.610  26.310  26.045  1.00  0.00    -0.240 NA
ATOM     87  N   UNL A   1      32.236  25.443  24.313  1.00  0.00    -0.240 NA
ATOM     88  C   UNL A   1      32.547  27.005  26.495  1.00  0.00     0.115 A 
ATOM     89  C   UNL A   1      31.206  26.154  24.803  1.00  0.00     0.115 A 
ATOM     90  C   UNL A   1      31.310  26.971  25.901  1.00  0.00     0.040 A 
ENDBRANCH  84  85
ENDBRANCH  81  84
ENDBRANCH  79  81
ENDBRANCH  72  74
ENDBRANCH  71  72
ENDBRANCH   1  71
TORSDOF 14
ENDMDL
MODEL 3
REMARK VINA RESULT:     -11.8      1.348      2.319
REMARK SMILES O=C(OCCOC(=O)c1ccc(S(=O)(=O)Cc2ncccn2)c(F)c1)c1ccc(-c2c3nc(c(-c4c(F)c(F)c(F)c(F)c4F)c4ccc([nH]4)c(-c4c(F)c(F)c(F)c(F)c4F)c4nc(c(-c5c(F)c(F)c(F)c(F)c5F)c5ccc2[nH]5)C=C4)C=C3)cc1
REMARK SMILES IDX 5 1 4 2 3 3 2 4 1 5 26 6 27 7 88 8 28 9 87 10 29 11 30 12
REMARK SMILES IDX 31 13 81 14 32 15 86 16 80 17 82 18 33 19 85 20 79 21 78 22
REMARK SMILES IDX 34 24 66 25 46 26 65 27 47 28 50 29 64 30 83 31 48 32 49 33
REMARK SMILES IDX 63 35 84 36 51 37 35 38 36 39 44 40 37 41 38 42 42 43 45 44
REMARK SMILES IDX 39 45 40 46 43 47 41 48 67 49 68 50 76 51 69 52 70 53 74 54
REMARK SMILES IDX 77 55 71 56 72 57 75 58 73 59 52 60 53 61 61 62 54 63 55 64
REMARK SMILES IDX 59 65 62 66 56 67 57 68 60 69 58 70 6 71 7 72 8 73 9 74
REMARK SMILES IDX 10 75 25 76 11 77 23 78 12 79 24 80 13 81 14 82 15 83 16 84
REMARK SMILES IDX 17 85 18 86 22 87 19 88 21 89 20 90
REMARK H PARENT 82 23 50 34
REMARK Flexibility Score: inf
ROOT
ATOM      1  C   UNL A   1      31.547  31.823  26.855  1.00  0.00     0.275 C 
ENDROOT
BRANCH   1   2
ATOM      2  C   UNL A   1      32.654  32.857  27.072  1.00  0.00     0.275 C 
BRANCH   2   3
ATOM      3  O   UNL A   1      32.214  34.041  27.759  1.00  0.00    -0.458 OA
BRANCH   3   4
ATOM      4  C   UNL A   1      32.902  34.777  28.664  1.00  0.00     0.338 C 
ATOM      5  O   UNL A   1      32.589  35.951  28.852  1.00  0.00    -0.246 OA
BRANCH   4   6
ATOM      6  C   UNL A   1      34.180  34.297  29.271  1.00  0.00     0.060 A 
ATOM      7  C   UNL A   1      35.466  34.507  28.764  1.00  0.00     0.016 A 
ATOM      8  C   UNL A   1      34.050  33.525  30.437  1.00  0.00     0.016 A 
ATOM      9  C   UNL A   1      36.594  34.032  29.444  1.00  0.00     0.010 A 
ATOM     10  C   UNL A   1      35.172  33.065  31.129  1.00  0.00     0.010 A 
ATOM     11  C   UNL A   1      36.455  33.315  30.633  1.00  0.00    -0.014 A 
BRANCH  11  12
ATOM     12  C   UNL A   1      37.628  32.697  31.292  1.00  0.00     0.031 A 
ATOM     13  C   UNL A   1      38.253  31.492  30.653  1.00  0.00     0.074 A 
ATOM     14  C   UNL A   1      38.106  33.175  32.454  1.00  0.00     0.049 A 
ATOM     15  N   UNL A   1      39.251  30.757  31.066  1.00  0.00    -0.248 NA
ATOM     16  C   UNL A   1      37.687  31.070  29.361  1.00  0.00     0.031 C 
ATOM     17  C   UNL A   1      37.600  34.352  33.155  1.00  0.00     0.029 A 
ATOM     18  N   UNL A   1      39.092  32.695  33.279  1.00  0.00    -0.354 N 
ATOM     19  C   UNL A   1      39.447  29.806  30.077  1.00  0.00     0.074 A 
ATOM     20  C   UNL A   1      38.423  30.007  29.077  1.00  0.00     0.031 C 
ATOM     21  C   UNL A   1      38.210  34.450  34.348  1.00  0.00     0.029 A 
ATOM     22  C   UNL A   1      39.157  33.346  34.486  1.00  0.00     0.049 A 
ATOM     23  H   UNL A   1      39.693  31.957  33.029  1.00  0.00     0.167 HD
ATOM     24  C   UNL A   1      40.425  28.876  29.990  1.00  0.00     0.037 A 
ATOM     25  C   UNL A   1      39.881  33.064  35.586  1.00  0.00     0.037 A 
ATOM     26  C   UNL A   1      41.428  28.676  30.998  1.00  0.00     0.049 A 
ATOM     27  C   UNL A   1      40.872  31.936  35.539  1.00  0.00     0.074 A 
ATOM     28  C   UNL A   1      42.505  27.810  30.985  1.00  0.00     0.029 A 
ATOM     29  N   UNL A   1      41.455  29.341  32.215  1.00  0.00    -0.354 N 
ATOM     30  N   UNL A   1      41.129  31.109  34.554  1.00  0.00    -0.248 NA
ATOM     31  C   UNL A   1      41.701  31.721  36.732  1.00  0.00     0.031 C 
ATOM     32  C   UNL A   1      43.160  27.920  32.216  1.00  0.00     0.029 A 
ATOM     33  C   UNL A   1      42.514  28.882  32.978  1.00  0.00     0.049 A 
ATOM     34  H   UNL A   1      40.816  30.036  32.495  1.00  0.00     0.167 HD
ATOM     35  C   UNL A   1      42.178  30.311  34.985  1.00  0.00     0.074 A 
ATOM     36  C   UNL A   1      42.498  30.736  36.332  1.00  0.00     0.031 C 
ATOM     37  C   UNL A   1      42.829  29.332  34.312  1.00  0.00     0.037 A 
BRANCH  24  38
ATOM     38  C   UNL A   1      40.449  28.033  28.754  1.00  0.00     0.064 A 
ATOM     39  C   UNL A   1      41.182  28.431  27.628  1.00  0.00     0.173 A 
ATOM     40  C   UNL A   1      39.758  26.812  28.695  1.00  0.00     0.173 A 
ATOM     41  F   UNL A   1      41.860  29.588  27.635  1.00  0.00    -0.203 F 
ATOM     42  C   UNL A   1      41.229  27.631  26.489  1.00  0.00     0.198 A 
ATOM     43  C   UNL A   1      39.828  26.003  27.564  1.00  0.00     0.198 A 
ATOM     44  F   UNL A   1      39.058  26.380  29.755  1.00  0.00    -0.203 F 
ATOM     45  F   UNL A   1      41.935  28.029  25.422  1.00  0.00    -0.200 F 
ATOM     46  C   UNL A   1      40.562  26.415  26.462  1.00  0.00     0.200 A 
ATOM     47  F   UNL A   1      39.207  24.817  27.552  1.00  0.00    -0.200 F 
ATOM     48  F   UNL A   1      40.636  25.632  25.377  1.00  0.00    -0.200 F 
ENDBRANCH  24  38
BRANCH  25  49
ATOM     49  C   UNL A   1      39.694  33.884  36.809  1.00  0.00     0.064 A 
ATOM     50  C   UNL A   1      38.837  33.462  37.837  1.00  0.00     0.173 A 
ATOM     51  C   UNL A   1      40.326  35.125  36.954  1.00  0.00     0.173 A 
ATOM     52  F   UNL A   1      38.213  32.280  37.743  1.00  0.00    -0.203 F 
ATOM     53  C   UNL A   1      38.604  34.261  38.954  1.00  0.00     0.198 A 
ATOM     54  C   UNL A   1      40.105  35.916  38.080  1.00  0.00     0.198 A 
ATOM     55  F   UNL A   1      41.168  35.562  36.006  1.00  0.00    -0.203 F 
ATOM     56  F   UNL A   1      37.759  33.850  39.910  1.00  0.00    -0.200 F 
ATOM     57  C   UNL A   1      39.238  35.488  39.074  1.00  0.00     0.200 A 
ATOM     58  F   UNL A   1      40.729  37.096  38.201  1.00  0.00    -0.200 F 
ATOM     59  F   UNL A   1      39.014  36.259  40.148  1.00  0.00    -0.200 F 
ENDBRANCH  25  49
BRANCH  37  60
ATOM     60  C   UNL A   1      43.996  28.677  34.985  1.00  0.00     0.064 A 
ATOM     61  C   UNL A   1      43.798  27.535  35.776  1.00  0.00     0.173 A 
ATOM     62  C   UNL A   1      45.274  29.245  34.949  1.00  0.00     0.173 A 
ATOM     63  F   UNL A   1      42.587  26.962  35.844  1.00  0.00    -0.203 F 
ATOM     64  C   UNL A   1      44.836  27.003  36.533  1.00  0.00     0.198 A 
ATOM     65  C   UNL A   1      46.317  28.696  35.691  1.00  0.00     0.198 A 
ATOM     66  F   UNL A   1      45.512  30.329  34.195  1.00  0.00    -0.203 F 
ATOM     67  F   UNL A   1      44.614  25.940  37.319  1.00  0.00    -0.200 F 
ATOM     68  C   UNL A   1      46.093  27.585  36.492  1.00  0.00     0.200 A 
ATOM     69  F   UNL A   1      47.537  29.247  35.639  1.00  0.00    -0.200 F 
ATOM     70  F   UNL A   1      47.091  27.078  37.230  1.00  0.00    -0.200 F 
ENDBRANCH  37  60
ENDBRANCH  11  12
ENDBRANCH   4   6
ENDBRANCH   3   4
ENDBRANCH   2   3
ENDBRANCH   1   2
BRANCH   1  71
ATOM     71  O   UNL A   1      31.947  30.746  25.993  1.00  0.00    -0.458 OA
BRANCH  71  72
ATOM     72  C   UNL A   1      32.913  29.935  26.499  1.00  0.00     0.338 C 
ATOM     73  O   UNL A   1      33.407  29.969  27.611  1.00  0.00    -0.246 OA
BRANCH  72  74
ATOM     74  C   UNL A   1      33.187  28.868  25.523  1.00  0.00     0.063 A 
ATOM     75  C   UNL A   1      32.870  29.020  24.171  1.00  0.00     0.017 A 
ATOM     76  C   UNL A   1      33.712  27.667  26.001  1.00  0.00     0.056 A 
ATOM     77  C   UNL A   1      33.051  27.940  23.302  1.00  0.00     0.024 A 
ATOM     78  C   UNL A   1      33.809  26.575  25.143  1.00  0.00     0.142 A 
ATOM     79  C   UNL A   1      33.486  26.703  23.801  1.00  0.00     0.103 A 
ATOM     80  F   UNL A   1      34.118  25.387  25.676  1.00  0.00    -0.206 F 
BRANCH  79  81
ATOM     81  S   UNL A   1      33.495  25.318  22.702  1.00  0.00     0.188 S 
ATOM     82  O   UNL A   1      33.525  25.918  21.377  1.00  0.00    -0.223 OA
ATOM     83  O   UNL A   1      34.601  24.471  23.117  1.00  0.00    -0.223 OA
BRANCH  81  84
ATOM     84  C   UNL A   1      32.016  24.378  22.773  1.00  0.00     0.219 C 
BRANCH  84  85
ATOM     85  C   UNL A   1      31.668  23.917  24.146  1.00  0.00     0.143 A 
ATOM     86  N   UNL A   1      32.196  22.793  24.657  1.00  0.00    -0.240 NA
ATOM     87  N   UNL A   1      30.831  24.728  24.828  1.00  0.00    -0.240 NA
ATOM     88  C   UNL A   1      31.895  22.506  25.938  1.00  0.00     0.115 A 
ATOM     89  C   UNL A   1      30.559  24.397  26.103  1.00  0.00     0.115 A 
ATOM     90  C   UNL A   1      31.080  23.287  26.719  1.00  0.00     0.040 A 
ENDBRANCH  84  85
ENDBRANCH  81  84
ENDBRANCH  79  81
ENDBRANCH  72  74
ENDBRANCH  71  72
ENDBRANCH   1  71
TORSDOF 14
ENDMDL
