MODEL 1
REMARK VINA RESULT:     -12.3      0.000      0.000
REMARK SMILES CCCc1cc(OC(F)(F)F)cc2c1O[C@H](C(F)(F)F)C(C(=O)OCCOC(=O)c1ccc(-c3c4nc(c(-c5c(F)c(F)c(F)c(F)c5F)c5ccc([nH]5)c(-c5c(F)c(F)c(F)c(F)c5F)c5nc(c(-c6c(F)c(F)c(F)c(F)c6F)c6ccc3[nH]6)C=C5)C=C4)cc1)=C2
REMARK SMILES IDX 25 1 24 2 22 3 23 4 21 5 4 6 5 7 14 8 6 9 13 10 15 11 12 12
REMARK SMILES IDX 93 13 16 14 3 15 2 16 1 17 7 18 8 19 9 20 10 21 11 22 17 23
REMARK SMILES IDX 18 24 19 25 20 26 26 27 27 28 28 29 29 30 30 31 31 32 92 33
REMARK SMILES IDX 32 34 91 35 33 36 34 37 35 38 85 39 36 40 90 41 84 42 86 43
REMARK SMILES IDX 37 44 89 45 83 46 82 47 38 49 70 50 50 51 69 52 51 53 54 54
REMARK SMILES IDX 68 55 87 56 52 57 53 58 67 60 88 61 55 62 39 63 40 64 48 65
REMARK SMILES IDX 41 66 42 67 46 68 49 69 43 70 44 71 47 72 45 73 71 74 72 75
REMARK SMILES IDX 80 76 73 77 74 78 78 79 81 80 75 81 76 82 79 83 77 84 56 85
REMARK SMILES IDX 57 86 65 87 58 88 59 89 63 90 66 91 60 92 61 93 64 94 62 95
REMARK H PARENT 86 48 54 59
REMARK Flexibility Score: inf
ROOT
ATOM      1  C   UNL A   1      32.288  28.883  24.977  1.00  0.00     0.275 C 
ENDROOT
BRANCH   1   2
ATOM      2  O   UNL A   1      31.211  27.937  25.151  1.00  0.00    -0.459 OA
BRANCH   2   3
ATOM      3  C   UNL A   1      31.440  27.007  26.106  1.00  0.00     0.338 C 
ATOM      4  O   UNL A   1      31.099  27.073  27.273  1.00  0.00    -0.246 OA
BRANCH   3   5
ATOM      5  C   UNL A   1      32.152  25.828  25.592  1.00  0.00     0.087 C 
ATOM      6  C   UNL A   1      33.131  21.796  25.377  1.00  0.00    -0.002 A 
ATOM      7  C   UNL A   1      34.469  21.414  25.572  1.00  0.00     0.054 A 
ATOM      8  C   UNL A   1      32.828  23.152  25.490  1.00  0.00     0.131 A 
ATOM      9  C   UNL A   1      35.456  22.361  25.883  1.00  0.00     0.130 A 
ATOM     10  C   UNL A   1      33.793  24.117  25.833  1.00  0.00     0.021 A 
ATOM     11  O   UNL A   1      31.528  23.501  25.265  1.00  0.00    -0.475 OA
ATOM     12  C   UNL A   1      35.107  23.710  26.028  1.00  0.00     0.058 A 
ATOM     13  C   UNL A   1      33.365  25.503  26.061  1.00  0.00     0.027 C 
ATOM     14  C   UNL A   1      31.332  24.845  24.801  1.00  0.00     0.316 C 
BRANCH   6  15
ATOM     15  C   UNL A   1      32.094  20.776  24.939  1.00  0.00     0.039 C 
BRANCH  15  16
ATOM     16  C   UNL A   1      32.388  19.942  23.678  1.00  0.00     0.001 C 
ATOM     17  C   UNL A   1      32.056  20.612  22.346  1.00  0.00     0.004 C 
ENDBRANCH  15  16
ENDBRANCH   6  15
BRANCH   9  18
ATOM     18  O   UNL A   1      36.786  22.110  26.072  1.00  0.00    -0.406 OA
BRANCH  18  19
ATOM     19  C   UNL A   1      37.524  21.597  24.976  1.00  0.00     0.573 C 
ATOM     20  F   UNL A   1      37.204  22.241  23.834  1.00  0.00    -0.132 F 
ATOM     21  F   UNL A   1      38.852  21.691  25.193  1.00  0.00    -0.132 F 
ATOM     22  F   UNL A   1      37.215  20.290  24.822  1.00  0.00    -0.132 F 
ENDBRANCH  18  19
ENDBRANCH   9  18
BRANCH  14  23
ATOM     23  C   UNL A   1      31.535  24.920  23.280  1.00  0.00     0.430 C 
ATOM     24  F   UNL A   1      32.790  25.275  22.929  1.00  0.00    -0.167 F 
ATOM     25  F   UNL A   1      31.278  23.720  22.702  1.00  0.00    -0.167 F 
ATOM     26  F   UNL A   1      30.691  25.813  22.716  1.00  0.00    -0.167 F 
ENDBRANCH  14  23
ENDBRANCH   3   5
ENDBRANCH   2   3
ENDBRANCH   1   2
BRANCH   1  27
ATOM     27  C   UNL A   1      31.924  30.262  25.530  1.00  0.00     0.275 C 
BRANCH  27  28
ATOM     28  O   UNL A   1      32.336  30.381  26.906  1.00  0.00    -0.458 OA
BRANCH  28  29
ATOM     29  C   UNL A   1      33.028  31.500  27.213  1.00  0.00     0.338 C 
ATOM     30  O   UNL A   1      32.614  32.652  27.177  1.00  0.00    -0.246 OA
BRANCH  29  31
ATOM     31  C   UNL A   1      34.402  31.177  27.646  1.00  0.00     0.060 A 
ATOM     32  C   UNL A   1      34.763  29.862  27.917  1.00  0.00     0.016 A 
ATOM     33  C   UNL A   1      35.280  32.209  27.966  1.00  0.00     0.016 A 
ATOM     34  C   UNL A   1      35.914  29.589  28.658  1.00  0.00     0.010 A 
ATOM     35  C   UNL A   1      36.511  31.917  28.570  1.00  0.00     0.010 A 
ATOM     36  C   UNL A   1      36.824  30.608  28.979  1.00  0.00    -0.014 A 
BRANCH  36  37
ATOM     37  C   UNL A   1      38.076  30.318  29.748  1.00  0.00     0.031 A 
ATOM     38  C   UNL A   1      39.164  29.456  29.150  1.00  0.00     0.074 A 
ATOM     39  C   UNL A   1      38.255  30.812  30.991  1.00  0.00     0.049 A 
ATOM     40  N   UNL A   1      40.201  28.900  29.732  1.00  0.00    -0.248 NA
ATOM     41  C   UNL A   1      39.064  29.161  27.712  1.00  0.00     0.031 C 
ATOM     42  C   UNL A   1      37.325  31.690  31.702  1.00  0.00     0.029 A 
ATOM     43  N   UNL A   1      39.291  30.646  31.883  1.00  0.00    -0.354 N 
ATOM     44  C   UNL A   1      40.826  28.134  28.753  1.00  0.00     0.074 A 
ATOM     45  C   UNL A   1      40.056  28.297  27.539  1.00  0.00     0.031 C 
ATOM     46  C   UNL A   1      37.849  32.027  32.889  1.00  0.00     0.029 A 
ATOM     47  C   UNL A   1      39.098  31.300  33.077  1.00  0.00     0.049 A 
ATOM     48  H   UNL A   1      40.093  30.111  31.685  1.00  0.00     0.167 HD
ATOM     49  C   UNL A   1      41.938  27.366  28.860  1.00  0.00     0.037 A 
ATOM     50  C   UNL A   1      39.808  31.281  34.221  1.00  0.00     0.037 A 
ATOM     51  C   UNL A   1      42.755  27.268  30.044  1.00  0.00     0.049 A 
ATOM     52  C   UNL A   1      41.032  30.416  34.318  1.00  0.00     0.074 A 
ATOM     53  C   UNL A   1      43.915  26.536  30.235  1.00  0.00     0.029 A 
ATOM     54  N   UNL A   1      42.509  27.939  31.232  1.00  0.00    -0.354 N 
ATOM     55  N   UNL A   1      41.572  29.643  33.408  1.00  0.00    -0.248 NA
ATOM     56  C   UNL A   1      41.732  30.403  35.609  1.00  0.00     0.031 C 
ATOM     57  C   UNL A   1      44.352  26.738  31.548  1.00  0.00     0.029 A 
ATOM     58  C   UNL A   1      43.492  27.633  32.161  1.00  0.00     0.049 A 
ATOM     59  H   UNL A   1      41.750  28.546  31.392  1.00  0.00     0.167 HD
ATOM     60  C   UNL A   1      42.680  29.065  34.011  1.00  0.00     0.074 A 
ATOM     61  C   UNL A   1      42.750  29.594  35.356  1.00  0.00     0.031 C 
ATOM     62  C   UNL A   1      43.558  28.170  33.495  1.00  0.00     0.037 A 
BRANCH  49  63
ATOM     63  C   UNL A   1      42.336  26.537  27.670  1.00  0.00     0.064 A 
ATOM     64  C   UNL A   1      43.337  26.942  26.777  1.00  0.00     0.173 A 
ATOM     65  C   UNL A   1      41.739  25.284  27.459  1.00  0.00     0.173 A 
ATOM     66  F   UNL A   1      43.935  28.133  26.928  1.00  0.00    -0.203 F 
ATOM     67  C   UNL A   1      43.709  26.136  25.703  1.00  0.00     0.198 A 
ATOM     68  C   UNL A   1      42.134  24.467  26.402  1.00  0.00     0.198 A 
ATOM     69  F   UNL A   1      40.783  24.840  28.289  1.00  0.00    -0.203 F 
ATOM     70  F   UNL A   1      44.639  26.562  24.837  1.00  0.00    -0.200 F 
ATOM     71  C   UNL A   1      43.113  24.896  25.521  1.00  0.00     0.200 A 
ATOM     72  F   UNL A   1      41.569  23.262  26.240  1.00  0.00    -0.200 F 
ATOM     73  F   UNL A   1      43.481  24.117  24.495  1.00  0.00    -0.200 F 
ENDBRANCH  49  63
BRANCH  50  74
ATOM     74  C   UNL A   1      39.347  32.077  35.390  1.00  0.00     0.064 A 
ATOM     75  C   UNL A   1      38.511  31.513  36.363  1.00  0.00     0.173 A 
ATOM     76  C   UNL A   1      39.734  33.416  35.558  1.00  0.00     0.173 A 
ATOM     77  F   UNL A   1      38.091  30.247  36.231  1.00  0.00    -0.203 F 
ATOM     78  C   UNL A   1      38.072  32.260  37.454  1.00  0.00     0.198 A 
ATOM     79  C   UNL A   1      39.324  34.150  36.668  1.00  0.00     0.198 A 
ATOM     80  F   UNL A   1      40.533  34.003  34.655  1.00  0.00    -0.203 F 
ATOM     81  F   UNL A   1      37.237  31.710  38.346  1.00  0.00    -0.200 F 
ATOM     82  C   UNL A   1      38.487  33.575  37.610  1.00  0.00     0.200 A 
ATOM     83  F   UNL A   1      39.742  35.414  36.824  1.00  0.00    -0.200 F 
ATOM     84  F   UNL A   1      38.073  34.288  38.666  1.00  0.00    -0.200 F 
ENDBRANCH  50  74
BRANCH  62  85
ATOM     85  C   UNL A   1      44.693  27.740  34.377  1.00  0.00     0.064 A 
ATOM     86  C   UNL A   1      45.901  28.452  34.422  1.00  0.00     0.173 A 
ATOM     87  C   UNL A   1      44.565  26.610  35.198  1.00  0.00     0.173 A 
ATOM     88  F   UNL A   1      46.079  29.529  33.643  1.00  0.00    -0.203 F 
ATOM     89  C   UNL A   1      46.950  28.030  35.234  1.00  0.00     0.198 A 
ATOM     90  C   UNL A   1      45.605  26.207  36.030  1.00  0.00     0.198 A 
ATOM     91  F   UNL A   1      43.428  25.896  35.194  1.00  0.00    -0.203 F 
ATOM     92  F   UNL A   1      48.114  28.693  35.221  1.00  0.00    -0.200 F 
ATOM     93  C   UNL A   1      46.799  26.911  36.040  1.00  0.00     0.200 A 
ATOM     94  F   UNL A   1      45.455  25.131  36.815  1.00  0.00    -0.200 F 
ATOM     95  F   UNL A   1      47.811  26.505  36.822  1.00  0.00    -0.200 F 
ENDBRANCH  62  85
ENDBRANCH  36  37
ENDBRANCH  29  31
ENDBRANCH  28  29
ENDBRANCH  27  28
ENDBRANCH   1  27
TORSDOF 16
ENDMDL
MODEL 2
REMARK VINA RESULT:     -12.3      0.336      1.594
REMARK SMILES CCCc1cc(OC(F)(F)F)cc2c1O[C@H](C(F)(F)F)C(C(=O)OCCOC(=O)c1ccc(-c3c4nc(c(-c5c(F)c(F)c(F)c(F)c5F)c5ccc([nH]5)c(-c5c(F)c(F)c(F)c(F)c5F)c5nc(c(-c6c(F)c(F)c(F)c(F)c6F)c6ccc3[nH]6)C=C5)C=C4)cc1)=C2
REMARK SMILES IDX 25 1 24 2 22 3 23 4 21 5 4 6 5 7 14 8 6 9 13 10 15 11 12 12
REMARK SMILES IDX 93 13 16 14 3 15 2 16 1 17 7 18 8 19 9 20 10 21 11 22 17 23
REMARK SMILES IDX 18 24 19 25 20 26 26 27 27 28 28 29 29 30 30 31 31 32 92 33
REMARK SMILES IDX 32 34 91 35 33 36 34 37 35 38 85 39 36 40 90 41 84 42 86 43
REMARK SMILES IDX 37 44 89 45 83 46 82 47 38 49 70 50 50 51 69 52 51 53 54 54
REMARK SMILES IDX 68 55 87 56 52 57 53 58 67 60 88 61 55 62 39 63 40 64 48 65
REMARK SMILES IDX 41 66 42 67 46 68 49 69 43 70 44 71 47 72 45 73 71 74 72 75
REMARK SMILES IDX 80 76 73 77 74 78 78 79 81 80 75 81 76 82 79 83 77 84 56 85
REMARK SMILES IDX 57 86 65 87 58 88 59 89 63 90 66 91 60 92 61 93 64 94 62 95
REMARK H PARENT 86 48 54 59
REMARK Flexibility Score: inf
ROOT
ATOM      1  C   UNL A   1      31.408  29.084  24.991  1.00  0.00     0.275 C 
ENDROOT
BRANCH   1   2
ATOM      2  O   UNL A   1      32.418  28.152  25.434  1.00  0.00    -0.459 OA
BRANCH   2   3
ATOM      3  C   UNL A   1      31.924  27.037  26.021  1.00  0.00     0.338 C 
ATOM      4  O   UNL A   1      31.042  26.995  26.859  1.00  0.00    -0.246 OA
BRANCH   3   5
ATOM      5  C   UNL A   1      32.552  25.805  25.522  1.00  0.00     0.087 C 
ATOM      6  C   UNL A   1      33.238  21.712  25.348  1.00  0.00    -0.002 A 
ATOM      7  C   UNL A   1      34.544  21.236  25.555  1.00  0.00     0.054 A 
ATOM      8  C   UNL A   1      33.033  23.088  25.448  1.00  0.00     0.131 A 
ATOM      9  C   UNL A   1      35.594  22.112  25.865  1.00  0.00     0.130 A 
ATOM     10  C   UNL A   1      34.063  23.983  25.788  1.00  0.00     0.021 A 
ATOM     11  O   UNL A   1      31.763  23.527  25.211  1.00  0.00    -0.475 OA
ATOM     12  C   UNL A   1      35.343  23.484  25.996  1.00  0.00     0.058 A 
ATOM     13  C   UNL A   1      33.735  25.398  26.002  1.00  0.00     0.027 C 
ATOM     14  C   UNL A   1      31.668  24.877  24.734  1.00  0.00     0.316 C 
BRANCH   6  15
ATOM     15  C   UNL A   1      32.133  20.765  24.912  1.00  0.00     0.039 C 
BRANCH  15  16
ATOM     16  C   UNL A   1      32.500  19.290  24.666  1.00  0.00     0.001 C 
ATOM     17  C   UNL A   1      32.486  18.835  23.208  1.00  0.00     0.004 C 
ENDBRANCH  15  16
ENDBRANCH   6  15
BRANCH   9  18
ATOM     18  O   UNL A   1      36.902  21.767  26.065  1.00  0.00    -0.406 OA
BRANCH  18  19
ATOM     19  C   UNL A   1      37.646  21.320  24.945  1.00  0.00     0.573 C 
ATOM     20  F   UNL A   1      37.282  21.982  23.827  1.00  0.00    -0.132 F 
ATOM     21  F   UNL A   1      38.972  21.467  25.147  1.00  0.00    -0.132 F 
ATOM     22  F   UNL A   1      37.393  20.006  24.756  1.00  0.00    -0.132 F 
ENDBRANCH  18  19
ENDBRANCH   9  18
BRANCH  14  23
ATOM     23  C   UNL A   1      31.884  24.924  23.214  1.00  0.00     0.430 C 
ATOM     24  F   UNL A   1      33.142  25.276  22.868  1.00  0.00    -0.167 F 
ATOM     25  F   UNL A   1      31.637  23.712  22.657  1.00  0.00    -0.167 F 
ATOM     26  F   UNL A   1      31.044  25.803  22.624  1.00  0.00    -0.167 F 
ENDBRANCH  14  23
ENDBRANCH   3   5
ENDBRANCH   2   3
ENDBRANCH   1   2
BRANCH   1  27
ATOM     27  C   UNL A   1      31.576  30.454  25.651  1.00  0.00     0.275 C 
BRANCH  27  28
ATOM     28  O   UNL A   1      32.380  30.346  26.843  1.00  0.00    -0.458 OA
BRANCH  28  29
ATOM     29  C   UNL A   1      33.054  31.463  27.194  1.00  0.00     0.338 C 
ATOM     30  O   UNL A   1      32.627  32.610  27.194  1.00  0.00    -0.246 OA
BRANCH  29  31
ATOM     31  C   UNL A   1      34.428  31.142  27.630  1.00  0.00     0.060 A 
ATOM     32  C   UNL A   1      34.791  29.827  27.903  1.00  0.00     0.016 A 
ATOM     33  C   UNL A   1      35.304  32.175  27.952  1.00  0.00     0.016 A 
ATOM     34  C   UNL A   1      35.940  29.556  28.646  1.00  0.00     0.010 A 
ATOM     35  C   UNL A   1      36.534  31.885  28.559  1.00  0.00     0.010 A 
ATOM     36  C   UNL A   1      36.848  30.576  28.968  1.00  0.00    -0.014 A 
BRANCH  36  37
ATOM     37  C   UNL A   1      38.099  30.289  29.740  1.00  0.00     0.031 A 
ATOM     38  C   UNL A   1      39.189  29.427  29.145  1.00  0.00     0.074 A 
ATOM     39  C   UNL A   1      38.276  30.784  30.983  1.00  0.00     0.049 A 
ATOM     40  N   UNL A   1      40.225  28.873  29.730  1.00  0.00    -0.248 NA
ATOM     41  C   UNL A   1      39.092  29.130  27.707  1.00  0.00     0.031 C 
ATOM     42  C   UNL A   1      37.344  31.662  31.692  1.00  0.00     0.029 A 
ATOM     43  N   UNL A   1      39.310  30.621  31.877  1.00  0.00    -0.354 N 
ATOM     44  C   UNL A   1      40.853  28.107  28.753  1.00  0.00     0.074 A 
ATOM     45  C   UNL A   1      40.085  28.267  27.537  1.00  0.00     0.031 C 
ATOM     46  C   UNL A   1      37.865  32.001  32.879  1.00  0.00     0.029 A 
ATOM     47  C   UNL A   1      39.114  31.275  33.070  1.00  0.00     0.049 A 
ATOM     48  H   UNL A   1      40.112  30.086  31.681  1.00  0.00     0.167 HD
ATOM     49  C   UNL A   1      41.966  27.340  28.862  1.00  0.00     0.037 A 
ATOM     50  C   UNL A   1      39.822  31.258  34.216  1.00  0.00     0.037 A 
ATOM     51  C   UNL A   1      42.780  27.243  30.048  1.00  0.00     0.049 A 
ATOM     52  C   UNL A   1      41.046  30.394  34.315  1.00  0.00     0.074 A 
ATOM     53  C   UNL A   1      43.941  26.513  30.242  1.00  0.00     0.029 A 
ATOM     54  N   UNL A   1      42.532  27.916  31.235  1.00  0.00    -0.354 N 
ATOM     55  N   UNL A   1      41.589  29.621  33.407  1.00  0.00    -0.248 NA
ATOM     56  C   UNL A   1      41.744  30.384  35.608  1.00  0.00     0.031 C 
ATOM     57  C   UNL A   1      44.376  26.717  31.556  1.00  0.00     0.029 A 
ATOM     58  C   UNL A   1      43.513  27.612  32.166  1.00  0.00     0.049 A 
ATOM     59  H   UNL A   1      41.772  28.522  31.393  1.00  0.00     0.167 HD
ATOM     60  C   UNL A   1      42.696  29.045  34.013  1.00  0.00     0.074 A 
ATOM     61  C   UNL A   1      42.763  29.575  35.358  1.00  0.00     0.031 C 
ATOM     62  C   UNL A   1      43.576  28.150  33.500  1.00  0.00     0.037 A 
BRANCH  49  63
ATOM     63  C   UNL A   1      42.366  26.510  27.674  1.00  0.00     0.064 A 
ATOM     64  C   UNL A   1      43.361  26.920  26.776  1.00  0.00     0.173 A 
ATOM     65  C   UNL A   1      41.779  25.250  27.469  1.00  0.00     0.173 A 
ATOM     66  F   UNL A   1      43.950  28.116  26.921  1.00  0.00    -0.203 F 
ATOM     67  C   UNL A   1      43.736  26.113  25.703  1.00  0.00     0.198 A 
ATOM     68  C   UNL A   1      42.177  24.433  26.414  1.00  0.00     0.198 A 
ATOM     69  F   UNL A   1      40.830  24.802  28.304  1.00  0.00    -0.203 F 
ATOM     70  F   UNL A   1      44.660  26.543  24.833  1.00  0.00    -0.200 F 
ATOM     71  C   UNL A   1      43.150  24.868  25.528  1.00  0.00     0.200 A 
ATOM     72  F   UNL A   1      41.621  23.223  26.258  1.00  0.00    -0.200 F 
ATOM     73  F   UNL A   1      43.521  24.088  24.503  1.00  0.00    -0.200 F 
ENDBRANCH  49  63
BRANCH  50  74
ATOM     74  C   UNL A   1      39.358  32.055  35.382  1.00  0.00     0.064 A 
ATOM     75  C   UNL A   1      39.754  33.389  35.549  1.00  0.00     0.173 A 
ATOM     76  C   UNL A   1      38.509  31.500  36.353  1.00  0.00     0.173 A 
ATOM     77  F   UNL A   1      40.587  33.955  34.664  1.00  0.00    -0.203 F 
ATOM     78  C   UNL A   1      39.326  34.134  36.645  1.00  0.00     0.198 A 
ATOM     79  C   UNL A   1      38.054  32.257  37.429  1.00  0.00     0.198 A 
ATOM     80  F   UNL A   1      38.102  30.227  36.241  1.00  0.00    -0.203 F 
ATOM     81  F   UNL A   1      39.756  35.393  36.804  1.00  0.00    -0.200 F 
ATOM     82  C   UNL A   1      38.469  33.571  37.579  1.00  0.00     0.200 A 
ATOM     83  F   UNL A   1      37.212  31.714  38.319  1.00  0.00    -0.200 F 
ATOM     84  F   UNL A   1      38.049  34.292  38.627  1.00  0.00    -0.200 F 
ENDBRANCH  50  74
BRANCH  62  85
ATOM     85  C   UNL A   1      44.710  27.722  34.384  1.00  0.00     0.064 A 
ATOM     86  C   UNL A   1      44.614  26.592  35.210  1.00  0.00     0.173 A 
ATOM     87  C   UNL A   1      45.913  28.444  34.394  1.00  0.00     0.173 A 
ATOM     88  F   UNL A   1      43.478  25.879  35.249  1.00  0.00    -0.203 F 
ATOM     89  C   UNL A   1      45.670  26.219  36.037  1.00  0.00     0.198 A 
ATOM     90  C   UNL A   1      46.977  28.051  35.200  1.00  0.00     0.198 A 
ATOM     91  F   UNL A   1      46.057  29.530  33.620  1.00  0.00    -0.203 F 
ATOM     92  F   UNL A   1      45.538  25.168  36.856  1.00  0.00    -0.200 F 
ATOM     93  C   UNL A   1      46.852  26.945  36.027  1.00  0.00     0.200 A 
ATOM     94  F   UNL A   1      48.122  28.748  35.183  1.00  0.00    -0.200 F 
ATOM     95  F   UNL A   1      47.868  26.584  36.823  1.00  0.00    -0.200 F 
ENDBRANCH  62  85
ENDBRANCH  36  37
ENDBRANCH  29  31
ENDBRANCH  28  29
ENDBRANCH  27  28
ENDBRANCH   1  27
TORSDOF 16
ENDMDL
MODEL 3
REMARK VINA RESULT:     -12.2      4.068      9.490
REMARK SMILES CCCc1cc(OC(F)(F)F)cc2c1O[C@H](C(F)(F)F)C(C(=O)OCCOC(=O)c1ccc(-c3c4nc(c(-c5c(F)c(F)c(F)c(F)c5F)c5ccc([nH]5)c(-c5c(F)c(F)c(F)c(F)c5F)c5nc(c(-c6c(F)c(F)c(F)c(F)c6F)c6ccc3[nH]6)C=C5)C=C4)cc1)=C2
REMARK SMILES IDX 25 1 24 2 22 3 23 4 21 5 4 6 5 7 14 8 6 9 13 10 15 11 12 12
REMARK SMILES IDX 93 13 16 14 3 15 2 16 1 17 7 18 8 19 9 20 10 21 11 22 17 23
REMARK SMILES IDX 18 24 19 25 20 26 26 27 27 28 28 29 29 30 30 31 31 32 92 33
REMARK SMILES IDX 32 34 91 35 33 36 34 37 35 38 85 39 36 40 90 41 84 42 86 43
REMARK SMILES IDX 37 44 89 45 83 46 82 47 38 49 70 50 50 51 69 52 51 53 54 54
REMARK SMILES IDX 68 55 87 56 52 57 53 58 67 60 88 61 55 62 39 63 40 64 48 65
REMARK SMILES IDX 41 66 42 67 46 68 49 69 43 70 44 71 47 72 45 73 71 74 72 75
REMARK SMILES IDX 80 76 73 77 74 78 78 79 81 80 75 81 76 82 79 83 77 84 56 85
REMARK SMILES IDX 57 86 65 87 58 88 59 89 63 90 66 91 60 92 61 93 64 94 62 95
REMARK H PARENT 86 48 54 59
REMARK Flexibility Score: inf
ROOT
ATOM      1  C   UNL A   1      35.221  21.166  24.680  1.00  0.00     0.275 C 
ENDROOT
BRANCH   1   2
ATOM      2  O   UNL A   1      35.284  22.604  24.804  1.00  0.00    -0.459 OA
BRANCH   2   3
ATOM      3  C   UNL A   1      34.726  23.274  23.769  1.00  0.00     0.338 C 
ATOM      4  O   UNL A   1      34.979  23.117  22.589  1.00  0.00    -0.246 OA
BRANCH   3   5
ATOM      5  C   UNL A   1      33.712  24.247  24.203  1.00  0.00     0.087 C 
ATOM      6  C   UNL A   1      31.484  27.745  23.968  1.00  0.00    -0.002 A 
ATOM      7  C   UNL A   1      31.523  28.645  25.046  1.00  0.00     0.054 A 
ATOM      8  C   UNL A   1      32.270  26.597  24.061  1.00  0.00     0.131 A 
ATOM      9  C   UNL A   1      32.334  28.402  26.165  1.00  0.00     0.130 A 
ATOM     10  C   UNL A   1      33.115  26.346  25.157  1.00  0.00     0.021 A 
ATOM     11  O   UNL A   1      32.190  25.724  23.015  1.00  0.00    -0.475 OA
ATOM     12  C   UNL A   1      33.140  27.258  26.207  1.00  0.00     0.058 A 
ATOM     13  C   UNL A   1      34.008  25.181  25.117  1.00  0.00     0.027 C 
ATOM     14  C   UNL A   1      32.483  24.358  23.342  1.00  0.00     0.316 C 
BRANCH   6  15
ATOM     15  C   UNL A   1      30.524  27.969  22.812  1.00  0.00     0.039 C 
BRANCH  15  16
ATOM     16  C   UNL A   1      29.014  27.955  23.113  1.00  0.00     0.001 C 
ATOM     17  C   UNL A   1      28.495  26.725  23.856  1.00  0.00     0.004 C 
ENDBRANCH  15  16
ENDBRANCH   6  15
BRANCH   9  18
ATOM     18  O   UNL A   1      32.436  29.191  27.276  1.00  0.00    -0.406 OA
BRANCH  18  19
ATOM     19  C   UNL A   1      33.532  30.086  27.353  1.00  0.00     0.573 C 
ATOM     20  F   UNL A   1      34.557  29.537  28.040  1.00  0.00    -0.132 F 
ATOM     21  F   UNL A   1      33.954  30.451  26.125  1.00  0.00    -0.132 F 
ATOM     22  F   UNL A   1      33.136  31.199  28.010  1.00  0.00    -0.132 F 
ENDBRANCH  18  19
ENDBRANCH   9  18
BRANCH  14  23
ATOM     23  C   UNL A   1      31.237  23.665  23.915  1.00  0.00     0.430 C 
ATOM     24  F   UNL A   1      31.011  23.967  25.212  1.00  0.00    -0.167 F 
ATOM     25  F   UNL A   1      30.129  24.021  23.218  1.00  0.00    -0.167 F 
ATOM     26  F   UNL A   1      31.338  22.320  23.826  1.00  0.00    -0.167 F 
ENDBRANCH  14  23
ENDBRANCH   3   5
ENDBRANCH   2   3
ENDBRANCH   1   2
BRANCH   1  27
ATOM     27  C   UNL A   1      36.564  20.511  25.006  1.00  0.00     0.275 C 
BRANCH  27  28
ATOM     28  O   UNL A   1      37.620  21.493  24.999  1.00  0.00    -0.458 OA
BRANCH  28  29
ATOM     29  C   UNL A   1      38.708  21.185  25.739  1.00  0.00     0.338 C 
ATOM     30  O   UNL A   1      39.241  20.087  25.839  1.00  0.00    -0.246 OA
BRANCH  29  31
ATOM     31  C   UNL A   1      39.236  22.375  26.433  1.00  0.00     0.060 A 
ATOM     32  C   UNL A   1      38.722  23.638  26.156  1.00  0.00     0.016 A 
ATOM     33  C   UNL A   1      40.377  22.259  27.223  1.00  0.00     0.016 A 
ATOM     34  C   UNL A   1      39.437  24.781  26.517  1.00  0.00     0.010 A 
ATOM     35  C   UNL A   1      41.005  23.410  27.719  1.00  0.00     0.010 A 
ATOM     36  C   UNL A   1      40.579  24.692  27.327  1.00  0.00    -0.014 A 
BRANCH  36  37
ATOM     37  C   UNL A   1      41.334  25.917  27.744  1.00  0.00     0.031 A 
ATOM     38  C   UNL A   1      40.658  26.997  28.558  1.00  0.00     0.074 A 
ATOM     39  C   UNL A   1      42.626  26.085  27.397  1.00  0.00     0.049 A 
ATOM     40  N   UNL A   1      41.058  28.220  28.813  1.00  0.00    -0.248 NA
ATOM     41  C   UNL A   1      39.350  26.667  29.146  1.00  0.00     0.031 C 
ATOM     42  C   UNL A   1      43.440  25.128  26.647  1.00  0.00     0.029 A 
ATOM     43  N   UNL A   1      43.491  27.131  27.632  1.00  0.00    -0.354 N 
ATOM     44  C   UNL A   1      40.023  28.823  29.520  1.00  0.00     0.074 A 
ATOM     45  C   UNL A   1      38.977  27.832  29.657  1.00  0.00     0.031 C 
ATOM     46  C   UNL A   1      44.689  25.600  26.529  1.00  0.00     0.029 A 
ATOM     47  C   UNL A   1      44.742  26.943  27.091  1.00  0.00     0.049 A 
ATOM     48  H   UNL A   1      43.238  27.936  28.138  1.00  0.00     0.167 HD
ATOM     49  C   UNL A   1      39.952  30.086  30.008  1.00  0.00     0.037 A 
ATOM     50  C   UNL A   1      45.800  27.770  27.001  1.00  0.00     0.037 A 
ATOM     51  C   UNL A   1      41.024  31.049  29.946  1.00  0.00     0.049 A 
ATOM     52  C   UNL A   1      45.695  29.168  27.541  1.00  0.00     0.074 A 
ATOM     53  C   UNL A   1      41.052  32.343  30.438  1.00  0.00     0.029 A 
ATOM     54  N   UNL A   1      42.266  30.814  29.376  1.00  0.00    -0.354 N 
ATOM     55  N   UNL A   1      44.687  29.747  28.144  1.00  0.00    -0.248 NA
ATOM     56  C   UNL A   1      46.869  30.033  27.366  1.00  0.00     0.031 C 
ATOM     57  C   UNL A   1      42.298  32.902  30.136  1.00  0.00     0.029 A 
ATOM     58  C   UNL A   1      43.064  31.941  29.498  1.00  0.00     0.049 A 
ATOM     59  H   UNL A   1      42.541  29.971  28.949  1.00  0.00     0.167 HD
ATOM     60  C   UNL A   1      45.108  31.037  28.434  1.00  0.00     0.074 A 
ATOM     61  C   UNL A   1      46.472  31.149  27.961  1.00  0.00     0.031 C 
ATOM     62  C   UNL A   1      44.422  32.041  29.032  1.00  0.00     0.037 A 
BRANCH  49  63
ATOM     63  C   UNL A   1      38.658  30.526  30.633  1.00  0.00     0.064 A 
ATOM     64  C   UNL A   1      38.466  30.545  32.022  1.00  0.00     0.173 A 
ATOM     65  C   UNL A   1      37.611  30.994  29.822  1.00  0.00     0.173 A 
ATOM     66  F   UNL A   1      39.430  30.102  32.843  1.00  0.00    -0.203 F 
ATOM     67  C   UNL A   1      37.267  30.991  32.575  1.00  0.00     0.198 A 
ATOM     68  C   UNL A   1      36.425  31.468  30.379  1.00  0.00     0.198 A 
ATOM     69  F   UNL A   1      37.743  31.011  28.488  1.00  0.00    -0.203 F 
ATOM     70  F   UNL A   1      37.090  30.961  33.903  1.00  0.00    -0.200 F 
ATOM     71  C   UNL A   1      36.251  31.460  31.754  1.00  0.00     0.200 A 
ATOM     72  F   UNL A   1      35.453  31.937  29.584  1.00  0.00    -0.200 F 
ATOM     73  F   UNL A   1      35.104  31.901  32.288  1.00  0.00    -0.200 F 
ENDBRANCH  49  63
BRANCH  50  74
ATOM     74  C   UNL A   1      47.042  27.309  26.326  1.00  0.00     0.064 A 
ATOM     75  C   UNL A   1      47.233  27.505  24.952  1.00  0.00     0.173 A 
ATOM     76  C   UNL A   1      48.064  26.665  27.042  1.00  0.00     0.173 A 
ATOM     77  F   UNL A   1      46.274  28.089  24.220  1.00  0.00    -0.203 F 
ATOM     78  C   UNL A   1      48.393  27.066  24.318  1.00  0.00     0.198 A 
ATOM     79  C   UNL A   1      49.239  26.258  26.413  1.00  0.00     0.198 A 
ATOM     80  F   UNL A   1      47.931  26.451  28.359  1.00  0.00    -0.203 F 
ATOM     81  F   UNL A   1      48.531  27.226  22.994  1.00  0.00    -0.200 F 
ATOM     82  C   UNL A   1      49.399  26.452  25.050  1.00  0.00     0.200 A 
ATOM     83  F   UNL A   1      50.214  25.682  27.128  1.00  0.00    -0.200 F 
ATOM     84  F   UNL A   1      50.519  26.041  24.441  1.00  0.00    -0.200 F 
ENDBRANCH  50  74
BRANCH  62  85
ATOM     85  C   UNL A   1      45.152  33.334  29.248  1.00  0.00     0.064 A 
ATOM     86  C   UNL A   1      45.914  33.566  30.403  1.00  0.00     0.173 A 
ATOM     87  C   UNL A   1      45.100  34.348  28.279  1.00  0.00     0.173 A 
ATOM     88  F   UNL A   1      45.980  32.635  31.366  1.00  0.00    -0.203 F 
ATOM     89  C   UNL A   1      46.572  34.778  30.594  1.00  0.00     0.198 A 
ATOM     90  C   UNL A   1      45.782  35.547  28.461  1.00  0.00     0.198 A 
ATOM     91  F   UNL A   1      44.388  34.174  27.156  1.00  0.00    -0.203 F 
ATOM     92  F   UNL A   1      47.249  34.999  31.728  1.00  0.00    -0.200 F 
ATOM     93  C   UNL A   1      46.509  35.765  29.621  1.00  0.00     0.200 A 
ATOM     94  F   UNL A   1      45.729  36.496  27.516  1.00  0.00    -0.200 F 
ATOM     95  F   UNL A   1      47.143  36.932  29.807  1.00  0.00    -0.200 F 
ENDBRANCH  62  85
ENDBRANCH  36  37
ENDBRANCH  29  31
ENDBRANCH  28  29
ENDBRANCH  27  28
ENDBRANCH   1  27
TORSDOF 16
ENDMDL
