MODEL 1
REMARK VINA RESULT:     -13.4      0.000      0.000
REMARK SMILES COc1ccc2c(c1)c(CC(=O)OCCOC(=O)c1ccc(-c3c4nc(c(-c5c(F)c(F)c(F)c(F)c5F)c5ccc([nH]5)c(-c5c(F)c(F)c(F)c(F)c5F)c5nc(c(-c6c(F)c(F)c(F)c(F)c6F)c6ccc3[nH]6)C=C5)C=C4)cc1)c(C(F)(F)F)n2C(=O)c1ccc(Cl)cc1
REMARK SMILES IDX 14 1 13 2 11 3 12 4 10 5 9 6 3 7 4 8 8 9 5 10 7 11 6 12
REMARK SMILES IDX 87 13 82 14 2 15 1 16 88 17 89 18 90 19 91 20 96 21 92 22
REMARK SMILES IDX 95 23 93 24 94 25 83 26 84 27 85 28 86 29 15 30 16 31 17 32
REMARK SMILES IDX 18 33 19 34 20 35 81 36 21 37 80 38 22 39 23 40 24 41 74 42
REMARK SMILES IDX 25 43 79 44 73 45 75 46 26 47 78 48 72 49 71 50 27 52 59 53
REMARK SMILES IDX 39 54 58 55 40 56 43 57 57 58 76 59 41 60 42 61 56 63 77 64
REMARK SMILES IDX 44 65 28 66 29 67 37 68 30 69 31 70 35 71 38 72 32 73 33 74
REMARK SMILES IDX 36 75 34 76 60 77 61 78 69 79 62 80 63 81 67 82 70 83 64 84
REMARK SMILES IDX 65 85 68 86 66 87 45 88 46 89 54 90 47 91 48 92 52 93 55 94
REMARK SMILES IDX 49 95 50 96 53 97 51 98
REMARK H PARENT 75 51 43 62
REMARK Flexibility Score: inf
ROOT
ATOM      1  C   UNL A   1      40.279  20.818  26.132  1.00  0.00     0.274 C 
ENDROOT
BRANCH   1   2
ATOM      2  O   UNL A   1      39.019  21.502  25.946  1.00  0.00    -0.462 OA
BRANCH   2   3
ATOM      3  C   UNL A   1      38.097  20.818  25.231  1.00  0.00     0.310 C 
ATOM      4  O   UNL A   1      38.154  19.611  25.005  1.00  0.00    -0.252 OA
BRANCH   3   5
ATOM      5  C   UNL A   1      37.018  21.653  24.610  1.00  0.00     0.161 C 
BRANCH   5   6
ATOM      6  C   UNL A   1      35.563  21.509  24.971  1.00  0.00     0.002 A 
ATOM      7  C   UNL A   1      33.730  18.163  24.397  1.00  0.00     0.119 A 
ATOM      8  C   UNL A   1      32.455  18.664  24.565  1.00  0.00     0.048 A 
ATOM      9  C   UNL A   1      34.835  18.998  24.626  1.00  0.00     0.057 A 
ATOM     10  C   UNL A   1      32.267  20.000  24.927  1.00  0.00     0.031 A 
ATOM     11  C   UNL A   1      34.684  20.378  24.904  1.00  0.00     0.008 A 
ATOM     12  C   UNL A   1      33.381  20.850  25.107  1.00  0.00     0.057 A 
ATOM     13  N   UNL A   1      33.484  22.177  25.545  1.00  0.00    -0.271 N 
ATOM     14  C   UNL A   1      34.751  22.621  25.201  1.00  0.00     0.135 A 
BRANCH   7  15
ATOM     15  O   UNL A   1      34.011  16.874  24.029  1.00  0.00    -0.497 OA
ATOM     16  C   UNL A   1      34.722  16.086  24.984  1.00  0.00     0.278 C 
ENDBRANCH   7  15
BRANCH  13  17
ATOM     17  C   UNL A   1      32.497  22.915  26.245  1.00  0.00     0.262 C 
ATOM     18  O   UNL A   1      32.319  22.678  27.434  1.00  0.00    -0.268 OA
BRANCH  17  19
ATOM     19  C   UNL A   1      31.594  23.884  25.614  1.00  0.00     0.040 A 
ATOM     20  C   UNL A   1      31.217  23.692  24.280  1.00  0.00     0.015 A 
ATOM     21  C   UNL A   1      31.206  25.023  26.323  1.00  0.00     0.015 A 
ATOM     22  C   UNL A   1      30.486  24.685  23.631  1.00  0.00     0.021 A 
ATOM     23  C   UNL A   1      30.471  26.011  25.666  1.00  0.00     0.021 A 
ATOM     24  C   UNL A   1      30.126  25.843  24.323  1.00  0.00     0.041 A 
ATOM     25  Cl  UNL A   1      29.272  27.090  23.501  1.00  0.00    -0.084 Cl
ENDBRANCH  17  19
ENDBRANCH  13  17
BRANCH  14  26
ATOM     26  C   UNL A   1      35.138  24.064  25.126  1.00  0.00     0.432 C 
ATOM     27  F   UNL A   1      36.483  24.213  25.068  1.00  0.00    -0.165 F 
ATOM     28  F   UNL A   1      34.650  24.610  23.973  1.00  0.00    -0.165 F 
ATOM     29  F   UNL A   1      34.649  24.854  26.106  1.00  0.00    -0.165 F 
ENDBRANCH  14  26
ENDBRANCH   5   6
ENDBRANCH   3   5
ENDBRANCH   2   3
ENDBRANCH   1   2
BRANCH   1  30
ATOM     30  C   UNL A   1      40.754  20.932  27.583  1.00  0.00     0.275 C 
BRANCH  30  31
ATOM     31  O   UNL A   1      41.012  22.314  27.879  1.00  0.00    -0.458 OA
BRANCH  31  32
ATOM     32  C   UNL A   1      42.286  22.753  27.742  1.00  0.00     0.338 C 
ATOM     33  O   UNL A   1      43.264  22.103  27.415  1.00  0.00    -0.246 OA
BRANCH  32  34
ATOM     34  C   UNL A   1      42.191  24.225  27.696  1.00  0.00     0.060 A 
ATOM     35  C   UNL A   1      43.026  25.010  28.491  1.00  0.00     0.016 A 
ATOM     36  C   UNL A   1      41.068  24.780  27.074  1.00  0.00     0.016 A 
ATOM     37  C   UNL A   1      42.630  26.303  28.801  1.00  0.00     0.010 A 
ATOM     38  C   UNL A   1      40.646  26.049  27.428  1.00  0.00     0.010 A 
ATOM     39  C   UNL A   1      41.393  26.782  28.342  1.00  0.00    -0.014 A 
BRANCH  39  40
ATOM     40  C   UNL A   1      41.026  28.155  28.633  1.00  0.00     0.031 A 
ATOM     41  C   UNL A   1      42.017  29.123  28.123  1.00  0.00     0.074 A 
ATOM     42  C   UNL A   1      39.913  28.624  29.225  1.00  0.00     0.049 A 
ATOM     43  N   UNL A   1      42.935  29.717  28.808  1.00  0.00    -0.248 NA
ATOM     44  C   UNL A   1      42.086  29.351  26.677  1.00  0.00     0.031 C 
ATOM     45  C   UNL A   1      38.652  27.965  29.546  1.00  0.00     0.029 A 
ATOM     46  N   UNL A   1      39.717  29.903  29.661  1.00  0.00    -0.354 N 
ATOM     47  C   UNL A   1      43.632  30.506  27.906  1.00  0.00     0.074 A 
ATOM     48  C   UNL A   1      43.161  30.135  26.595  1.00  0.00     0.031 C 
ATOM     49  C   UNL A   1      37.761  28.890  29.986  1.00  0.00     0.029 A 
ATOM     50  C   UNL A   1      38.447  30.165  30.142  1.00  0.00     0.049 A 
ATOM     51  H   UNL A   1      40.425  30.586  29.633  1.00  0.00     0.167 HD
ATOM     52  C   UNL A   1      44.419  31.529  28.334  1.00  0.00     0.037 A 
ATOM     53  C   UNL A   1      38.016  31.349  30.641  1.00  0.00     0.037 A 
ATOM     54  C   UNL A   1      44.724  31.401  29.739  1.00  0.00     0.049 A 
ATOM     55  C   UNL A   1      39.213  32.104  31.095  1.00  0.00     0.074 A 
ATOM     56  C   UNL A   1      45.359  30.436  30.501  1.00  0.00     0.029 A 
ATOM     57  N   UNL A   1      44.020  32.165  30.637  1.00  0.00    -0.354 N 
ATOM     58  N   UNL A   1      39.939  31.772  32.126  1.00  0.00    -0.248 NA
ATOM     59  C   UNL A   1      39.843  33.024  30.161  1.00  0.00     0.031 C 
ATOM     60  C   UNL A   1      44.613  30.370  31.716  1.00  0.00     0.029 A 
ATOM     61  C   UNL A   1      43.596  31.321  31.634  1.00  0.00     0.049 A 
ATOM     62  H   UNL A   1      43.852  33.133  30.578  1.00  0.00     0.167 HD
ATOM     63  C   UNL A   1      41.238  32.094  31.764  1.00  0.00     0.074 A 
ATOM     64  C   UNL A   1      41.104  32.956  30.594  1.00  0.00     0.031 C 
ATOM     65  C   UNL A   1      42.306  31.417  32.280  1.00  0.00     0.037 A 
BRANCH  52  66
ATOM     66  C   UNL A   1      44.663  32.792  27.555  1.00  0.00     0.064 A 
ATOM     67  C   UNL A   1      45.854  32.923  26.815  1.00  0.00     0.173 A 
ATOM     68  C   UNL A   1      43.915  33.980  27.715  1.00  0.00     0.173 A 
ATOM     69  F   UNL A   1      46.655  31.865  26.614  1.00  0.00    -0.203 F 
ATOM     70  C   UNL A   1      46.295  34.159  26.337  1.00  0.00     0.198 A 
ATOM     71  C   UNL A   1      44.330  35.200  27.188  1.00  0.00     0.198 A 
ATOM     72  F   UNL A   1      42.816  34.036  28.476  1.00  0.00    -0.203 F 
ATOM     73  F   UNL A   1      47.495  34.253  25.748  1.00  0.00    -0.200 F 
ATOM     74  C   UNL A   1      45.535  35.297  26.527  1.00  0.00     0.200 A 
ATOM     75  F   UNL A   1      43.584  36.294  27.396  1.00  0.00    -0.200 F 
ATOM     76  F   UNL A   1      45.983  36.492  26.123  1.00  0.00    -0.200 F 
ENDBRANCH  52  66
BRANCH  53  77
ATOM     77  C   UNL A   1      36.678  31.975  30.572  1.00  0.00     0.064 A 
ATOM     78  C   UNL A   1      35.854  32.065  31.705  1.00  0.00     0.173 A 
ATOM     79  C   UNL A   1      36.318  32.768  29.466  1.00  0.00     0.173 A 
ATOM     80  F   UNL A   1      36.153  31.375  32.815  1.00  0.00    -0.203 F 
ATOM     81  C   UNL A   1      34.752  32.924  31.743  1.00  0.00     0.198 A 
ATOM     82  C   UNL A   1      35.217  33.624  29.504  1.00  0.00     0.198 A 
ATOM     83  F   UNL A   1      37.090  32.802  28.370  1.00  0.00    -0.203 F 
ATOM     84  F   UNL A   1      34.028  33.036  32.865  1.00  0.00    -0.200 F 
ATOM     85  C   UNL A   1      34.443  33.713  30.647  1.00  0.00     0.200 A 
ATOM     86  F   UNL A   1      34.951  34.413  28.454  1.00  0.00    -0.200 F 
ATOM     87  F   UNL A   1      33.431  34.590  30.707  1.00  0.00    -0.200 F 
ENDBRANCH  53  77
BRANCH  65  88
ATOM     88  C   UNL A   1      42.055  30.497  33.444  1.00  0.00     0.064 A 
ATOM     89  C   UNL A   1      41.670  29.151  33.308  1.00  0.00     0.173 A 
ATOM     90  C   UNL A   1      42.358  30.950  34.736  1.00  0.00     0.173 A 
ATOM     91  F   UNL A   1      41.459  28.614  32.101  1.00  0.00    -0.203 F 
ATOM     92  C   UNL A   1      41.555  28.314  34.417  1.00  0.00     0.198 A 
ATOM     93  C   UNL A   1      42.279  30.102  35.838  1.00  0.00     0.198 A 
ATOM     94  F   UNL A   1      42.782  32.210  34.924  1.00  0.00    -0.203 F 
ATOM     95  F   UNL A   1      41.175  27.037  34.260  1.00  0.00    -0.200 F 
ATOM     96  C   UNL A   1      41.868  28.788  35.680  1.00  0.00     0.200 A 
ATOM     97  F   UNL A   1      42.630  30.550  37.051  1.00  0.00    -0.200 F 
ATOM     98  F   UNL A   1      41.803  27.971  36.741  1.00  0.00    -0.200 F 
ENDBRANCH  65  88
ENDBRANCH  39  40
ENDBRANCH  32  34
ENDBRANCH  31  32
ENDBRANCH  30  31
ENDBRANCH   1  30
TORSDOF 16
ENDMDL
MODEL 2
REMARK VINA RESULT:     -12.7      2.115      3.996
REMARK SMILES COc1ccc2c(c1)c(CC(=O)OCCOC(=O)c1ccc(-c3c4nc(c(-c5c(F)c(F)c(F)c(F)c5F)c5ccc([nH]5)c(-c5c(F)c(F)c(F)c(F)c5F)c5nc(c(-c6c(F)c(F)c(F)c(F)c6F)c6ccc3[nH]6)C=C5)C=C4)cc1)c(C(F)(F)F)n2C(=O)c1ccc(Cl)cc1
REMARK SMILES IDX 14 1 13 2 11 3 12 4 10 5 9 6 3 7 4 8 8 9 5 10 7 11 6 12
REMARK SMILES IDX 87 13 82 14 2 15 1 16 88 17 89 18 90 19 91 20 96 21 92 22
REMARK SMILES IDX 95 23 93 24 94 25 83 26 84 27 85 28 86 29 15 30 16 31 17 32
REMARK SMILES IDX 18 33 19 34 20 35 81 36 21 37 80 38 22 39 23 40 24 41 74 42
REMARK SMILES IDX 25 43 79 44 73 45 75 46 26 47 78 48 72 49 71 50 27 52 59 53
REMARK SMILES IDX 39 54 58 55 40 56 43 57 57 58 76 59 41 60 42 61 56 63 77 64
REMARK SMILES IDX 44 65 28 66 29 67 37 68 30 69 31 70 35 71 38 72 32 73 33 74
REMARK SMILES IDX 36 75 34 76 60 77 61 78 69 79 62 80 63 81 67 82 70 83 64 84
REMARK SMILES IDX 65 85 68 86 66 87 45 88 46 89 54 90 47 91 48 92 52 93 55 94
REMARK SMILES IDX 49 95 50 96 53 97 51 98
REMARK H PARENT 75 51 43 62
REMARK Flexibility Score: inf
ROOT
ATOM      1  C   UNL A   1      36.831  22.245  25.644  1.00  0.00     0.274 C 
ENDROOT
BRANCH   1   2
ATOM      2  O   UNL A   1      36.479  23.506  25.031  1.00  0.00    -0.462 OA
BRANCH   2   3
ATOM      3  C   UNL A   1      35.285  24.015  25.414  1.00  0.00     0.310 C 
ATOM      4  O   UNL A   1      34.735  23.756  26.481  1.00  0.00    -0.252 OA
BRANCH   3   5
ATOM      5  C   UNL A   1      34.588  24.857  24.387  1.00  0.00     0.161 C 
BRANCH   5   6
ATOM      6  C   UNL A   1      33.443  25.774  24.725  1.00  0.00     0.002 A 
ATOM      7  C   UNL A   1      34.032  28.930  26.866  1.00  0.00     0.119 A 
ATOM      8  C   UNL A   1      32.699  29.179  27.128  1.00  0.00     0.048 A 
ATOM      9  C   UNL A   1      34.378  27.894  25.985  1.00  0.00     0.057 A 
ATOM     10  C   UNL A   1      31.708  28.386  26.546  1.00  0.00     0.031 A 
ATOM     11  C   UNL A   1      33.409  27.013  25.448  1.00  0.00     0.008 A 
ATOM     12  C   UNL A   1      32.064  27.314  25.698  1.00  0.00     0.057 A 
ATOM     13  N   UNL A   1      31.292  26.432  24.929  1.00  0.00    -0.271 N 
ATOM     14  C   UNL A   1      32.113  25.372  24.579  1.00  0.00     0.135 A 
BRANCH   7  15
ATOM     15  O   UNL A   1      35.071  29.643  27.403  1.00  0.00    -0.497 OA
ATOM     16  C   UNL A   1      34.732  30.887  28.015  1.00  0.00     0.278 C 
ENDBRANCH   7  15
BRANCH  13  17
ATOM     17  C   UNL A   1      29.939  26.608  24.547  1.00  0.00     0.262 C 
ATOM     18  O   UNL A   1      29.101  25.822  24.971  1.00  0.00    -0.268 OA
BRANCH  17  19
ATOM     19  C   UNL A   1      29.482  27.620  23.588  1.00  0.00     0.040 A 
ATOM     20  C   UNL A   1      30.432  28.328  22.843  1.00  0.00     0.015 A 
ATOM     21  C   UNL A   1      28.121  27.922  23.505  1.00  0.00     0.015 A 
ATOM     22  C   UNL A   1      30.015  29.391  22.045  1.00  0.00     0.021 A 
ATOM     23  C   UNL A   1      27.711  28.987  22.701  1.00  0.00     0.021 A 
ATOM     24  C   UNL A   1      28.660  29.723  21.986  1.00  0.00     0.041 A 
ATOM     25  Cl  UNL A   1      28.157  31.071  21.044  1.00  0.00    -0.084 Cl
ENDBRANCH  17  19
ENDBRANCH  13  17
BRANCH  14  26
ATOM     26  C   UNL A   1      31.609  24.046  24.106  1.00  0.00     0.432 C 
ATOM     27  F   UNL A   1      31.018  24.147  22.891  1.00  0.00    -0.165 F 
ATOM     28  F   UNL A   1      32.660  23.189  23.942  1.00  0.00    -0.165 F 
ATOM     29  F   UNL A   1      30.776  23.401  24.949  1.00  0.00    -0.165 F 
ENDBRANCH  14  26
ENDBRANCH   5   6
ENDBRANCH   3   5
ENDBRANCH   2   3
ENDBRANCH   1   2
BRANCH   1  30
ATOM     30  C   UNL A   1      38.351  22.102  25.764  1.00  0.00     0.275 C 
BRANCH  30  31
ATOM     31  O   UNL A   1      38.788  22.778  26.954  1.00  0.00    -0.458 OA
BRANCH  31  32
ATOM     32  C   UNL A   1      40.118  22.781  27.214  1.00  0.00     0.338 C 
ATOM     33  O   UNL A   1      40.900  21.855  27.093  1.00  0.00    -0.246 OA
BRANCH  32  34
ATOM     34  C   UNL A   1      40.495  24.205  27.308  1.00  0.00     0.060 A 
ATOM     35  C   UNL A   1      41.368  24.637  28.306  1.00  0.00     0.016 A 
ATOM     36  C   UNL A   1      39.739  25.123  26.574  1.00  0.00     0.016 A 
ATOM     37  C   UNL A   1      41.343  25.973  28.682  1.00  0.00     0.010 A 
ATOM     38  C   UNL A   1      39.674  26.443  26.985  1.00  0.00     0.010 A 
ATOM     39  C   UNL A   1      40.426  26.849  28.080  1.00  0.00    -0.014 A 
BRANCH  39  40
ATOM     40  C   UNL A   1      40.456  28.252  28.450  1.00  0.00     0.031 A 
ATOM     41  C   UNL A   1      41.655  28.943  27.938  1.00  0.00     0.074 A 
ATOM     42  C   UNL A   1      39.534  28.969  29.115  1.00  0.00     0.049 A 
ATOM     43  N   UNL A   1      42.723  29.228  28.603  1.00  0.00    -0.248 NA
ATOM     44  C   UNL A   1      41.734  29.225  26.501  1.00  0.00     0.031 C 
ATOM     45  C   UNL A   1      38.152  28.657  29.467  1.00  0.00     0.029 A 
ATOM     46  N   UNL A   1      39.707  30.227  29.617  1.00  0.00    -0.354 N 
ATOM     47  C   UNL A   1      43.577  29.850  27.705  1.00  0.00     0.074 A 
ATOM     48  C   UNL A   1      42.979  29.694  26.404  1.00  0.00     0.031 C 
ATOM     49  C   UNL A   1      37.562  29.762  29.990  1.00  0.00     0.029 A 
ATOM     50  C   UNL A   1      38.573  30.794  30.170  1.00  0.00     0.049 A 
ATOM     51  H   UNL A   1      40.573  30.694  29.586  1.00  0.00     0.167 HD
ATOM     52  C   UNL A   1      44.626  30.596  28.141  1.00  0.00     0.037 A 
ATOM     53  C   UNL A   1      38.497  32.021  30.742  1.00  0.00     0.037 A 
ATOM     54  C   UNL A   1      44.933  30.311  29.522  1.00  0.00     0.049 A 
ATOM     55  C   UNL A   1      39.870  32.398  31.171  1.00  0.00     0.074 A 
ATOM     56  C   UNL A   1      45.307  29.170  30.209  1.00  0.00     0.029 A 
ATOM     57  N   UNL A   1      44.493  31.185  30.487  1.00  0.00    -0.354 N 
ATOM     58  N   UNL A   1      40.513  31.825  32.150  1.00  0.00    -0.248 NA
ATOM     59  C   UNL A   1      40.694  33.165  30.251  1.00  0.00     0.031 C 
ATOM     60  C   UNL A   1      44.612  29.239  31.454  1.00  0.00     0.029 A 
ATOM     61  C   UNL A   1      43.890  30.433  31.464  1.00  0.00     0.049 A 
ATOM     62  H   UNL A   1      44.593  32.165  30.480  1.00  0.00     0.167 HD
ATOM     63  C   UNL A   1      41.837  31.804  31.741  1.00  0.00     0.074 A 
ATOM     64  C   UNL A   1      41.903  32.735  30.620  1.00  0.00     0.031 C 
ATOM     65  C   UNL A   1      42.698  30.837  32.175  1.00  0.00     0.037 A 
BRANCH  52  66
ATOM     66  C   UNL A   1      45.178  31.789  27.409  1.00  0.00     0.064 A 
ATOM     67  C   UNL A   1      46.492  31.736  26.904  1.00  0.00     0.173 A 
ATOM     68  C   UNL A   1      44.580  33.068  27.414  1.00  0.00     0.173 A 
ATOM     69  F   UNL A   1      47.166  30.577  26.868  1.00  0.00    -0.203 F 
ATOM     70  C   UNL A   1      47.176  32.886  26.505  1.00  0.00     0.198 A 
ATOM     71  C   UNL A   1      45.246  34.205  26.961  1.00  0.00     0.198 A 
ATOM     72  F   UNL A   1      43.377  33.294  27.953  1.00  0.00    -0.203 F 
ATOM     73  F   UNL A   1      48.466  32.802  26.151  1.00  0.00    -0.200 F 
ATOM     74  C   UNL A   1      46.555  34.120  26.538  1.00  0.00     0.200 A 
ATOM     75  F   UNL A   1      44.629  35.394  27.015  1.00  0.00    -0.200 F 
ATOM     76  F   UNL A   1      47.226  35.232  26.212  1.00  0.00    -0.200 F 
ENDBRANCH  52  66
BRANCH  53  77
ATOM     77  C   UNL A   1      37.379  32.987  30.765  1.00  0.00     0.064 A 
ATOM     78  C   UNL A   1      36.793  33.455  29.577  1.00  0.00     0.173 A 
ATOM     79  C   UNL A   1      36.670  33.229  31.956  1.00  0.00     0.173 A 
ATOM     80  F   UNL A   1      37.384  33.226  28.396  1.00  0.00    -0.203 F 
ATOM     81  C   UNL A   1      35.550  34.096  29.578  1.00  0.00     0.198 A 
ATOM     82  C   UNL A   1      35.431  33.872  31.955  1.00  0.00     0.198 A 
ATOM     83  F   UNL A   1      37.118  32.753  33.126  1.00  0.00    -0.203 F 
ATOM     84  F   UNL A   1      34.989  34.467  28.419  1.00  0.00    -0.200 F 
ATOM     85  C   UNL A   1      34.865  34.292  30.765  1.00  0.00     0.200 A 
ATOM     86  F   UNL A   1      34.757  34.019  33.104  1.00  0.00    -0.200 F 
ATOM     87  F   UNL A   1      33.642  34.841  30.759  1.00  0.00    -0.200 F 
ENDBRANCH  53  77
BRANCH  65  88
ATOM     88  C   UNL A   1      42.246  29.954  33.307  1.00  0.00     0.064 A 
ATOM     89  C   UNL A   1      41.569  28.735  33.125  1.00  0.00     0.173 A 
ATOM     90  C   UNL A   1      42.641  30.280  34.612  1.00  0.00     0.173 A 
ATOM     91  F   UNL A   1      41.244  28.302  31.901  1.00  0.00    -0.203 F 
ATOM     92  C   UNL A   1      41.268  27.905  34.205  1.00  0.00     0.198 A 
ATOM     93  C   UNL A   1      42.372  29.432  35.683  1.00  0.00     0.198 A 
ATOM     94  F   UNL A   1      43.336  31.405  34.842  1.00  0.00    -0.203 F 
ATOM     95  F   UNL A   1      40.612  26.752  34.005  1.00  0.00    -0.200 F 
ATOM     96  C   UNL A   1      41.678  28.249  35.481  1.00  0.00     0.200 A 
ATOM     97  F   UNL A   1      42.813  29.746  36.909  1.00  0.00    -0.200 F 
ATOM     98  F   UNL A   1      41.431  27.430  36.512  1.00  0.00    -0.200 F 
ENDBRANCH  65  88
ENDBRANCH  39  40
ENDBRANCH  32  34
ENDBRANCH  31  32
ENDBRANCH  30  31
ENDBRANCH   1  30
TORSDOF 16
ENDMDL
MODEL 3
REMARK VINA RESULT:     -12.7      6.931     12.902
REMARK SMILES COc1ccc2c(c1)c(CC(=O)OCCOC(=O)c1ccc(-c3c4nc(c(-c5c(F)c(F)c(F)c(F)c5F)c5ccc([nH]5)c(-c5c(F)c(F)c(F)c(F)c5F)c5nc(c(-c6c(F)c(F)c(F)c(F)c6F)c6ccc3[nH]6)C=C5)C=C4)cc1)c(C(F)(F)F)n2C(=O)c1ccc(Cl)cc1
REMARK SMILES IDX 14 1 13 2 11 3 12 4 10 5 9 6 3 7 4 8 8 9 5 10 7 11 6 12
REMARK SMILES IDX 87 13 82 14 2 15 1 16 88 17 89 18 90 19 91 20 96 21 92 22
REMARK SMILES IDX 95 23 93 24 94 25 83 26 84 27 85 28 86 29 15 30 16 31 17 32
REMARK SMILES IDX 18 33 19 34 20 35 81 36 21 37 80 38 22 39 23 40 24 41 74 42
REMARK SMILES IDX 25 43 79 44 73 45 75 46 26 47 78 48 72 49 71 50 27 52 59 53
REMARK SMILES IDX 39 54 58 55 40 56 43 57 57 58 76 59 41 60 42 61 56 63 77 64
REMARK SMILES IDX 44 65 28 66 29 67 37 68 30 69 31 70 35 71 38 72 32 73 33 74
REMARK SMILES IDX 36 75 34 76 60 77 61 78 69 79 62 80 63 81 67 82 70 83 64 84
REMARK SMILES IDX 65 85 68 86 66 87 45 88 46 89 54 90 47 91 48 92 52 93 55 94
REMARK SMILES IDX 49 95 50 96 53 97 51 98
REMARK H PARENT 75 51 43 62
REMARK Flexibility Score: inf
ROOT
ATOM      1  C   UNL A   1      46.148  25.899  38.912  1.00  0.00     0.274 C 
ENDROOT
BRANCH   1   2
ATOM      2  O   UNL A   1      46.619  25.058  39.990  1.00  0.00    -0.462 OA
BRANCH   2   3
ATOM      3  C   UNL A   1      46.993  23.812  39.621  1.00  0.00     0.310 C 
ATOM      4  O   UNL A   1      48.150  23.399  39.656  1.00  0.00    -0.252 OA
BRANCH   3   5
ATOM      5  C   UNL A   1      45.904  22.960  39.042  1.00  0.00     0.161 C 
BRANCH   5   6
ATOM      6  C   UNL A   1      45.868  22.552  37.592  1.00  0.00     0.002 A 
ATOM      7  C   UNL A   1      43.206  24.019  35.215  1.00  0.00     0.119 A 
ATOM      8  C   UNL A   1      43.410  23.114  34.192  1.00  0.00     0.048 A 
ATOM      9  C   UNL A   1      44.049  23.991  36.337  1.00  0.00     0.057 A 
ATOM     10  C   UNL A   1      44.424  22.159  34.290  1.00  0.00     0.031 A 
ATOM     11  C   UNL A   1      45.028  22.982  36.513  1.00  0.00     0.008 A 
ATOM     12  C   UNL A   1      45.238  22.103  35.443  1.00  0.00     0.057 A 
ATOM     13  N   UNL A   1      46.358  21.323  35.762  1.00  0.00    -0.271 N 
ATOM     14  C   UNL A   1      46.545  21.421  37.132  1.00  0.00     0.135 A 
BRANCH   7  15
ATOM     15  O   UNL A   1      42.229  24.978  35.214  1.00  0.00    -0.497 OA
ATOM     16  C   UNL A   1      41.910  25.553  36.481  1.00  0.00     0.278 C 
ENDBRANCH   7  15
BRANCH  13  17
ATOM     17  C   UNL A   1      47.173  20.605  34.852  1.00  0.00     0.262 C 
ATOM     18  O   UNL A   1      46.746  19.556  34.383  1.00  0.00    -0.268 OA
BRANCH  17  19
ATOM     19  C   UNL A   1      48.547  20.982  34.505  1.00  0.00     0.040 A 
ATOM     20  C   UNL A   1      48.882  22.340  34.438  1.00  0.00     0.015 A 
ATOM     21  C   UNL A   1      49.465  19.989  34.156  1.00  0.00     0.015 A 
ATOM     22  C   UNL A   1      50.139  22.706  33.962  1.00  0.00     0.021 A 
ATOM     23  C   UNL A   1      50.723  20.365  33.684  1.00  0.00     0.021 A 
ATOM     24  C   UNL A   1      51.049  21.720  33.578  1.00  0.00     0.041 A 
ATOM     25  Cl  UNL A   1      52.578  22.179  32.938  1.00  0.00    -0.084 Cl
ENDBRANCH  17  19
ENDBRANCH  13  17
BRANCH  14  26
ATOM     26  C   UNL A   1      47.364  20.460  37.933  1.00  0.00     0.432 C 
ATOM     27  F   UNL A   1      47.270  19.201  37.442  1.00  0.00    -0.165 F 
ATOM     28  F   UNL A   1      48.684  20.799  37.845  1.00  0.00    -0.165 F 
ATOM     29  F   UNL A   1      47.109  20.436  39.259  1.00  0.00    -0.165 F 
ENDBRANCH  14  26
ENDBRANCH   5   6
ENDBRANCH   3   5
ENDBRANCH   2   3
ENDBRANCH   1   2
BRANCH   1  30
ATOM     30  C   UNL A   1      47.308  26.329  38.009  1.00  0.00     0.275 C 
BRANCH  30  31
ATOM     31  O   UNL A   1      46.963  26.046  36.644  1.00  0.00    -0.458 OA
BRANCH  31  32
ATOM     32  C   UNL A   1      46.173  26.941  36.003  1.00  0.00     0.338 C 
ATOM     33  O   UNL A   1      46.011  28.118  36.277  1.00  0.00    -0.246 OA
BRANCH  32  34
ATOM     34  C   UNL A   1      45.848  26.319  34.705  1.00  0.00     0.060 A 
ATOM     35  C   UNL A   1      46.668  25.322  34.178  1.00  0.00     0.016 A 
ATOM     36  C   UNL A   1      44.890  26.953  33.908  1.00  0.00     0.016 A 
ATOM     37  C   UNL A   1      46.643  25.092  32.809  1.00  0.00     0.010 A 
ATOM     38  C   UNL A   1      44.904  26.763  32.537  1.00  0.00     0.010 A 
ATOM     39  C   UNL A   1      45.827  25.882  31.985  1.00  0.00    -0.014 A 
BRANCH  39  40
ATOM     40  C   UNL A   1      45.777  25.587  30.565  1.00  0.00     0.031 A 
ATOM     41  C   UNL A   1      46.781  26.349  29.797  1.00  0.00     0.074 A 
ATOM     42  C   UNL A   1      45.005  24.699  29.914  1.00  0.00     0.049 A 
ATOM     43  N   UNL A   1      46.572  27.418  29.104  1.00  0.00    -0.248 NA
ATOM     44  C   UNL A   1      48.190  25.964  29.921  1.00  0.00     0.031 C 
ATOM     45  C   UNL A   1      44.167  23.615  30.414  1.00  0.00     0.029 A 
ATOM     46  N   UNL A   1      44.852  24.614  28.560  1.00  0.00    -0.354 N 
ATOM     47  C   UNL A   1      47.805  27.783  28.587  1.00  0.00     0.074 A 
ATOM     48  C   UNL A   1      48.781  26.942  29.233  1.00  0.00     0.031 C 
ATOM     49  C   UNL A   1      43.713  22.879  29.368  1.00  0.00     0.029 A 
ATOM     50  C   UNL A   1      44.085  23.547  28.128  1.00  0.00     0.049 A 
ATOM     51  H   UNL A   1      45.257  25.261  27.939  1.00  0.00     0.167 HD
ATOM     52  C   UNL A   1      47.897  28.637  27.533  1.00  0.00     0.037 A 
ATOM     53  C   UNL A   1      43.778  23.260  26.839  1.00  0.00     0.037 A 
ATOM     54  C   UNL A   1      46.663  29.363  27.341  1.00  0.00     0.049 A 
ATOM     55  C   UNL A   1      43.906  24.519  26.060  1.00  0.00     0.074 A 
ATOM     56  C   UNL A   1      45.922  30.226  28.128  1.00  0.00     0.029 A 
ATOM     57  N   UNL A   1      45.805  28.949  26.351  1.00  0.00    -0.354 N 
ATOM     58  N   UNL A   1      43.097  25.535  26.174  1.00  0.00    -0.248 NA
ATOM     59  C   UNL A   1      45.180  24.808  25.419  1.00  0.00     0.031 C 
ATOM     60  C   UNL A   1      44.559  29.891  27.868  1.00  0.00     0.029 A 
ATOM     61  C   UNL A   1      44.554  28.874  26.913  1.00  0.00     0.049 A 
ATOM     62  H   UNL A   1      46.041  28.747  25.417  1.00  0.00     0.167 HD
ATOM     63  C   UNL A   1      43.903  26.651  26.013  1.00  0.00     0.074 A 
ATOM     64  C   UNL A   1      45.147  26.142  25.446  1.00  0.00     0.031 C 
ATOM     65  C   UNL A   1      43.589  27.843  26.602  1.00  0.00     0.037 A 
BRANCH  52  66
ATOM     66  C   UNL A   1      48.993  28.598  26.504  1.00  0.00     0.064 A 
ATOM     67  C   UNL A   1      49.061  27.507  25.616  1.00  0.00     0.173 A 
ATOM     68  C   UNL A   1      50.128  29.437  26.523  1.00  0.00     0.173 A 
ATOM     69  F   UNL A   1      48.047  26.632  25.526  1.00  0.00    -0.203 F 
ATOM     70  C   UNL A   1      50.205  27.239  24.862  1.00  0.00     0.198 A 
ATOM     71  C   UNL A   1      51.246  29.199  25.726  1.00  0.00     0.198 A 
ATOM     72  F   UNL A   1      50.254  30.453  27.384  1.00  0.00    -0.203 F 
ATOM     73  F   UNL A   1      50.268  26.120  24.126  1.00  0.00    -0.200 F 
ATOM     74  C   UNL A   1      51.298  28.082  24.920  1.00  0.00     0.200 A 
ATOM     75  F   UNL A   1      52.301  30.022  25.809  1.00  0.00    -0.200 F 
ATOM     76  F   UNL A   1      52.418  27.796  24.244  1.00  0.00    -0.200 F 
ENDBRANCH  52  66
BRANCH  53  77
ATOM     77  C   UNL A   1      43.586  21.951  26.181  1.00  0.00     0.064 A 
ATOM     78  C   UNL A   1      44.678  21.199  25.716  1.00  0.00     0.173 A 
ATOM     79  C   UNL A   1      42.353  21.279  26.274  1.00  0.00     0.173 A 
ATOM     80  F   UNL A   1      45.896  21.753  25.639  1.00  0.00    -0.203 F 
ATOM     81  C   UNL A   1      44.550  19.843  25.397  1.00  0.00     0.198 A 
ATOM     82  C   UNL A   1      42.226  19.927  25.953  1.00  0.00     0.198 A 
ATOM     83  F   UNL A   1      41.275  21.898  26.778  1.00  0.00    -0.203 F 
ATOM     84  F   UNL A   1      45.628  19.140  25.024  1.00  0.00    -0.200 F 
ATOM     85  C   UNL A   1      43.328  19.206  25.529  1.00  0.00     0.200 A 
ATOM     86  F   UNL A   1      41.049  19.310  26.124  1.00  0.00    -0.200 F 
ATOM     87  F   UNL A   1      43.221  17.891  25.293  1.00  0.00    -0.200 F 
ENDBRANCH  53  77
BRANCH  65  88
ATOM     88  C   UNL A   1      42.219  27.986  27.207  1.00  0.00     0.064 A 
ATOM     89  C   UNL A   1      41.902  27.604  28.523  1.00  0.00     0.173 A 
ATOM     90  C   UNL A   1      41.232  28.667  26.480  1.00  0.00     0.173 A 
ATOM     91  F   UNL A   1      42.819  27.039  29.316  1.00  0.00    -0.203 F 
ATOM     92  C   UNL A   1      40.643  27.857  29.067  1.00  0.00     0.198 A 
ATOM     93  C   UNL A   1      39.988  28.951  27.040  1.00  0.00     0.198 A 
ATOM     94  F   UNL A   1      41.492  29.103  25.238  1.00  0.00    -0.203 F 
ATOM     95  F   UNL A   1      40.363  27.473  30.322  1.00  0.00    -0.200 F 
ATOM     96  C   UNL A   1      39.691  28.538  28.329  1.00  0.00     0.200 A 
ATOM     97  F   UNL A   1      39.087  29.653  26.339  1.00  0.00    -0.200 F 
ATOM     98  F   UNL A   1      38.497  28.824  28.868  1.00  0.00    -0.200 F 
ENDBRANCH  65  88
ENDBRANCH  39  40
ENDBRANCH  32  34
ENDBRANCH  31  32
ENDBRANCH  30  31
ENDBRANCH   1  30
TORSDOF 16
ENDMDL
