MODEL 1
REMARK VINA RESULT:     -13.0      0.000      0.000
REMARK SMILES Cc1nc(C[N@H+]2Cc3ccccc3C[C@@H]2C(=O)OCCOC(=O)c2ccc(-c3c4nc(c(-c5c(F)c(F)c(F)c(F)c5F)c5ccc([nH]5)c(-c5c(F)c(F)c(F)c(F)c5F)c5nc(c(-c6c(F)c(F)c(F)c(F)c6F)c6ccc3[nH]6)C=C5)C=C4)cc2)sc1C
REMARK SMILES IDX 19 1 18 2 16 3 17 4 15 5 6 6 7 7 8 9 14 10 9 11 13 12 10 13
REMARK SMILES IDX 12 14 11 15 5 16 4 17 1 18 2 19 3 20 88 21 87 22 89 23 20 24
REMARK SMILES IDX 21 25 22 26 23 27 24 28 25 29 86 30 26 31 85 32 27 33 28 34
REMARK SMILES IDX 29 35 79 36 30 37 84 38 78 39 80 40 31 41 83 42 77 43 76 44
REMARK SMILES IDX 32 46 64 47 44 48 63 49 45 50 48 51 62 52 81 53 46 54 47 55
REMARK SMILES IDX 61 57 82 58 49 59 33 60 34 61 42 62 35 63 36 64 40 65 43 66
REMARK SMILES IDX 37 67 38 68 41 69 39 70 65 71 66 72 74 73 67 74 68 75 72 76
REMARK SMILES IDX 75 77 69 78 70 79 73 80 71 81 50 82 51 83 59 84 52 85 53 86
REMARK SMILES IDX 57 87 60 88 54 89 55 90 58 91 56 92
REMARK H PARENT 6 8 80 45 48 56
REMARK Flexibility Score: inf
ROOT
ATOM      1  C   UNL A   1      31.858  28.277  26.716  1.00  0.00     0.274 C 
ENDROOT
BRANCH   1   2
ATOM      2  O   UNL A   1      31.931  27.252  25.704  1.00  0.00    -0.458 OA
BRANCH   2   3
ATOM      3  C   UNL A   1      30.887  26.379  25.700  1.00  0.00     0.365 C 
ATOM      4  O   UNL A   1      30.234  26.087  26.704  1.00  0.00    -0.245 OA
BRANCH   3   5
ATOM      5  C   UNL A   1      30.549  25.771  24.335  1.00  0.00     0.300 C 
ATOM      6  N   UNL A   1      31.646  25.907  23.343  1.00  0.00    -0.313 N 
ATOM      7  C   UNL A   1      31.478  26.990  22.357  1.00  0.00     0.300 C 
ATOM      8  H   UNL A   1      32.452  26.201  23.897  1.00  0.00     0.349 HD
ATOM      9  C   UNL A   1      30.393  28.012  22.632  1.00  0.00     0.010 A 
ATOM     10  C   UNL A   1      29.169  26.219  23.828  1.00  0.00     0.113 C 
ATOM     11  C   UNL A   1      30.476  29.313  22.118  1.00  0.00     0.010 A 
ATOM     12  C   UNL A   1      29.219  27.613  23.280  1.00  0.00    -0.033 A 
ATOM     13  C   UNL A   1      29.397  30.192  22.240  1.00  0.00     0.001 A 
ATOM     14  C   UNL A   1      28.123  28.477  23.351  1.00  0.00     0.004 A 
ATOM     15  C   UNL A   1      28.215  29.770  22.844  1.00  0.00     0.000 A 
BRANCH   6  16
ATOM     16  C   UNL A   1      31.976  24.605  22.697  1.00  0.00     0.332 C 
BRANCH  16  17
ATOM     17  C   UNL A   1      33.109  23.813  23.335  1.00  0.00     0.148 A 
ATOM     18  C   UNL A   1      36.599  22.978  23.171  1.00  0.00     0.068 C 
ATOM     19  C   UNL A   1      35.182  23.053  23.616  1.00  0.00     0.052 A 
ATOM     20  N   UNL A   1      34.273  23.616  22.746  1.00  0.00    -0.240 NA
ATOM     21  C   UNL A   1      34.643  22.671  24.830  1.00  0.00     0.025 A 
ATOM     22  S   UNL A   1      32.989  23.138  24.907  1.00  0.00    -0.118 S 
ATOM     23  C   UNL A   1      35.313  22.004  25.978  1.00  0.00     0.058 C 
ENDBRANCH  16  17
ENDBRANCH   6  16
ENDBRANCH   3   5
ENDBRANCH   2   3
ENDBRANCH   1   2
BRANCH   1  24
ATOM     24  C   UNL A   1      31.740  29.670  26.094  1.00  0.00     0.275 C 
BRANCH  24  25
ATOM     25  O   UNL A   1      33.041  30.270  26.000  1.00  0.00    -0.458 OA
BRANCH  25  26
ATOM     26  C   UNL A   1      33.354  31.172  26.957  1.00  0.00     0.338 C 
ATOM     27  O   UNL A   1      32.631  32.075  27.364  1.00  0.00    -0.246 OA
BRANCH  26  28
ATOM     28  C   UNL A   1      34.699  30.884  27.524  1.00  0.00     0.060 A 
ATOM     29  C   UNL A   1      35.092  29.585  27.847  1.00  0.00     0.016 A 
ATOM     30  C   UNL A   1      35.552  31.942  27.850  1.00  0.00     0.016 A 
ATOM     31  C   UNL A   1      36.245  29.358  28.605  1.00  0.00     0.010 A 
ATOM     32  C   UNL A   1      36.767  31.698  28.507  1.00  0.00     0.010 A 
ATOM     33  C   UNL A   1      37.115  30.405  28.935  1.00  0.00    -0.014 A 
BRANCH  33  34
ATOM     34  C   UNL A   1      38.355  30.162  29.738  1.00  0.00     0.031 A 
ATOM     35  C   UNL A   1      39.474  29.310  29.187  1.00  0.00     0.074 A 
ATOM     36  C   UNL A   1      38.504  30.697  30.969  1.00  0.00     0.049 A 
ATOM     37  N   UNL A   1      40.491  28.767  29.810  1.00  0.00    -0.248 NA
ATOM     38  C   UNL A   1      39.438  29.019  27.745  1.00  0.00     0.031 C 
ATOM     39  C   UNL A   1      37.554  31.590  31.632  1.00  0.00     0.029 A 
ATOM     40  N   UNL A   1      39.520  30.561  31.888  1.00  0.00    -0.354 N 
ATOM     41  C   UNL A   1      41.166  28.011  28.860  1.00  0.00     0.074 A 
ATOM     42  C   UNL A   1      40.456  28.179  27.609  1.00  0.00     0.031 C 
ATOM     43  C   UNL A   1      38.048  31.959  32.822  1.00  0.00     0.029 A 
ATOM     44  C   UNL A   1      39.291  31.236  33.062  1.00  0.00     0.049 A 
ATOM     45  H   UNL A   1      40.333  30.032  31.719  1.00  0.00     0.167 HD
ATOM     46  C   UNL A   1      42.270  27.239  29.017  1.00  0.00     0.037 A 
ATOM     47  C   UNL A   1      39.957  31.232  34.232  1.00  0.00     0.037 A 
ATOM     48  C   UNL A   1      43.024  27.131  30.240  1.00  0.00     0.049 A 
ATOM     49  C   UNL A   1      41.159  30.347  34.396  1.00  0.00     0.074 A 
ATOM     50  C   UNL A   1      44.167  26.389  30.488  1.00  0.00     0.029 A 
ATOM     51  N   UNL A   1      42.724  27.803  31.415  1.00  0.00    -0.354 N 
ATOM     52  N   UNL A   1      41.728  29.556  33.522  1.00  0.00    -0.248 NA
ATOM     53  C   UNL A   1      41.791  30.331  35.723  1.00  0.00     0.031 C 
ATOM     54  C   UNL A   1      44.544  26.590  31.821  1.00  0.00     0.029 A 
ATOM     55  C   UNL A   1      43.656  27.486  32.392  1.00  0.00     0.049 A 
ATOM     56  H   UNL A   1      41.962  28.414  31.538  1.00  0.00     0.167 HD
ATOM     57  C   UNL A   1      42.778  28.945  34.190  1.00  0.00     0.074 A 
ATOM     58  C   UNL A   1      42.788  29.479  35.536  1.00  0.00     0.031 C 
ATOM     59  C   UNL A   1      43.651  28.015  33.730  1.00  0.00     0.037 A 
BRANCH  46  60
ATOM     60  C   UNL A   1      42.720  26.411  27.849  1.00  0.00     0.064 A 
ATOM     61  C   UNL A   1      42.212  25.128  27.606  1.00  0.00     0.173 A 
ATOM     62  C   UNL A   1      43.631  26.944  26.922  1.00  0.00     0.173 A 
ATOM     63  F   UNL A   1      41.348  24.569  28.467  1.00  0.00    -0.203 F 
ATOM     64  C   UNL A   1      42.611  24.401  26.485  1.00  0.00     0.198 A 
ATOM     65  C   UNL A   1      44.008  26.226  25.791  1.00  0.00     0.198 A 
ATOM     66  F   UNL A   1      44.141  28.171  27.106  1.00  0.00    -0.203 F 
ATOM     67  F   UNL A   1      42.136  23.164  26.287  1.00  0.00    -0.200 F 
ATOM     68  C   UNL A   1      43.501  24.954  25.576  1.00  0.00     0.200 A 
ATOM     69  F   UNL A   1      44.858  26.768  24.907  1.00  0.00    -0.200 F 
ATOM     70  F   UNL A   1      43.872  24.259  24.490  1.00  0.00    -0.200 F 
ENDBRANCH  46  60
BRANCH  47  71
ATOM     71  C   UNL A   1      39.452  32.046  35.367  1.00  0.00     0.064 A 
ATOM     72  C   UNL A   1      38.556  31.505  36.299  1.00  0.00     0.173 A 
ATOM     73  C   UNL A   1      39.873  33.371  35.557  1.00  0.00     0.173 A 
ATOM     74  F   UNL A   1      38.102  30.254  36.142  1.00  0.00    -0.203 F 
ATOM     75  C   UNL A   1      38.103  32.259  37.379  1.00  0.00     0.198 A 
ATOM     76  C   UNL A   1      39.444  34.113  36.654  1.00  0.00     0.198 A 
ATOM     77  F   UNL A   1      40.726  33.935  34.689  1.00  0.00    -0.203 F 
ATOM     78  F   UNL A   1      37.223  31.730  38.239  1.00  0.00    -0.200 F 
ATOM     79  C   UNL A   1      38.556  33.557  37.563  1.00  0.00     0.200 A 
ATOM     80  F   UNL A   1      39.897  35.361  36.835  1.00  0.00    -0.200 F 
ATOM     81  F   UNL A   1      38.134  34.275  38.612  1.00  0.00    -0.200 F 
ENDBRANCH  47  71
BRANCH  59  82
ATOM     82  C   UNL A   1      44.696  27.530  34.689  1.00  0.00     0.064 A 
ATOM     83  C   UNL A   1      44.485  26.395  35.484  1.00  0.00     0.173 A 
ATOM     84  C   UNL A   1      45.923  28.198  34.803  1.00  0.00     0.173 A 
ATOM     85  F   UNL A   1      43.319  25.734  35.423  1.00  0.00    -0.203 F 
ATOM     86  C   UNL A   1      45.459  25.961  36.381  1.00  0.00     0.198 A 
ATOM     87  C   UNL A   1      46.902  27.749  35.683  1.00  0.00     0.198 A 
ATOM     88  F   UNL A   1      46.171  29.288  34.061  1.00  0.00    -0.203 F 
ATOM     89  F   UNL A   1      45.219  24.901  37.165  1.00  0.00    -0.200 F 
ATOM     90  C   UNL A   1      46.667  26.635  36.476  1.00  0.00     0.200 A 
ATOM     91  F   UNL A   1      48.073  28.396  35.771  1.00  0.00    -0.200 F 
ATOM     92  F   UNL A   1      47.602  26.218  37.341  1.00  0.00    -0.200 F 
ENDBRANCH  59  82
ENDBRANCH  33  34
ENDBRANCH  26  28
ENDBRANCH  25  26
ENDBRANCH  24  25
ENDBRANCH   1  24
TORSDOF 13
ENDMDL
MODEL 2
REMARK VINA RESULT:     -13.0      0.649      1.759
REMARK SMILES Cc1nc(C[N@H+]2Cc3ccccc3C[C@@H]2C(=O)OCCOC(=O)c2ccc(-c3c4nc(c(-c5c(F)c(F)c(F)c(F)c5F)c5ccc([nH]5)c(-c5c(F)c(F)c(F)c(F)c5F)c5nc(c(-c6c(F)c(F)c(F)c(F)c6F)c6ccc3[nH]6)C=C5)C=C4)cc2)sc1C
REMARK SMILES IDX 19 1 18 2 16 3 17 4 15 5 6 6 7 7 8 9 14 10 9 11 13 12 10 13
REMARK SMILES IDX 12 14 11 15 5 16 4 17 1 18 2 19 3 20 88 21 87 22 89 23 20 24
REMARK SMILES IDX 21 25 22 26 23 27 24 28 25 29 86 30 26 31 85 32 27 33 28 34
REMARK SMILES IDX 29 35 79 36 30 37 84 38 78 39 80 40 31 41 83 42 77 43 76 44
REMARK SMILES IDX 32 46 64 47 44 48 63 49 45 50 48 51 62 52 81 53 46 54 47 55
REMARK SMILES IDX 61 57 82 58 49 59 33 60 34 61 42 62 35 63 36 64 40 65 43 66
REMARK SMILES IDX 37 67 38 68 41 69 39 70 65 71 66 72 74 73 67 74 68 75 72 76
REMARK SMILES IDX 75 77 69 78 70 79 73 80 71 81 50 82 51 83 59 84 52 85 53 86
REMARK SMILES IDX 57 87 60 88 54 89 55 90 58 91 56 92
REMARK H PARENT 6 8 80 45 48 56
REMARK Flexibility Score: inf
ROOT
ATOM      1  C   UNL A   1      31.690  28.534  27.037  1.00  0.00     0.274 C 
ENDROOT
BRANCH   1   2
ATOM      2  O   UNL A   1      32.162  27.417  26.256  1.00  0.00    -0.458 OA
BRANCH   2   3
ATOM      3  C   UNL A   1      31.192  26.557  25.846  1.00  0.00     0.365 C 
ATOM      4  O   UNL A   1      30.303  26.124  26.583  1.00  0.00    -0.245 OA
BRANCH   3   5
ATOM      5  C   UNL A   1      31.258  26.152  24.369  1.00  0.00     0.300 C 
ATOM      6  N   UNL A   1      32.194  26.987  23.573  1.00  0.00    -0.313 N 
ATOM      7  C   UNL A   1      31.563  28.037  22.753  1.00  0.00     0.300 C 
ATOM      8  H   UNL A   1      32.726  27.507  24.272  1.00  0.00     0.349 HD
ATOM      9  C   UNL A   1      30.106  28.348  23.029  1.00  0.00     0.010 A 
ATOM     10  C   UNL A   1      29.861  25.990  23.751  1.00  0.00     0.113 C 
ATOM     11  C   UNL A   1      29.566  29.608  22.739  1.00  0.00     0.010 A 
ATOM     12  C   UNL A   1      29.248  27.320  23.438  1.00  0.00    -0.033 A 
ATOM     13  C   UNL A   1      28.190  29.830  22.844  1.00  0.00     0.001 A 
ATOM     14  C   UNL A   1      27.867  27.531  23.489  1.00  0.00     0.004 A 
ATOM     15  C   UNL A   1      27.339  28.787  23.205  1.00  0.00     0.000 A 
BRANCH   6  16
ATOM     16  C   UNL A   1      33.148  26.156  22.785  1.00  0.00     0.332 C 
BRANCH  16  17
ATOM     17  C   UNL A   1      33.588  24.851  23.435  1.00  0.00     0.148 A 
ATOM     18  C   UNL A   1      35.078  23.341  26.334  1.00  0.00     0.068 C 
ATOM     19  C   UNL A   1      34.434  23.520  25.006  1.00  0.00     0.052 A 
ATOM     20  N   UNL A   1      34.358  24.802  24.505  1.00  0.00    -0.240 NA
ATOM     21  C   UNL A   1      33.841  22.562  24.205  1.00  0.00     0.025 A 
ATOM     22  S   UNL A   1      33.081  23.318  22.858  1.00  0.00    -0.118 S 
ATOM     23  C   UNL A   1      33.767  21.092  24.410  1.00  0.00     0.058 C 
ENDBRANCH  16  17
ENDBRANCH   6  16
ENDBRANCH   3   5
ENDBRANCH   2   3
ENDBRANCH   1   2
BRANCH   1  24
ATOM     24  C   UNL A   1      31.658  29.822  26.210  1.00  0.00     0.275 C 
BRANCH  24  25
ATOM     25  O   UNL A   1      32.985  30.358  26.097  1.00  0.00    -0.458 OA
BRANCH  25  26
ATOM     26  C   UNL A   1      33.343  31.267  27.030  1.00  0.00     0.338 C 
ATOM     27  O   UNL A   1      32.652  32.192  27.442  1.00  0.00    -0.246 OA
BRANCH  26  28
ATOM     28  C   UNL A   1      34.698  30.959  27.564  1.00  0.00     0.060 A 
ATOM     29  C   UNL A   1      35.072  29.656  27.894  1.00  0.00     0.016 A 
ATOM     30  C   UNL A   1      35.581  32.003  27.851  1.00  0.00     0.016 A 
ATOM     31  C   UNL A   1      36.241  29.414  28.623  1.00  0.00     0.010 A 
ATOM     32  C   UNL A   1      36.809  31.742  28.478  1.00  0.00     0.010 A 
ATOM     33  C   UNL A   1      37.142  30.448  28.914  1.00  0.00    -0.014 A 
BRANCH  33  34
ATOM     34  C   UNL A   1      38.398  30.190  29.686  1.00  0.00     0.031 A 
ATOM     35  C   UNL A   1      39.504  29.345  29.097  1.00  0.00     0.074 A 
ATOM     36  C   UNL A   1      38.575  30.703  30.922  1.00  0.00     0.049 A 
ATOM     37  N   UNL A   1      40.533  28.790  29.689  1.00  0.00    -0.248 NA
ATOM     38  C   UNL A   1      39.436  29.077  27.651  1.00  0.00     0.031 C 
ATOM     39  C   UNL A   1      37.642  31.587  31.620  1.00  0.00     0.029 A 
ATOM     40  N   UNL A   1      39.610  30.551  31.817  1.00  0.00    -0.354 N 
ATOM     41  C   UNL A   1      41.185  28.048  28.712  1.00  0.00     0.074 A 
ATOM     42  C   UNL A   1      40.448  28.238  27.480  1.00  0.00     0.031 C 
ATOM     43  C   UNL A   1      38.162  31.936  32.805  1.00  0.00     0.029 A 
ATOM     44  C   UNL A   1      39.408  31.207  33.007  1.00  0.00     0.049 A 
ATOM     45  H   UNL A   1      40.418  30.023  31.622  1.00  0.00     0.167 HD
ATOM     46  C   UNL A   1      42.291  27.272  28.833  1.00  0.00     0.037 A 
ATOM     47  C   UNL A   1      40.099  31.182  34.162  1.00  0.00     0.037 A 
ATOM     48  C   UNL A   1      43.071  27.142  30.037  1.00  0.00     0.049 A 
ATOM     49  C   UNL A   1      41.303  30.293  34.285  1.00  0.00     0.074 A 
ATOM     50  C   UNL A   1      44.218  26.394  30.248  1.00  0.00     0.029 A 
ATOM     51  N   UNL A   1      42.798  27.795  31.229  1.00  0.00    -0.354 N 
ATOM     52  N   UNL A   1      41.851  29.515  33.385  1.00  0.00    -0.248 NA
ATOM     53  C   UNL A   1      41.963  30.254  35.598  1.00  0.00     0.031 C 
ATOM     54  C   UNL A   1      44.623  26.572  31.576  1.00  0.00     0.029 A 
ATOM     55  C   UNL A   1      43.750  27.461  32.180  1.00  0.00     0.049 A 
ATOM     56  H   UNL A   1      42.040  28.406  31.379  1.00  0.00     0.167 HD
ATOM     57  C   UNL A   1      42.914  28.891  34.020  1.00  0.00     0.074 A 
ATOM     58  C   UNL A   1      42.954  29.403  35.375  1.00  0.00     0.031 C 
ATOM     59  C   UNL A   1      43.775  27.968  33.527  1.00  0.00     0.037 A 
BRANCH  46  60
ATOM     60  C   UNL A   1      42.714  26.462  27.642  1.00  0.00     0.064 A 
ATOM     61  C   UNL A   1      43.687  26.915  26.741  1.00  0.00     0.173 A 
ATOM     62  C   UNL A   1      42.179  25.179  27.441  1.00  0.00     0.173 A 
ATOM     63  F   UNL A   1      44.221  28.137  26.881  1.00  0.00    -0.203 F 
ATOM     64  C   UNL A   1      44.098  26.119  25.672  1.00  0.00     0.198 A 
ATOM     65  C   UNL A   1      42.609  24.378  26.388  1.00  0.00     0.198 A 
ATOM     66  F   UNL A   1      41.250  24.696  28.281  1.00  0.00    -0.203 F 
ATOM     67  F   UNL A   1      45.007  26.583  24.804  1.00  0.00    -0.200 F 
ATOM     68  C   UNL A   1      43.565  24.849  25.503  1.00  0.00     0.200 A 
ATOM     69  F   UNL A   1      42.103  23.146  26.234  1.00  0.00    -0.200 F 
ATOM     70  F   UNL A   1      43.972  24.080  24.482  1.00  0.00    -0.200 F 
ENDBRANCH  46  60
BRANCH  47  71
ATOM     71  C   UNL A   1      39.620  31.979  35.321  1.00  0.00     0.064 A 
ATOM     72  C   UNL A   1      40.067  33.291  35.525  1.00  0.00     0.173 A 
ATOM     73  C   UNL A   1      38.690  31.454  36.231  1.00  0.00     0.173 A 
ATOM     74  F   UNL A   1      40.978  33.824  34.699  1.00  0.00    -0.203 F 
ATOM     75  C   UNL A   1      39.597  34.049  36.595  1.00  0.00     0.198 A 
ATOM     76  C   UNL A   1      38.198  32.223  37.281  1.00  0.00     0.198 A 
ATOM     77  F   UNL A   1      38.238  30.201  36.079  1.00  0.00    -0.203 F 
ATOM     78  F   UNL A   1      40.061  35.291  36.788  1.00  0.00    -0.200 F 
ATOM     79  C   UNL A   1      38.655  33.519  37.465  1.00  0.00     0.200 A 
ATOM     80  F   UNL A   1      37.277  31.712  38.109  1.00  0.00    -0.200 F 
ATOM     81  F   UNL A   1      38.191  34.256  38.483  1.00  0.00    -0.200 F 
ENDBRANCH  47  71
BRANCH  59  82
ATOM     82  C   UNL A   1      44.839  27.465  34.455  1.00  0.00     0.064 A 
ATOM     83  C   UNL A   1      44.645  26.315  35.233  1.00  0.00     0.173 A 
ATOM     84  C   UNL A   1      46.069  28.132  34.556  1.00  0.00     0.173 A 
ATOM     85  F   UNL A   1      43.478  25.655  35.183  1.00  0.00    -0.203 F 
ATOM     86  C   UNL A   1      45.637  25.865  36.101  1.00  0.00     0.198 A 
ATOM     87  C   UNL A   1      47.066  27.666  35.407  1.00  0.00     0.198 A 
ATOM     88  F   UNL A   1      46.302  29.235  33.829  1.00  0.00    -0.203 F 
ATOM     89  F   UNL A   1      45.413  24.790  36.870  1.00  0.00    -0.200 F 
ATOM     90  C   UNL A   1      46.847  26.537  36.184  1.00  0.00     0.200 A 
ATOM     91  F   UNL A   1      48.238  28.312  35.483  1.00  0.00    -0.200 F 
ATOM     92  F   UNL A   1      47.799  26.104  37.021  1.00  0.00    -0.200 F 
ENDBRANCH  59  82
ENDBRANCH  33  34
ENDBRANCH  26  28
ENDBRANCH  25  26
ENDBRANCH  24  25
ENDBRANCH   1  24
TORSDOF 13
ENDMDL
MODEL 3
REMARK VINA RESULT:     -12.9      1.535      3.927
REMARK SMILES Cc1nc(C[N@H+]2Cc3ccccc3C[C@@H]2C(=O)OCCOC(=O)c2ccc(-c3c4nc(c(-c5c(F)c(F)c(F)c(F)c5F)c5ccc([nH]5)c(-c5c(F)c(F)c(F)c(F)c5F)c5nc(c(-c6c(F)c(F)c(F)c(F)c6F)c6ccc3[nH]6)C=C5)C=C4)cc2)sc1C
REMARK SMILES IDX 19 1 18 2 16 3 17 4 15 5 6 6 7 7 8 9 14 10 9 11 13 12 10 13
REMARK SMILES IDX 12 14 11 15 5 16 4 17 1 18 2 19 3 20 88 21 87 22 89 23 20 24
REMARK SMILES IDX 21 25 22 26 23 27 24 28 25 29 86 30 26 31 85 32 27 33 28 34
REMARK SMILES IDX 29 35 79 36 30 37 84 38 78 39 80 40 31 41 83 42 77 43 76 44
REMARK SMILES IDX 32 46 64 47 44 48 63 49 45 50 48 51 62 52 81 53 46 54 47 55
REMARK SMILES IDX 61 57 82 58 49 59 33 60 34 61 42 62 35 63 36 64 40 65 43 66
REMARK SMILES IDX 37 67 38 68 41 69 39 70 65 71 66 72 74 73 67 74 68 75 72 76
REMARK SMILES IDX 75 77 69 78 70 79 73 80 71 81 50 82 51 83 59 84 52 85 53 86
REMARK SMILES IDX 57 87 60 88 54 89 55 90 58 91 56 92
REMARK H PARENT 6 8 80 45 48 56
REMARK Flexibility Score: inf
ROOT
ATOM      1  C   UNL A   1      32.863  29.588  25.002  1.00  0.00     0.274 C 
ENDROOT
BRANCH   1   2
ATOM      2  O   UNL A   1      32.267  28.381  24.484  1.00  0.00    -0.458 OA
BRANCH   2   3
ATOM      3  C   UNL A   1      32.314  28.258  23.130  1.00  0.00     0.365 C 
ATOM      4  O   UNL A   1      33.283  28.591  22.444  1.00  0.00    -0.245 OA
BRANCH   3   5
ATOM      5  C   UNL A   1      31.063  27.653  22.485  1.00  0.00     0.300 C 
ATOM      6  N   UNL A   1      29.906  27.567  23.413  1.00  0.00    -0.313 N 
ATOM      7  C   UNL A   1      29.658  26.235  23.993  1.00  0.00     0.300 C 
ATOM      8  H   UNL A   1      30.183  28.136  24.214  1.00  0.00     0.349 HD
ATOM      9  C   UNL A   1      30.748  25.195  23.829  1.00  0.00     0.010 A 
ATOM     10  C   UNL A   1      31.374  26.352  21.728  1.00  0.00     0.113 C 
ATOM     11  C   UNL A   1      30.885  24.138  24.738  1.00  0.00     0.010 A 
ATOM     12  C   UNL A   1      31.537  25.201  22.673  1.00  0.00    -0.033 A 
ATOM     13  C   UNL A   1      31.785  23.100  24.487  1.00  0.00     0.001 A 
ATOM     14  C   UNL A   1      32.396  24.133  22.399  1.00  0.00     0.004 A 
ATOM     15  C   UNL A   1      32.530  23.090  23.310  1.00  0.00     0.000 A 
BRANCH   6  16
ATOM     16  C   UNL A   1      28.674  28.162  22.823  1.00  0.00     0.332 C 
BRANCH  16  17
ATOM     17  C   UNL A   1      28.738  29.651  22.510  1.00  0.00     0.148 A 
ATOM     18  C   UNL A   1      27.875  32.224  20.155  1.00  0.00     0.068 C 
ATOM     19  C   UNL A   1      28.396  31.527  21.362  1.00  0.00     0.052 A 
ATOM     20  N   UNL A   1      28.464  30.151  21.320  1.00  0.00    -0.240 NA
ATOM     21  C   UNL A   1      28.785  32.078  22.568  1.00  0.00     0.025 A 
ATOM     22  S   UNL A   1      29.131  30.825  23.697  1.00  0.00    -0.118 S 
ATOM     23  C   UNL A   1      28.874  33.511  22.953  1.00  0.00     0.058 C 
ENDBRANCH  16  17
ENDBRANCH   6  16
ENDBRANCH   3   5
ENDBRANCH   2   3
ENDBRANCH   1   2
BRANCH   1  24
ATOM     24  C   UNL A   1      31.871  30.379  25.858  1.00  0.00     0.275 C 
BRANCH  24  25
ATOM     25  O   UNL A   1      32.412  30.572  27.174  1.00  0.00    -0.458 OA
BRANCH  25  26
ATOM     26  C   UNL A   1      33.160  31.682  27.356  1.00  0.00     0.338 C 
ATOM     27  O   UNL A   1      32.788  32.840  27.195  1.00  0.00    -0.246 OA
BRANCH  26  28
ATOM     28  C   UNL A   1      34.513  31.322  27.859  1.00  0.00     0.060 A 
ATOM     29  C   UNL A   1      34.854  30.003  28.157  1.00  0.00     0.016 A 
ATOM     30  C   UNL A   1      35.434  32.333  28.149  1.00  0.00     0.016 A 
ATOM     31  C   UNL A   1      36.028  29.711  28.859  1.00  0.00     0.010 A 
ATOM     32  C   UNL A   1      36.664  32.023  28.748  1.00  0.00     0.010 A 
ATOM     33  C   UNL A   1      36.964  30.711  29.153  1.00  0.00    -0.014 A 
BRANCH  33  34
ATOM     34  C   UNL A   1      38.226  30.399  29.896  1.00  0.00     0.031 A 
ATOM     35  C   UNL A   1      39.287  29.519  29.277  1.00  0.00     0.074 A 
ATOM     36  C   UNL A   1      38.447  30.895  31.133  1.00  0.00     0.049 A 
ATOM     37  N   UNL A   1      40.307  28.921  29.843  1.00  0.00    -0.248 NA
ATOM     38  C   UNL A   1      39.179  29.267  27.831  1.00  0.00     0.031 C 
ATOM     39  C   UNL A   1      37.563  31.807  31.857  1.00  0.00     0.029 A 
ATOM     40  N   UNL A   1      39.494  30.696  32.004  1.00  0.00    -0.354 N 
ATOM     41  C   UNL A   1      40.910  28.164  28.847  1.00  0.00     0.074 A 
ATOM     42  C   UNL A   1      40.156  28.392  27.632  1.00  0.00     0.031 C 
ATOM     43  C   UNL A   1      38.120  32.126  33.033  1.00  0.00     0.029 A 
ATOM     44  C   UNL A   1      39.341  31.349  33.203  1.00  0.00     0.049 A 
ATOM     45  H   UNL A   1      40.278  30.141  31.788  1.00  0.00     0.167 HD
ATOM     46  C   UNL A   1      41.988  27.347  28.938  1.00  0.00     0.037 A 
ATOM     47  C   UNL A   1      40.055  31.288  34.343  1.00  0.00     0.037 A 
ATOM     48  C   UNL A   1      42.788  27.177  30.125  1.00  0.00     0.049 A 
ATOM     49  C   UNL A   1      41.227  30.354  34.434  1.00  0.00     0.074 A 
ATOM     50  C   UNL A   1      43.910  26.385  30.305  1.00  0.00     0.029 A 
ATOM     51  N   UNL A   1      42.564  27.829  31.328  1.00  0.00    -0.354 N 
ATOM     52  N   UNL A   1      41.727  29.564  33.517  1.00  0.00    -0.248 NA
ATOM     53  C   UNL A   1      41.912  30.279  35.732  1.00  0.00     0.031 C 
ATOM     54  C   UNL A   1      44.349  26.536  31.626  1.00  0.00     0.029 A 
ATOM     55  C   UNL A   1      43.523  27.452  32.256  1.00  0.00     0.049 A 
ATOM     56  H   UNL A   1      41.833  28.466  31.498  1.00  0.00     0.167 HD
ATOM     57  C   UNL A   1      42.779  28.896  34.124  1.00  0.00     0.074 A 
ATOM     58  C   UNL A   1      42.866  29.393  35.482  1.00  0.00     0.031 C 
ATOM     59  C   UNL A   1      43.594  27.945  33.605  1.00  0.00     0.037 A 
BRANCH  46  60
ATOM     60  C   UNL A   1      42.357  26.532  27.732  1.00  0.00     0.064 A 
ATOM     61  C   UNL A   1      43.343  26.945  26.827  1.00  0.00     0.173 A 
ATOM     62  C   UNL A   1      41.752  25.282  27.521  1.00  0.00     0.173 A 
ATOM     63  F   UNL A   1      43.942  28.136  26.978  1.00  0.00    -0.203 F 
ATOM     64  C   UNL A   1      43.700  26.144  25.744  1.00  0.00     0.198 A 
ATOM     65  C   UNL A   1      42.129  24.473  26.452  1.00  0.00     0.198 A 
ATOM     66  F   UNL A   1      40.808  24.837  28.364  1.00  0.00    -0.203 F 
ATOM     67  F   UNL A   1      44.624  26.571  24.872  1.00  0.00    -0.200 F 
ATOM     68  C   UNL A   1      43.099  24.906  25.563  1.00  0.00     0.200 A 
ATOM     69  F   UNL A   1      41.557  23.272  26.288  1.00  0.00    -0.200 F 
ATOM     70  F   UNL A   1      43.455  24.131  24.528  1.00  0.00    -0.200 F 
ENDBRANCH  46  60
BRANCH  47  71
ATOM     71  C   UNL A   1      39.631  32.092  35.518  1.00  0.00     0.064 A 
ATOM     72  C   UNL A   1      40.142  33.379  35.732  1.00  0.00     0.173 A 
ATOM     73  C   UNL A   1      38.689  31.601  36.435  1.00  0.00     0.173 A 
ATOM     74  F   UNL A   1      41.067  33.878  34.901  1.00  0.00    -0.203 F 
ATOM     75  C   UNL A   1      39.723  34.145  36.818  1.00  0.00     0.198 A 
ATOM     76  C   UNL A   1      38.248  32.379  37.501  1.00  0.00     0.198 A 
ATOM     77  F   UNL A   1      38.175  30.372  36.274  1.00  0.00    -0.203 F 
ATOM     78  F   UNL A   1      40.249  35.360  37.020  1.00  0.00    -0.200 F 
ATOM     79  C   UNL A   1      38.768  33.649  37.694  1.00  0.00     0.200 A 
ATOM     80  F   UNL A   1      37.314  31.902  38.335  1.00  0.00    -0.200 F 
ATOM     81  F   UNL A   1      38.354  34.394  38.728  1.00  0.00    -0.200 F 
ENDBRANCH  47  71
BRANCH  59  82
ATOM     82  C   UNL A   1      44.658  27.395  34.507  1.00  0.00     0.064 A 
ATOM     83  C   UNL A   1      44.441  26.239  35.270  1.00  0.00     0.173 A 
ATOM     84  C   UNL A   1      45.909  28.022  34.597  1.00  0.00     0.173 A 
ATOM     85  F   UNL A   1      43.254  25.616  35.230  1.00  0.00    -0.203 F 
ATOM     86  C   UNL A   1      45.433  25.744  36.113  1.00  0.00     0.198 A 
ATOM     87  C   UNL A   1      46.906  27.512  35.424  1.00  0.00     0.198 A 
ATOM     88  F   UNL A   1      46.164  29.129  33.884  1.00  0.00    -0.203 F 
ATOM     89  F   UNL A   1      45.190  24.665  36.869  1.00  0.00    -0.200 F 
ATOM     90  C   UNL A   1      46.665  26.378  36.186  1.00  0.00     0.200 A 
ATOM     91  F   UNL A   1      48.098  28.121  35.489  1.00  0.00    -0.200 F 
ATOM     92  F   UNL A   1      47.617  25.902  37.000  1.00  0.00    -0.200 F 
ENDBRANCH  59  82
ENDBRANCH  33  34
ENDBRANCH  26  28
ENDBRANCH  25  26
ENDBRANCH  24  25
ENDBRANCH   1  24
TORSDOF 13
ENDMDL
