MODEL 1
REMARK VINA RESULT:     -12.1      0.000      0.000
REMARK SMILES O=C(OCCOC(=O)[C@H]1CC[C@H](CN2C(=O)c3cccnc3C2=O)O1)c1ccc(-c2c3nc(c(-c4c(F)c(F)c(F)c(F)c4F)c4ccc([nH]4)c(-c4c(F)c(F)c(F)c(F)c4F)c4nc(c(-c5c(F)c(F)c(F)c(F)c5F)c5ccc2[nH]5)C=C4)C=C3)cc1
REMARK SMILES IDX 4 1 3 2 2 3 1 4 26 5 27 6 88 7 28 8 87 9 29 10 30 11 31 12
REMARK SMILES IDX 81 13 32 14 86 15 80 16 82 17 33 18 85 19 79 20 78 21 34 23
REMARK SMILES IDX 66 24 46 25 65 26 47 27 50 28 64 29 83 30 48 31 49 32 63 34
REMARK SMILES IDX 84 35 51 36 35 37 36 38 44 39 37 40 38 41 42 42 45 43 39 44
REMARK SMILES IDX 40 45 43 46 41 47 67 48 68 49 76 50 69 51 70 52 74 53 77 54
REMARK SMILES IDX 71 55 72 56 75 57 73 58 52 59 53 60 61 61 54 62 55 63 59 64
REMARK SMILES IDX 62 65 56 66 57 67 60 68 58 69 5 70 6 71 7 72 8 73 9 74 10 75
REMARK SMILES IDX 25 76 11 77 12 78 13 79 14 80 15 81 23 82 16 83 17 84 22 85
REMARK SMILES IDX 24 86 18 87 21 88 19 89 20 90
REMARK H PARENT 82 22 50 33
REMARK Flexibility Score: inf
ROOT
ATOM      1  C   UNL A   1      38.866  19.438  25.656  1.00  0.00     0.275 C 
ENDROOT
BRANCH   1   2
ATOM      2  O   UNL A   1      40.246  19.741  25.932  1.00  0.00    -0.458 OA
BRANCH   2   3
ATOM      3  C   UNL A   1      40.810  20.311  27.024  1.00  0.00     0.338 C 
ATOM      4  O   UNL A   1      40.982  19.614  28.023  1.00  0.00    -0.246 OA
BRANCH   3   5
ATOM      5  C   UNL A   1      41.102  21.779  27.143  1.00  0.00     0.060 A 
ATOM      6  C   UNL A   1      40.594  22.799  26.333  1.00  0.00     0.016 A 
ATOM      7  C   UNL A   1      41.936  22.156  28.215  1.00  0.00     0.016 A 
ATOM      8  C   UNL A   1      40.814  24.146  26.633  1.00  0.00     0.010 A 
ATOM      9  C   UNL A   1      42.166  23.500  28.522  1.00  0.00     0.010 A 
ATOM     10  C   UNL A   1      41.593  24.502  27.733  1.00  0.00    -0.014 A 
BRANCH  10  11
ATOM     11  C   UNL A   1      42.010  25.907  27.897  1.00  0.00     0.031 A 
ATOM     12  C   UNL A   1      43.337  26.285  27.319  1.00  0.00     0.074 A 
ATOM     13  C   UNL A   1      41.228  26.812  28.508  1.00  0.00     0.049 A 
ATOM     14  N   UNL A   1      43.972  27.424  27.362  1.00  0.00    -0.248 NA
ATOM     15  C   UNL A   1      44.047  25.219  26.593  1.00  0.00     0.031 C 
ATOM     16  C   UNL A   1      39.895  26.552  29.046  1.00  0.00     0.029 A 
ATOM     17  N   UNL A   1      41.447  28.137  28.787  1.00  0.00    -0.354 N 
ATOM     18  C   UNL A   1      45.161  27.205  26.682  1.00  0.00     0.074 A 
ATOM     19  C   UNL A   1      45.178  25.822  26.270  1.00  0.00     0.031 C 
ATOM     20  C   UNL A   1      39.420  27.677  29.609  1.00  0.00     0.029 A 
ATOM     21  C   UNL A   1      40.431  28.725  29.502  1.00  0.00     0.049 A 
ATOM     22  H   UNL A   1      42.256  28.621  28.501  1.00  0.00     0.167 HD
ATOM     23  C   UNL A   1      46.150  28.089  26.424  1.00  0.00     0.037 A 
ATOM     24  C   UNL A   1      40.352  29.962  30.030  1.00  0.00     0.037 A 
ATOM     25  C   UNL A   1      46.125  29.450  26.879  1.00  0.00     0.049 A 
ATOM     26  C   UNL A   1      41.504  30.909  29.809  1.00  0.00     0.074 A 
ATOM     27  C   UNL A   1      47.076  30.436  26.709  1.00  0.00     0.029 A 
ATOM     28  N   UNL A   1      45.089  30.006  27.620  1.00  0.00    -0.354 N 
ATOM     29  N   UNL A   1      42.624  30.708  29.154  1.00  0.00    -0.248 NA
ATOM     30  C   UNL A   1      41.386  32.252  30.392  1.00  0.00     0.031 C 
ATOM     31  C   UNL A   1      46.645  31.571  27.403  1.00  0.00     0.029 A 
ATOM     32  C   UNL A   1      45.389  31.318  27.939  1.00  0.00     0.049 A 
ATOM     33  H   UNL A   1      44.264  29.536  27.881  1.00  0.00     0.167 HD
ATOM     34  C   UNL A   1      43.326  31.904  29.212  1.00  0.00     0.074 A 
ATOM     35  C   UNL A   1      42.506  32.827  29.972  1.00  0.00     0.031 C 
ATOM     36  C   UNL A   1      44.534  32.215  28.678  1.00  0.00     0.037 A 
BRANCH  23  37
ATOM     37  C   UNL A   1      47.347  27.560  25.690  1.00  0.00     0.064 A 
ATOM     38  C   UNL A   1      48.462  27.039  26.369  1.00  0.00     0.173 A 
ATOM     39  C   UNL A   1      47.416  27.656  24.294  1.00  0.00     0.173 A 
ATOM     40  F   UNL A   1      48.459  26.952  27.708  1.00  0.00    -0.203 F 
ATOM     41  C   UNL A   1      49.622  26.696  25.679  1.00  0.00     0.198 A 
ATOM     42  C   UNL A   1      48.564  27.275  23.605  1.00  0.00     0.198 A 
ATOM     43  F   UNL A   1      46.382  28.150  23.597  1.00  0.00    -0.203 F 
ATOM     44  F   UNL A   1      50.707  26.294  26.357  1.00  0.00    -0.200 F 
ATOM     45  C   UNL A   1      49.672  26.812  24.299  1.00  0.00     0.200 A 
ATOM     46  F   UNL A   1      48.607  27.380  22.270  1.00  0.00    -0.200 F 
ATOM     47  F   UNL A   1      50.795  26.499  23.639  1.00  0.00    -0.200 F 
ENDBRANCH  23  37
BRANCH  24  48
ATOM     48  C   UNL A   1      39.154  30.363  30.817  1.00  0.00     0.064 A 
ATOM     49  C   UNL A   1      39.083  30.147  32.199  1.00  0.00     0.173 A 
ATOM     50  C   UNL A   1      38.055  30.983  30.200  1.00  0.00     0.173 A 
ATOM     51  F   UNL A   1      40.095  29.539  32.834  1.00  0.00    -0.203 F 
ATOM     52  C   UNL A   1      37.960  30.528  32.933  1.00  0.00     0.198 A 
ATOM     53  C   UNL A   1      36.944  31.387  30.940  1.00  0.00     0.198 A 
ATOM     54  F   UNL A   1      38.067  31.211  28.879  1.00  0.00    -0.203 F 
ATOM     55  F   UNL A   1      37.905  30.277  34.250  1.00  0.00    -0.200 F 
ATOM     56  C   UNL A   1      36.895  31.154  32.305  1.00  0.00     0.200 A 
ATOM     57  F   UNL A   1      35.922  32.002  30.329  1.00  0.00    -0.200 F 
ATOM     58  F   UNL A   1      35.820  31.529  33.013  1.00  0.00    -0.200 F 
ENDBRANCH  24  48
BRANCH  36  59
ATOM     59  C   UNL A   1      45.023  33.625  28.832  1.00  0.00     0.064 A 
ATOM     60  C   UNL A   1      45.923  33.993  29.841  1.00  0.00     0.173 A 
ATOM     61  C   UNL A   1      44.669  34.591  27.877  1.00  0.00     0.173 A 
ATOM     62  F   UNL A   1      46.281  33.108  30.784  1.00  0.00    -0.203 F 
ATOM     63  C   UNL A   1      46.448  35.281  29.891  1.00  0.00     0.198 A 
ATOM     64  C   UNL A   1      45.222  35.867  27.910  1.00  0.00     0.198 A 
ATOM     65  F   UNL A   1      43.817  34.283  26.888  1.00  0.00    -0.203 F 
ATOM     66  F   UNL A   1      47.289  35.621  30.877  1.00  0.00    -0.200 F 
ATOM     67  C   UNL A   1      46.110  36.211  28.918  1.00  0.00     0.200 A 
ATOM     68  F   UNL A   1      44.909  36.755  26.957  1.00  0.00    -0.200 F 
ATOM     69  F   UNL A   1      46.642  37.441  28.949  1.00  0.00    -0.200 F 
ENDBRANCH  36  59
ENDBRANCH  10  11
ENDBRANCH   3   5
ENDBRANCH   2   3
ENDBRANCH   1   2
BRANCH   1  70
ATOM     70  C   UNL A   1      38.155  20.549  24.880  1.00  0.00     0.274 C 
BRANCH  70  71
ATOM     71  O   UNL A   1      37.449  21.453  25.744  1.00  0.00    -0.460 OA
BRANCH  71  72
ATOM     72  C   UNL A   1      36.932  22.577  25.161  1.00  0.00     0.335 C 
ATOM     73  O   UNL A   1      37.249  23.724  25.444  1.00  0.00    -0.249 OA
BRANCH  72  74
ATOM     74  C   UNL A   1      35.926  22.187  24.068  1.00  0.00     0.228 C 
ATOM     75  C   UNL A   1      34.650  21.593  24.615  1.00  0.00     0.047 C 
ATOM     76  O   UNL A   1      35.521  23.318  23.291  1.00  0.00    -0.361 OA
ATOM     77  C   UNL A   1      33.786  22.813  24.815  1.00  0.00     0.037 C 
ATOM     78  C   UNL A   1      34.207  23.742  23.680  1.00  0.00     0.139 C 
BRANCH  78  79
ATOM     79  C   UNL A   1      33.290  23.727  22.437  1.00  0.00     0.161 C 
BRANCH  79  80
ATOM     80  N   UNL A   1      32.421  24.887  22.399  1.00  0.00    -0.270 N 
ATOM     81  C   UNL A   1      31.150  24.904  22.897  1.00  0.00     0.263 C 
ATOM     82  C   UNL A   1      32.860  26.146  22.070  1.00  0.00     0.280 C 
ATOM     83  O   UNL A   1      30.479  23.982  23.325  1.00  0.00    -0.269 OA
ATOM     84  C   UNL A   1      30.744  26.299  22.953  1.00  0.00     0.071 A 
ATOM     85  C   UNL A   1      31.774  27.059  22.454  1.00  0.00     0.141 A 
ATOM     86  O   UNL A   1      33.944  26.462  21.622  1.00  0.00    -0.267 OA
ATOM     87  C   UNL A   1      29.650  26.907  23.529  1.00  0.00     0.018 A 
ATOM     88  N   UNL A   1      31.841  28.402  22.481  1.00  0.00    -0.250 NA
ATOM     89  C   UNL A   1      29.667  28.302  23.581  1.00  0.00     0.021 A 
ATOM     90  C   UNL A   1      30.766  28.996  23.054  1.00  0.00     0.112 A 
ENDBRANCH  79  80
ENDBRANCH  78  79
ENDBRANCH  72  74
ENDBRANCH  71  72
ENDBRANCH  70  71
ENDBRANCH   1  70
TORSDOF 13
ENDMDL
MODEL 2
REMARK VINA RESULT:     -12.0      4.543     10.536
REMARK SMILES O=C(OCCOC(=O)[C@H]1CC[C@H](CN2C(=O)c3cccnc3C2=O)O1)c1ccc(-c2c3nc(c(-c4c(F)c(F)c(F)c(F)c4F)c4ccc([nH]4)c(-c4c(F)c(F)c(F)c(F)c4F)c4nc(c(-c5c(F)c(F)c(F)c(F)c5F)c5ccc2[nH]5)C=C4)C=C3)cc1
REMARK SMILES IDX 4 1 3 2 2 3 1 4 26 5 27 6 88 7 28 8 87 9 29 10 30 11 31 12
REMARK SMILES IDX 81 13 32 14 86 15 80 16 82 17 33 18 85 19 79 20 78 21 34 23
REMARK SMILES IDX 66 24 46 25 65 26 47 27 50 28 64 29 83 30 48 31 49 32 63 34
REMARK SMILES IDX 84 35 51 36 35 37 36 38 44 39 37 40 38 41 42 42 45 43 39 44
REMARK SMILES IDX 40 45 43 46 41 47 67 48 68 49 76 50 69 51 70 52 74 53 77 54
REMARK SMILES IDX 71 55 72 56 75 57 73 58 52 59 53 60 61 61 54 62 55 63 59 64
REMARK SMILES IDX 62 65 56 66 57 67 60 68 58 69 5 70 6 71 7 72 8 73 9 74 10 75
REMARK SMILES IDX 25 76 11 77 12 78 13 79 14 80 15 81 23 82 16 83 17 84 22 85
REMARK SMILES IDX 24 86 18 87 21 88 19 89 20 90
REMARK H PARENT 82 22 50 33
REMARK Flexibility Score: inf
ROOT
ATOM      1  C   UNL A   1      31.970  33.102  26.741  1.00  0.00     0.275 C 
ENDROOT
BRANCH   1   2
ATOM      2  O   UNL A   1      32.613  33.821  27.810  1.00  0.00    -0.458 OA
BRANCH   2   3
ATOM      3  C   UNL A   1      33.912  34.168  27.966  1.00  0.00     0.338 C 
ATOM      4  O   UNL A   1      34.304  35.214  27.450  1.00  0.00    -0.246 OA
BRANCH   3   5
ATOM      5  C   UNL A   1      34.942  33.281  28.606  1.00  0.00     0.060 A 
ATOM      6  C   UNL A   1      34.741  31.988  29.097  1.00  0.00     0.016 A 
ATOM      7  C   UNL A   1      36.251  33.803  28.666  1.00  0.00     0.016 A 
ATOM      8  C   UNL A   1      35.809  31.198  29.532  1.00  0.00     0.010 A 
ATOM      9  C   UNL A   1      37.326  33.023  29.103  1.00  0.00     0.010 A 
ATOM     10  C   UNL A   1      37.105  31.710  29.529  1.00  0.00    -0.014 A 
BRANCH  10  11
ATOM     11  C   UNL A   1      38.178  30.958  30.207  1.00  0.00     0.031 A 
ATOM     12  C   UNL A   1      38.397  31.260  31.655  1.00  0.00     0.074 A 
ATOM     13  C   UNL A   1      38.906  30.027  29.567  1.00  0.00     0.049 A 
ATOM     14  N   UNL A   1      39.295  30.795  32.479  1.00  0.00    -0.248 NA
ATOM     15  C   UNL A   1      37.466  32.231  32.255  1.00  0.00     0.031 C 
ATOM     16  C   UNL A   1      38.725  29.621  28.176  1.00  0.00     0.029 A 
ATOM     17  N   UNL A   1      39.953  29.259  30.005  1.00  0.00    -0.354 N 
ATOM     18  C   UNL A   1      39.046  31.427  33.688  1.00  0.00     0.074 A 
ATOM     19  C   UNL A   1      37.941  32.335  33.484  1.00  0.00     0.031 C 
ATOM     20  C   UNL A   1      39.643  28.690  27.866  1.00  0.00     0.029 A 
ATOM     21  C   UNL A   1      40.499  28.462  29.027  1.00  0.00     0.049 A 
ATOM     22  H   UNL A   1      40.284  29.275  30.933  1.00  0.00     0.167 HD
ATOM     23  C   UNL A   1      39.686  31.260  34.866  1.00  0.00     0.037 A 
ATOM     24  C   UNL A   1      41.585  27.666  29.069  1.00  0.00     0.037 A 
ATOM     25  C   UNL A   1      40.807  30.379  35.031  1.00  0.00     0.049 A 
ATOM     26  C   UNL A   1      42.343  27.558  30.368  1.00  0.00     0.074 A 
ATOM     27  C   UNL A   1      41.560  30.142  36.163  1.00  0.00     0.029 A 
ATOM     28  N   UNL A   1      41.347  29.603  34.012  1.00  0.00    -0.354 N 
ATOM     29  N   UNL A   1      42.101  28.146  31.516  1.00  0.00    -0.248 NA
ATOM     30  C   UNL A   1      43.519  26.678  30.384  1.00  0.00     0.031 C 
ATOM     31  C   UNL A   1      42.597  29.271  35.813  1.00  0.00     0.029 A 
ATOM     32  C   UNL A   1      42.443  28.904  34.483  1.00  0.00     0.049 A 
ATOM     33  H   UNL A   1      41.002  29.559  33.092  1.00  0.00     0.167 HD
ATOM     34  C   UNL A   1      43.065  27.682  32.400  1.00  0.00     0.074 A 
ATOM     35  C   UNL A   1      43.902  26.765  31.652  1.00  0.00     0.031 C 
ATOM     36  C   UNL A   1      43.239  27.979  33.712  1.00  0.00     0.037 A 
BRANCH  23  37
ATOM     37  C   UNL A   1      39.220  32.112  36.009  1.00  0.00     0.064 A 
ATOM     38  C   UNL A   1      39.763  33.384  36.256  1.00  0.00     0.173 A 
ATOM     39  C   UNL A   1      38.280  31.613  36.922  1.00  0.00     0.173 A 
ATOM     40  F   UNL A   1      40.687  33.896  35.430  1.00  0.00    -0.203 F 
ATOM     41  C   UNL A   1      39.428  34.093  37.407  1.00  0.00     0.198 A 
ATOM     42  C   UNL A   1      37.919  32.342  38.050  1.00  0.00     0.198 A 
ATOM     43  F   UNL A   1      37.733  30.402  36.736  1.00  0.00    -0.203 F 
ATOM     44  F   UNL A   1      40.033  35.261  37.670  1.00  0.00    -0.200 F 
ATOM     45  C   UNL A   1      38.506  33.574  38.302  1.00  0.00     0.200 A 
ATOM     46  F   UNL A   1      37.021  31.841  38.910  1.00  0.00    -0.200 F 
ATOM     47  F   UNL A   1      38.200  34.248  39.417  1.00  0.00    -0.200 F 
ENDBRANCH  23  37
BRANCH  24  48
ATOM     48  C   UNL A   1      42.017  26.926  27.852  1.00  0.00     0.064 A 
ATOM     49  C   UNL A   1      42.913  27.491  26.935  1.00  0.00     0.173 A 
ATOM     50  C   UNL A   1      41.548  25.629  27.586  1.00  0.00     0.173 A 
ATOM     51  F   UNL A   1      43.374  28.735  27.128  1.00  0.00    -0.203 F 
ATOM     52  C   UNL A   1      43.317  26.793  25.796  1.00  0.00     0.198 A 
ATOM     53  C   UNL A   1      41.974  24.922  26.462  1.00  0.00     0.198 A 
ATOM     54  F   UNL A   1      40.686  25.042  28.428  1.00  0.00    -0.203 F 
ATOM     55  F   UNL A   1      44.149  27.372  24.918  1.00  0.00    -0.200 F 
ATOM     56  C   UNL A   1      42.854  25.507  25.565  1.00  0.00     0.200 A 
ATOM     57  F   UNL A   1      41.532  23.676  26.248  1.00  0.00    -0.200 F 
ATOM     58  F   UNL A   1      43.251  24.833  24.476  1.00  0.00    -0.200 F 
ENDBRANCH  24  48
BRANCH  36  59
ATOM     59  C   UNL A   1      44.330  27.262  34.451  1.00  0.00     0.064 A 
ATOM     60  C   UNL A   1      45.602  27.824  34.626  1.00  0.00     0.173 A 
ATOM     61  C   UNL A   1      44.051  26.045  35.092  1.00  0.00     0.173 A 
ATOM     62  F   UNL A   1      45.919  28.980  34.023  1.00  0.00    -0.203 F 
ATOM     63  C   UNL A   1      46.558  27.189  35.413  1.00  0.00     0.198 A 
ATOM     64  C   UNL A   1      44.998  25.430  35.905  1.00  0.00     0.198 A 
ATOM     65  F   UNL A   1      42.845  25.473  34.961  1.00  0.00    -0.203 F 
ATOM     66  F   UNL A   1      47.777  27.730  35.548  1.00  0.00    -0.200 F 
ATOM     67  C   UNL A   1      46.251  26.003  36.064  1.00  0.00     0.200 A 
ATOM     68  F   UNL A   1      44.691  24.296  36.549  1.00  0.00    -0.200 F 
ATOM     69  F   UNL A   1      47.163  25.410  36.847  1.00  0.00    -0.200 F 
ENDBRANCH  36  59
ENDBRANCH  10  11
ENDBRANCH   3   5
ENDBRANCH   2   3
ENDBRANCH   1   2
BRANCH   1  70
ATOM     70  C   UNL A   1      31.739  31.625  27.070  1.00  0.00     0.274 C 
BRANCH  70  71
ATOM     71  O   UNL A   1      31.960  30.773  25.935  1.00  0.00    -0.460 OA
BRANCH  71  72
ATOM     72  C   UNL A   1      32.630  29.603  26.171  1.00  0.00     0.335 C 
ATOM     73  O   UNL A   1      33.768  29.524  26.612  1.00  0.00    -0.249 OA
BRANCH  72  74
ATOM     74  C   UNL A   1      31.727  28.405  25.843  1.00  0.00     0.228 C 
ATOM     75  C   UNL A   1      31.031  28.529  24.509  1.00  0.00     0.047 C 
ATOM     76  O   UNL A   1      32.469  27.184  25.778  1.00  0.00    -0.361 OA
ATOM     77  C   UNL A   1      32.024  27.894  23.567  1.00  0.00     0.037 C 
ATOM     78  C   UNL A   1      32.669  26.798  24.410  1.00  0.00     0.139 C 
BRANCH  78  79
ATOM     79  C   UNL A   1      32.094  25.379  24.203  1.00  0.00     0.161 C 
BRANCH  79  80
ATOM     80  N   UNL A   1      33.130  24.367  24.269  1.00  0.00    -0.270 N 
ATOM     81  C   UNL A   1      34.046  24.148  23.280  1.00  0.00     0.263 C 
ATOM     82  C   UNL A   1      33.443  23.684  25.419  1.00  0.00     0.280 C 
ATOM     83  O   UNL A   1      34.100  24.628  22.162  1.00  0.00    -0.269 OA
ATOM     84  C   UNL A   1      35.077  23.295  23.850  1.00  0.00     0.071 A 
ATOM     85  C   UNL A   1      34.720  23.009  25.145  1.00  0.00     0.141 A 
ATOM     86  O   UNL A   1      32.839  23.685  26.472  1.00  0.00    -0.267 OA
ATOM     87  C   UNL A   1      36.310  22.913  23.370  1.00  0.00     0.018 A 
ATOM     88  N   UNL A   1      35.489  22.375  26.048  1.00  0.00    -0.250 NA
ATOM     89  C   UNL A   1      37.149  22.247  24.267  1.00  0.00     0.021 A 
ATOM     90  C   UNL A   1      36.704  22.005  25.574  1.00  0.00     0.112 A 
ENDBRANCH  79  80
ENDBRANCH  78  79
ENDBRANCH  72  74
ENDBRANCH  71  72
ENDBRANCH  70  71
ENDBRANCH   1  70
TORSDOF 13
ENDMDL
MODEL 3
REMARK VINA RESULT:     -12.0      5.206      8.505
REMARK SMILES O=C(OCCOC(=O)[C@H]1CC[C@H](CN2C(=O)c3cccnc3C2=O)O1)c1ccc(-c2c3nc(c(-c4c(F)c(F)c(F)c(F)c4F)c4ccc([nH]4)c(-c4c(F)c(F)c(F)c(F)c4F)c4nc(c(-c5c(F)c(F)c(F)c(F)c5F)c5ccc2[nH]5)C=C4)C=C3)cc1
REMARK SMILES IDX 4 1 3 2 2 3 1 4 26 5 27 6 88 7 28 8 87 9 29 10 30 11 31 12
REMARK SMILES IDX 81 13 32 14 86 15 80 16 82 17 33 18 85 19 79 20 78 21 34 23
REMARK SMILES IDX 66 24 46 25 65 26 47 27 50 28 64 29 83 30 48 31 49 32 63 34
REMARK SMILES IDX 84 35 51 36 35 37 36 38 44 39 37 40 38 41 42 42 45 43 39 44
REMARK SMILES IDX 40 45 43 46 41 47 67 48 68 49 76 50 69 51 70 52 74 53 77 54
REMARK SMILES IDX 71 55 72 56 75 57 73 58 52 59 53 60 61 61 54 62 55 63 59 64
REMARK SMILES IDX 62 65 56 66 57 67 60 68 58 69 5 70 6 71 7 72 8 73 9 74 10 75
REMARK SMILES IDX 25 76 11 77 12 78 13 79 14 80 15 81 23 82 16 83 17 84 22 85
REMARK SMILES IDX 24 86 18 87 21 88 19 89 20 90
REMARK H PARENT 82 22 50 33
REMARK Flexibility Score: inf
ROOT
ATOM      1  C   UNL A   1      31.407  32.432  27.018  1.00  0.00     0.275 C 
ENDROOT
BRANCH   1   2
ATOM      2  O   UNL A   1      32.429  33.446  27.032  1.00  0.00    -0.458 OA
BRANCH   2   3
ATOM      3  C   UNL A   1      32.967  34.123  28.074  1.00  0.00     0.338 C 
ATOM      4  O   UNL A   1      32.473  35.207  28.384  1.00  0.00    -0.246 OA
BRANCH   3   5
ATOM      5  C   UNL A   1      34.223  33.705  28.783  1.00  0.00     0.060 A 
ATOM      6  C   UNL A   1      35.504  34.230  28.589  1.00  0.00     0.016 A 
ATOM      7  C   UNL A   1      34.069  32.715  29.775  1.00  0.00     0.016 A 
ATOM      8  C   UNL A   1      36.572  33.869  29.415  1.00  0.00     0.010 A 
ATOM      9  C   UNL A   1      35.132  32.345  30.604  1.00  0.00     0.010 A 
ATOM     10  C   UNL A   1      36.389  32.932  30.431  1.00  0.00    -0.014 A 
BRANCH  10  11
ATOM     11  C   UNL A   1      37.566  32.389  31.133  1.00  0.00     0.031 A 
ATOM     12  C   UNL A   1      38.331  31.314  30.430  1.00  0.00     0.074 A 
ATOM     13  C   UNL A   1      37.954  32.855  32.332  1.00  0.00     0.049 A 
ATOM     14  N   UNL A   1      39.364  30.625  30.830  1.00  0.00    -0.248 NA
ATOM     15  C   UNL A   1      37.853  30.965  29.081  1.00  0.00     0.031 C 
ATOM     16  C   UNL A   1      37.311  33.942  33.065  1.00  0.00     0.029 A 
ATOM     17  N   UNL A   1      38.983  32.465  33.150  1.00  0.00    -0.354 N 
ATOM     18  C   UNL A   1      39.649  29.754  29.789  1.00  0.00     0.074 A 
ATOM     19  C   UNL A   1      38.662  29.972  28.758  1.00  0.00     0.031 C 
ATOM     20  C   UNL A   1      37.947  34.121  34.236  1.00  0.00     0.029 A 
ATOM     21  C   UNL A   1      39.020  33.136  34.349  1.00  0.00     0.049 A 
ATOM     22  H   UNL A   1      39.635  31.769  32.902  1.00  0.00     0.167 HD
ATOM     23  C   UNL A   1      40.652  28.853  29.705  1.00  0.00     0.037 A 
ATOM     24  C   UNL A   1      39.816  32.948  35.419  1.00  0.00     0.037 A 
ATOM     25  C   UNL A   1      41.597  28.630  30.761  1.00  0.00     0.049 A 
ATOM     26  C   UNL A   1      40.874  31.877  35.344  1.00  0.00     0.074 A 
ATOM     27  C   UNL A   1      42.641  27.728  30.812  1.00  0.00     0.029 A 
ATOM     28  N   UNL A   1      41.591  29.314  31.971  1.00  0.00    -0.354 N 
ATOM     29  N   UNL A   1      41.153  31.061  34.354  1.00  0.00    -0.248 NA
ATOM     30  C   UNL A   1      41.730  31.698  36.524  1.00  0.00     0.031 C 
ATOM     31  C   UNL A   1      43.226  27.820  32.078  1.00  0.00     0.029 A 
ATOM     32  C   UNL A   1      42.599  28.835  32.789  1.00  0.00     0.049 A 
ATOM     33  H   UNL A   1      40.962  30.032  32.212  1.00  0.00     0.167 HD
ATOM     34  C   UNL A   1      42.237  30.300  34.774  1.00  0.00     0.074 A 
ATOM     35  C   UNL A   1      42.562  30.750  36.113  1.00  0.00     0.031 C 
ATOM     36  C   UNL A   1      42.908  29.326  34.110  1.00  0.00     0.037 A 
BRANCH  23  37
ATOM     37  C   UNL A   1      40.697  28.014  28.462  1.00  0.00     0.064 A 
ATOM     38  C   UNL A   1      40.067  26.760  28.391  1.00  0.00     0.173 A 
ATOM     39  C   UNL A   1      41.453  28.430  27.358  1.00  0.00     0.173 A 
ATOM     40  F   UNL A   1      39.355  26.301  29.431  1.00  0.00    -0.203 F 
ATOM     41  C   UNL A   1      40.247  25.930  27.287  1.00  0.00     0.198 A 
ATOM     42  C   UNL A   1      41.598  27.614  26.240  1.00  0.00     0.198 A 
ATOM     43  F   UNL A   1      42.079  29.616  27.374  1.00  0.00    -0.203 F 
ATOM     44  F   UNL A   1      39.717  24.698  27.284  1.00  0.00    -0.200 F 
ATOM     45  C   UNL A   1      41.011  26.358  26.212  1.00  0.00     0.200 A 
ATOM     46  F   UNL A   1      42.330  28.033  25.198  1.00  0.00    -0.200 F 
ATOM     47  F   UNL A   1      41.199  25.552  25.159  1.00  0.00    -0.200 F 
ENDBRANCH  23  37
BRANCH  24  48
ATOM     48  C   UNL A   1      39.634  33.779  36.641  1.00  0.00     0.064 A 
ATOM     49  C   UNL A   1      40.243  35.035  36.765  1.00  0.00     0.173 A 
ATOM     50  C   UNL A   1      38.837  33.337  37.709  1.00  0.00     0.173 A 
ATOM     51  F   UNL A   1      41.033  35.496  35.784  1.00  0.00    -0.203 F 
ATOM     52  C   UNL A   1      40.067  35.813  37.910  1.00  0.00     0.198 A 
ATOM     53  C   UNL A   1      38.641  34.126  38.841  1.00  0.00     0.198 A 
ATOM     54  F   UNL A   1      38.235  32.140  37.645  1.00  0.00    -0.203 F 
ATOM     55  F   UNL A   1      40.690  36.996  38.016  1.00  0.00    -0.200 F 
ATOM     56  C   UNL A   1      39.261  35.361  38.943  1.00  0.00     0.200 A 
ATOM     57  F   UNL A   1      37.852  33.690  39.832  1.00  0.00    -0.200 F 
ATOM     58  F   UNL A   1      39.085  36.114  40.038  1.00  0.00    -0.200 F 
ENDBRANCH  24  48
BRANCH  36  59
ATOM     59  C   UNL A   1      44.103  28.719  34.783  1.00  0.00     0.064 A 
ATOM     60  C   UNL A   1      45.375  29.300  34.703  1.00  0.00     0.173 A 
ATOM     61  C   UNL A   1      43.937  27.602  35.616  1.00  0.00     0.173 A 
ATOM     62  F   UNL A   1      45.586  30.362  33.911  1.00  0.00    -0.203 F 
ATOM     63  C   UNL A   1      46.442  28.781  35.432  1.00  0.00     0.198 A 
ATOM     64  C   UNL A   1      44.997  27.106  36.368  1.00  0.00     0.198 A 
ATOM     65  F   UNL A   1      42.736  27.016  35.731  1.00  0.00    -0.203 F 
ATOM     66  F   UNL A   1      47.657  29.335  35.323  1.00  0.00    -0.200 F 
ATOM     67  C   UNL A   1      46.249  27.695  36.274  1.00  0.00     0.200 A 
ATOM     68  F   UNL A   1      44.802  26.071  37.196  1.00  0.00    -0.200 F 
ATOM     69  F   UNL A   1      47.270  27.216  36.998  1.00  0.00    -0.200 F 
ENDBRANCH  36  59
ENDBRANCH  10  11
ENDBRANCH   3   5
ENDBRANCH   2   3
ENDBRANCH   1   2
BRANCH   1  70
ATOM     70  C   UNL A   1      31.854  31.144  26.324  1.00  0.00     0.274 C 
BRANCH  70  71
ATOM     71  O   UNL A   1      32.098  30.078  27.255  1.00  0.00    -0.460 OA
BRANCH  71  72
ATOM     72  C   UNL A   1      33.137  29.237  26.962  1.00  0.00     0.335 C 
ATOM     73  O   UNL A   1      34.065  28.981  27.716  1.00  0.00    -0.249 OA
BRANCH  72  74
ATOM     74  C   UNL A   1      32.942  28.627  25.566  1.00  0.00     0.228 C 
ATOM     75  C   UNL A   1      34.045  27.676  25.171  1.00  0.00     0.047 C 
ATOM     76  O   UNL A   1      31.731  27.870  25.482  1.00  0.00    -0.361 OA
ATOM     77  C   UNL A   1      33.535  26.356  25.693  1.00  0.00     0.037 C 
ATOM     78  C   UNL A   1      32.022  26.465  25.531  1.00  0.00     0.139 C 
BRANCH  78  79
ATOM     79  C   UNL A   1      31.441  25.792  24.268  1.00  0.00     0.161 C 
BRANCH  79  80
ATOM     80  N   UNL A   1      30.605  26.703  23.512  1.00  0.00    -0.270 N 
ATOM     81  C   UNL A   1      29.277  26.904  23.760  1.00  0.00     0.263 C 
ATOM     82  C   UNL A   1      31.106  27.625  22.625  1.00  0.00     0.280 C 
ATOM     83  O   UNL A   1      28.538  26.307  24.522  1.00  0.00    -0.269 OA
ATOM     84  C   UNL A   1      28.891  28.093  23.017  1.00  0.00     0.071 A 
ATOM     85  C   UNL A   1      29.992  28.537  22.327  1.00  0.00     0.141 A 
ATOM     86  O   UNL A   1      32.247  27.722  22.220  1.00  0.00    -0.267 OA
ATOM     87  C   UNL A   1      27.737  28.846  23.041  1.00  0.00     0.018 A 
ATOM     88  N   UNL A   1      30.078  29.694  21.647  1.00  0.00    -0.250 NA
ATOM     89  C   UNL A   1      27.771  30.058  22.347  1.00  0.00     0.021 A 
ATOM     90  C   UNL A   1      28.944  30.435  21.678  1.00  0.00     0.112 A 
ENDBRANCH  79  80
ENDBRANCH  78  79
ENDBRANCH  72  74
ENDBRANCH  71  72
ENDBRANCH  70  71
ENDBRANCH   1  70
TORSDOF 13
ENDMDL
