MODEL 1
REMARK VINA RESULT:     -10.2      0.000      0.000
REMARK SMILES Cc1c(C(=O)N[C@H]2C=C[C@@H](C(=O)OCCOC(=O)c3ccc(-c4c5nc(c(-c6c(F)c(F)c(F)c(F)c6F)c6ccc([nH]6)c(-c6c(F)c(F)c(F)c(F)c6F)c6nc(c(-c7c(F)c(F)c(F)c(F)c7F)c7ccc4[nH]7)C=C6)C=C5)cc3)C2)oc2ccccc12
REMARK SMILES IDX 14 1 13 2 11 3 12 4 10 5 7 6 8 7 82 8 9 9 6 10 4 11 5 12
REMARK SMILES IDX 3 14 1 15 2 16 89 17 83 18 84 19 88 20 85 21 87 22 86 23
REMARK SMILES IDX 15 24 16 25 17 26 18 27 19 28 20 29 81 30 21 31 80 32 22 33
REMARK SMILES IDX 23 34 24 35 74 36 25 37 79 38 73 39 75 40 26 41 78 42 72 43
REMARK SMILES IDX 71 44 27 46 59 47 39 48 58 49 40 50 43 51 57 52 76 53 41 54
REMARK SMILES IDX 42 55 56 57 77 58 44 59 28 60 29 61 37 62 30 63 31 64 35 65
REMARK SMILES IDX 38 66 32 67 33 68 36 69 34 70 60 71 61 72 69 73 62 74 63 75
REMARK SMILES IDX 67 76 70 77 64 78 65 79 68 80 66 81 45 82 46 83 54 84 47 85
REMARK SMILES IDX 48 86 52 87 55 88 49 89 50 90 53 91 51 92
REMARK H PARENT 6 13 75 45 43 56
REMARK Flexibility Score: inf
ROOT
ATOM      1  C   UNL A   1      42.407  20.135  25.937  1.00  0.00     0.274 C 
ENDROOT
BRANCH   1   2
ATOM      2  O   UNL A   1      43.072  19.366  24.913  1.00  0.00    -0.462 OA
BRANCH   2   3
ATOM      3  C   UNL A   1      44.319  19.782  24.589  1.00  0.00     0.312 C 
ATOM      4  O   UNL A   1      45.168  19.085  24.041  1.00  0.00    -0.252 OA
BRANCH   3   5
ATOM      5  C   UNL A   1      44.606  21.225  24.958  1.00  0.00     0.124 C 
ATOM      6  C   UNL A   1      45.888  23.040  25.715  1.00  0.00     0.106 C 
ATOM      7  C   UNL A   1      45.548  23.250  24.271  1.00  0.00    -0.006 C 
ATOM      8  C   UNL A   1      45.874  21.512  25.751  1.00  0.00     0.048 C 
ATOM      9  C   UNL A   1      44.779  22.227  23.845  1.00  0.00    -0.014 C 
BRANCH   6  10
ATOM     10  N   UNL A   1      47.115  23.609  26.140  1.00  0.00    -0.343 N 
ATOM     11  C   UNL A   1      47.392  24.369  27.260  1.00  0.00     0.287 C 
ATOM     12  O   UNL A   1      48.587  24.681  27.352  1.00  0.00    -0.266 OA
ATOM     13  H   UNL A   1      47.884  23.437  25.550  1.00  0.00     0.164 HD
BRANCH  11  14
ATOM     14  C   UNL A   1      46.404  24.828  28.254  1.00  0.00     0.195 A 
ATOM     15  C   UNL A   1      44.586  23.066  29.024  1.00  0.00     0.049 C 
ATOM     16  C   UNL A   1      45.278  24.372  28.964  1.00  0.00     0.008 A 
ATOM     17  C   UNL A   1      44.831  25.458  29.791  1.00  0.00     0.024 A 
ATOM     18  O   UNL A   1      46.646  26.129  28.675  1.00  0.00    -0.451 OA
ATOM     19  C   UNL A   1      45.719  26.492  29.589  1.00  0.00     0.135 A 
ATOM     20  C   UNL A   1      43.777  25.646  30.709  1.00  0.00     0.012 A 
ATOM     21  C   UNL A   1      45.654  27.717  30.248  1.00  0.00     0.048 A 
ATOM     22  C   UNL A   1      43.678  26.865  31.389  1.00  0.00     0.001 A 
ATOM     23  C   UNL A   1      44.606  27.882  31.163  1.00  0.00     0.004 A 
ENDBRANCH  11  14
ENDBRANCH   6  10
ENDBRANCH   3   5
ENDBRANCH   2   3
ENDBRANCH   1   2
BRANCH   1  24
ATOM     24  C   UNL A   1      40.980  19.633  26.183  1.00  0.00     0.275 C 
BRANCH  24  25
ATOM     25  O   UNL A   1      40.241  20.481  27.086  1.00  0.00    -0.458 OA
BRANCH  25  26
ATOM     26  C   UNL A   1      39.519  21.453  26.489  1.00  0.00     0.338 C 
ATOM     27  O   UNL A   1      38.554  21.310  25.753  1.00  0.00    -0.246 OA
BRANCH  26  28
ATOM     28  C   UNL A   1      39.987  22.786  26.903  1.00  0.00     0.060 A 
ATOM     29  C   UNL A   1      39.497  23.896  26.212  1.00  0.00     0.016 A 
ATOM     30  C   UNL A   1      40.986  22.939  27.865  1.00  0.00     0.016 A 
ATOM     31  C   UNL A   1      40.032  25.161  26.447  1.00  0.00     0.010 A 
ATOM     32  C   UNL A   1      41.506  24.215  28.120  1.00  0.00     0.010 A 
ATOM     33  C   UNL A   1      41.049  25.331  27.397  1.00  0.00    -0.014 A 
BRANCH  33  34
ATOM     34  C   UNL A   1      41.640  26.676  27.622  1.00  0.00     0.031 A 
ATOM     35  C   UNL A   1      42.984  27.025  27.047  1.00  0.00     0.074 A 
ATOM     36  C   UNL A   1      40.964  27.591  28.340  1.00  0.00     0.049 A 
ATOM     37  N   UNL A   1      43.681  28.126  27.177  1.00  0.00    -0.248 NA
ATOM     38  C   UNL A   1      43.629  25.999  26.216  1.00  0.00     0.031 C 
ATOM     39  C   UNL A   1      39.640  27.390  28.927  1.00  0.00     0.029 A 
ATOM     40  N   UNL A   1      41.301  28.872  28.700  1.00  0.00    -0.354 N 
ATOM     41  C   UNL A   1      44.855  27.919  26.465  1.00  0.00     0.074 A 
ATOM     42  C   UNL A   1      44.783  26.579  25.919  1.00  0.00     0.031 C 
ATOM     43  C   UNL A   1      39.268  28.513  29.562  1.00  0.00     0.029 A 
ATOM     44  C   UNL A   1      40.347  29.495  29.466  1.00  0.00     0.049 A 
ATOM     45  H   UNL A   1      42.144  29.304  28.435  1.00  0.00     0.167 HD
ATOM     46  C   UNL A   1      45.895  28.769  26.281  1.00  0.00     0.037 A 
ATOM     47  C   UNL A   1      40.348  30.711  30.041  1.00  0.00     0.037 A 
ATOM     48  C   UNL A   1      45.960  30.109  26.807  1.00  0.00     0.049 A 
ATOM     49  C   UNL A   1      41.542  31.611  29.877  1.00  0.00     0.074 A 
ATOM     50  C   UNL A   1      46.950  31.060  26.629  1.00  0.00     0.029 A 
ATOM     51  N   UNL A   1      44.997  30.684  27.622  1.00  0.00    -0.354 N 
ATOM     52  N   UNL A   1      42.635  31.415  29.182  1.00  0.00    -0.248 NA
ATOM     53  C   UNL A   1      41.501  32.898  30.584  1.00  0.00     0.031 C 
ATOM     54  C   UNL A   1      46.608  32.195  27.374  1.00  0.00     0.029 A 
ATOM     55  C   UNL A   1      45.383  31.967  27.980  1.00  0.00     0.049 A 
ATOM     56  H   UNL A   1      44.161  30.247  27.904  1.00  0.00     0.167 HD
ATOM     57  C   UNL A   1      43.402  32.560  29.347  1.00  0.00     0.074 A 
ATOM     58  C   UNL A   1      42.644  33.450  30.202  1.00  0.00     0.031 C 
ATOM     59  C   UNL A   1      44.622  32.847  28.832  1.00  0.00     0.037 A 
BRANCH  46  60
ATOM     60  C   UNL A   1      47.070  28.261  25.496  1.00  0.00     0.064 A 
ATOM     61  C   UNL A   1      48.279  27.912  26.115  1.00  0.00     0.173 A 
ATOM     62  C   UNL A   1      46.972  28.097  24.106  1.00  0.00     0.173 A 
ATOM     63  F   UNL A   1      48.424  28.058  27.441  1.00  0.00    -0.203 F 
ATOM     64  C   UNL A   1      49.359  27.449  25.367  1.00  0.00     0.198 A 
ATOM     65  C   UNL A   1      48.045  27.609  23.364  1.00  0.00     0.198 A 
ATOM     66  F   UNL A   1      45.834  28.407  23.466  1.00  0.00    -0.203 F 
ATOM     67  F   UNL A   1      50.520  27.168  25.973  1.00  0.00    -0.200 F 
ATOM     68  C   UNL A   1      49.239  27.295  23.993  1.00  0.00     0.200 A 
ATOM     69  F   UNL A   1      47.924  27.449  22.039  1.00  0.00    -0.200 F 
ATOM     70  F   UNL A   1      50.280  26.849  23.275  1.00  0.00    -0.200 F 
ENDBRANCH  46  60
BRANCH  47  71
ATOM     71  C   UNL A   1      39.168  31.154  30.827  1.00  0.00     0.064 A 
ATOM     72  C   UNL A   1      38.099  31.809  30.202  1.00  0.00     0.173 A 
ATOM     73  C   UNL A   1      39.080  30.923  32.207  1.00  0.00     0.173 A 
ATOM     74  F   UNL A   1      38.151  32.072  28.888  1.00  0.00    -0.203 F 
ATOM     75  C   UNL A   1      36.985  32.221  30.930  1.00  0.00     0.198 A 
ATOM     76  C   UNL A   1      37.955  31.315  32.930  1.00  0.00     0.198 A 
ATOM     77  F   UNL A   1      40.080  30.301  32.849  1.00  0.00    -0.203 F 
ATOM     78  F   UNL A   1      35.990  32.872  30.315  1.00  0.00    -0.200 F 
ATOM     79  C   UNL A   1      36.912  31.967  32.291  1.00  0.00     0.200 A 
ATOM     80  F   UNL A   1      37.883  31.058  34.243  1.00  0.00    -0.200 F 
ATOM     81  F   UNL A   1      35.836  32.356  32.989  1.00  0.00    -0.200 F 
ENDBRANCH  47  71
BRANCH  59  82
ATOM     82  C   UNL A   1      45.204  34.192  29.154  1.00  0.00     0.064 A 
ATOM     83  C   UNL A   1      46.051  34.382  30.257  1.00  0.00     0.173 A 
ATOM     84  C   UNL A   1      44.936  35.298  28.334  1.00  0.00     0.173 A 
ATOM     85  F   UNL A   1      46.323  33.360  31.082  1.00  0.00    -0.203 F 
ATOM     86  C   UNL A   1      46.588  35.636  30.537  1.00  0.00     0.198 A 
ATOM     87  C   UNL A   1      45.495  36.543  28.603  1.00  0.00     0.198 A 
ATOM     88  F   UNL A   1      44.134  35.168  27.265  1.00  0.00    -0.203 F 
ATOM     89  F   UNL A   1      47.360  35.804  31.621  1.00  0.00    -0.200 F 
ATOM     90  C   UNL A   1      46.316  36.713  29.707  1.00  0.00     0.200 A 
ATOM     91  F   UNL A   1      45.237  37.581  27.795  1.00  0.00    -0.200 F 
ATOM     92  F   UNL A   1      46.837  37.918  29.978  1.00  0.00    -0.200 F 
ENDBRANCH  59  82
ENDBRANCH  33  34
ENDBRANCH  26  28
ENDBRANCH  25  26
ENDBRANCH  24  25
ENDBRANCH   1  24
TORSDOF 13
ENDMDL
MODEL 2
REMARK VINA RESULT:     -10.2      5.660      9.991
REMARK SMILES Cc1c(C(=O)N[C@H]2C=C[C@@H](C(=O)OCCOC(=O)c3ccc(-c4c5nc(c(-c6c(F)c(F)c(F)c(F)c6F)c6ccc([nH]6)c(-c6c(F)c(F)c(F)c(F)c6F)c6nc(c(-c7c(F)c(F)c(F)c(F)c7F)c7ccc4[nH]7)C=C6)C=C5)cc3)C2)oc2ccccc12
REMARK SMILES IDX 14 1 13 2 11 3 12 4 10 5 7 6 8 7 82 8 9 9 6 10 4 11 5 12
REMARK SMILES IDX 3 14 1 15 2 16 89 17 83 18 84 19 88 20 85 21 87 22 86 23
REMARK SMILES IDX 15 24 16 25 17 26 18 27 19 28 20 29 81 30 21 31 80 32 22 33
REMARK SMILES IDX 23 34 24 35 74 36 25 37 79 38 73 39 75 40 26 41 78 42 72 43
REMARK SMILES IDX 71 44 27 46 59 47 39 48 58 49 40 50 43 51 57 52 76 53 41 54
REMARK SMILES IDX 42 55 56 57 77 58 44 59 28 60 29 61 37 62 30 63 31 64 35 65
REMARK SMILES IDX 38 66 32 67 33 68 36 69 34 70 60 71 61 72 69 73 62 74 63 75
REMARK SMILES IDX 67 76 70 77 64 78 65 79 68 80 66 81 45 82 46 83 54 84 47 85
REMARK SMILES IDX 48 86 52 87 55 88 49 89 50 90 53 91 51 92
REMARK H PARENT 6 13 75 45 43 56
REMARK Flexibility Score: inf
ROOT
ATOM      1  C   UNL A   1      31.015  29.874  24.593  1.00  0.00     0.274 C 
ENDROOT
BRANCH   1   2
ATOM      2  O   UNL A   1      31.789  29.122  23.635  1.00  0.00    -0.462 OA
BRANCH   2   3
ATOM      3  C   UNL A   1      31.120  28.140  22.986  1.00  0.00     0.312 C 
ATOM      4  O   UNL A   1      30.294  28.327  22.097  1.00  0.00    -0.252 OA
BRANCH   3   5
ATOM      5  C   UNL A   1      31.477  26.740  23.445  1.00  0.00     0.124 C 
ATOM      6  C   UNL A   1      31.183  24.704  24.578  1.00  0.00     0.106 C 
ATOM      7  C   UNL A   1      31.166  24.450  23.102  1.00  0.00    -0.006 C 
ATOM      8  C   UNL A   1      30.663  26.142  24.586  1.00  0.00     0.048 C 
ATOM      9  C   UNL A   1      31.373  25.612  22.451  1.00  0.00    -0.014 C 
BRANCH   6  10
ATOM     10  N   UNL A   1      30.405  23.813  25.360  1.00  0.00    -0.343 N 
ATOM     11  C   UNL A   1      30.726  22.562  25.850  1.00  0.00     0.287 C 
ATOM     12  O   UNL A   1      29.822  22.061  26.532  1.00  0.00    -0.266 OA
ATOM     13  H   UNL A   1      29.502  24.133  25.587  1.00  0.00     0.164 HD
BRANCH  11  14
ATOM     14  C   UNL A   1      31.979  21.831  25.587  1.00  0.00     0.195 A 
ATOM     15  C   UNL A   1      34.235  23.137  26.039  1.00  0.00     0.049 C 
ATOM     16  C   UNL A   1      33.374  22.008  25.625  1.00  0.00     0.008 A 
ATOM     17  C   UNL A   1      33.970  20.771  25.203  1.00  0.00     0.024 A 
ATOM     18  O   UNL A   1      31.750  20.518  25.197  1.00  0.00    -0.451 OA
ATOM     19  C   UNL A   1      32.930  19.895  24.980  1.00  0.00     0.135 A 
ATOM     20  C   UNL A   1      35.290  20.310  25.020  1.00  0.00     0.012 A 
ATOM     21  C   UNL A   1      33.097  18.567  24.596  1.00  0.00     0.048 A 
ATOM     22  C   UNL A   1      35.497  18.981  24.632  1.00  0.00     0.001 A 
ATOM     23  C   UNL A   1      34.415  18.124  24.428  1.00  0.00     0.004 A 
ENDBRANCH  11  14
ENDBRANCH   6  10
ENDBRANCH   3   5
ENDBRANCH   2   3
ENDBRANCH   1   2
BRANCH   1  24
ATOM     24  C   UNL A   1      31.685  29.891  25.971  1.00  0.00     0.275 C 
BRANCH  24  25
ATOM     25  O   UNL A   1      33.029  30.413  25.929  1.00  0.00    -0.458 OA
BRANCH  25  26
ATOM     26  C   UNL A   1      33.325  31.302  26.902  1.00  0.00     0.338 C 
ATOM     27  O   UNL A   1      32.620  32.214  27.308  1.00  0.00    -0.246 OA
BRANCH  26  28
ATOM     28  C   UNL A   1      34.626  30.994  27.517  1.00  0.00     0.060 A 
ATOM     29  C   UNL A   1      34.867  29.676  27.913  1.00  0.00     0.016 A 
ATOM     30  C   UNL A   1      35.545  32.000  27.818  1.00  0.00     0.016 A 
ATOM     31  C   UNL A   1      36.007  29.363  28.651  1.00  0.00     0.010 A 
ATOM     32  C   UNL A   1      36.704  31.679  28.537  1.00  0.00     0.010 A 
ATOM     33  C   UNL A   1      36.932  30.364  28.978  1.00  0.00    -0.014 A 
BRANCH  33  34
ATOM     34  C   UNL A   1      38.130  30.033  29.793  1.00  0.00     0.031 A 
ATOM     35  C   UNL A   1      39.199  29.128  29.247  1.00  0.00     0.074 A 
ATOM     36  C   UNL A   1      38.262  30.553  31.027  1.00  0.00     0.049 A 
ATOM     37  N   UNL A   1      40.288  28.688  29.826  1.00  0.00    -0.248 NA
ATOM     38  C   UNL A   1      39.018  28.656  27.867  1.00  0.00     0.031 C 
ATOM     39  C   UNL A   1      37.314  31.466  31.662  1.00  0.00     0.029 A 
ATOM     40  N   UNL A   1      39.248  30.384  31.968  1.00  0.00    -0.354 N 
ATOM     41  C   UNL A   1      40.911  27.870  28.892  1.00  0.00     0.074 A 
ATOM     42  C   UNL A   1      40.068  27.862  27.714  1.00  0.00     0.031 C 
ATOM     43  C   UNL A   1      37.769  31.791  32.882  1.00  0.00     0.029 A 
ATOM     44  C   UNL A   1      39.017  31.071  33.133  1.00  0.00     0.049 A 
ATOM     45  H   UNL A   1      40.044  29.824  31.821  1.00  0.00     0.167 HD
ATOM     46  C   UNL A   1      42.079  27.192  29.007  1.00  0.00     0.037 A 
ATOM     47  C   UNL A   1      39.720  31.105  34.280  1.00  0.00     0.037 A 
ATOM     48  C   UNL A   1      42.928  27.214  30.170  1.00  0.00     0.049 A 
ATOM     49  C   UNL A   1      40.979  30.292  34.404  1.00  0.00     0.074 A 
ATOM     50  C   UNL A   1      44.154  26.600  30.357  1.00  0.00     0.029 A 
ATOM     51  N   UNL A   1      42.633  27.881  31.350  1.00  0.00    -0.354 N 
ATOM     52  N   UNL A   1      41.571  29.542  33.508  1.00  0.00    -0.248 NA
ATOM     53  C   UNL A   1      41.661  30.326  35.705  1.00  0.00     0.031 C 
ATOM     54  C   UNL A   1      44.580  26.856  31.666  1.00  0.00     0.029 A 
ATOM     55  C   UNL A   1      43.640  27.668  32.280  1.00  0.00     0.049 A 
ATOM     56  H   UNL A   1      41.828  28.426  31.505  1.00  0.00     0.167 HD
ATOM     57  C   UNL A   1      42.706  29.035  34.125  1.00  0.00     0.074 A 
ATOM     58  C   UNL A   1      42.724  29.569  35.471  1.00  0.00     0.031 C 
ATOM     59  C   UNL A   1      43.649  28.204  33.618  1.00  0.00     0.037 A 
BRANCH  46  60
ATOM     60  C   UNL A   1      42.496  26.338  27.844  1.00  0.00     0.064 A 
ATOM     61  C   UNL A   1      43.391  26.803  26.869  1.00  0.00     0.173 A 
ATOM     62  C   UNL A   1      42.012  25.027  27.721  1.00  0.00     0.173 A 
ATOM     63  F   UNL A   1      43.875  28.052  26.938  1.00  0.00    -0.203 F 
ATOM     64  C   UNL A   1      43.759  25.997  25.794  1.00  0.00     0.198 A 
ATOM     65  C   UNL A   1      42.404  24.215  26.660  1.00  0.00     0.198 A 
ATOM     66  F   UNL A   1      41.162  24.531  28.633  1.00  0.00    -0.203 F 
ATOM     67  F   UNL A   1      44.577  26.477  24.847  1.00  0.00    -0.200 F 
ATOM     68  C   UNL A   1      43.268  24.703  25.693  1.00  0.00     0.200 A 
ATOM     69  F   UNL A   1      41.938  22.961  26.570  1.00  0.00    -0.200 F 
ATOM     70  F   UNL A   1      43.624  23.929  24.658  1.00  0.00    -0.200 F 
ENDBRANCH  46  60
BRANCH  47  71
ATOM     71  C   UNL A   1      39.249  31.949  35.407  1.00  0.00     0.064 A 
ATOM     72  C   UNL A   1      38.419  31.415  36.401  1.00  0.00     0.173 A 
ATOM     73  C   UNL A   1      39.626  33.295  35.519  1.00  0.00     0.173 A 
ATOM     74  F   UNL A   1      38.013  30.140  36.321  1.00  0.00    -0.203 F 
ATOM     75  C   UNL A   1      37.978  32.199  37.465  1.00  0.00     0.198 A 
ATOM     76  C   UNL A   1      39.204  34.071  36.596  1.00  0.00     0.198 A 
ATOM     77  F   UNL A   1      40.419  33.850  34.591  1.00  0.00    -0.203 F 
ATOM     78  F   UNL A   1      37.160  31.674  38.386  1.00  0.00    -0.200 F 
ATOM     79  C   UNL A   1      38.378  33.523  37.566  1.00  0.00     0.200 A 
ATOM     80  F   UNL A   1      39.601  35.347  36.696  1.00  0.00    -0.200 F 
ATOM     81  F   UNL A   1      37.961  34.274  38.594  1.00  0.00    -0.200 F 
ENDBRANCH  47  71
BRANCH  59  82
ATOM     82  C   UNL A   1      44.799  27.844  34.513  1.00  0.00     0.064 A 
ATOM     83  C   UNL A   1      45.952  28.640  34.583  1.00  0.00     0.173 A 
ATOM     84  C   UNL A   1      44.735  26.705  35.329  1.00  0.00     0.173 A 
ATOM     85  F   UNL A   1      46.069  29.728  33.808  1.00  0.00    -0.203 F 
ATOM     86  C   UNL A   1      47.008  28.295  35.423  1.00  0.00     0.198 A 
ATOM     87  C   UNL A   1      45.782  26.377  36.186  1.00  0.00     0.198 A 
ATOM     88  F   UNL A   1      43.653  25.912  35.300  1.00  0.00    -0.203 F 
ATOM     89  F   UNL A   1      48.119  29.046  35.443  1.00  0.00    -0.200 F 
ATOM     90  C   UNL A   1      46.919  27.169  36.228  1.00  0.00     0.200 A 
ATOM     91  F   UNL A   1      45.691  25.294  36.969  1.00  0.00    -0.200 F 
ATOM     92  F   UNL A   1      47.936  26.841  37.038  1.00  0.00    -0.200 F 
ENDBRANCH  59  82
ENDBRANCH  33  34
ENDBRANCH  26  28
ENDBRANCH  25  26
ENDBRANCH  24  25
ENDBRANCH   1  24
TORSDOF 13
ENDMDL
MODEL 3
REMARK VINA RESULT:     -10.2      5.139      9.066
REMARK SMILES Cc1c(C(=O)N[C@H]2C=C[C@@H](C(=O)OCCOC(=O)c3ccc(-c4c5nc(c(-c6c(F)c(F)c(F)c(F)c6F)c6ccc([nH]6)c(-c6c(F)c(F)c(F)c(F)c6F)c6nc(c(-c7c(F)c(F)c(F)c(F)c7F)c7ccc4[nH]7)C=C6)C=C5)cc3)C2)oc2ccccc12
REMARK SMILES IDX 14 1 13 2 11 3 12 4 10 5 7 6 8 7 82 8 9 9 6 10 4 11 5 12
REMARK SMILES IDX 3 14 1 15 2 16 89 17 83 18 84 19 88 20 85 21 87 22 86 23
REMARK SMILES IDX 15 24 16 25 17 26 18 27 19 28 20 29 81 30 21 31 80 32 22 33
REMARK SMILES IDX 23 34 24 35 74 36 25 37 79 38 73 39 75 40 26 41 78 42 72 43
REMARK SMILES IDX 71 44 27 46 59 47 39 48 58 49 40 50 43 51 57 52 76 53 41 54
REMARK SMILES IDX 42 55 56 57 77 58 44 59 28 60 29 61 37 62 30 63 31 64 35 65
REMARK SMILES IDX 38 66 32 67 33 68 36 69 34 70 60 71 61 72 69 73 62 74 63 75
REMARK SMILES IDX 67 76 70 77 64 78 65 79 68 80 66 81 45 82 46 83 54 84 47 85
REMARK SMILES IDX 48 86 52 87 55 88 49 89 50 90 53 91 51 92
REMARK H PARENT 6 13 75 45 43 56
REMARK Flexibility Score: inf
ROOT
ATOM      1  C   UNL A   1      31.153  29.248  24.437  1.00  0.00     0.274 C 
ENDROOT
BRANCH   1   2
ATOM      2  O   UNL A   1      32.125  28.619  23.575  1.00  0.00    -0.462 OA
BRANCH   2   3
ATOM      3  C   UNL A   1      31.619  27.787  22.634  1.00  0.00     0.312 C 
ATOM      4  O   UNL A   1      30.561  27.968  22.037  1.00  0.00    -0.252 OA
BRANCH   3   5
ATOM      5  C   UNL A   1      32.482  26.573  22.354  1.00  0.00     0.124 C 
ATOM      6  C   UNL A   1      33.143  24.324  22.484  1.00  0.00     0.106 C 
ATOM      7  C   UNL A   1      32.744  24.635  21.075  1.00  0.00    -0.006 C 
ATOM      8  C   UNL A   1      32.265  25.338  23.218  1.00  0.00     0.048 C 
ATOM      9  C   UNL A   1      32.401  25.936  20.990  1.00  0.00    -0.014 C 
BRANCH   6  10
ATOM     10  N   UNL A   1      32.930  22.983  22.896  1.00  0.00    -0.343 N 
ATOM     11  C   UNL A   1      33.641  22.216  23.798  1.00  0.00     0.287 C 
ATOM     12  O   UNL A   1      33.163  21.084  23.955  1.00  0.00    -0.266 OA
ATOM     13  H   UNL A   1      32.161  22.533  22.476  1.00  0.00     0.164 HD
BRANCH  11  14
ATOM     14  C   UNL A   1      34.871  22.630  24.498  1.00  0.00     0.195 A 
ATOM     15  C   UNL A   1      34.830  25.002  25.669  1.00  0.00     0.049 C 
ATOM     16  C   UNL A   1      35.399  23.709  25.229  1.00  0.00     0.008 A 
ATOM     17  C   UNL A   1      36.739  23.351  25.604  1.00  0.00     0.024 A 
ATOM     18  O   UNL A   1      35.847  21.643  24.475  1.00  0.00    -0.451 OA
ATOM     19  C   UNL A   1      36.945  22.071  25.138  1.00  0.00     0.135 A 
ATOM     20  C   UNL A   1      37.778  23.982  26.319  1.00  0.00     0.012 A 
ATOM     21  C   UNL A   1      38.116  21.346  25.339  1.00  0.00     0.048 A 
ATOM     22  C   UNL A   1      38.971  23.285  26.540  1.00  0.00     0.001 A 
ATOM     23  C   UNL A   1      39.133  21.985  26.059  1.00  0.00     0.004 A 
ENDBRANCH  11  14
ENDBRANCH   6  10
ENDBRANCH   3   5
ENDBRANCH   2   3
ENDBRANCH   1   2
BRANCH   1  24
ATOM     24  C   UNL A   1      31.717  29.494  25.840  1.00  0.00     0.275 C 
BRANCH  24  25
ATOM     25  O   UNL A   1      33.035  30.080  25.813  1.00  0.00    -0.458 OA
BRANCH  25  26
ATOM     26  C   UNL A   1      33.277  30.979  26.792  1.00  0.00     0.338 C 
ATOM     27  O   UNL A   1      32.524  31.853  27.194  1.00  0.00    -0.246 OA
BRANCH  26  28
ATOM     28  C   UNL A   1      34.587  30.734  27.418  1.00  0.00     0.060 A 
ATOM     29  C   UNL A   1      34.911  29.421  27.764  1.00  0.00     0.016 A 
ATOM     30  C   UNL A   1      35.430  31.787  27.777  1.00  0.00     0.016 A 
ATOM     31  C   UNL A   1      36.058  29.154  28.510  1.00  0.00     0.010 A 
ATOM     32  C   UNL A   1      36.597  31.515  28.504  1.00  0.00     0.010 A 
ATOM     33  C   UNL A   1      36.907  30.201  28.895  1.00  0.00    -0.014 A 
BRANCH  33  34
ATOM     34  C   UNL A   1      38.112  29.918  29.718  1.00  0.00     0.031 A 
ATOM     35  C   UNL A   1      39.208  29.036  29.189  1.00  0.00     0.074 A 
ATOM     36  C   UNL A   1      38.226  30.462  30.943  1.00  0.00     0.049 A 
ATOM     37  N   UNL A   1      40.307  28.636  29.777  1.00  0.00    -0.248 NA
ATOM     38  C   UNL A   1      39.044  28.536  27.817  1.00  0.00     0.031 C 
ATOM     39  C   UNL A   1      37.250  31.358  31.561  1.00  0.00     0.029 A 
ATOM     40  N   UNL A   1      39.213  30.336  31.889  1.00  0.00    -0.354 N 
ATOM     41  C   UNL A   1      40.956  27.821  28.859  1.00  0.00     0.074 A 
ATOM     42  C   UNL A   1      40.117  27.770  27.679  1.00  0.00     0.031 C 
ATOM     43  C   UNL A   1      37.693  31.715  32.777  1.00  0.00     0.029 A 
ATOM     44  C   UNL A   1      38.960  31.036  33.042  1.00  0.00     0.049 A 
ATOM     45  H   UNL A   1      40.025  29.797  31.753  1.00  0.00     0.167 HD
ATOM     46  C   UNL A   1      42.143  27.179  28.987  1.00  0.00     0.037 A 
ATOM     47  C   UNL A   1      39.659  31.108  34.190  1.00  0.00     0.037 A 
ATOM     48  C   UNL A   1      42.988  27.244  30.151  1.00  0.00     0.049 A 
ATOM     49  C   UNL A   1      40.940  30.334  34.330  1.00  0.00     0.074 A 
ATOM     50  C   UNL A   1      44.231  26.669  30.351  1.00  0.00     0.029 A 
ATOM     51  N   UNL A   1      42.671  27.922  31.320  1.00  0.00    -0.354 N 
ATOM     52  N   UNL A   1      41.555  29.587  33.448  1.00  0.00    -0.248 NA
ATOM     53  C   UNL A   1      41.617  30.409  35.632  1.00  0.00     0.031 C 
ATOM     54  C   UNL A   1      44.645  26.959  31.657  1.00  0.00     0.029 A 
ATOM     55  C   UNL A   1      43.680  27.753  32.255  1.00  0.00     0.049 A 
ATOM     56  H   UNL A   1      41.850  28.446  31.464  1.00  0.00     0.167 HD
ATOM     57  C   UNL A   1      42.703  29.123  34.075  1.00  0.00     0.074 A 
ATOM     58  C   UNL A   1      42.702  29.679  35.413  1.00  0.00     0.031 C 
ATOM     59  C   UNL A   1      43.671  28.311  33.584  1.00  0.00     0.037 A 
BRANCH  46  60
ATOM     60  C   UNL A   1      42.587  26.319  27.839  1.00  0.00     0.064 A 
ATOM     61  C   UNL A   1      43.400  26.819  26.811  1.00  0.00     0.173 A 
ATOM     62  C   UNL A   1      42.214  24.967  27.783  1.00  0.00     0.173 A 
ATOM     63  F   UNL A   1      43.777  28.106  26.815  1.00  0.00    -0.203 F 
ATOM     64  C   UNL A   1      43.795  26.005  25.752  1.00  0.00     0.198 A 
ATOM     65  C   UNL A   1      42.633  24.150  26.737  1.00  0.00     0.198 A 
ATOM     66  F   UNL A   1      41.446  24.437  28.747  1.00  0.00    -0.203 F 
ATOM     67  F   UNL A   1      44.532  26.516  24.755  1.00  0.00    -0.200 F 
ATOM     68  C   UNL A   1      43.415  24.671  25.718  1.00  0.00     0.200 A 
ATOM     69  F   UNL A   1      42.274  22.859  26.711  1.00  0.00    -0.200 F 
ATOM     70  F   UNL A   1      43.796  23.890  24.697  1.00  0.00    -0.200 F 
ENDBRANCH  46  60
BRANCH  47  71
ATOM     71  C   UNL A   1      39.160  31.957  35.302  1.00  0.00     0.064 A 
ATOM     72  C   UNL A   1      39.450  33.327  35.339  1.00  0.00     0.173 A 
ATOM     73  C   UNL A   1      38.379  31.423  36.336  1.00  0.00     0.173 A 
ATOM     74  F   UNL A   1      40.214  33.876  34.384  1.00  0.00    -0.203 F 
ATOM     75  C   UNL A   1      38.980  34.132  36.375  1.00  0.00     0.198 A 
ATOM     76  C   UNL A   1      37.890  32.233  37.358  1.00  0.00     0.198 A 
ATOM     77  F   UNL A   1      38.077  30.116  36.342  1.00  0.00    -0.203 F 
ATOM     78  F   UNL A   1      39.297  35.433  36.405  1.00  0.00    -0.200 F 
ATOM     79  C   UNL A   1      38.195  33.585  37.379  1.00  0.00     0.200 A 
ATOM     80  F   UNL A   1      37.123  31.703  38.321  1.00  0.00    -0.200 F 
ATOM     81  F   UNL A   1      37.736  34.361  38.370  1.00  0.00    -0.200 F 
ENDBRANCH  47  71
BRANCH  59  82
ATOM     82  C   UNL A   1      44.828  27.999  34.487  1.00  0.00     0.064 A 
ATOM     83  C   UNL A   1      45.949  28.839  34.563  1.00  0.00     0.173 A 
ATOM     84  C   UNL A   1      44.805  26.860  35.306  1.00  0.00     0.173 A 
ATOM     85  F   UNL A   1      46.028  29.930  33.786  1.00  0.00    -0.203 F 
ATOM     86  C   UNL A   1      47.012  28.538  35.410  1.00  0.00     0.198 A 
ATOM     87  C   UNL A   1      45.858  26.576  36.171  1.00  0.00     0.198 A 
ATOM     88  F   UNL A   1      43.755  26.025  35.273  1.00  0.00    -0.203 F 
ATOM     89  F   UNL A   1      48.092  29.333  35.435  1.00  0.00    -0.200 F 
ATOM     90  C   UNL A   1      46.963  27.412  36.218  1.00  0.00     0.200 A 
ATOM     91  F   UNL A   1      45.804  25.492  36.956  1.00  0.00    -0.200 F 
ATOM     92  F   UNL A   1      47.986  27.127  37.035  1.00  0.00    -0.200 F 
ENDBRANCH  59  82
ENDBRANCH  33  34
ENDBRANCH  26  28
ENDBRANCH  25  26
ENDBRANCH  24  25
ENDBRANCH   1  24
TORSDOF 13
ENDMDL
