MODEL 1
REMARK VINA RESULT:     -11.6      0.000      0.000
REMARK SMILES CC(C)(CC(=O)Nc1cccc(C(=O)NC2CC2)c1)CC(=O)OCCOC(=O)c1ccc(-c2c3nc(c(-c4c(F)c(F)c(F)c(F)c4F)c4ccc([nH]4)c(-c4c(F)c(F)c(F)c(F)c4F)c4nc(c(-c5c(F)c(F)c(F)c(F)c5F)c5ccc2[nH]5)C=C4)C=C3)cc1
REMARK SMILES IDX 21 1 22 2 20 3 2 4 1 5 3 6 4 7 5 8 6 9 7 10 8 12 9 13 19 14
REMARK SMILES IDX 10 15 12 16 11 17 13 18 14 19 15 20 16 22 17 23 18 24 23 25
REMARK SMILES IDX 24 26 25 27 26 28 27 29 28 30 29 31 30 32 91 33 31 34 90 35
REMARK SMILES IDX 32 36 33 37 34 38 84 39 35 40 89 41 83 42 85 43 36 44 88 45
REMARK SMILES IDX 82 46 81 47 37 49 69 50 49 51 68 52 50 53 53 54 67 55 86 56
REMARK SMILES IDX 51 57 52 58 66 60 87 61 54 62 38 63 39 64 47 65 40 66 41 67
REMARK SMILES IDX 45 68 48 69 42 70 43 71 46 72 44 73 70 74 71 75 79 76 72 77
REMARK SMILES IDX 73 78 77 79 80 80 74 81 75 82 78 83 76 84 55 85 56 86 64 87
REMARK SMILES IDX 57 88 58 89 62 90 65 91 59 92 60 93 63 94 61 95
REMARK H PARENT 7 11 15 21 85 48 53 59
REMARK Flexibility Score: inf
ROOT
ATOM      1  C   UNL A   1      32.277  27.587  23.787  1.00  0.00     0.306 C 
ATOM      2  O   UNL A   1      32.651  27.051  22.752  1.00  0.00    -0.252 OA
ENDROOT
BRANCH   1   3
ATOM      3  C   UNL A   1      31.574  26.849  24.919  1.00  0.00     0.129 C 
BRANCH   3   4
ATOM      4  C   UNL A   1      32.348  26.573  26.230  1.00  0.00    -0.016 C 
ATOM      5  C   UNL A   1      31.933  27.546  27.321  1.00  0.00     0.012 C 
ATOM      6  C   UNL A   1      33.848  26.875  25.945  1.00  0.00     0.012 C 
BRANCH   4   7
ATOM      7  C   UNL A   1      32.300  25.126  26.783  1.00  0.00     0.107 C 
BRANCH   7   8
ATOM      8  C   UNL A   1      31.281  24.133  26.278  1.00  0.00     0.224 C 
ATOM      9  O   UNL A   1      30.079  24.332  26.490  1.00  0.00    -0.275 OA
ATOM     10  N   UNL A   1      31.602  23.190  25.352  1.00  0.00    -0.326 N 
ATOM     11  H   UNL A   1      30.817  22.909  24.826  1.00  0.00     0.169 HD
BRANCH  10  12
ATOM     12  C   UNL A   1      32.770  22.514  24.955  1.00  0.00     0.041 A 
ATOM     13  C   UNL A   1      32.940  21.258  25.550  1.00  0.00     0.026 A 
ATOM     14  C   UNL A   1      33.833  23.077  24.221  1.00  0.00     0.040 A 
ATOM     15  C   UNL A   1      34.121  20.544  25.394  1.00  0.00     0.003 A 
ATOM     16  C   UNL A   1      35.061  22.393  24.111  1.00  0.00     0.041 A 
ATOM     17  C   UNL A   1      35.172  21.112  24.684  1.00  0.00     0.014 A 
BRANCH  16  18
ATOM     18  C   UNL A   1      36.357  22.955  23.609  1.00  0.00     0.251 C 
ATOM     19  O   UNL A   1      36.546  22.987  22.387  1.00  0.00    -0.269 OA
ATOM     20  N   UNL A   1      37.365  23.465  24.388  1.00  0.00    -0.349 N 
ATOM     21  H   UNL A   1      38.129  23.811  23.873  1.00  0.00     0.164 HD
BRANCH  20  22
ATOM     22  C   UNL A   1      37.517  23.591  25.789  1.00  0.00     0.082 C 
ATOM     23  C   UNL A   1      38.705  22.923  26.435  1.00  0.00     0.027 C 
ATOM     24  C   UNL A   1      38.636  24.412  26.385  1.00  0.00     0.027 C 
ENDBRANCH  20  22
ENDBRANCH  16  18
ENDBRANCH  10  12
ENDBRANCH   7   8
ENDBRANCH   4   7
ENDBRANCH   3   4
ENDBRANCH   1   3
BRANCH   1  25
ATOM     25  O   UNL A   1      32.321  28.917  24.038  1.00  0.00    -0.462 OA
BRANCH  25  26
ATOM     26  C   UNL A   1      31.131  29.576  24.510  1.00  0.00     0.274 C 
BRANCH  26  27
ATOM     27  C   UNL A   1      31.410  30.564  25.646  1.00  0.00     0.275 C 
BRANCH  27  28
ATOM     28  O   UNL A   1      32.789  30.505  26.070  1.00  0.00    -0.458 OA
BRANCH  28  29
ATOM     29  C   UNL A   1      33.148  31.489  26.920  1.00  0.00     0.338 C 
ATOM     30  O   UNL A   1      32.492  32.463  27.232  1.00  0.00    -0.246 OA
BRANCH  29  31
ATOM     31  C   UNL A   1      34.445  31.198  27.541  1.00  0.00     0.060 A 
ATOM     32  C   UNL A   1      34.705  29.871  27.867  1.00  0.00     0.016 A 
ATOM     33  C   UNL A   1      35.321  32.212  27.934  1.00  0.00     0.016 A 
ATOM     34  C   UNL A   1      35.840  29.557  28.610  1.00  0.00     0.010 A 
ATOM     35  C   UNL A   1      36.479  31.885  28.659  1.00  0.00     0.010 A 
ATOM     36  C   UNL A   1      36.743  30.552  29.019  1.00  0.00    -0.014 A 
BRANCH  36  37
ATOM     37  C   UNL A   1      37.947  30.160  29.808  1.00  0.00     0.031 A 
ATOM     38  C   UNL A   1      39.053  29.333  29.206  1.00  0.00     0.074 A 
ATOM     39  C   UNL A   1      38.086  30.616  31.070  1.00  0.00     0.049 A 
ATOM     40  N   UNL A   1      40.133  28.857  29.781  1.00  0.00    -0.248 NA
ATOM     41  C   UNL A   1      38.942  29.003  27.780  1.00  0.00     0.031 C 
ATOM     42  C   UNL A   1      37.117  31.461  31.769  1.00  0.00     0.029 A 
ATOM     43  N   UNL A   1      39.107  30.466  31.976  1.00  0.00    -0.354 N 
ATOM     44  C   UNL A   1      40.801  28.131  28.802  1.00  0.00     0.074 A 
ATOM     45  C   UNL A   1      40.016  28.246  27.590  1.00  0.00     0.031 C 
ATOM     46  C   UNL A   1      37.616  31.809  32.963  1.00  0.00     0.029 A 
ATOM     47  C   UNL A   1      38.899  31.140  33.154  1.00  0.00     0.049 A 
ATOM     48  H   UNL A   1      39.911  29.925  31.800  1.00  0.00     0.167 HD
ATOM     49  C   UNL A   1      41.954  27.428  28.910  1.00  0.00     0.037 A 
ATOM     50  C   UNL A   1      39.632  31.195  34.282  1.00  0.00     0.037 A 
ATOM     51  C   UNL A   1      42.761  27.344  30.102  1.00  0.00     0.049 A 
ATOM     52  C   UNL A   1      40.902  30.402  34.378  1.00  0.00     0.074 A 
ATOM     53  C   UNL A   1      43.939  26.640  30.301  1.00  0.00     0.029 A 
ATOM     54  N   UNL A   1      42.486  27.998  31.293  1.00  0.00    -0.354 N 
ATOM     55  N   UNL A   1      41.476  29.651  33.470  1.00  0.00    -0.248 NA
ATOM     56  C   UNL A   1      41.610  30.437  35.665  1.00  0.00     0.031 C 
ATOM     57  C   UNL A   1      44.362  26.850  31.619  1.00  0.00     0.029 A 
ATOM     58  C   UNL A   1      43.466  27.710  32.231  1.00  0.00     0.049 A 
ATOM     59  H   UNL A   1      41.709  28.582  31.449  1.00  0.00     0.167 HD
ATOM     60  C   UNL A   1      42.599  29.113  34.078  1.00  0.00     0.074 A 
ATOM     61  C   UNL A   1      42.650  29.653  35.421  1.00  0.00     0.031 C 
ATOM     62  C   UNL A   1      43.498  28.235  33.571  1.00  0.00     0.037 A 
BRANCH  49  63
ATOM     63  C   UNL A   1      42.406  26.645  27.712  1.00  0.00     0.064 A 
ATOM     64  C   UNL A   1      43.299  27.178  26.773  1.00  0.00     0.173 A 
ATOM     65  C   UNL A   1      41.996  25.312  27.548  1.00  0.00     0.173 A 
ATOM     66  F   UNL A   1      43.721  28.447  26.887  1.00  0.00    -0.203 F 
ATOM     67  C   UNL A   1      43.756  26.409  25.705  1.00  0.00     0.198 A 
ATOM     68  C   UNL A   1      42.470  24.541  26.491  1.00  0.00     0.198 A 
ATOM     69  F   UNL A   1      41.153  24.752  28.429  1.00  0.00    -0.203 F 
ATOM     70  F   UNL A   1      44.597  26.943  24.807  1.00  0.00    -0.200 F 
ATOM     71  C   UNL A   1      43.347  25.090  25.569  1.00  0.00     0.200 A 
ATOM     72  F   UNL A   1      42.087  23.262  26.371  1.00  0.00    -0.200 F 
ATOM     73  F   UNL A   1      43.802  24.347  24.550  1.00  0.00    -0.200 F 
ENDBRANCH  49  63
BRANCH  50  74
ATOM     74  C   UNL A   1      39.148  32.005  35.428  1.00  0.00     0.064 A 
ATOM     75  C   UNL A   1      38.362  31.431  36.436  1.00  0.00     0.173 A 
ATOM     76  C   UNL A   1      39.494  33.358  35.554  1.00  0.00     0.173 A 
ATOM     77  F   UNL A   1      37.983  30.149  36.342  1.00  0.00    -0.203 F 
ATOM     78  C   UNL A   1      37.944  32.182  37.532  1.00  0.00     0.198 A 
ATOM     79  C   UNL A   1      39.101  34.099  36.665  1.00  0.00     0.198 A 
ATOM     80  F   UNL A   1      40.243  33.951  34.613  1.00  0.00    -0.203 F 
ATOM     81  F   UNL A   1      37.172  31.621  38.471  1.00  0.00    -0.200 F 
ATOM     82  C   UNL A   1      38.324  33.511  37.652  1.00  0.00     0.200 A 
ATOM     83  F   UNL A   1      39.484  35.378  36.784  1.00  0.00    -0.200 F 
ATOM     84  F   UNL A   1      37.940  34.227  38.717  1.00  0.00    -0.200 F 
ENDBRANCH  50  74
BRANCH  62  85
ATOM     85  C   UNL A   1      44.606  27.798  34.480  1.00  0.00     0.064 A 
ATOM     86  C   UNL A   1      44.472  26.665  35.295  1.00  0.00     0.173 A 
ATOM     87  C   UNL A   1      45.813  28.509  34.532  1.00  0.00     0.173 A 
ATOM     88  F   UNL A   1      43.327  25.965  35.293  1.00  0.00    -0.203 F 
ATOM     89  C   UNL A   1      45.499  26.270  36.146  1.00  0.00     0.198 A 
ATOM     90  C   UNL A   1      46.847  28.101  35.371  1.00  0.00     0.198 A 
ATOM     91  F   UNL A   1      45.989  29.600  33.772  1.00  0.00    -0.203 F 
ATOM     92  F   UNL A   1      45.334  25.209  36.948  1.00  0.00    -0.200 F 
ATOM     93  C   UNL A   1      46.686  26.987  36.182  1.00  0.00     0.200 A 
ATOM     94  F   UNL A   1      47.995  28.791  35.402  1.00  0.00    -0.200 F 
ATOM     95  F   UNL A   1      47.674  26.610  37.006  1.00  0.00    -0.200 F 
ENDBRANCH  62  85
ENDBRANCH  36  37
ENDBRANCH  29  31
ENDBRANCH  28  29
ENDBRANCH  27  28
ENDBRANCH  26  27
ENDBRANCH  25  26
ENDBRANCH   1  25
TORSDOF 17
ENDMDL
MODEL 2
REMARK VINA RESULT:     -11.5      3.885      9.539
REMARK SMILES CC(C)(CC(=O)Nc1cccc(C(=O)NC2CC2)c1)CC(=O)OCCOC(=O)c1ccc(-c2c3nc(c(-c4c(F)c(F)c(F)c(F)c4F)c4ccc([nH]4)c(-c4c(F)c(F)c(F)c(F)c4F)c4nc(c(-c5c(F)c(F)c(F)c(F)c5F)c5ccc2[nH]5)C=C4)C=C3)cc1
REMARK SMILES IDX 21 1 22 2 20 3 2 4 1 5 3 6 4 7 5 8 6 9 7 10 8 12 9 13 19 14
REMARK SMILES IDX 10 15 12 16 11 17 13 18 14 19 15 20 16 22 17 23 18 24 23 25
REMARK SMILES IDX 24 26 25 27 26 28 27 29 28 30 29 31 30 32 91 33 31 34 90 35
REMARK SMILES IDX 32 36 33 37 34 38 84 39 35 40 89 41 83 42 85 43 36 44 88 45
REMARK SMILES IDX 82 46 81 47 37 49 69 50 49 51 68 52 50 53 53 54 67 55 86 56
REMARK SMILES IDX 51 57 52 58 66 60 87 61 54 62 38 63 39 64 47 65 40 66 41 67
REMARK SMILES IDX 45 68 48 69 42 70 43 71 46 72 44 73 70 74 71 75 79 76 72 77
REMARK SMILES IDX 73 78 77 79 80 80 74 81 75 82 78 83 76 84 55 85 56 86 64 87
REMARK SMILES IDX 57 88 58 89 62 90 65 91 59 92 60 93 63 94 61 95
REMARK H PARENT 7 11 15 21 85 48 53 59
REMARK Flexibility Score: inf
ROOT
ATOM      1  C   UNL A   1      32.909  20.628  25.051  1.00  0.00     0.306 C 
ATOM      2  O   UNL A   1      32.086  19.772  25.349  1.00  0.00    -0.252 OA
ENDROOT
BRANCH   1   3
ATOM      3  C   UNL A   1      32.724  21.627  23.916  1.00  0.00     0.129 C 
BRANCH   3   4
ATOM      4  C   UNL A   1      32.311  23.079  24.255  1.00  0.00    -0.016 C 
ATOM      5  C   UNL A   1      30.993  23.437  23.588  1.00  0.00     0.012 C 
ATOM      6  C   UNL A   1      33.375  24.016  23.616  1.00  0.00     0.012 C 
BRANCH   4   7
ATOM      7  C   UNL A   1      32.250  23.460  25.756  1.00  0.00     0.107 C 
BRANCH   7   8
ATOM      8  C   UNL A   1      30.935  23.786  26.423  1.00  0.00     0.224 C 
ATOM      9  O   UNL A   1      30.404  22.949  27.163  1.00  0.00    -0.275 OA
ATOM     10  N   UNL A   1      30.460  25.059  26.482  1.00  0.00    -0.326 N 
ATOM     11  H   UNL A   1      29.863  25.193  27.254  1.00  0.00     0.169 HD
BRANCH  10  12
ATOM     12  C   UNL A   1      30.605  26.232  25.719  1.00  0.00     0.041 A 
ATOM     13  C   UNL A   1      29.630  26.399  24.727  1.00  0.00     0.026 A 
ATOM     14  C   UNL A   1      31.728  27.082  25.729  1.00  0.00     0.040 A 
ATOM     15  C   UNL A   1      29.733  27.413  23.784  1.00  0.00     0.003 A 
ATOM     16  C   UNL A   1      31.879  28.072  24.737  1.00  0.00     0.041 A 
ATOM     17  C   UNL A   1      30.852  28.237  23.789  1.00  0.00     0.014 A 
BRANCH  16  18
ATOM     18  C   UNL A   1      33.117  28.866  24.446  1.00  0.00     0.251 C 
ATOM     19  O   UNL A   1      33.457  29.007  23.264  1.00  0.00    -0.269 OA
ATOM     20  N   UNL A   1      33.914  29.480  25.379  1.00  0.00    -0.349 N 
ATOM     21  H   UNL A   1      34.669  29.977  24.991  1.00  0.00     0.164 HD
BRANCH  20  22
ATOM     22  C   UNL A   1      33.857  29.539  26.792  1.00  0.00     0.082 C 
ATOM     23  C   UNL A   1      35.159  29.527  27.553  1.00  0.00     0.027 C 
ATOM     24  C   UNL A   1      34.324  30.763  27.545  1.00  0.00     0.027 C 
ENDBRANCH  20  22
ENDBRANCH  16  18
ENDBRANCH  10  12
ENDBRANCH   7   8
ENDBRANCH   4   7
ENDBRANCH   3   4
ENDBRANCH   1   3
BRANCH   1  25
ATOM     25  O   UNL A   1      34.143  20.746  25.596  1.00  0.00    -0.462 OA
BRANCH  25  26
ATOM     26  C   UNL A   1      35.250  20.075  24.964  1.00  0.00     0.274 C 
BRANCH  26  27
ATOM     27  C   UNL A   1      36.408  21.021  24.633  1.00  0.00     0.275 C 
BRANCH  27  28
ATOM     28  O   UNL A   1      37.037  21.523  25.832  1.00  0.00    -0.458 OA
BRANCH  28  29
ATOM     29  C   UNL A   1      38.368  21.307  25.890  1.00  0.00     0.338 C 
ATOM     30  O   UNL A   1      38.970  20.335  25.479  1.00  0.00    -0.246 OA
BRANCH  29  31
ATOM     31  C   UNL A   1      39.065  22.475  26.440  1.00  0.00     0.060 A 
ATOM     32  C   UNL A   1      38.566  23.728  26.098  1.00  0.00     0.016 A 
ATOM     33  C   UNL A   1      40.264  22.355  27.147  1.00  0.00     0.016 A 
ATOM     34  C   UNL A   1      39.282  24.870  26.447  1.00  0.00     0.010 A 
ATOM     35  C   UNL A   1      40.966  23.513  27.521  1.00  0.00     0.010 A 
ATOM     36  C   UNL A   1      40.489  24.785  27.160  1.00  0.00    -0.014 A 
BRANCH  36  37
ATOM     37  C   UNL A   1      41.213  26.041  27.514  1.00  0.00     0.031 A 
ATOM     38  C   UNL A   1      40.597  27.083  28.410  1.00  0.00     0.074 A 
ATOM     39  C   UNL A   1      42.478  26.218  27.082  1.00  0.00     0.049 A 
ATOM     40  N   UNL A   1      41.072  28.256  28.759  1.00  0.00    -0.248 NA
ATOM     41  C   UNL A   1      39.287  26.773  28.997  1.00  0.00     0.031 C 
ATOM     42  C   UNL A   1      43.218  25.275  26.242  1.00  0.00     0.029 A 
ATOM     43  N   UNL A   1      43.378  27.230  27.313  1.00  0.00    -0.354 N 
ATOM     44  C   UNL A   1      40.100  28.841  29.562  1.00  0.00     0.074 A 
ATOM     45  C   UNL A   1      39.016  27.886  29.667  1.00  0.00     0.031 C 
ATOM     46  C   UNL A   1      44.474  25.715  26.086  1.00  0.00     0.029 A 
ATOM     47  C   UNL A   1      44.605  27.015  26.735  1.00  0.00     0.049 A 
ATOM     48  H   UNL A   1      43.163  28.032  27.841  1.00  0.00     0.167 HD
ATOM     49  C   UNL A   1      40.110  30.064  30.146  1.00  0.00     0.037 A 
ATOM     50  C   UNL A   1      45.708  27.786  26.695  1.00  0.00     0.037 A 
ATOM     51  C   UNL A   1      41.203  31.002  30.080  1.00  0.00     0.049 A 
ATOM     52  C   UNL A   1      45.690  29.138  27.344  1.00  0.00     0.074 A 
ATOM     53  C   UNL A   1      41.290  32.271  30.632  1.00  0.00     0.029 A 
ATOM     54  N   UNL A   1      42.409  30.768  29.436  1.00  0.00    -0.354 N 
ATOM     55  N   UNL A   1      44.731  29.712  28.027  1.00  0.00    -0.248 NA
ATOM     56  C   UNL A   1      46.897  29.963  27.190  1.00  0.00     0.031 C 
ATOM     57  C   UNL A   1      42.537  32.813  30.303  1.00  0.00     0.029 A 
ATOM     58  C   UNL A   1      43.242  31.870  29.573  1.00  0.00     0.049 A 
ATOM     59  H   UNL A   1      42.641  29.942  28.954  1.00  0.00     0.167 HD
ATOM     60  C   UNL A   1      45.209  30.968  28.370  1.00  0.00     0.074 A 
ATOM     61  C   UNL A   1      46.559  31.059  27.853  1.00  0.00     0.031 C 
ATOM     62  C   UNL A   1      44.575  31.961  29.039  1.00  0.00     0.037 A 
BRANCH  49  63
ATOM     63  C   UNL A   1      38.876  30.492  30.885  1.00  0.00     0.064 A 
ATOM     64  C   UNL A   1      38.759  30.352  32.274  1.00  0.00     0.173 A 
ATOM     65  C   UNL A   1      37.828  31.123  30.196  1.00  0.00     0.173 A 
ATOM     66  F   UNL A   1      39.734  29.756  32.977  1.00  0.00    -0.203 F 
ATOM     67  C   UNL A   1      37.630  30.816  32.946  1.00  0.00     0.198 A 
ATOM     68  C   UNL A   1      36.711  31.604  30.873  1.00  0.00     0.198 A 
ATOM     69  F   UNL A   1      37.900  31.294  28.867  1.00  0.00    -0.203 F 
ATOM     70  F   UNL A   1      37.529  30.657  34.274  1.00  0.00    -0.200 F 
ATOM     71  C   UNL A   1      36.611  31.448  32.247  1.00  0.00     0.200 A 
ATOM     72  F   UNL A   1      35.737  32.229  30.198  1.00  0.00    -0.200 F 
ATOM     73  F   UNL A   1      35.535  31.910  32.899  1.00  0.00    -0.200 F 
ENDBRANCH  49  63
BRANCH  50  74
ATOM     74  C   UNL A   1      46.909  27.302  25.968  1.00  0.00     0.064 A 
ATOM     75  C   UNL A   1      47.110  27.614  24.618  1.00  0.00     0.173 A 
ATOM     76  C   UNL A   1      47.895  26.549  26.623  1.00  0.00     0.173 A 
ATOM     77  F   UNL A   1      46.181  28.306  23.944  1.00  0.00    -0.203 F 
ATOM     78  C   UNL A   1      48.259  27.194  23.950  1.00  0.00     0.198 A 
ATOM     79  C   UNL A   1      49.056  26.157  25.962  1.00  0.00     0.198 A 
ATOM     80  F   UNL A   1      47.745  26.225  27.916  1.00  0.00    -0.203 F 
ATOM     81  F   UNL A   1      48.419  27.482  22.652  1.00  0.00    -0.200 F 
ATOM     82  C   UNL A   1      49.235  26.478  24.626  1.00  0.00     0.200 A 
ATOM     83  F   UNL A   1      50.003  25.479  26.625  1.00  0.00    -0.200 F 
ATOM     84  F   UNL A   1      50.349  26.093  23.989  1.00  0.00    -0.200 F 
ENDBRANCH  50  74
BRANCH  62  85
ATOM     85  C   UNL A   1      45.336  33.236  29.239  1.00  0.00     0.064 A 
ATOM     86  C   UNL A   1      46.162  33.421  30.357  1.00  0.00     0.173 A 
ATOM     87  C   UNL A   1      45.248  34.277  28.305  1.00  0.00     0.173 A 
ATOM     88  F   UNL A   1      46.262  32.459  31.288  1.00  0.00    -0.203 F 
ATOM     89  C   UNL A   1      46.857  34.612  30.545  1.00  0.00     0.198 A 
ATOM     90  C   UNL A   1      45.960  35.461  28.485  1.00  0.00     0.198 A 
ATOM     91  F   UNL A   1      44.471  34.149  27.219  1.00  0.00    -0.203 F 
ATOM     92  F   UNL A   1      47.607  34.783  31.642  1.00  0.00    -0.200 F 
ATOM     93  C   UNL A   1      46.757  35.629  29.608  1.00  0.00     0.200 A 
ATOM     94  F   UNL A   1      45.866  36.442  27.578  1.00  0.00    -0.200 F 
ATOM     95  F   UNL A   1      47.423  36.778  29.791  1.00  0.00    -0.200 F 
ENDBRANCH  62  85
ENDBRANCH  36  37
ENDBRANCH  29  31
ENDBRANCH  28  29
ENDBRANCH  27  28
ENDBRANCH  26  27
ENDBRANCH  25  26
ENDBRANCH   1  25
TORSDOF 17
ENDMDL
MODEL 3
REMARK VINA RESULT:     -11.5      1.347      2.740
REMARK SMILES CC(C)(CC(=O)Nc1cccc(C(=O)NC2CC2)c1)CC(=O)OCCOC(=O)c1ccc(-c2c3nc(c(-c4c(F)c(F)c(F)c(F)c4F)c4ccc([nH]4)c(-c4c(F)c(F)c(F)c(F)c4F)c4nc(c(-c5c(F)c(F)c(F)c(F)c5F)c5ccc2[nH]5)C=C4)C=C3)cc1
REMARK SMILES IDX 21 1 22 2 20 3 2 4 1 5 3 6 4 7 5 8 6 9 7 10 8 12 9 13 19 14
REMARK SMILES IDX 10 15 12 16 11 17 13 18 14 19 15 20 16 22 17 23 18 24 23 25
REMARK SMILES IDX 24 26 25 27 26 28 27 29 28 30 29 31 30 32 91 33 31 34 90 35
REMARK SMILES IDX 32 36 33 37 34 38 84 39 35 40 89 41 83 42 85 43 36 44 88 45
REMARK SMILES IDX 82 46 81 47 37 49 69 50 49 51 68 52 50 53 53 54 67 55 86 56
REMARK SMILES IDX 51 57 52 58 66 60 87 61 54 62 38 63 39 64 47 65 40 66 41 67
REMARK SMILES IDX 45 68 48 69 42 70 43 71 46 72 44 73 70 74 71 75 79 76 72 77
REMARK SMILES IDX 73 78 77 79 80 80 74 81 75 82 78 83 76 84 55 85 56 86 64 87
REMARK SMILES IDX 57 88 58 89 62 90 65 91 59 92 60 93 63 94 61 95
REMARK H PARENT 7 11 15 21 85 48 53 59
REMARK Flexibility Score: inf
ROOT
ATOM      1  C   UNL A   1      31.292  27.024  25.753  1.00  0.00     0.306 C 
ATOM      2  O   UNL A   1      30.900  26.078  26.425  1.00  0.00    -0.252 OA
ENDROOT
BRANCH   1   3
ATOM      3  C   UNL A   1      31.801  26.897  24.323  1.00  0.00     0.129 C 
BRANCH   3   4
ATOM      4  C   UNL A   1      33.301  26.604  24.084  1.00  0.00    -0.016 C 
ATOM      5  C   UNL A   1      33.926  25.945  25.304  1.00  0.00     0.012 C 
ATOM      6  C   UNL A   1      34.016  27.978  23.936  1.00  0.00     0.012 C 
BRANCH   4   7
ATOM      7  C   UNL A   1      33.665  25.791  22.816  1.00  0.00     0.107 C 
BRANCH   7   8
ATOM      8  C   UNL A   1      32.592  25.171  21.954  1.00  0.00     0.224 C 
ATOM      9  O   UNL A   1      32.215  25.758  20.933  1.00  0.00    -0.275 OA
ATOM     10  N   UNL A   1      32.233  23.866  22.090  1.00  0.00    -0.326 N 
ATOM     11  H   UNL A   1      31.865  23.497  21.254  1.00  0.00     0.169 HD
BRANCH  10  12
ATOM     12  C   UNL A   1      32.253  22.911  23.123  1.00  0.00     0.041 A 
ATOM     13  C   UNL A   1      31.380  23.187  24.182  1.00  0.00     0.026 A 
ATOM     14  C   UNL A   1      33.202  21.878  23.265  1.00  0.00     0.040 A 
ATOM     15  C   UNL A   1      31.408  22.435  25.350  1.00  0.00     0.003 A 
ATOM     16  C   UNL A   1      33.285  21.152  24.470  1.00  0.00     0.041 A 
ATOM     17  C   UNL A   1      32.357  21.430  25.491  1.00  0.00     0.014 A 
BRANCH  16  18
ATOM     18  C   UNL A   1      34.390  20.224  24.882  1.00  0.00     0.251 C 
ATOM     19  O   UNL A   1      35.364  20.703  25.475  1.00  0.00    -0.269 OA
ATOM     20  N   UNL A   1      34.415  18.868  24.677  1.00  0.00    -0.349 N 
ATOM     21  H   UNL A   1      35.215  18.426  25.042  1.00  0.00     0.164 HD
BRANCH  20  22
ATOM     22  C   UNL A   1      33.512  17.981  24.045  1.00  0.00     0.082 C 
ATOM     23  C   UNL A   1      34.027  16.627  23.623  1.00  0.00     0.027 C 
ATOM     24  C   UNL A   1      33.037  16.723  24.734  1.00  0.00     0.027 C 
ENDBRANCH  20  22
ENDBRANCH  16  18
ENDBRANCH  10  12
ENDBRANCH   7   8
ENDBRANCH   4   7
ENDBRANCH   3   4
ENDBRANCH   1   3
BRANCH   1  25
ATOM     25  O   UNL A   1      31.443  28.292  26.204  1.00  0.00    -0.462 OA
BRANCH  25  26
ATOM     26  C   UNL A   1      31.069  29.385  25.344  1.00  0.00     0.274 C 
BRANCH  26  27
ATOM     27  C   UNL A   1      31.518  30.746  25.884  1.00  0.00     0.275 C 
BRANCH  27  28
ATOM     28  O   UNL A   1      32.936  30.765  26.156  1.00  0.00    -0.458 OA
BRANCH  28  29
ATOM     29  C   UNL A   1      33.318  31.715  27.033  1.00  0.00     0.338 C 
ATOM     30  O   UNL A   1      32.695  32.708  27.355  1.00  0.00    -0.246 OA
BRANCH  29  31
ATOM     31  C   UNL A   1      34.590  31.359  27.671  1.00  0.00     0.060 A 
ATOM     32  C   UNL A   1      34.750  30.034  28.065  1.00  0.00     0.016 A 
ATOM     33  C   UNL A   1      35.541  32.323  28.013  1.00  0.00     0.016 A 
ATOM     34  C   UNL A   1      35.859  29.674  28.825  1.00  0.00     0.010 A 
ATOM     35  C   UNL A   1      36.673  31.946  28.756  1.00  0.00     0.010 A 
ATOM     36  C   UNL A   1      36.837  30.618  29.184  1.00  0.00    -0.014 A 
BRANCH  36  37
ATOM     37  C   UNL A   1      38.009  30.176  29.995  1.00  0.00     0.031 A 
ATOM     38  C   UNL A   1      39.089  29.303  29.413  1.00  0.00     0.074 A 
ATOM     39  C   UNL A   1      38.145  30.628  31.258  1.00  0.00     0.049 A 
ATOM     40  N   UNL A   1      40.138  28.782  30.006  1.00  0.00    -0.248 NA
ATOM     41  C   UNL A   1      38.989  28.975  27.984  1.00  0.00     0.031 C 
ATOM     42  C   UNL A   1      37.200  31.514  31.940  1.00  0.00     0.029 A 
ATOM     43  N   UNL A   1      39.143  30.436  32.182  1.00  0.00    -0.354 N 
ATOM     44  C   UNL A   1      40.792  28.028  29.039  1.00  0.00     0.074 A 
ATOM     45  C   UNL A   1      40.034  28.174  27.814  1.00  0.00     0.031 C 
ATOM     46  C   UNL A   1      37.693  31.843  33.141  1.00  0.00     0.029 A 
ATOM     47  C   UNL A   1      38.943  31.121  33.356  1.00  0.00     0.049 A 
ATOM     48  H   UNL A   1      39.926  29.862  32.020  1.00  0.00     0.167 HD
ATOM     49  C   UNL A   1      41.912  27.277  29.169  1.00  0.00     0.037 A 
ATOM     50  C   UNL A   1      39.658  31.147  34.496  1.00  0.00     0.037 A 
ATOM     51  C   UNL A   1      42.695  27.161  30.374  1.00  0.00     0.049 A 
ATOM     52  C   UNL A   1      40.892  30.301  34.614  1.00  0.00     0.074 A 
ATOM     53  C   UNL A   1      43.838  26.408  30.595  1.00  0.00     0.029 A 
ATOM     54  N   UNL A   1      42.426  27.828  31.559  1.00  0.00    -0.354 N 
ATOM     55  N   UNL A   1      41.449  29.526  33.718  1.00  0.00    -0.248 NA
ATOM     56  C   UNL A   1      41.578  30.309  35.914  1.00  0.00     0.031 C 
ATOM     57  C   UNL A   1      44.246  26.602  31.920  1.00  0.00     0.029 A 
ATOM     58  C   UNL A   1      43.377  27.501  32.515  1.00  0.00     0.049 A 
ATOM     59  H   UNL A   1      41.672  28.445  31.702  1.00  0.00     0.167 HD
ATOM     60  C   UNL A   1      42.538  28.942  34.345  1.00  0.00     0.074 A 
ATOM     61  C   UNL A   1      42.588  29.481  35.689  1.00  0.00     0.031 C 
ATOM     62  C   UNL A   1      43.408  28.026  33.855  1.00  0.00     0.037 A 
BRANCH  49  63
ATOM     63  C   UNL A   1      42.352  26.474  27.979  1.00  0.00     0.064 A 
ATOM     64  C   UNL A   1      41.839  25.196  27.718  1.00  0.00     0.173 A 
ATOM     65  C   UNL A   1      43.245  27.028  27.048  1.00  0.00     0.173 A 
ATOM     66  F   UNL A   1      40.983  24.624  28.578  1.00  0.00    -0.203 F 
ATOM     67  C   UNL A   1      42.213  24.497  26.572  1.00  0.00     0.198 A 
ATOM     68  C   UNL A   1      43.600  26.335  25.895  1.00  0.00     0.198 A 
ATOM     69  F   UNL A   1      43.752  28.254  27.247  1.00  0.00    -0.203 F 
ATOM     70  F   UNL A   1      41.725  23.268  26.349  1.00  0.00    -0.200 F 
ATOM     71  C   UNL A   1      43.087  25.069  25.659  1.00  0.00     0.200 A 
ATOM     72  F   UNL A   1      44.431  26.897  25.006  1.00  0.00    -0.200 F 
ATOM     73  F   UNL A   1      43.431  24.402  24.549  1.00  0.00    -0.200 F 
ENDBRANCH  49  63
BRANCH  50  74
ATOM     74  C   UNL A   1      39.188  31.978  35.633  1.00  0.00     0.064 A 
ATOM     75  C   UNL A   1      38.327  31.452  36.604  1.00  0.00     0.173 A 
ATOM     76  C   UNL A   1      39.623  33.302  35.788  1.00  0.00     0.173 A 
ATOM     77  F   UNL A   1      37.863  30.200  36.481  1.00  0.00    -0.203 F 
ATOM     78  C   UNL A   1      37.921  32.220  37.692  1.00  0.00     0.198 A 
ATOM     79  C   UNL A   1      39.241  34.059  36.892  1.00  0.00     0.198 A 
ATOM     80  F   UNL A   1      40.447  33.850  34.882  1.00  0.00    -0.203 F 
ATOM     81  F   UNL A   1      37.077  31.705  38.596  1.00  0.00    -0.200 F 
ATOM     82  C   UNL A   1      38.388  33.518  37.842  1.00  0.00     0.200 A 
ATOM     83  F   UNL A   1      39.708  35.306  37.040  1.00  0.00    -0.200 F 
ATOM     84  F   UNL A   1      38.015  34.249  38.901  1.00  0.00    -0.200 F 
ENDBRANCH  50  74
BRANCH  62  85
ATOM     85  C   UNL A   1      44.481  27.544  34.783  1.00  0.00     0.064 A 
ATOM     86  C   UNL A   1      45.718  28.200  34.865  1.00  0.00     0.173 A 
ATOM     87  C   UNL A   1      44.271  26.427  35.603  1.00  0.00     0.173 A 
ATOM     88  F   UNL A   1      45.970  29.263  34.086  1.00  0.00    -0.203 F 
ATOM     89  C   UNL A   1      46.715  27.742  35.720  1.00  0.00     0.198 A 
ATOM     90  C   UNL A   1      45.264  25.982  36.471  1.00  0.00     0.198 A 
ATOM     91  F   UNL A   1      43.105  25.766  35.560  1.00  0.00    -0.203 F 
ATOM     92  F   UNL A   1      47.905  28.358  35.752  1.00  0.00    -0.200 F 
ATOM     93  C   UNL A   1      46.487  26.635  36.524  1.00  0.00     0.200 A 
ATOM     94  F   UNL A   1      45.042  24.915  37.251  1.00  0.00    -0.200 F 
ATOM     95  F   UNL A   1      47.450  26.191  37.344  1.00  0.00    -0.200 F 
ENDBRANCH  62  85
ENDBRANCH  36  37
ENDBRANCH  29  31
ENDBRANCH  28  29
ENDBRANCH  27  28
ENDBRANCH  26  27
ENDBRANCH  25  26
ENDBRANCH   1  25
TORSDOF 17
ENDMDL
