MODEL 1
REMARK VINA RESULT:     -12.8      0.000      0.000
REMARK SMILES Cc1c(Cl)cc2c(c1C)O[C@@H](C(F)(F)F)C(C(=O)OCCOC(=O)c1ccc(-c3c4nc(c(-c5c(F)c(F)c(F)c(F)c5F)c5ccc([nH]5)c(-c5c(F)c(F)c(F)c(F)c5F)c5nc(c(-c6c(F)c(F)c(F)c(F)c6F)c6ccc3[nH]6)C=C5)C=C4)cc1)=C2
REMARK SMILES IDX 21 1 20 2 19 3 17 4 18 5 16 6 1 7 2 8 3 9 8 10 4 11 5 12
REMARK SMILES IDX 7 13 9 14 6 15 10 16 88 17 11 18 12 19 13 20 14 21 15 22
REMARK SMILES IDX 22 23 23 24 24 25 25 26 26 27 87 28 27 29 86 30 28 31 29 32
REMARK SMILES IDX 30 33 80 34 31 35 85 36 79 37 81 38 32 39 84 40 78 41 77 42
REMARK SMILES IDX 33 44 65 45 45 46 64 47 46 48 49 49 63 50 82 51 47 52 48 53
REMARK SMILES IDX 62 55 83 56 50 57 34 58 35 59 43 60 36 61 37 62 41 63 44 64
REMARK SMILES IDX 38 65 39 66 42 67 40 68 66 69 67 70 75 71 68 72 69 73 73 74
REMARK SMILES IDX 76 75 70 76 71 77 74 78 72 79 51 80 52 81 60 82 53 83 54 84
REMARK SMILES IDX 58 85 61 86 55 87 56 88 59 89 57 90
REMARK H PARENT 81 43 49 54
REMARK Flexibility Score: inf
ROOT
ATOM      1  C   UNL A   1      31.690  29.632  25.982  1.00  0.00     0.275 C 
ENDROOT
BRANCH   1   2
ATOM      2  C   UNL A   1      31.014  29.545  24.612  1.00  0.00     0.275 C 
BRANCH   2   3
ATOM      3  O   UNL A   1      31.232  28.244  24.022  1.00  0.00    -0.459 OA
BRANCH   3   4
ATOM      4  C   UNL A   1      32.345  28.129  23.262  1.00  0.00     0.338 C 
ATOM      5  O   UNL A   1      32.831  29.002  22.562  1.00  0.00    -0.246 OA
BRANCH   4   6
ATOM      6  C   UNL A   1      32.971  26.804  23.449  1.00  0.00     0.087 C 
ATOM      7  C   UNL A   1      35.904  21.449  25.750  1.00  0.00     0.046 C 
ATOM      8  C   UNL A   1      35.084  22.677  25.440  1.00  0.00    -0.026 A 
ATOM      9  C   UNL A   1      34.201  23.214  26.398  1.00  0.00     0.045 A 
ATOM     10  C   UNL A   1      35.245  23.356  24.201  1.00  0.00    -0.004 A 
ATOM     11  Cl  UNL A   1      33.964  22.500  27.957  1.00  0.00    -0.084 Cl
ATOM     12  C   UNL A   1      33.490  24.385  26.139  1.00  0.00     0.032 A 
ATOM     13  C   UNL A   1      34.485  24.515  23.938  1.00  0.00     0.131 A 
ATOM     14  C   UNL A   1      36.192  22.867  23.134  1.00  0.00     0.049 C 
ATOM     15  C   UNL A   1      33.642  25.040  24.918  1.00  0.00     0.019 A 
ATOM     16  O   UNL A   1      34.660  25.144  22.728  1.00  0.00    -0.475 OA
ATOM     17  C   UNL A   1      32.999  26.320  24.696  1.00  0.00     0.027 C 
ATOM     18  C   UNL A   1      33.631  26.091  22.303  1.00  0.00     0.316 C 
BRANCH  18  19
ATOM     19  C   UNL A   1      32.670  25.433  21.290  1.00  0.00     0.430 C 
ATOM     20  F   UNL A   1      31.370  25.574  21.647  1.00  0.00    -0.167 F 
ATOM     21  F   UNL A   1      32.787  25.936  20.041  1.00  0.00    -0.167 F 
ATOM     22  F   UNL A   1      32.911  24.100  21.208  1.00  0.00    -0.167 F 
ENDBRANCH  18  19
ENDBRANCH   4   6
ENDBRANCH   3   4
ENDBRANCH   2   3
ENDBRANCH   1   2
BRANCH   1  23
ATOM     23  O   UNL A   1      32.900  30.405  25.876  1.00  0.00    -0.458 OA
BRANCH  23  24
ATOM     24  C   UNL A   1      33.146  31.273  26.881  1.00  0.00     0.338 C 
ATOM     25  O   UNL A   1      32.439  32.201  27.251  1.00  0.00    -0.246 OA
BRANCH  24  26
ATOM     26  C   UNL A   1      34.439  30.957  27.515  1.00  0.00     0.060 A 
ATOM     27  C   UNL A   1      34.781  29.633  27.772  1.00  0.00     0.016 A 
ATOM     28  C   UNL A   1      35.271  31.984  27.957  1.00  0.00     0.016 A 
ATOM     29  C   UNL A   1      35.895  29.331  28.556  1.00  0.00     0.010 A 
ATOM     30  C   UNL A   1      36.452  31.675  28.645  1.00  0.00     0.010 A 
ATOM     31  C   UNL A   1      36.762  30.346  28.987  1.00  0.00    -0.014 A 
BRANCH  31  32
ATOM     32  C   UNL A   1      37.967  30.018  29.807  1.00  0.00     0.031 A 
ATOM     33  C   UNL A   1      39.084  29.186  29.229  1.00  0.00     0.074 A 
ATOM     34  C   UNL A   1      38.083  30.490  31.066  1.00  0.00     0.049 A 
ATOM     35  N   UNL A   1      40.132  28.674  29.828  1.00  0.00    -0.248 NA
ATOM     36  C   UNL A   1      39.011  28.878  27.792  1.00  0.00     0.031 C 
ATOM     37  C   UNL A   1      37.108  31.344  31.745  1.00  0.00     0.029 A 
ATOM     38  N   UNL A   1      39.087  30.338  31.995  1.00  0.00    -0.354 N 
ATOM     39  C   UNL A   1      40.811  27.949  28.856  1.00  0.00     0.074 A 
ATOM     40  C   UNL A   1      40.054  28.077  27.630  1.00  0.00     0.031 C 
ATOM     41  C   UNL A   1      37.589  31.696  32.948  1.00  0.00     0.029 A 
ATOM     42  C   UNL A   1      38.859  31.015  33.169  1.00  0.00     0.049 A 
ATOM     43  H   UNL A   1      39.892  29.794  31.834  1.00  0.00     0.167 HD
ATOM     44  C   UNL A   1      41.961  27.243  28.977  1.00  0.00     0.037 A 
ATOM     45  C   UNL A   1      39.572  31.062  34.311  1.00  0.00     0.037 A 
ATOM     46  C   UNL A   1      42.746  27.163  30.182  1.00  0.00     0.049 A 
ATOM     47  C   UNL A   1      40.827  30.244  34.431  1.00  0.00     0.074 A 
ATOM     48  C   UNL A   1      43.919  26.461  30.402  1.00  0.00     0.029 A 
ATOM     49  N   UNL A   1      42.452  27.828  31.361  1.00  0.00    -0.354 N 
ATOM     50  N   UNL A   1      41.411  29.494  33.530  1.00  0.00    -0.248 NA
ATOM     51  C   UNL A   1      41.505  30.253  35.736  1.00  0.00     0.031 C 
ATOM     52  C   UNL A   1      44.321  26.681  31.722  1.00  0.00     0.029 A 
ATOM     53  C   UNL A   1      43.420  27.550  32.313  1.00  0.00     0.049 A 
ATOM     54  H   UNL A   1      41.670  28.411  31.503  1.00  0.00     0.167 HD
ATOM     55  C   UNL A   1      42.524  28.949  34.152  1.00  0.00     0.074 A 
ATOM     56  C   UNL A   1      42.550  29.471  35.502  1.00  0.00     0.031 C 
ATOM     57  C   UNL A   1      43.438  28.085  33.649  1.00  0.00     0.037 A 
BRANCH  44  58
ATOM     58  C   UNL A   1      42.449  26.481  27.779  1.00  0.00     0.064 A 
ATOM     59  C   UNL A   1      43.405  27.016  26.905  1.00  0.00     0.173 A 
ATOM     60  C   UNL A   1      42.014  25.165  27.553  1.00  0.00     0.173 A 
ATOM     61  F   UNL A   1      43.844  28.272  27.072  1.00  0.00    -0.203 F 
ATOM     62  C   UNL A   1      43.899  26.265  25.840  1.00  0.00     0.198 A 
ATOM     63  C   UNL A   1      42.529  24.409  26.505  1.00  0.00     0.198 A 
ATOM     64  F   UNL A   1      41.107  24.604  28.367  1.00  0.00    -0.203 F 
ATOM     65  F   UNL A   1      44.794  26.804  25.001  1.00  0.00    -0.200 F 
ATOM     66  C   UNL A   1      43.469  24.959  25.648  1.00  0.00     0.200 A 
ATOM     67  F   UNL A   1      42.123  23.143  26.329  1.00  0.00    -0.200 F 
ATOM     68  F   UNL A   1      43.961  24.232  24.634  1.00  0.00    -0.200 F 
ENDBRANCH  44  58
BRANCH  45  69
ATOM     69  C   UNL A   1      39.100  31.904  35.444  1.00  0.00     0.064 A 
ATOM     70  C   UNL A   1      38.297  31.358  36.455  1.00  0.00     0.173 A 
ATOM     71  C   UNL A   1      39.453  33.257  35.549  1.00  0.00     0.173 A 
ATOM     72  F   UNL A   1      37.908  30.077  36.384  1.00  0.00    -0.203 F 
ATOM     73  C   UNL A   1      37.868  32.135  37.530  1.00  0.00     0.198 A 
ATOM     74  C   UNL A   1      39.050  34.024  36.639  1.00  0.00     0.198 A 
ATOM     75  F   UNL A   1      40.216  33.828  34.605  1.00  0.00    -0.203 F 
ATOM     76  F   UNL A   1      37.076  31.598  38.468  1.00  0.00    -0.200 F 
ATOM     77  C   UNL A   1      38.254  33.464  37.628  1.00  0.00     0.200 A 
ATOM     78  F   UNL A   1      39.438  35.303  36.736  1.00  0.00    -0.200 F 
ATOM     79  F   UNL A   1      37.855  34.205  38.670  1.00  0.00    -0.200 F 
ENDBRANCH  45  69
BRANCH  57  80
ATOM     80  C   UNL A   1      44.556  27.659  34.550  1.00  0.00     0.064 A 
ATOM     81  C   UNL A   1      44.470  26.488  35.317  1.00  0.00     0.173 A 
ATOM     82  C   UNL A   1      45.752  28.391  34.594  1.00  0.00     0.173 A 
ATOM     83  F   UNL A   1      43.342  25.763  35.317  1.00  0.00    -0.203 F 
ATOM     84  C   UNL A   1      45.540  26.069  36.103  1.00  0.00     0.198 A 
ATOM     85  C   UNL A   1      46.827  27.958  35.364  1.00  0.00     0.198 A 
ATOM     86  F   UNL A   1      45.884  29.514  33.873  1.00  0.00    -0.203 F 
ATOM     87  F   UNL A   1      45.428  24.962  36.849  1.00  0.00    -0.200 F 
ATOM     88  C   UNL A   1      46.720  26.799  36.119  1.00  0.00     0.200 A 
ATOM     89  F   UNL A   1      47.970  28.657  35.370  1.00  0.00    -0.200 F 
ATOM     90  F   UNL A   1      47.753  26.388  36.867  1.00  0.00    -0.200 F 
ENDBRANCH  57  80
ENDBRANCH  31  32
ENDBRANCH  24  26
ENDBRANCH  23  24
ENDBRANCH   1  23
TORSDOF 12
ENDMDL
MODEL 2
REMARK VINA RESULT:     -12.7      1.448      2.041
REMARK SMILES Cc1c(Cl)cc2c(c1C)O[C@@H](C(F)(F)F)C(C(=O)OCCOC(=O)c1ccc(-c3c4nc(c(-c5c(F)c(F)c(F)c(F)c5F)c5ccc([nH]5)c(-c5c(F)c(F)c(F)c(F)c5F)c5nc(c(-c6c(F)c(F)c(F)c(F)c6F)c6ccc3[nH]6)C=C5)C=C4)cc1)=C2
REMARK SMILES IDX 21 1 20 2 19 3 17 4 18 5 16 6 1 7 2 8 3 9 8 10 4 11 5 12
REMARK SMILES IDX 7 13 9 14 6 15 10 16 88 17 11 18 12 19 13 20 14 21 15 22
REMARK SMILES IDX 22 23 23 24 24 25 25 26 26 27 87 28 27 29 86 30 28 31 29 32
REMARK SMILES IDX 30 33 80 34 31 35 85 36 79 37 81 38 32 39 84 40 78 41 77 42
REMARK SMILES IDX 33 44 65 45 45 46 64 47 46 48 49 49 63 50 82 51 47 52 48 53
REMARK SMILES IDX 62 55 83 56 50 57 34 58 35 59 43 60 36 61 37 62 41 63 44 64
REMARK SMILES IDX 38 65 39 66 42 67 40 68 66 69 67 70 75 71 68 72 69 73 73 74
REMARK SMILES IDX 76 75 70 76 71 77 74 78 72 79 51 80 52 81 60 82 53 83 54 84
REMARK SMILES IDX 58 85 61 86 55 87 56 88 59 89 57 90
REMARK H PARENT 81 43 49 54
REMARK Flexibility Score: inf
ROOT
ATOM      1  C   UNL A   1      31.550  29.913  25.778  1.00  0.00     0.275 C 
ENDROOT
BRANCH   1   2
ATOM      2  C   UNL A   1      31.541  28.460  26.258  1.00  0.00     0.275 C 
BRANCH   2   3
ATOM      3  O   UNL A   1      32.643  27.728  25.677  1.00  0.00    -0.459 OA
BRANCH   3   4
ATOM      4  C   UNL A   1      32.328  26.948  24.616  1.00  0.00     0.338 C 
ATOM      5  O   UNL A   1      31.756  27.311  23.602  1.00  0.00    -0.246 OA
BRANCH   4   6
ATOM      6  C   UNL A   1      32.850  25.579  24.802  1.00  0.00     0.087 C 
ATOM      7  C   UNL A   1      36.472  20.158  25.064  1.00  0.00     0.046 C 
ATOM      8  C   UNL A   1      35.846  21.531  25.104  1.00  0.00    -0.026 A 
ATOM      9  C   UNL A   1      36.614  22.662  25.448  1.00  0.00     0.045 A 
ATOM     10  C   UNL A   1      34.489  21.716  24.723  1.00  0.00    -0.004 A 
ATOM     11  Cl  UNL A   1      38.287  22.562  25.880  1.00  0.00    -0.084 Cl
ATOM     12  C   UNL A   1      36.056  23.939  25.425  1.00  0.00     0.032 A 
ATOM     13  C   UNL A   1      33.928  23.009  24.747  1.00  0.00     0.131 A 
ATOM     14  C   UNL A   1      33.607  20.563  24.311  1.00  0.00     0.049 C 
ATOM     15  C   UNL A   1      34.721  24.113  25.062  1.00  0.00     0.019 A 
ATOM     16  O   UNL A   1      32.611  23.151  24.379  1.00  0.00    -0.475 OA
ATOM     17  C   UNL A   1      34.176  25.448  24.919  1.00  0.00     0.027 C 
ATOM     18  C   UNL A   1      31.933  24.389  24.758  1.00  0.00     0.316 C 
BRANCH  18  19
ATOM     19  C   UNL A   1      31.069  24.172  26.019  1.00  0.00     0.430 C 
ATOM     20  F   UNL A   1      30.365  23.016  25.969  1.00  0.00    -0.167 F 
ATOM     21  F   UNL A   1      31.792  24.137  27.160  1.00  0.00    -0.167 F 
ATOM     22  F   UNL A   1      30.165  25.176  26.150  1.00  0.00    -0.167 F 
ENDBRANCH  18  19
ENDBRANCH   4   6
ENDBRANCH   3   4
ENDBRANCH   2   3
ENDBRANCH   1   2
BRANCH   1  23
ATOM     23  O   UNL A   1      32.888  30.440  25.861  1.00  0.00    -0.458 OA
BRANCH  23  24
ATOM     24  C   UNL A   1      33.127  31.307  26.870  1.00  0.00     0.338 C 
ATOM     25  O   UNL A   1      32.406  32.218  27.253  1.00  0.00    -0.246 OA
BRANCH  24  26
ATOM     26  C   UNL A   1      34.433  31.012  27.488  1.00  0.00     0.060 A 
ATOM     27  C   UNL A   1      34.807  29.692  27.727  1.00  0.00     0.016 A 
ATOM     28  C   UNL A   1      35.247  32.052  27.934  1.00  0.00     0.016 A 
ATOM     29  C   UNL A   1      35.935  29.407  28.496  1.00  0.00     0.010 A 
ATOM     30  C   UNL A   1      36.441  31.761  28.607  1.00  0.00     0.010 A 
ATOM     31  C   UNL A   1      36.783  30.436  28.930  1.00  0.00    -0.014 A 
BRANCH  31  32
ATOM     32  C   UNL A   1      38.003  30.125  29.736  1.00  0.00     0.031 A 
ATOM     33  C   UNL A   1      39.122  29.304  29.145  1.00  0.00     0.074 A 
ATOM     34  C   UNL A   1      38.131  30.603  30.991  1.00  0.00     0.049 A 
ATOM     35  N   UNL A   1      40.184  28.808  29.732  1.00  0.00    -0.248 NA
ATOM     36  C   UNL A   1      39.033  28.990  27.710  1.00  0.00     0.031 C 
ATOM     37  C   UNL A   1      37.155  31.448  31.681  1.00  0.00     0.029 A 
ATOM     38  N   UNL A   1      39.148  30.466  31.907  1.00  0.00    -0.354 N 
ATOM     39  C   UNL A   1      40.859  28.087  28.753  1.00  0.00     0.074 A 
ATOM     40  C   UNL A   1      40.084  28.201  27.537  1.00  0.00     0.031 C 
ATOM     41  C   UNL A   1      37.647  31.809  32.875  1.00  0.00     0.029 A 
ATOM     42  C   UNL A   1      38.928  31.145  33.082  1.00  0.00     0.049 A 
ATOM     43  H   UNL A   1      39.957  29.932  31.738  1.00  0.00     0.167 HD
ATOM     44  C   UNL A   1      42.019  27.395  28.861  1.00  0.00     0.037 A 
ATOM     45  C   UNL A   1      39.656  31.205  34.214  1.00  0.00     0.037 A 
ATOM     46  C   UNL A   1      42.821  27.328  30.056  1.00  0.00     0.049 A 
ATOM     47  C   UNL A   1      40.922  30.401  34.320  1.00  0.00     0.074 A 
ATOM     48  C   UNL A   1      44.005  26.642  30.262  1.00  0.00     0.029 A 
ATOM     49  N   UNL A   1      42.534  27.994  31.237  1.00  0.00    -0.354 N 
ATOM     50  N   UNL A   1      41.503  29.655  33.413  1.00  0.00    -0.248 NA
ATOM     51  C   UNL A   1      41.617  30.424  35.615  1.00  0.00     0.031 C 
ATOM     52  C   UNL A   1      44.422  26.872  31.576  1.00  0.00     0.029 A 
ATOM     53  C   UNL A   1      43.519  27.731  32.176  1.00  0.00     0.049 A 
ATOM     54  H   UNL A   1      41.748  28.569  31.387  1.00  0.00     0.167 HD
ATOM     55  C   UNL A   1      42.631  29.126  34.022  1.00  0.00     0.074 A 
ATOM     56  C   UNL A   1      42.669  29.653  35.370  1.00  0.00     0.031 C 
ATOM     57  C   UNL A   1      43.548  28.271  33.510  1.00  0.00     0.037 A 
BRANCH  44  58
ATOM     58  C   UNL A   1      42.500  26.634  27.660  1.00  0.00     0.064 A 
ATOM     59  C   UNL A   1      43.431  27.181  26.766  1.00  0.00     0.173 A 
ATOM     60  C   UNL A   1      42.084  25.310  27.448  1.00  0.00     0.173 A 
ATOM     61  F   UNL A   1      43.852  28.445  26.919  1.00  0.00    -0.203 F 
ATOM     62  C   UNL A   1      43.921  26.432  25.697  1.00  0.00     0.198 A 
ATOM     63  C   UNL A   1      42.594  24.557  26.395  1.00  0.00     0.198 A 
ATOM     64  F   UNL A   1      41.200  24.739  28.280  1.00  0.00    -0.203 F 
ATOM     65  F   UNL A   1      44.792  26.982  24.840  1.00  0.00    -0.200 F 
ATOM     66  C   UNL A   1      43.510  25.119  25.519  1.00  0.00     0.200 A 
ATOM     67  F   UNL A   1      42.207  23.284  26.233  1.00  0.00    -0.200 F 
ATOM     68  F   UNL A   1      43.998  24.395  24.501  1.00  0.00    -0.200 F 
ENDBRANCH  44  58
BRANCH  45  69
ATOM     69  C   UNL A   1      39.189  32.044  35.350  1.00  0.00     0.064 A 
ATOM     70  C   UNL A   1      38.414  31.491  36.378  1.00  0.00     0.173 A 
ATOM     71  C   UNL A   1      39.520  33.404  35.442  1.00  0.00     0.173 A 
ATOM     72  F   UNL A   1      38.045  30.203  36.322  1.00  0.00    -0.203 F 
ATOM     73  C   UNL A   1      37.990  32.266  37.456  1.00  0.00     0.198 A 
ATOM     74  C   UNL A   1      39.123  34.170  36.535  1.00  0.00     0.198 A 
ATOM     75  F   UNL A   1      40.257  33.983  34.482  1.00  0.00    -0.203 F 
ATOM     76  F   UNL A   1      37.223  31.721  38.411  1.00  0.00    -0.200 F 
ATOM     77  C   UNL A   1      38.354  33.602  37.540  1.00  0.00     0.200 A 
ATOM     78  F   UNL A   1      39.490  35.456  36.618  1.00  0.00    -0.200 F 
ATOM     79  F   UNL A   1      37.961  34.342  38.585  1.00  0.00    -0.200 F 
ENDBRANCH  45  69
BRANCH  57  80
ATOM     80  C   UNL A   1      44.684  27.862  34.397  1.00  0.00     0.064 A 
ATOM     81  C   UNL A   1      45.860  28.621  34.473  1.00  0.00     0.173 A 
ATOM     82  C   UNL A   1      44.566  26.741  35.231  1.00  0.00     0.173 A 
ATOM     83  F   UNL A   1      46.023  29.694  33.685  1.00  0.00    -0.203 F 
ATOM     84  C   UNL A   1      46.884  28.266  35.347  1.00  0.00     0.198 A 
ATOM     85  C   UNL A   1      45.582  26.401  36.119  1.00  0.00     0.198 A 
ATOM     86  F   UNL A   1      43.457  25.987  35.199  1.00  0.00    -0.203 F 
ATOM     87  F   UNL A   1      48.012  28.989  35.385  1.00  0.00    -0.200 F 
ATOM     88  C   UNL A   1      46.741  27.161  36.175  1.00  0.00     0.200 A 
ATOM     89  F   UNL A   1      45.439  25.341  36.927  1.00  0.00    -0.200 F 
ATOM     90  F   UNL A   1      47.722  26.828  37.025  1.00  0.00    -0.200 F 
ENDBRANCH  57  80
ENDBRANCH  31  32
ENDBRANCH  24  26
ENDBRANCH  23  24
ENDBRANCH   1  23
TORSDOF 12
ENDMDL
MODEL 3
REMARK VINA RESULT:     -12.7      1.525      2.629
REMARK SMILES Cc1c(Cl)cc2c(c1C)O[C@@H](C(F)(F)F)C(C(=O)OCCOC(=O)c1ccc(-c3c4nc(c(-c5c(F)c(F)c(F)c(F)c5F)c5ccc([nH]5)c(-c5c(F)c(F)c(F)c(F)c5F)c5nc(c(-c6c(F)c(F)c(F)c(F)c6F)c6ccc3[nH]6)C=C5)C=C4)cc1)=C2
REMARK SMILES IDX 21 1 20 2 19 3 17 4 18 5 16 6 1 7 2 8 3 9 8 10 4 11 5 12
REMARK SMILES IDX 7 13 9 14 6 15 10 16 88 17 11 18 12 19 13 20 14 21 15 22
REMARK SMILES IDX 22 23 23 24 24 25 25 26 26 27 87 28 27 29 86 30 28 31 29 32
REMARK SMILES IDX 30 33 80 34 31 35 85 36 79 37 81 38 32 39 84 40 78 41 77 42
REMARK SMILES IDX 33 44 65 45 45 46 64 47 46 48 49 49 63 50 82 51 47 52 48 53
REMARK SMILES IDX 62 55 83 56 50 57 34 58 35 59 43 60 36 61 37 62 41 63 44 64
REMARK SMILES IDX 38 65 39 66 42 67 40 68 66 69 67 70 75 71 68 72 69 73 73 74
REMARK SMILES IDX 76 75 70 76 71 77 74 78 72 79 51 80 52 81 60 82 53 83 54 84
REMARK SMILES IDX 58 85 61 86 55 87 56 88 59 89 57 90
REMARK H PARENT 81 43 49 54
REMARK Flexibility Score: inf
ROOT
ATOM      1  C   UNL A   1      31.774  29.976  26.236  1.00  0.00     0.275 C 
ENDROOT
BRANCH   1   2
ATOM      2  C   UNL A   1      31.782  28.474  26.530  1.00  0.00     0.275 C 
BRANCH   2   3
ATOM      3  O   UNL A   1      32.647  27.781  25.603  1.00  0.00    -0.459 OA
BRANCH   3   4
ATOM      4  C   UNL A   1      32.030  26.902  24.779  1.00  0.00     0.338 C 
ATOM      5  O   UNL A   1      31.156  27.166  23.970  1.00  0.00    -0.246 OA
BRANCH   4   6
ATOM      6  C   UNL A   1      32.617  25.554  24.921  1.00  0.00     0.087 C 
ATOM      7  C   UNL A   1      36.494  20.307  25.001  1.00  0.00     0.046 C 
ATOM      8  C   UNL A   1      35.805  21.646  25.086  1.00  0.00    -0.026 A 
ATOM      9  C   UNL A   1      36.520  22.802  25.460  1.00  0.00     0.045 A 
ATOM     10  C   UNL A   1      34.438  21.777  24.717  1.00  0.00    -0.004 A 
ATOM     11  Cl  UNL A   1      38.199  22.769  25.880  1.00  0.00    -0.084 Cl
ATOM     12  C   UNL A   1      35.902  24.051  25.478  1.00  0.00     0.032 A 
ATOM     13  C   UNL A   1      33.817  23.041  24.783  1.00  0.00     0.131 A 
ATOM     14  C   UNL A   1      33.609  20.597  24.275  1.00  0.00     0.049 C 
ATOM     15  C   UNL A   1      34.558  24.172  25.127  1.00  0.00     0.019 A 
ATOM     16  O   UNL A   1      32.491  23.132  24.426  1.00  0.00    -0.475 OA
ATOM     17  C   UNL A   1      33.949  25.483  25.027  1.00  0.00     0.027 C 
ATOM     18  C   UNL A   1      31.758  24.324  24.846  1.00  0.00     0.316 C 
BRANCH  18  19
ATOM     19  C   UNL A   1      30.913  24.029  26.104  1.00  0.00     0.430 C 
ATOM     20  F   UNL A   1      30.341  22.802  26.065  1.00  0.00    -0.167 F 
ATOM     21  F   UNL A   1      31.628  24.087  27.250  1.00  0.00    -0.167 F 
ATOM     22  F   UNL A   1      29.904  24.929  26.217  1.00  0.00    -0.167 F 
ENDBRANCH  18  19
ENDBRANCH   4   6
ENDBRANCH   3   4
ENDBRANCH   2   3
ENDBRANCH   1   2
BRANCH   1  23
ATOM     23  O   UNL A   1      33.129  30.453  26.127  1.00  0.00    -0.458 OA
BRANCH  23  24
ATOM     24  C   UNL A   1      33.505  31.396  27.019  1.00  0.00     0.338 C 
ATOM     25  O   UNL A   1      32.916  32.433  27.297  1.00  0.00    -0.246 OA
BRANCH  24  26
ATOM     26  C   UNL A   1      34.778  31.010  27.654  1.00  0.00     0.060 A 
ATOM     27  C   UNL A   1      35.005  29.682  28.006  1.00  0.00     0.016 A 
ATOM     28  C   UNL A   1      35.711  31.986  28.001  1.00  0.00     0.016 A 
ATOM     29  C   UNL A   1      36.105  29.339  28.791  1.00  0.00     0.010 A 
ATOM     30  C   UNL A   1      36.875  31.622  28.690  1.00  0.00     0.010 A 
ATOM     31  C   UNL A   1      37.071  30.299  29.128  1.00  0.00    -0.014 A 
BRANCH  31  32
ATOM     32  C   UNL A   1      38.260  29.924  29.951  1.00  0.00     0.031 A 
ATOM     33  C   UNL A   1      39.346  29.050  29.374  1.00  0.00     0.074 A 
ATOM     34  C   UNL A   1      38.392  30.388  31.211  1.00  0.00     0.049 A 
ATOM     35  N   UNL A   1      40.372  28.498  29.974  1.00  0.00    -0.248 NA
ATOM     36  C   UNL A   1      39.265  28.748  27.935  1.00  0.00     0.031 C 
ATOM     37  C   UNL A   1      37.449  31.278  31.890  1.00  0.00     0.029 A 
ATOM     38  N   UNL A   1      39.386  30.196  32.142  1.00  0.00    -0.354 N 
ATOM     39  C   UNL A   1      41.025  27.749  29.002  1.00  0.00     0.074 A 
ATOM     40  C   UNL A   1      40.278  27.908  27.774  1.00  0.00     0.031 C 
ATOM     41  C   UNL A   1      37.939  31.608  33.094  1.00  0.00     0.029 A 
ATOM     42  C   UNL A   1      39.182  30.879  33.317  1.00  0.00     0.049 A 
ATOM     43  H   UNL A   1      40.170  29.622  31.982  1.00  0.00     0.167 HD
ATOM     44  C   UNL A   1      42.148  27.000  29.124  1.00  0.00     0.037 A 
ATOM     45  C   UNL A   1      39.893  30.897  34.461  1.00  0.00     0.037 A 
ATOM     46  C   UNL A   1      42.926  26.887  30.331  1.00  0.00     0.049 A 
ATOM     47  C   UNL A   1      41.115  30.031  34.582  1.00  0.00     0.074 A 
ATOM     48  C   UNL A   1      44.071  26.140  30.553  1.00  0.00     0.029 A 
ATOM     49  N   UNL A   1      42.654  27.560  31.511  1.00  0.00    -0.354 N 
ATOM     50  N   UNL A   1      41.673  29.261  33.680  1.00  0.00    -0.248 NA
ATOM     51  C   UNL A   1      41.790  30.012  35.888  1.00  0.00     0.031 C 
ATOM     52  C   UNL A   1      44.478  26.343  31.874  1.00  0.00     0.029 A 
ATOM     53  C   UNL A   1      43.609  27.244  32.465  1.00  0.00     0.049 A 
ATOM     54  H   UNL A   1      41.896  28.173  31.652  1.00  0.00     0.167 HD
ATOM     55  C   UNL A   1      42.763  28.673  34.304  1.00  0.00     0.074 A 
ATOM     56  C   UNL A   1      42.805  29.190  35.656  1.00  0.00     0.031 C 
ATOM     57  C   UNL A   1      43.644  27.775  33.802  1.00  0.00     0.037 A 
BRANCH  44  58
ATOM     58  C   UNL A   1      42.609  26.221  27.927  1.00  0.00     0.064 A 
ATOM     59  C   UNL A   1      42.084  24.958  27.623  1.00  0.00     0.173 A 
ATOM     60  C   UNL A   1      43.528  26.785  27.027  1.00  0.00     0.173 A 
ATOM     61  F   UNL A   1      41.211  24.371  28.456  1.00  0.00    -0.203 F 
ATOM     62  C   UNL A   1      42.471  24.282  26.467  1.00  0.00     0.198 A 
ATOM     63  C   UNL A   1      43.892  26.119  25.861  1.00  0.00     0.198 A 
ATOM     64  F   UNL A   1      44.052  27.996  27.268  1.00  0.00    -0.203 F 
ATOM     65  F   UNL A   1      41.976  23.064  26.209  1.00  0.00    -0.200 F 
ATOM     66  C   UNL A   1      43.365  24.867  25.583  1.00  0.00     0.200 A 
ATOM     67  F   UNL A   1      44.745  26.692  25.001  1.00  0.00    -0.200 F 
ATOM     68  F   UNL A   1      43.721  24.223  24.462  1.00  0.00    -0.200 F 
ENDBRANCH  44  58
BRANCH  45  69
ATOM     69  C   UNL A   1      39.451  31.753  35.594  1.00  0.00     0.064 A 
ATOM     70  C   UNL A   1      39.967  33.046  35.759  1.00  0.00     0.173 A 
ATOM     71  C   UNL A   1      38.495  31.310  36.519  1.00  0.00     0.173 A 
ATOM     72  F   UNL A   1      40.905  33.506  34.918  1.00  0.00    -0.203 F 
ATOM     73  C   UNL A   1      39.542  33.862  36.805  1.00  0.00     0.198 A 
ATOM     74  C   UNL A   1      38.048  32.137  37.546  1.00  0.00     0.198 A 
ATOM     75  F   UNL A   1      37.973  30.079  36.408  1.00  0.00    -0.203 F 
ATOM     76  F   UNL A   1      40.073  35.083  36.960  1.00  0.00    -0.200 F 
ATOM     77  C   UNL A   1      38.574  33.412  37.691  1.00  0.00     0.200 A 
ATOM     78  F   UNL A   1      37.102  31.702  38.390  1.00  0.00    -0.200 F 
ATOM     79  F   UNL A   1      38.153  34.203  38.687  1.00  0.00    -0.200 F 
ENDBRANCH  45  69
BRANCH  57  80
ATOM     80  C   UNL A   1      44.743  27.305  34.705  1.00  0.00     0.064 A 
ATOM     81  C   UNL A   1      45.950  28.010  34.813  1.00  0.00     0.173 A 
ATOM     82  C   UNL A   1      44.561  26.179  35.521  1.00  0.00     0.173 A 
ATOM     83  F   UNL A   1      46.175  29.085  34.043  1.00  0.00    -0.203 F 
ATOM     84  C   UNL A   1      46.940  27.600  35.701  1.00  0.00     0.198 A 
ATOM     85  C   UNL A   1      45.543  25.784  36.423  1.00  0.00     0.198 A 
ATOM     86  F   UNL A   1      43.421  25.476  35.458  1.00  0.00    -0.203 F 
ATOM     87  F   UNL A   1      48.098  28.272  35.769  1.00  0.00    -0.200 F 
ATOM     88  C   UNL A   1      46.733  26.492  36.511  1.00  0.00     0.200 A 
ATOM     89  F   UNL A   1      45.338  24.721  37.214  1.00  0.00    -0.200 F 
ATOM     90  F   UNL A   1      47.682  26.105  37.374  1.00  0.00    -0.200 F 
ENDBRANCH  57  80
ENDBRANCH  31  32
ENDBRANCH  24  26
ENDBRANCH  23  24
ENDBRANCH   1  23
TORSDOF 12
ENDMDL
