MODEL 1
REMARK VINA RESULT:     -12.4      0.000      0.000
REMARK SMILES O=C(N[C@@H](Cc1c[nH]c2ccccc12)C(=O)N[C@@H](CO)C(=O)OCCOC(=O)c1ccc(-c2c3nc(c(-c4c(F)c(F)c(F)c(F)c4F)c4ccc([nH]4)c(-c4c(F)c(F)c(F)c(F)c4F)c4nc(c(-c5c(F)c(F)c(F)c(F)c5F)c5ccc2[nH]5)C=C4)C=C3)cc1)c1ccc(F)cc1
REMARK SMILES IDX 24 1 23 2 21 3 22 4 18 5 17 6 15 7 16 8 4 10 3 11 1 12 2 13
REMARK SMILES IDX 92 15 93 16 98 17 94 18 97 19 95 20 96 21 5 22 6 23 7 24
REMARK SMILES IDX 14 25 8 26 9 27 13 28 10 30 12 31 11 32 19 33 20 34 25 36
REMARK SMILES IDX 26 37 27 38 28 39 29 40 30 41 91 42 31 43 90 44 32 45 33 46
REMARK SMILES IDX 34 47 84 48 35 49 89 50 83 51 85 52 36 53 88 54 82 55 81 56
REMARK SMILES IDX 37 58 69 59 49 60 68 61 50 62 53 63 67 64 86 65 51 66 52 67
REMARK SMILES IDX 66 69 87 70 54 71 38 72 39 73 47 74 40 75 41 76 45 77 48 78
REMARK SMILES IDX 42 79 43 80 46 81 44 82 70 83 71 84 79 85 72 86 73 87 77 88
REMARK SMILES IDX 80 89 74 90 75 91 78 92 76 93 55 94 56 95 64 96 57 97 58 98
REMARK SMILES IDX 62 99 65 100 59 101 60 102 63 103 61 104
REMARK H PARENT 17 9 3 14 8 29 20 35 85 57 53 68
REMARK Flexibility Score: inf
ROOT
ATOM      1  C   UNL A   1      35.938  22.826  23.670  1.00  0.00     0.274 C 
ENDROOT
BRANCH   1   2
ATOM      2  O   UNL A   1      34.444  22.637  23.664  1.00  0.00    -0.460 OA
BRANCH   2   3
ATOM      3  C   UNL A   1      33.698  22.425  24.821  1.00  0.00     0.331 C 
ATOM      4  O   UNL A   1      34.201  22.413  25.942  1.00  0.00    -0.250 OA
BRANCH   3   5
ATOM      5  C   UNL A   1      32.128  22.093  24.551  1.00  0.00     0.218 C 
BRANCH   5   6
ATOM      6  N   UNL A   1      31.225  22.605  25.664  1.00  0.00    -0.339 N 
ATOM      7  C   UNL A   1      30.533  23.667  26.158  1.00  0.00     0.243 C 
ATOM      8  O   UNL A   1      29.954  23.333  27.219  1.00  0.00    -0.273 OA
ATOM      9  H   UNL A   1      31.083  21.855  26.285  1.00  0.00     0.164 HD
BRANCH   7  10
ATOM     10  C   UNL A   1      30.292  25.229  25.742  1.00  0.00     0.176 C 
BRANCH  10  11
ATOM     11  N   UNL A   1      29.166  25.620  24.888  1.00  0.00    -0.340 N 
ATOM     12  O   UNL A   1      28.175  27.098  23.484  1.00  0.00    -0.269 OA
ATOM     13  C   UNL A   1      29.224  26.592  23.889  1.00  0.00     0.251 C 
ATOM     14  H   UNL A   1      28.306  25.163  25.031  1.00  0.00     0.164 HD
BRANCH  13  15
ATOM     15  C   UNL A   1      30.537  27.121  23.372  1.00  0.00     0.040 A 
ATOM     16  C   UNL A   1      31.458  26.310  22.692  1.00  0.00     0.017 A 
ATOM     17  C   UNL A   1      30.879  28.463  23.628  1.00  0.00     0.017 A 
ATOM     18  C   UNL A   1      32.725  26.800  22.352  1.00  0.00     0.040 A 
ATOM     19  C   UNL A   1      32.137  28.960  23.255  1.00  0.00     0.040 A 
ATOM     20  C   UNL A   1      33.052  28.120  22.634  1.00  0.00     0.123 A 
ATOM     21  F   UNL A   1      34.263  28.586  22.298  1.00  0.00    -0.207 F 
ENDBRANCH  13  15
ENDBRANCH  10  11
BRANCH  10  22
ATOM     22  C   UNL A   1      30.660  26.440  26.653  1.00  0.00     0.072 C 
BRANCH  22  23
ATOM     23  C   UNL A   1      32.088  26.627  26.660  1.00  0.00    -0.020 A 
ATOM     24  C   UNL A   1      33.046  25.835  26.063  1.00  0.00     0.087 A 
ATOM     25  C   UNL A   1      32.591  27.886  26.995  1.00  0.00     0.003 A 
ATOM     26  N   UNL A   1      34.098  26.667  25.840  1.00  0.00    -0.361 N 
ATOM     27  C   UNL A   1      33.762  27.919  26.302  1.00  0.00     0.046 A 
ATOM     28  C   UNL A   1      32.032  29.072  27.525  1.00  0.00     0.010 A 
ATOM     29  H   UNL A   1      34.952  26.417  25.421  1.00  0.00     0.166 HD
ATOM     30  C   UNL A   1      34.350  29.128  26.077  1.00  0.00     0.026 A 
ATOM     31  C   UNL A   1      32.611  30.299  27.215  1.00  0.00     0.001 A 
ATOM     32  C   UNL A   1      33.757  30.327  26.462  1.00  0.00     0.002 A 
ENDBRANCH  22  23
ENDBRANCH  10  22
ENDBRANCH   7  10
ENDBRANCH   5   6
BRANCH   5  33
ATOM     33  C   UNL A   1      31.694  22.684  23.203  1.00  0.00     0.193 C 
BRANCH  33  34
ATOM     34  O   UNL A   1      32.316  22.061  22.085  1.00  0.00    -0.394 OA
ATOM     35  H   UNL A   1      31.831  21.253  21.855  1.00  0.00     0.210 HD
ENDBRANCH  33  34
ENDBRANCH   5  33
ENDBRANCH   3   5
ENDBRANCH   2   3
ENDBRANCH   1   2
BRANCH   1  36
ATOM     36  C   UNL A   1      36.996  21.659  24.161  1.00  0.00     0.275 C 
BRANCH  36  37
ATOM     37  O   UNL A   1      37.329  21.489  25.603  1.00  0.00    -0.458 OA
BRANCH  37  38
ATOM     38  C   UNL A   1      38.673  21.404  25.970  1.00  0.00     0.338 C 
ATOM     39  O   UNL A   1      39.366  20.398  25.775  1.00  0.00    -0.246 OA
BRANCH  38  40
ATOM     40  C   UNL A   1      39.305  22.702  26.495  1.00  0.00     0.060 A 
ATOM     41  C   UNL A   1      40.428  22.669  27.307  1.00  0.00     0.016 A 
ATOM     42  C   UNL A   1      38.711  23.976  26.340  1.00  0.00     0.016 A 
ATOM     43  C   UNL A   1      40.847  23.815  28.030  1.00  0.00     0.010 A 
ATOM     44  C   UNL A   1      39.264  25.165  26.936  1.00  0.00     0.010 A 
ATOM     45  C   UNL A   1      40.374  25.115  27.793  1.00  0.00    -0.014 A 
BRANCH  45  46
ATOM     46  C   UNL A   1      41.125  26.338  28.338  1.00  0.00     0.031 A 
ATOM     47  C   UNL A   1      40.467  27.452  29.150  1.00  0.00     0.074 A 
ATOM     48  C   UNL A   1      42.454  26.509  28.095  1.00  0.00     0.049 A 
ATOM     49  N   UNL A   1      40.861  28.697  29.339  1.00  0.00    -0.248 NA
ATOM     50  C   UNL A   1      39.236  27.116  29.877  1.00  0.00     0.031 C 
ATOM     51  C   UNL A   1      43.350  25.538  27.465  1.00  0.00     0.029 A 
ATOM     52  N   UNL A   1      43.297  27.584  28.339  1.00  0.00    -0.354 N 
ATOM     53  C   UNL A   1      39.897  29.309  30.142  1.00  0.00     0.074 A 
ATOM     54  C   UNL A   1      38.919  28.279  30.443  1.00  0.00     0.031 C 
ATOM     55  C   UNL A   1      44.595  26.020  27.419  1.00  0.00     0.029 A 
ATOM     56  C   UNL A   1      44.564  27.413  27.820  1.00  0.00     0.049 A 
ATOM     57  H   UNL A   1      43.019  28.389  28.832  1.00  0.00     0.167 HD
ATOM     58  C   UNL A   1      39.821  30.603  30.566  1.00  0.00     0.037 A 
ATOM     59  C   UNL A   1      45.573  28.268  27.556  1.00  0.00     0.037 A 
ATOM     60  C   UNL A   1      40.820  31.622  30.306  1.00  0.00     0.049 A 
ATOM     61  C   UNL A   1      45.407  29.726  27.852  1.00  0.00     0.074 A 
ATOM     62  C   UNL A   1      40.794  32.971  30.634  1.00  0.00     0.029 A 
ATOM     63  N   UNL A   1      42.033  31.402  29.674  1.00  0.00    -0.354 N 
ATOM     64  N   UNL A   1      44.411  30.336  28.440  1.00  0.00    -0.248 NA
ATOM     65  C   UNL A   1      46.492  30.618  27.417  1.00  0.00     0.031 C 
ATOM     66  C   UNL A   1      41.963  33.573  30.149  1.00  0.00     0.029 A 
ATOM     67  C   UNL A   1      42.748  32.589  29.579  1.00  0.00     0.049 A 
ATOM     68  H   UNL A   1      42.343  30.528  29.339  1.00  0.00     0.167 HD
ATOM     69  C   UNL A   1      44.760  31.678  28.473  1.00  0.00     0.074 A 
ATOM     70  C   UNL A   1      46.061  31.794  27.850  1.00  0.00     0.031 C 
ATOM     71  C   UNL A   1      44.054  32.716  28.981  1.00  0.00     0.037 A 
BRANCH  58  72
ATOM     72  C   UNL A   1      38.567  31.045  31.285  1.00  0.00     0.064 A 
ATOM     73  C   UNL A   1      38.478  31.127  32.682  1.00  0.00     0.173 A 
ATOM     74  C   UNL A   1      37.442  31.453  30.542  1.00  0.00     0.173 A 
ATOM     75  F   UNL A   1      39.521  30.769  33.445  1.00  0.00    -0.203 F 
ATOM     76  C   UNL A   1      37.303  31.551  33.307  1.00  0.00     0.198 A 
ATOM     77  C   UNL A   1      36.281  31.906  31.167  1.00  0.00     0.198 A 
ATOM     78  F   UNL A   1      37.476  31.435  29.201  1.00  0.00    -0.203 F 
ATOM     79  F   UNL A   1      37.225  31.572  34.644  1.00  0.00    -0.200 F 
ATOM     80  C   UNL A   1      36.207  31.941  32.549  1.00  0.00     0.200 A 
ATOM     81  F   UNL A   1      35.236  32.307  30.430  1.00  0.00    -0.200 F 
ATOM     82  F   UNL A   1      35.079  32.344  33.151  1.00  0.00    -0.200 F 
ENDBRANCH  58  72
BRANCH  59  83
ATOM     83  C   UNL A   1      46.796  27.773  26.856  1.00  0.00     0.064 A 
ATOM     84  C   UNL A   1      47.920  27.348  27.575  1.00  0.00     0.173 A 
ATOM     85  C   UNL A   1      46.856  27.697  25.452  1.00  0.00     0.173 A 
ATOM     86  F   UNL A   1      47.929  27.432  28.913  1.00  0.00    -0.203 F 
ATOM     87  C   UNL A   1      49.052  26.864  26.920  1.00  0.00     0.198 A 
ATOM     88  C   UNL A   1      47.970  27.174  24.803  1.00  0.00     0.198 A 
ATOM     89  F   UNL A   1      45.810  28.094  24.711  1.00  0.00    -0.203 F 
ATOM     90  F   UNL A   1      50.129  26.501  27.630  1.00  0.00    -0.200 F 
ATOM     91  C   UNL A   1      49.071  26.764  25.536  1.00  0.00     0.200 A 
ATOM     92  F   UNL A   1      47.970  27.054  23.468  1.00  0.00    -0.200 F 
ATOM     93  F   UNL A   1      50.150  26.274  24.911  1.00  0.00    -0.200 F 
ENDBRANCH  59  83
BRANCH  71  94
ATOM     94  C   UNL A   1      44.704  34.068  28.956  1.00  0.00     0.064 A 
ATOM     95  C   UNL A   1      45.544  34.508  29.989  1.00  0.00     0.173 A 
ATOM     96  C   UNL A   1      44.497  34.929  27.867  1.00  0.00     0.173 A 
ATOM     97  F   UNL A   1      45.752  33.734  31.065  1.00  0.00    -0.203 F 
ATOM     98  C   UNL A   1      46.139  35.767  29.941  1.00  0.00     0.198 A 
ATOM     99  C   UNL A   1      45.114  36.175  27.809  1.00  0.00     0.198 A 
ATOM    100  F   UNL A   1      43.695  34.560  26.856  1.00  0.00    -0.203 F 
ATOM    101  F   UNL A   1      46.902  36.185  30.960  1.00  0.00    -0.200 F 
ATOM    102  C   UNL A   1      45.932  36.595  28.848  1.00  0.00     0.200 A 
ATOM    103  F   UNL A   1      44.916  36.971  26.749  1.00  0.00    -0.200 F 
ATOM    104  F   UNL A   1      46.511  37.803  28.800  1.00  0.00    -0.200 F 
ENDBRANCH  71  94
ENDBRANCH  45  46
ENDBRANCH  38  40
ENDBRANCH  37  38
ENDBRANCH  36  37
ENDBRANCH   1  36
TORSDOF 19
ENDMDL
MODEL 2
REMARK VINA RESULT:     -12.4      4.011      9.576
REMARK SMILES O=C(N[C@@H](Cc1c[nH]c2ccccc12)C(=O)N[C@@H](CO)C(=O)OCCOC(=O)c1ccc(-c2c3nc(c(-c4c(F)c(F)c(F)c(F)c4F)c4ccc([nH]4)c(-c4c(F)c(F)c(F)c(F)c4F)c4nc(c(-c5c(F)c(F)c(F)c(F)c5F)c5ccc2[nH]5)C=C4)C=C3)cc1)c1ccc(F)cc1
REMARK SMILES IDX 24 1 23 2 21 3 22 4 18 5 17 6 15 7 16 8 4 10 3 11 1 12 2 13
REMARK SMILES IDX 92 15 93 16 98 17 94 18 97 19 95 20 96 21 5 22 6 23 7 24
REMARK SMILES IDX 14 25 8 26 9 27 13 28 10 30 12 31 11 32 19 33 20 34 25 36
REMARK SMILES IDX 26 37 27 38 28 39 29 40 30 41 91 42 31 43 90 44 32 45 33 46
REMARK SMILES IDX 34 47 84 48 35 49 89 50 83 51 85 52 36 53 88 54 82 55 81 56
REMARK SMILES IDX 37 58 69 59 49 60 68 61 50 62 53 63 67 64 86 65 51 66 52 67
REMARK SMILES IDX 66 69 87 70 54 71 38 72 39 73 47 74 40 75 41 76 45 77 48 78
REMARK SMILES IDX 42 79 43 80 46 81 44 82 70 83 71 84 79 85 72 86 73 87 77 88
REMARK SMILES IDX 80 89 74 90 75 91 78 92 76 93 55 94 56 95 64 96 57 97 58 98
REMARK SMILES IDX 62 99 65 100 59 101 60 102 63 103 61 104
REMARK H PARENT 17 9 3 14 8 29 20 35 85 57 53 68
REMARK Flexibility Score: inf
ROOT
ATOM      1  C   UNL A   1      32.656  29.042  24.360  1.00  0.00     0.274 C 
ENDROOT
BRANCH   1   2
ATOM      2  O   UNL A   1      32.732  27.563  24.633  1.00  0.00    -0.460 OA
BRANCH   2   3
ATOM      3  C   UNL A   1      31.605  26.762  24.802  1.00  0.00     0.331 C 
ATOM      4  O   UNL A   1      30.898  26.404  23.864  1.00  0.00    -0.250 OA
BRANCH   3   5
ATOM      5  C   UNL A   1      31.250  26.429  26.355  1.00  0.00     0.218 C 
BRANCH   5   6
ATOM      6  N   UNL A   1      31.454  24.960  26.696  1.00  0.00    -0.339 N 
ATOM      7  C   UNL A   1      31.821  23.733  26.235  1.00  0.00     0.243 C 
ATOM      8  O   UNL A   1      31.747  22.897  27.167  1.00  0.00    -0.273 OA
ATOM      9  H   UNL A   1      31.225  24.853  27.648  1.00  0.00     0.164 HD
BRANCH   7  10
ATOM     10  C   UNL A   1      32.295  23.090  24.811  1.00  0.00     0.176 C 
BRANCH  10  11
ATOM     11  N   UNL A   1      32.621  23.945  23.665  1.00  0.00    -0.340 N 
ATOM     12  O   UNL A   1      34.007  25.408  22.625  1.00  0.00    -0.269 OA
ATOM     13  C   UNL A   1      33.895  24.432  23.371  1.00  0.00     0.251 C 
ATOM     14  H   UNL A   1      31.886  24.195  23.059  1.00  0.00     0.164 HD
BRANCH  13  15
ATOM     15  C   UNL A   1      35.130  23.869  24.028  1.00  0.00     0.040 A 
ATOM     16  C   UNL A   1      35.933  22.898  23.409  1.00  0.00     0.017 A 
ATOM     17  C   UNL A   1      35.461  24.291  25.329  1.00  0.00     0.017 A 
ATOM     18  C   UNL A   1      36.989  22.298  24.106  1.00  0.00     0.040 A 
ATOM     19  C   UNL A   1      36.542  23.711  26.011  1.00  0.00     0.040 A 
ATOM     20  C   UNL A   1      37.285  22.711  25.398  1.00  0.00     0.123 A 
ATOM     21  F   UNL A   1      38.303  22.139  26.056  1.00  0.00    -0.207 F 
ENDBRANCH  13  15
ENDBRANCH  10  11
BRANCH  10  22
ATOM     22  C   UNL A   1      33.108  21.766  24.680  1.00  0.00     0.072 C 
BRANCH  22  23
ATOM     23  C   UNL A   1      32.413  20.854  23.808  1.00  0.00    -0.020 A 
ATOM     24  C   UNL A   1      31.946  21.094  22.533  1.00  0.00     0.087 A 
ATOM     25  C   UNL A   1      32.485  19.486  24.085  1.00  0.00     0.003 A 
ATOM     26  N   UNL A   1      31.915  19.873  21.936  1.00  0.00    -0.361 N 
ATOM     27  C   UNL A   1      32.350  18.938  22.847  1.00  0.00     0.046 A 
ATOM     28  C   UNL A   1      32.963  18.715  25.169  1.00  0.00     0.010 A 
ATOM     29  H   UNL A   1      31.630  19.690  21.012  1.00  0.00     0.166 HD
ATOM     30  C   UNL A   1      32.745  17.646  22.663  1.00  0.00     0.026 A 
ATOM     31  C   UNL A   1      33.431  17.425  24.937  1.00  0.00     0.001 A 
ATOM     32  C   UNL A   1      33.350  16.901  23.671  1.00  0.00     0.002 A 
ENDBRANCH  22  23
ENDBRANCH  10  22
ENDBRANCH   7  10
ENDBRANCH   5   6
BRANCH   5  33
ATOM     33  C   UNL A   1      32.096  27.311  27.284  1.00  0.00     0.193 C 
BRANCH  33  34
ATOM     34  O   UNL A   1      31.345  27.912  28.332  1.00  0.00    -0.394 OA
ATOM     35  H   UNL A   1      30.399  27.765  28.177  1.00  0.00     0.210 HD
ENDBRANCH  33  34
ENDBRANCH   5  33
ENDBRANCH   3   5
ENDBRANCH   2   3
ENDBRANCH   1   2
BRANCH   1  36
ATOM     36  C   UNL A   1      31.716  30.077  25.236  1.00  0.00     0.275 C 
BRANCH  36  37
ATOM     37  O   UNL A   1      31.984  30.311  26.683  1.00  0.00    -0.458 OA
BRANCH  37  38
ATOM     38  C   UNL A   1      32.773  31.405  27.046  1.00  0.00     0.338 C 
ATOM     39  O   UNL A   1      32.379  32.575  26.981  1.00  0.00    -0.246 OA
BRANCH  38  40
ATOM     40  C   UNL A   1      34.125  31.067  27.693  1.00  0.00     0.060 A 
ATOM     41  C   UNL A   1      34.993  32.071  28.092  1.00  0.00     0.016 A 
ATOM     42  C   UNL A   1      34.645  29.754  27.770  1.00  0.00     0.016 A 
ATOM     43  C   UNL A   1      36.345  31.789  28.414  1.00  0.00     0.010 A 
ATOM     44  C   UNL A   1      35.963  29.474  28.280  1.00  0.00     0.010 A 
ATOM     45  C   UNL A   1      36.852  30.500  28.638  1.00  0.00    -0.014 A 
BRANCH  45  46
ATOM     46  C   UNL A   1      38.203  30.294  29.338  1.00  0.00     0.031 A 
ATOM     47  C   UNL A   1      39.307  29.379  28.812  1.00  0.00     0.074 A 
ATOM     48  C   UNL A   1      38.484  30.919  30.515  1.00  0.00     0.049 A 
ATOM     49  N   UNL A   1      40.307  28.813  29.460  1.00  0.00    -0.248 NA
ATOM     50  C   UNL A   1      39.315  29.097  27.371  1.00  0.00     0.031 C 
ATOM     51  C   UNL A   1      37.667  31.945  31.166  1.00  0.00     0.029 A 
ATOM     52  N   UNL A   1      39.544  30.772  31.398  1.00  0.00    -0.354 N 
ATOM     53  C   UNL A   1      41.018  28.057  28.526  1.00  0.00     0.074 A 
ATOM     54  C   UNL A   1      40.356  28.275  27.253  1.00  0.00     0.031 C 
ATOM     55  C   UNL A   1      38.260  32.366  32.286  1.00  0.00     0.029 A 
ATOM     56  C   UNL A   1      39.395  31.505  32.558  1.00  0.00     0.049 A 
ATOM     57  H   UNL A   1      40.325  30.202  31.215  1.00  0.00     0.167 HD
ATOM     58  C   UNL A   1      42.097  27.245  28.715  1.00  0.00     0.037 A 
ATOM     59  C   UNL A   1      39.986  31.442  33.768  1.00  0.00     0.037 A 
ATOM     60  C   UNL A   1      42.788  27.062  29.976  1.00  0.00     0.049 A 
ATOM     61  C   UNL A   1      41.044  30.415  34.024  1.00  0.00     0.074 A 
ATOM     62  C   UNL A   1      43.843  26.210  30.277  1.00  0.00     0.029 A 
ATOM     63  N   UNL A   1      42.510  27.757  31.143  1.00  0.00    -0.354 N 
ATOM     64  N   UNL A   1      41.584  29.566  33.189  1.00  0.00    -0.248 NA
ATOM     65  C   UNL A   1      41.551  30.315  35.400  1.00  0.00     0.031 C 
ATOM     66  C   UNL A   1      44.160  26.349  31.635  1.00  0.00     0.029 A 
ATOM     67  C   UNL A   1      43.350  27.335  32.166  1.00  0.00     0.049 A 
ATOM     68  H   UNL A   1      41.815  28.449  31.233  1.00  0.00     0.167 HD
ATOM     69  C   UNL A   1      42.515  28.851  33.928  1.00  0.00     0.074 A 
ATOM     70  C   UNL A   1      42.470  29.368  35.279  1.00  0.00     0.031 C 
ATOM     71  C   UNL A   1      43.332  27.855  33.510  1.00  0.00     0.037 A 
BRANCH  58  72
ATOM     72  C   UNL A   1      42.563  26.398  27.553  1.00  0.00     0.064 A 
ATOM     73  C   UNL A   1      41.984  25.162  27.230  1.00  0.00     0.173 A 
ATOM     74  C   UNL A   1      43.584  26.873  26.707  1.00  0.00     0.173 A 
ATOM     75  F   UNL A   1      40.996  24.663  27.986  1.00  0.00    -0.203 F 
ATOM     76  C   UNL A   1      42.439  24.416  26.139  1.00  0.00     0.198 A 
ATOM     77  C   UNL A   1      44.015  26.140  25.602  1.00  0.00     0.198 A 
ATOM     78  F   UNL A   1      44.154  28.065  26.940  1.00  0.00    -0.203 F 
ATOM     79  F   UNL A   1      41.904  23.215  25.881  1.00  0.00    -0.200 F 
ATOM     80  C   UNL A   1      43.452  24.906  25.327  1.00  0.00     0.200 A 
ATOM     81  F   UNL A   1      44.974  26.631  24.805  1.00  0.00    -0.200 F 
ATOM     82  F   UNL A   1      43.888  24.186  24.284  1.00  0.00    -0.200 F 
ENDBRANCH  58  72
BRANCH  59  83
ATOM     83  C   UNL A   1      39.493  32.313  34.877  1.00  0.00     0.064 A 
ATOM     84  C   UNL A   1      38.619  31.817  35.852  1.00  0.00     0.173 A 
ATOM     85  C   UNL A   1      39.904  33.653  34.993  1.00  0.00     0.173 A 
ATOM     86  F   UNL A   1      38.169  30.557  35.770  1.00  0.00    -0.203 F 
ATOM     87  C   UNL A   1      38.179  32.625  36.900  1.00  0.00     0.198 A 
ATOM     88  C   UNL A   1      39.498  34.445  36.063  1.00  0.00     0.198 A 
ATOM     89  F   UNL A   1      40.738  34.183  34.085  1.00  0.00    -0.203 F 
ATOM     90  F   UNL A   1      37.312  32.138  37.799  1.00  0.00    -0.200 F 
ATOM     91  C   UNL A   1      38.630  33.932  37.013  1.00  0.00     0.200 A 
ATOM     92  F   UNL A   1      39.959  35.697  36.180  1.00  0.00    -0.200 F 
ATOM     93  F   UNL A   1      38.225  34.698  38.035  1.00  0.00    -0.200 F 
ENDBRANCH  59  83
BRANCH  71  94
ATOM     94  C   UNL A   1      44.306  27.301  34.508  1.00  0.00     0.064 A 
ATOM     95  C   UNL A   1      45.558  27.891  34.731  1.00  0.00     0.173 A 
ATOM     96  C   UNL A   1      43.969  26.170  35.268  1.00  0.00     0.173 A 
ATOM     97  F   UNL A   1      45.939  28.957  34.010  1.00  0.00    -0.203 F 
ATOM     98  C   UNL A   1      46.445  27.360  35.666  1.00  0.00     0.198 A 
ATOM     99  C   UNL A   1      44.846  25.658  36.220  1.00  0.00     0.198 A 
ATOM    100  F   UNL A   1      42.787  25.562  35.088  1.00  0.00    -0.203 F 
ATOM    101  F   UNL A   1      47.654  27.914  35.829  1.00  0.00    -0.200 F 
ATOM    102  C   UNL A   1      46.085  26.250  36.416  1.00  0.00     0.200 A 
ATOM    103  F   UNL A   1      44.493  24.588  36.947  1.00  0.00    -0.200 F 
ATOM    104  F   UNL A   1      46.935  25.745  37.320  1.00  0.00    -0.200 F 
ENDBRANCH  71  94
ENDBRANCH  45  46
ENDBRANCH  38  40
ENDBRANCH  37  38
ENDBRANCH  36  37
ENDBRANCH   1  36
TORSDOF 19
ENDMDL
MODEL 3
REMARK VINA RESULT:     -12.3      1.523      2.366
REMARK SMILES O=C(N[C@@H](Cc1c[nH]c2ccccc12)C(=O)N[C@@H](CO)C(=O)OCCOC(=O)c1ccc(-c2c3nc(c(-c4c(F)c(F)c(F)c(F)c4F)c4ccc([nH]4)c(-c4c(F)c(F)c(F)c(F)c4F)c4nc(c(-c5c(F)c(F)c(F)c(F)c5F)c5ccc2[nH]5)C=C4)C=C3)cc1)c1ccc(F)cc1
REMARK SMILES IDX 24 1 23 2 21 3 22 4 18 5 17 6 15 7 16 8 4 10 3 11 1 12 2 13
REMARK SMILES IDX 92 15 93 16 98 17 94 18 97 19 95 20 96 21 5 22 6 23 7 24
REMARK SMILES IDX 14 25 8 26 9 27 13 28 10 30 12 31 11 32 19 33 20 34 25 36
REMARK SMILES IDX 26 37 27 38 28 39 29 40 30 41 91 42 31 43 90 44 32 45 33 46
REMARK SMILES IDX 34 47 84 48 35 49 89 50 83 51 85 52 36 53 88 54 82 55 81 56
REMARK SMILES IDX 37 58 69 59 49 60 68 61 50 62 53 63 67 64 86 65 51 66 52 67
REMARK SMILES IDX 66 69 87 70 54 71 38 72 39 73 47 74 40 75 41 76 45 77 48 78
REMARK SMILES IDX 42 79 43 80 46 81 44 82 70 83 71 84 79 85 72 86 73 87 77 88
REMARK SMILES IDX 80 89 74 90 75 91 78 92 76 93 55 94 56 95 64 96 57 97 58 98
REMARK SMILES IDX 62 99 65 100 59 101 60 102 63 103 61 104
REMARK H PARENT 17 9 3 14 8 29 20 35 85 57 53 68
REMARK Flexibility Score: inf
ROOT
ATOM      1  C   UNL A   1      34.097  21.625  24.583  1.00  0.00     0.274 C 
ENDROOT
BRANCH   1   2
ATOM      2  O   UNL A   1      33.702  23.060  24.808  1.00  0.00    -0.460 OA
BRANCH   2   3
ATOM      3  C   UNL A   1      32.376  23.479  24.901  1.00  0.00     0.331 C 
ATOM      4  O   UNL A   1      31.657  23.630  23.917  1.00  0.00    -0.250 OA
BRANCH   3   5
ATOM      5  C   UNL A   1      31.898  23.849  26.412  1.00  0.00     0.218 C 
BRANCH   5   6
ATOM      6  N   UNL A   1      31.511  25.313  26.558  1.00  0.00    -0.339 N 
ATOM      7  C   UNL A   1      31.721  26.586  26.124  1.00  0.00     0.243 C 
ATOM      8  O   UNL A   1      30.973  27.372  26.753  1.00  0.00    -0.273 OA
ATOM      9  H   UNL A   1      30.822  25.359  27.259  1.00  0.00     0.164 HD
BRANCH   7  10
ATOM     10  C   UNL A   1      32.690  27.329  25.039  1.00  0.00     0.176 C 
BRANCH  10  11
ATOM     11  N   UNL A   1      32.842  26.806  23.677  1.00  0.00    -0.340 N 
ATOM     12  O   UNL A   1      31.938  26.016  21.754  1.00  0.00    -0.269 OA
ATOM     13  C   UNL A   1      31.832  26.781  22.716  1.00  0.00     0.251 C 
ATOM     14  H   UNL A   1      33.723  26.447  23.423  1.00  0.00     0.164 HD
BRANCH  13  15
ATOM     15  C   UNL A   1      30.562  27.577  22.879  1.00  0.00     0.040 A 
ATOM     16  C   UNL A   1      29.398  27.027  23.439  1.00  0.00     0.017 A 
ATOM     17  C   UNL A   1      30.522  28.901  22.404  1.00  0.00     0.017 A 
ATOM     18  C   UNL A   1      28.200  27.751  23.445  1.00  0.00     0.040 A 
ATOM     19  C   UNL A   1      29.327  29.635  22.442  1.00  0.00     0.040 A 
ATOM     20  C   UNL A   1      28.175  29.048  22.949  1.00  0.00     0.123 A 
ATOM     21  F   UNL A   1      27.027  29.738  22.965  1.00  0.00    -0.207 F 
ENDBRANCH  13  15
ENDBRANCH  10  11
BRANCH  10  22
ATOM     22  C   UNL A   1      32.940  28.867  25.003  1.00  0.00     0.072 C 
BRANCH  22  23
ATOM     23  C   UNL A   1      33.362  29.321  26.303  1.00  0.00    -0.020 A 
ATOM     24  C   UNL A   1      34.515  28.987  26.981  1.00  0.00     0.087 A 
ATOM     25  C   UNL A   1      32.760  30.465  26.834  1.00  0.00     0.003 A 
ATOM     26  N   UNL A   1      34.748  30.037  27.812  1.00  0.00    -0.361 N 
ATOM     27  C   UNL A   1      33.748  30.964  27.627  1.00  0.00     0.046 A 
ATOM     28  C   UNL A   1      31.650  31.264  26.475  1.00  0.00     0.010 A 
ATOM     29  H   UNL A   1      35.503  30.120  28.439  1.00  0.00     0.166 HD
ATOM     30  C   UNL A   1      33.673  32.269  28.014  1.00  0.00     0.026 A 
ATOM     31  C   UNL A   1      31.637  32.612  26.820  1.00  0.00     0.001 A 
ATOM     32  C   UNL A   1      32.670  33.122  27.566  1.00  0.00     0.002 A 
ENDBRANCH  22  23
ENDBRANCH  10  22
ENDBRANCH   7  10
ENDBRANCH   5   6
BRANCH   5  33
ATOM     33  C   UNL A   1      30.726  22.948  26.824  1.00  0.00     0.193 C 
BRANCH  33  34
ATOM     34  O   UNL A   1      30.665  21.728  26.094  1.00  0.00    -0.394 OA
ATOM     35  H   UNL A   1      31.151  21.826  25.261  1.00  0.00     0.210 HD
ENDBRANCH  33  34
ENDBRANCH   5  33
ENDBRANCH   3   5
ENDBRANCH   2   3
ENDBRANCH   1   2
BRANCH   1  36
ATOM     36  C   UNL A   1      35.568  21.014  25.011  1.00  0.00     0.275 C 
BRANCH  36  37
ATOM     37  O   UNL A   1      36.486  21.784  25.897  1.00  0.00    -0.458 OA
BRANCH  37  38
ATOM     38  C   UNL A   1      37.861  21.567  25.782  1.00  0.00     0.338 C 
ATOM     39  O   UNL A   1      38.346  20.630  25.137  1.00  0.00    -0.246 OA
BRANCH  38  40
ATOM     40  C   UNL A   1      38.762  22.661  26.374  1.00  0.00     0.060 A 
ATOM     41  C   UNL A   1      38.453  24.002  26.210  1.00  0.00     0.016 A 
ATOM     42  C   UNL A   1      40.021  22.400  26.961  1.00  0.00     0.016 A 
ATOM     43  C   UNL A   1      39.406  25.015  26.487  1.00  0.00     0.010 A 
ATOM     44  C   UNL A   1      40.899  23.451  27.408  1.00  0.00     0.010 A 
ATOM     45  C   UNL A   1      40.598  24.806  27.197  1.00  0.00    -0.014 A 
BRANCH  45  46
ATOM     46  C   UNL A   1      41.387  25.987  27.780  1.00  0.00     0.031 A 
ATOM     47  C   UNL A   1      40.774  27.067  28.670  1.00  0.00     0.074 A 
ATOM     48  C   UNL A   1      42.711  26.149  27.505  1.00  0.00     0.049 A 
ATOM     49  N   UNL A   1      41.195  28.294  28.910  1.00  0.00    -0.248 NA
ATOM     50  C   UNL A   1      39.560  26.713  29.417  1.00  0.00     0.031 C 
ATOM     51  C   UNL A   1      43.570  25.198  26.798  1.00  0.00     0.029 A 
ATOM     52  N   UNL A   1      43.579  27.195  27.778  1.00  0.00    -0.354 N 
ATOM     53  C   UNL A   1      40.267  28.878  29.774  1.00  0.00     0.074 A 
ATOM     54  C   UNL A   1      39.281  27.850  30.052  1.00  0.00     0.031 C 
ATOM     55  C   UNL A   1      44.821  25.660  26.738  1.00  0.00     0.029 A 
ATOM     56  C   UNL A   1      44.827  27.031  27.211  1.00  0.00     0.049 A 
ATOM     57  H   UNL A   1      43.331  27.977  28.321  1.00  0.00     0.167 HD
ATOM     58  C   UNL A   1      40.227  30.149  30.266  1.00  0.00     0.037 A 
ATOM     59  C   UNL A   1      45.842  27.882  26.961  1.00  0.00     0.037 A 
ATOM     60  C   UNL A   1      41.235  31.164  30.029  1.00  0.00     0.049 A 
ATOM     61  C   UNL A   1      45.712  29.325  27.337  1.00  0.00     0.074 A 
ATOM     62  C   UNL A   1      41.244  32.494  30.427  1.00  0.00     0.029 A 
ATOM     63  N   UNL A   1      42.425  30.958  29.348  1.00  0.00    -0.354 N 
ATOM     64  N   UNL A   1      44.746  29.920  27.987  1.00  0.00    -0.248 NA
ATOM     65  C   UNL A   1      46.799  30.221  26.915  1.00  0.00     0.031 C 
ATOM     66  C   UNL A   1      42.409  33.102  29.938  1.00  0.00     0.029 A 
ATOM     67  C   UNL A   1      43.158  32.136  29.293  1.00  0.00     0.049 A 
ATOM     68  H   UNL A   1      42.709  30.098  28.959  1.00  0.00     0.167 HD
ATOM     69  C   UNL A   1      45.119  31.252  28.079  1.00  0.00     0.074 A 
ATOM     70  C   UNL A   1      46.402  31.379  27.422  1.00  0.00     0.031 C 
ATOM     71  C   UNL A   1      44.447  32.273  28.662  1.00  0.00     0.037 A 
BRANCH  58  72
ATOM     72  C   UNL A   1      39.004  30.573  31.046  1.00  0.00     0.064 A 
ATOM     73  C   UNL A   1      38.925  30.491  32.444  1.00  0.00     0.173 A 
ATOM     74  C   UNL A   1      37.903  31.133  30.370  1.00  0.00     0.173 A 
ATOM     75  F   UNL A   1      39.946  29.983  33.148  1.00  0.00    -0.203 F 
ATOM     76  C   UNL A   1      37.778  30.904  33.127  1.00  0.00     0.198 A 
ATOM     77  C   UNL A   1      36.772  31.573  31.057  1.00  0.00     0.198 A 
ATOM     78  F   UNL A   1      37.931  31.274  29.036  1.00  0.00    -0.203 F 
ATOM     79  F   UNL A   1      37.706  30.767  34.458  1.00  0.00    -0.200 F 
ATOM     80  C   UNL A   1      36.704  31.445  32.434  1.00  0.00     0.200 A 
ATOM     81  F   UNL A   1      35.750  32.120  30.384  1.00  0.00    -0.200 F 
ATOM     82  F   UNL A   1      35.605  31.837  33.091  1.00  0.00    -0.200 F 
ENDBRANCH  58  72
BRANCH  59  83
ATOM     83  C   UNL A   1      47.035  27.405  26.198  1.00  0.00     0.064 A 
ATOM     84  C   UNL A   1      47.100  27.529  24.805  1.00  0.00     0.173 A 
ATOM     85  C   UNL A   1      48.141  26.834  26.852  1.00  0.00     0.173 A 
ATOM     86  F   UNL A   1      46.059  28.034  24.128  1.00  0.00    -0.203 F 
ATOM     87  C   UNL A   1      48.223  27.104  24.097  1.00  0.00     0.198 A 
ATOM     88  C   UNL A   1      49.279  26.450  26.148  1.00  0.00     0.198 A 
ATOM     89  F   UNL A   1      48.133  26.686  28.186  1.00  0.00    -0.203 F 
ATOM     90  F   UNL A   1      48.244  27.198  22.760  1.00  0.00    -0.200 F 
ATOM     91  C   UNL A   1      49.318  26.579  24.769  1.00  0.00     0.200 A 
ATOM     92  F   UNL A   1      50.342  25.969  26.808  1.00  0.00    -0.200 F 
ATOM     93  F   UNL A   1      50.407  26.196  24.089  1.00  0.00    -0.200 F 
ENDBRANCH  59  83
BRANCH  71  94
ATOM     94  C   UNL A   1      45.120  33.614  28.687  1.00  0.00     0.064 A 
ATOM     95  C   UNL A   1      46.010  33.980  29.707  1.00  0.00     0.173 A 
ATOM     96  C   UNL A   1      44.884  34.540  27.658  1.00  0.00     0.173 A 
ATOM     97  F   UNL A   1      46.248  33.142  30.727  1.00  0.00    -0.203 F 
ATOM     98  C   UNL A   1      46.625  35.231  29.705  1.00  0.00     0.198 A 
ATOM     99  C   UNL A   1      45.521  35.777  27.646  1.00  0.00     0.198 A 
ATOM    100  F   UNL A   1      44.035  34.243  26.663  1.00  0.00    -0.203 F 
ATOM    101  F   UNL A   1      47.437  35.576  30.714  1.00  0.00    -0.200 F 
ATOM    102  C   UNL A   1      46.388  36.124  28.671  1.00  0.00     0.200 A 
ATOM    103  F   UNL A   1      45.294  36.637  26.643  1.00  0.00    -0.200 F 
ATOM    104  F   UNL A   1      46.987  37.323  28.668  1.00  0.00    -0.200 F 
ENDBRANCH  71  94
ENDBRANCH  45  46
ENDBRANCH  38  40
ENDBRANCH  37  38
ENDBRANCH  36  37
ENDBRANCH   1  36
TORSDOF 19
ENDMDL
