MODEL 1
REMARK VINA RESULT:     -13.4      0.000      0.000
REMARK SMILES O=C(OCCOC(=O)[C@H]1CC=CC[C@@H]1C(=O)Nc1ccccc1C(=O)NCc1ccco1)c1ccc(-c2c3nc(c(-c4c(F)c(F)c(F)c(F)c4F)c4ccc([nH]4)c(-c4c(F)c(F)c(F)c(F)c4F)c4nc(c(-c5c(F)c(F)c(F)c(F)c5F)c5ccc2[nH]5)C=C4)C=C3)cc1
REMARK SMILES IDX 6 1 5 2 4 3 3 4 2 5 1 6 33 7 34 8 95 9 35 10 94 11 36 12
REMARK SMILES IDX 37 13 38 14 88 15 39 16 93 17 87 18 89 19 40 20 92 21 86 22
REMARK SMILES IDX 85 23 41 25 73 26 53 27 72 28 54 29 57 30 71 31 90 32 55 33
REMARK SMILES IDX 56 34 70 36 91 37 58 38 42 39 43 40 51 41 44 42 45 43 49 44
REMARK SMILES IDX 52 45 46 46 47 47 50 48 48 49 74 50 75 51 83 52 76 53 77 54
REMARK SMILES IDX 81 55 84 56 78 57 79 58 82 59 80 60 59 61 60 62 68 63 61 64
REMARK SMILES IDX 62 65 66 66 69 67 63 68 64 69 67 70 65 71 7 72 8 73 9 74
REMARK SMILES IDX 10 75 14 76 11 77 13 78 12 79 15 80 16 81 17 82 18 84 19 85
REMARK SMILES IDX 23 86 20 87 22 88 21 89 24 90 25 91 26 92 27 94 28 95 29 96
REMARK SMILES IDX 32 97 30 98 31 99
REMARK H PARENT 89 24 57 35 17 83 26 93
REMARK Flexibility Score: inf
ROOT
ATOM      1  O   UNL A   1      32.181  30.327  25.886  1.00  0.00    -0.462 OA
ENDROOT
BRANCH   1   2
ATOM      2  C   UNL A   1      32.724  31.242  26.858  1.00  0.00     0.274 C 
BRANCH   2   3
ATOM      3  C   UNL A   1      31.865  32.474  27.172  1.00  0.00     0.275 C 
BRANCH   3   4
ATOM      4  O   UNL A   1      32.597  33.699  27.306  1.00  0.00    -0.458 OA
BRANCH   4   5
ATOM      5  C   UNL A   1      33.053  34.224  28.468  1.00  0.00     0.338 C 
ATOM      6  O   UNL A   1      32.529  35.220  28.948  1.00  0.00    -0.246 OA
BRANCH   5   7
ATOM      7  C   UNL A   1      34.353  33.763  29.036  1.00  0.00     0.060 A 
ATOM      8  C   UNL A   1      35.614  34.272  28.718  1.00  0.00     0.016 A 
ATOM      9  C   UNL A   1      34.280  32.705  29.954  1.00  0.00     0.016 A 
ATOM     10  C   UNL A   1      36.769  33.776  29.331  1.00  0.00     0.010 A 
ATOM     11  C   UNL A   1      35.429  32.235  30.594  1.00  0.00     0.010 A 
ATOM     12  C   UNL A   1      36.689  32.745  30.269  1.00  0.00    -0.014 A 
BRANCH  12  13
ATOM     13  C   UNL A   1      37.928  32.071  30.723  1.00  0.00     0.031 A 
ATOM     14  C   UNL A   1      38.460  32.415  32.088  1.00  0.00     0.074 A 
ATOM     15  C   UNL A   1      38.527  31.117  29.985  1.00  0.00     0.049 A 
ATOM     16  N   UNL A   1      39.431  31.857  32.765  1.00  0.00    -0.248 NA
ATOM     17  C   UNL A   1      37.819  33.543  32.785  1.00  0.00     0.031 C 
ATOM     18  C   UNL A   1      38.118  30.687  28.649  1.00  0.00     0.029 A 
ATOM     19  N   UNL A   1      39.609  30.321  30.271  1.00  0.00    -0.354 N 
ATOM     20  C   UNL A   1      39.481  32.543  33.969  1.00  0.00     0.074 A 
ATOM     21  C   UNL A   1      38.551  33.643  33.879  1.00  0.00     0.031 C 
ATOM     22  C   UNL A   1      38.935  29.699  28.236  1.00  0.00     0.029 A 
ATOM     23  C   UNL A   1      39.922  29.429  29.275  1.00  0.00     0.049 A 
ATOM     24  H   UNL A   1      40.116  30.386  31.113  1.00  0.00     0.167 HD
ATOM     25  C   UNL A   1      40.170  32.242  35.093  1.00  0.00     0.037 A 
ATOM     26  C   UNL A   1      40.883  28.486  29.226  1.00  0.00     0.037 A 
ATOM     27  C   UNL A   1      41.077  31.141  35.202  1.00  0.00     0.049 A 
ATOM     28  C   UNL A   1      41.716  28.224  30.453  1.00  0.00     0.074 A 
ATOM     29  C   UNL A   1      41.801  30.716  36.300  1.00  0.00     0.029 A 
ATOM     30  N   UNL A   1      41.387  30.287  34.154  1.00  0.00    -0.354 N 
ATOM     31  N   UNL A   1      41.671  28.809  31.623  1.00  0.00    -0.248 NA
ATOM     32  C   UNL A   1      42.693  27.129  30.363  1.00  0.00     0.031 C 
ATOM     33  C   UNL A   1      42.573  29.617  35.906  1.00  0.00     0.029 A 
ATOM     34  C   UNL A   1      42.302  29.340  34.574  1.00  0.00     0.049 A 
ATOM     35  H   UNL A   1      41.011  30.346  33.247  1.00  0.00     0.167 HD
ATOM     36  C   UNL A   1      42.558  28.110  32.432  1.00  0.00     0.074 A 
ATOM     37  C   UNL A   1      43.147  27.075  31.608  1.00  0.00     0.031 C 
ATOM     38  C   UNL A   1      42.841  28.294  33.744  1.00  0.00     0.037 A 
BRANCH  25  39
ATOM     39  C   UNL A   1      39.907  33.118  36.280  1.00  0.00     0.064 A 
ATOM     40  C   UNL A   1      38.871  32.818  37.183  1.00  0.00     0.173 A 
ATOM     41  C   UNL A   1      40.613  34.314  36.460  1.00  0.00     0.173 A 
ATOM     42  F   UNL A   1      38.149  31.697  37.032  1.00  0.00    -0.203 F 
ATOM     43  C   UNL A   1      38.513  33.715  38.184  1.00  0.00     0.198 A 
ATOM     44  C   UNL A   1      40.270  35.195  37.483  1.00  0.00     0.198 A 
ATOM     45  F   UNL A   1      41.605  34.646  35.622  1.00  0.00    -0.203 F 
ATOM     46  F   UNL A   1      37.462  33.450  38.972  1.00  0.00    -0.200 F 
ATOM     47  C   UNL A   1      39.210  34.903  38.331  1.00  0.00     0.200 A 
ATOM     48  F   UNL A   1      40.944  36.344  37.628  1.00  0.00    -0.200 F 
ATOM     49  F   UNL A   1      38.846  35.780  39.277  1.00  0.00    -0.200 F 
ENDBRANCH  25  39
BRANCH  26  50
ATOM     50  C   UNL A   1      41.084  27.667  28.004  1.00  0.00     0.064 A 
ATOM     51  C   UNL A   1      40.482  26.409  27.863  1.00  0.00     0.173 A 
ATOM     52  C   UNL A   1      41.937  28.103  26.982  1.00  0.00     0.173 A 
ATOM     53  F   UNL A   1      39.685  25.939  28.832  1.00  0.00    -0.203 F 
ATOM     54  C   UNL A   1      40.740  25.610  26.750  1.00  0.00     0.198 A 
ATOM     55  C   UNL A   1      42.178  27.312  25.860  1.00  0.00     0.198 A 
ATOM     56  F   UNL A   1      42.544  29.294  27.079  1.00  0.00    -0.203 F 
ATOM     57  F   UNL A   1      40.186  24.395  26.659  1.00  0.00    -0.200 F 
ATOM     58  C   UNL A   1      41.586  26.062  25.748  1.00  0.00     0.200 A 
ATOM     59  F   UNL A   1      42.991  27.756  24.892  1.00  0.00    -0.200 F 
ATOM     60  F   UNL A   1      41.839  25.292  24.682  1.00  0.00    -0.200 F 
ENDBRANCH  26  50
BRANCH  38  61
ATOM     61  C   UNL A   1      43.759  27.308  34.398  1.00  0.00     0.064 A 
ATOM     62  C   UNL A   1      45.135  27.541  34.512  1.00  0.00     0.173 A 
ATOM     63  C   UNL A   1      43.234  26.140  34.973  1.00  0.00     0.173 A 
ATOM     64  F   UNL A   1      45.683  28.634  33.960  1.00  0.00    -0.203 F 
ATOM     65  C   UNL A   1      45.957  26.632  35.172  1.00  0.00     0.198 A 
ATOM     66  C   UNL A   1      44.054  25.248  35.654  1.00  0.00     0.198 A 
ATOM     67  F   UNL A   1      41.921  25.877  34.889  1.00  0.00    -0.203 F 
ATOM     68  F   UNL A   1      47.278  26.854  35.241  1.00  0.00    -0.200 F 
ATOM     69  C   UNL A   1      45.416  25.493  35.750  1.00  0.00     0.200 A 
ATOM     70  F   UNL A   1      43.527  24.154  36.221  1.00  0.00    -0.200 F 
ATOM     71  F   UNL A   1      46.209  24.627  36.396  1.00  0.00    -0.200 F 
ENDBRANCH  38  61
ENDBRANCH  12  13
ENDBRANCH   5   7
ENDBRANCH   4   5
ENDBRANCH   3   4
ENDBRANCH   2   3
ENDBRANCH   1   2
BRANCH   1  72
ATOM     72  C   UNL A   1      31.831  29.123  26.425  1.00  0.00     0.310 C 
ATOM     73  O   UNL A   1      31.904  28.876  27.622  1.00  0.00    -0.252 OA
BRANCH  72  74
ATOM     74  C   UNL A   1      31.403  28.098  25.365  1.00  0.00     0.116 C 
ATOM     75  C   UNL A   1      32.362  28.368  24.196  1.00  0.00     0.043 C 
ATOM     76  C   UNL A   1      31.495  26.691  25.974  1.00  0.00     0.097 C 
ATOM     77  C   UNL A   1      33.654  27.606  24.269  1.00  0.00    -0.030 C 
ATOM     78  C   UNL A   1      32.923  26.150  26.161  1.00  0.00     0.041 C 
ATOM     79  C   UNL A   1      33.909  26.634  25.154  1.00  0.00    -0.030 C 
BRANCH  76  80
ATOM     80  C   UNL A   1      30.517  25.527  25.762  1.00  0.00     0.228 C 
ATOM     81  O   UNL A   1      29.506  25.495  26.489  1.00  0.00    -0.274 OA
ATOM     82  N   UNL A   1      30.517  24.555  24.828  1.00  0.00    -0.325 N 
ATOM     83  H   UNL A   1      29.608  24.218  24.655  1.00  0.00     0.169 HD
BRANCH  82  84
ATOM     84  C   UNL A   1      31.467  23.901  24.041  1.00  0.00     0.054 A 
ATOM     85  C   UNL A   1      31.747  24.552  22.825  1.00  0.00     0.027 A 
ATOM     86  C   UNL A   1      32.118  22.698  24.302  1.00  0.00     0.063 A 
ATOM     87  C   UNL A   1      32.835  24.185  22.035  1.00  0.00     0.002 A 
ATOM     88  C   UNL A   1      33.269  22.385  23.540  1.00  0.00     0.016 A 
ATOM     89  C   UNL A   1      33.650  23.144  22.439  1.00  0.00     0.001 A 
BRANCH  86  90
ATOM     90  C   UNL A   1      31.698  21.621  25.236  1.00  0.00     0.253 C 
ATOM     91  O   UNL A   1      30.688  21.804  25.921  1.00  0.00    -0.269 OA
ATOM     92  N   UNL A   1      32.377  20.461  25.451  1.00  0.00    -0.345 N 
ATOM     93  H   UNL A   1      31.819  19.750  25.844  1.00  0.00     0.164 HD
BRANCH  92  94
ATOM     94  C   UNL A   1      33.751  20.054  25.222  1.00  0.00     0.191 C 
BRANCH  94  95
ATOM     95  C   UNL A   1      33.703  18.834  24.377  1.00  0.00     0.122 A 
ATOM     96  C   UNL A   1      34.549  17.747  24.252  1.00  0.00     0.047 A 
ATOM     97  O   UNL A   1      32.680  18.738  23.484  1.00  0.00    -0.467 OA
ATOM     98  C   UNL A   1      34.028  16.961  23.197  1.00  0.00     0.042 A 
ATOM     99  C   UNL A   1      32.887  17.600  22.770  1.00  0.00     0.195 A 
ENDBRANCH  94  95
ENDBRANCH  92  94
ENDBRANCH  86  90
ENDBRANCH  82  84
ENDBRANCH  76  80
ENDBRANCH  72  74
ENDBRANCH   1  72
TORSDOF 16
ENDMDL
MODEL 2
REMARK VINA RESULT:     -13.3      1.519      2.172
REMARK SMILES O=C(OCCOC(=O)[C@H]1CC=CC[C@@H]1C(=O)Nc1ccccc1C(=O)NCc1ccco1)c1ccc(-c2c3nc(c(-c4c(F)c(F)c(F)c(F)c4F)c4ccc([nH]4)c(-c4c(F)c(F)c(F)c(F)c4F)c4nc(c(-c5c(F)c(F)c(F)c(F)c5F)c5ccc2[nH]5)C=C4)C=C3)cc1
REMARK SMILES IDX 6 1 5 2 4 3 3 4 2 5 1 6 33 7 34 8 95 9 35 10 94 11 36 12
REMARK SMILES IDX 37 13 38 14 88 15 39 16 93 17 87 18 89 19 40 20 92 21 86 22
REMARK SMILES IDX 85 23 41 25 73 26 53 27 72 28 54 29 57 30 71 31 90 32 55 33
REMARK SMILES IDX 56 34 70 36 91 37 58 38 42 39 43 40 51 41 44 42 45 43 49 44
REMARK SMILES IDX 52 45 46 46 47 47 50 48 48 49 74 50 75 51 83 52 76 53 77 54
REMARK SMILES IDX 81 55 84 56 78 57 79 58 82 59 80 60 59 61 60 62 68 63 61 64
REMARK SMILES IDX 62 65 66 66 69 67 63 68 64 69 67 70 65 71 7 72 8 73 9 74
REMARK SMILES IDX 10 75 14 76 11 77 13 78 12 79 15 80 16 81 17 82 18 84 19 85
REMARK SMILES IDX 23 86 20 87 22 88 21 89 24 90 25 91 26 92 27 94 28 95 29 96
REMARK SMILES IDX 32 97 30 98 31 99
REMARK H PARENT 89 24 57 35 17 83 26 93
REMARK Flexibility Score: inf
ROOT
ATOM      1  O   UNL A   1      31.549  29.202  26.442  1.00  0.00    -0.462 OA
ENDROOT
BRANCH   1   2
ATOM      2  C   UNL A   1      32.497  30.018  27.158  1.00  0.00     0.274 C 
BRANCH   2   3
ATOM      3  C   UNL A   1      32.554  31.495  26.746  1.00  0.00     0.275 C 
BRANCH   3   4
ATOM      4  O   UNL A   1      32.848  32.405  27.814  1.00  0.00    -0.458 OA
BRANCH   4   5
ATOM      5  C   UNL A   1      34.022  33.055  27.999  1.00  0.00     0.338 C 
ATOM      6  O   UNL A   1      34.168  34.202  27.598  1.00  0.00    -0.246 OA
BRANCH   5   7
ATOM      7  C   UNL A   1      35.228  32.300  28.448  1.00  0.00     0.060 A 
ATOM      8  C   UNL A   1      35.247  30.982  28.909  1.00  0.00     0.016 A 
ATOM      9  C   UNL A   1      36.438  33.008  28.420  1.00  0.00     0.016 A 
ATOM     10  C   UNL A   1      36.445  30.366  29.285  1.00  0.00     0.010 A 
ATOM     11  C   UNL A   1      37.640  32.381  28.760  1.00  0.00     0.010 A 
ATOM     12  C   UNL A   1      37.653  31.063  29.223  1.00  0.00    -0.014 A 
BRANCH  12  13
ATOM     13  C   UNL A   1      38.865  30.484  29.850  1.00  0.00     0.031 A 
ATOM     14  C   UNL A   1      39.168  30.853  31.277  1.00  0.00     0.074 A 
ATOM     15  C   UNL A   1      39.637  29.588  29.205  1.00  0.00     0.049 A 
ATOM     16  N   UNL A   1      40.074  30.365  32.085  1.00  0.00    -0.248 NA
ATOM     17  C   UNL A   1      38.347  31.919  31.875  1.00  0.00     0.031 C 
ATOM     18  C   UNL A   1      39.457  29.142  27.824  1.00  0.00     0.029 A 
ATOM     19  N   UNL A   1      40.727  28.877  29.642  1.00  0.00    -0.354 N 
ATOM     20  C   UNL A   1      39.898  31.040  33.284  1.00  0.00     0.074 A 
ATOM     21  C   UNL A   1      38.906  32.063  33.062  1.00  0.00     0.031 C 
ATOM     22  C   UNL A   1      40.401  28.227  27.531  1.00  0.00     0.029 A 
ATOM     23  C   UNL A   1      41.248  28.024  28.701  1.00  0.00     0.049 A 
ATOM     24  H   UNL A   1      41.102  28.972  30.547  1.00  0.00     0.167 HD
ATOM     25  C   UNL A   1      40.442  30.781  34.494  1.00  0.00     0.037 A 
ATOM     26  C   UNL A   1      42.278  27.160  28.789  1.00  0.00     0.037 A 
ATOM     27  C   UNL A   1      41.409  29.753  34.732  1.00  0.00     0.049 A 
ATOM     28  C   UNL A   1      42.946  26.950  30.122  1.00  0.00     0.074 A 
ATOM     29  C   UNL A   1      42.001  29.375  35.921  1.00  0.00     0.029 A 
ATOM     30  N   UNL A   1      41.932  28.939  33.739  1.00  0.00    -0.354 N 
ATOM     31  N   UNL A   1      42.689  27.517  31.274  1.00  0.00    -0.248 NA
ATOM     32  C   UNL A   1      44.010  25.937  30.173  1.00  0.00     0.031 C 
ATOM     33  C   UNL A   1      42.906  28.344  35.642  1.00  0.00     0.029 A 
ATOM     34  C   UNL A   1      42.851  28.062  34.285  1.00  0.00     0.049 A 
ATOM     35  H   UNL A   1      41.685  28.978  32.787  1.00  0.00     0.167 HD
ATOM     36  C   UNL A   1      43.505  26.881  32.201  1.00  0.00     0.074 A 
ATOM     37  C   UNL A   1      44.286  25.905  31.469  1.00  0.00     0.031 C 
ATOM     38  C   UNL A   1      43.583  27.071  33.540  1.00  0.00     0.037 A 
BRANCH  25  39
ATOM     39  C   UNL A   1      39.944  31.620  35.632  1.00  0.00     0.064 A 
ATOM     40  C   UNL A   1      38.791  31.253  36.348  1.00  0.00     0.173 A 
ATOM     41  C   UNL A   1      40.549  32.845  35.939  1.00  0.00     0.173 A 
ATOM     42  F   UNL A   1      38.161  30.102  36.068  1.00  0.00    -0.203 F 
ATOM     43  C   UNL A   1      38.228  32.111  37.287  1.00  0.00     0.198 A 
ATOM     44  C   UNL A   1      39.999  33.687  36.902  1.00  0.00     0.198 A 
ATOM     45  F   UNL A   1      41.648  33.241  35.280  1.00  0.00    -0.203 F 
ATOM     46  F   UNL A   1      37.077  31.782  37.889  1.00  0.00    -0.200 F 
ATOM     47  C   UNL A   1      38.831  33.329  37.561  1.00  0.00     0.200 A 
ATOM     48  F   UNL A   1      40.582  34.865  37.169  1.00  0.00    -0.200 F 
ATOM     49  F   UNL A   1      38.273  34.169  38.444  1.00  0.00    -0.200 F 
ENDBRANCH  25  39
BRANCH  26  50
ATOM     50  C   UNL A   1      42.715  26.374  27.608  1.00  0.00     0.064 A 
ATOM     51  C   UNL A   1      42.179  25.108  27.337  1.00  0.00     0.173 A 
ATOM     52  C   UNL A   1      43.728  26.850  26.766  1.00  0.00     0.173 A 
ATOM     53  F   UNL A   1      41.232  24.600  28.137  1.00  0.00    -0.203 F 
ATOM     54  C   UNL A   1      42.652  24.340  26.274  1.00  0.00     0.198 A 
ATOM     55  C   UNL A   1      44.186  26.089  25.691  1.00  0.00     0.198 A 
ATOM     56  F   UNL A   1      44.279  28.050  26.993  1.00  0.00    -0.203 F 
ATOM     57  F   UNL A   1      42.153  23.115  26.062  1.00  0.00    -0.200 F 
ATOM     58  C   UNL A   1      43.653  24.831  25.450  1.00  0.00     0.200 A 
ATOM     59  F   UNL A   1      45.149  26.572  24.894  1.00  0.00    -0.200 F 
ATOM     60  F   UNL A   1      44.113  24.091  24.432  1.00  0.00    -0.200 F 
ENDBRANCH  26  50
BRANCH  38  61
ATOM     61  C   UNL A   1      44.474  26.153  34.318  1.00  0.00     0.064 A 
ATOM     62  C   UNL A   1      44.006  24.947  34.854  1.00  0.00     0.173 A 
ATOM     63  C   UNL A   1      45.834  26.464  34.472  1.00  0.00     0.173 A 
ATOM     64  F   UNL A   1      42.710  24.618  34.748  1.00  0.00    -0.203 F 
ATOM     65  C   UNL A   1      44.868  24.086  35.527  1.00  0.00     0.198 A 
ATOM     66  C   UNL A   1      46.698  25.590  35.121  1.00  0.00     0.198 A 
ATOM     67  F   UNL A   1      46.326  27.608  33.974  1.00  0.00    -0.203 F 
ATOM     68  F   UNL A   1      44.396  22.952  36.063  1.00  0.00    -0.200 F 
ATOM     69  C   UNL A   1      46.214  24.403  35.652  1.00  0.00     0.200 A 
ATOM     70  F   UNL A   1      47.999  25.892  35.231  1.00  0.00    -0.200 F 
ATOM     71  F   UNL A   1      47.044  23.565  36.288  1.00  0.00    -0.200 F 
ENDBRANCH  38  61
ENDBRANCH  12  13
ENDBRANCH   5   7
ENDBRANCH   4   5
ENDBRANCH   3   4
ENDBRANCH   2   3
ENDBRANCH   1   2
BRANCH   1  72
ATOM     72  C   UNL A   1      31.304  28.008  27.055  1.00  0.00     0.310 C 
ATOM     73  O   UNL A   1      31.365  27.850  28.268  1.00  0.00    -0.252 OA
BRANCH  72  74
ATOM     74  C   UNL A   1      31.012  26.876  26.059  1.00  0.00     0.116 C 
ATOM     75  C   UNL A   1      31.346  27.501  24.697  1.00  0.00     0.043 C 
ATOM     76  C   UNL A   1      31.856  25.652  26.442  1.00  0.00     0.097 C 
ATOM     77  C   UNL A   1      32.784  27.355  24.288  1.00  0.00    -0.030 C 
ATOM     78  C   UNL A   1      33.358  25.766  26.126  1.00  0.00     0.041 C 
ATOM     79  C   UNL A   1      33.681  26.599  24.934  1.00  0.00    -0.030 C 
BRANCH  76  80
ATOM     80  C   UNL A   1      31.423  24.179  26.398  1.00  0.00     0.228 C 
ATOM     81  O   UNL A   1      30.598  23.804  27.254  1.00  0.00    -0.274 OA
ATOM     82  N   UNL A   1      31.718  23.217  25.502  1.00  0.00    -0.325 N 
ATOM     83  H   UNL A   1      31.013  22.530  25.462  1.00  0.00     0.169 HD
BRANCH  82  84
ATOM     84  C   UNL A   1      32.760  22.936  24.616  1.00  0.00     0.054 A 
ATOM     85  C   UNL A   1      32.545  23.419  23.311  1.00  0.00     0.027 A 
ATOM     86  C   UNL A   1      33.931  22.225  24.864  1.00  0.00     0.063 A 
ATOM     87  C   UNL A   1      33.571  23.452  22.368  1.00  0.00     0.002 A 
ATOM     88  C   UNL A   1      34.989  22.339  23.931  1.00  0.00     0.016 A 
ATOM     89  C   UNL A   1      34.825  22.981  22.709  1.00  0.00     0.001 A 
BRANCH  86  90
ATOM     90  C   UNL A   1      34.192  21.257  25.962  1.00  0.00     0.253 C 
ATOM     91  O   UNL A   1      35.196  21.423  26.660  1.00  0.00    -0.269 OA
ATOM     92  N   UNL A   1      33.442  20.152  26.227  1.00  0.00    -0.345 N 
ATOM     93  H   UNL A   1      33.561  19.812  27.144  1.00  0.00     0.164 HD
BRANCH  92  94
ATOM     94  C   UNL A   1      32.505  19.372  25.440  1.00  0.00     0.191 C 
BRANCH  94  95
ATOM     95  C   UNL A   1      33.206  18.122  25.052  1.00  0.00     0.122 A 
ATOM     96  C   UNL A   1      34.324  17.877  24.275  1.00  0.00     0.047 A 
ATOM     97  O   UNL A   1      32.652  16.947  25.459  1.00  0.00    -0.467 OA
ATOM     98  C   UNL A   1      34.435  16.470  24.176  1.00  0.00     0.042 A 
ATOM     99  C   UNL A   1      33.402  15.951  24.921  1.00  0.00     0.195 A 
ENDBRANCH  94  95
ENDBRANCH  92  94
ENDBRANCH  86  90
ENDBRANCH  82  84
ENDBRANCH  76  80
ENDBRANCH  72  74
ENDBRANCH   1  72
TORSDOF 16
ENDMDL
MODEL 3
REMARK VINA RESULT:     -13.2      1.375      2.317
REMARK SMILES O=C(OCCOC(=O)[C@H]1CC=CC[C@@H]1C(=O)Nc1ccccc1C(=O)NCc1ccco1)c1ccc(-c2c3nc(c(-c4c(F)c(F)c(F)c(F)c4F)c4ccc([nH]4)c(-c4c(F)c(F)c(F)c(F)c4F)c4nc(c(-c5c(F)c(F)c(F)c(F)c5F)c5ccc2[nH]5)C=C4)C=C3)cc1
REMARK SMILES IDX 6 1 5 2 4 3 3 4 2 5 1 6 33 7 34 8 95 9 35 10 94 11 36 12
REMARK SMILES IDX 37 13 38 14 88 15 39 16 93 17 87 18 89 19 40 20 92 21 86 22
REMARK SMILES IDX 85 23 41 25 73 26 53 27 72 28 54 29 57 30 71 31 90 32 55 33
REMARK SMILES IDX 56 34 70 36 91 37 58 38 42 39 43 40 51 41 44 42 45 43 49 44
REMARK SMILES IDX 52 45 46 46 47 47 50 48 48 49 74 50 75 51 83 52 76 53 77 54
REMARK SMILES IDX 81 55 84 56 78 57 79 58 82 59 80 60 59 61 60 62 68 63 61 64
REMARK SMILES IDX 62 65 66 66 69 67 63 68 64 69 67 70 65 71 7 72 8 73 9 74
REMARK SMILES IDX 10 75 14 76 11 77 13 78 12 79 15 80 16 81 17 82 18 84 19 85
REMARK SMILES IDX 23 86 20 87 22 88 21 89 24 90 25 91 26 92 27 94 28 95 29 96
REMARK SMILES IDX 32 97 30 98 31 99
REMARK H PARENT 89 24 57 35 17 83 26 93
REMARK Flexibility Score: inf
ROOT
ATOM      1  O   UNL A   1      31.427  30.260  25.367  1.00  0.00    -0.462 OA
ENDROOT
BRANCH   1   2
ATOM      2  C   UNL A   1      31.851  30.822  26.625  1.00  0.00     0.274 C 
BRANCH   2   3
ATOM      3  C   UNL A   1      31.466  32.287  26.867  1.00  0.00     0.275 C 
BRANCH   3   4
ATOM      4  O   UNL A   1      32.570  33.200  26.907  1.00  0.00    -0.458 OA
BRANCH   4   5
ATOM      5  C   UNL A   1      33.223  33.604  28.023  1.00  0.00     0.338 C 
ATOM      6  O   UNL A   1      32.947  34.672  28.552  1.00  0.00    -0.246 OA
BRANCH   5   7
ATOM      7  C   UNL A   1      34.455  32.888  28.466  1.00  0.00     0.060 A 
ATOM      8  C   UNL A   1      34.513  31.583  28.960  1.00  0.00     0.016 A 
ATOM      9  C   UNL A   1      35.648  33.621  28.394  1.00  0.00     0.016 A 
ATOM     10  C   UNL A   1      35.732  31.004  29.327  1.00  0.00     0.010 A 
ATOM     11  C   UNL A   1      36.870  33.030  28.725  1.00  0.00     0.010 A 
ATOM     12  C   UNL A   1      36.922  31.726  29.223  1.00  0.00    -0.014 A 
BRANCH  12  13
ATOM     13  C   UNL A   1      38.159  31.190  29.838  1.00  0.00     0.031 A 
ATOM     14  C   UNL A   1      38.493  31.619  31.242  1.00  0.00     0.074 A 
ATOM     15  C   UNL A   1      38.929  30.283  29.207  1.00  0.00     0.049 A 
ATOM     16  N   UNL A   1      39.427  31.176  32.044  1.00  0.00    -0.248 NA
ATOM     17  C   UNL A   1      37.669  32.693  31.821  1.00  0.00     0.031 C 
ATOM     18  C   UNL A   1      38.722  29.782  27.849  1.00  0.00     0.029 A 
ATOM     19  N   UNL A   1      40.042  29.607  29.642  1.00  0.00    -0.354 N 
ATOM     20  C   UNL A   1      39.270  31.892  33.221  1.00  0.00     0.074 A 
ATOM     21  C   UNL A   1      38.255  32.891  32.987  1.00  0.00     0.031 C 
ATOM     22  C   UNL A   1      39.673  28.872  27.567  1.00  0.00     0.029 A 
ATOM     23  C   UNL A   1      40.554  28.727  28.721  1.00  0.00     0.049 A 
ATOM     24  H   UNL A   1      40.438  29.742  30.533  1.00  0.00     0.167 HD
ATOM     25  C   UNL A   1      39.849  31.689  34.426  1.00  0.00     0.037 A 
ATOM     26  C   UNL A   1      41.600  27.884  28.815  1.00  0.00     0.037 A 
ATOM     27  C   UNL A   1      40.840  30.686  34.676  1.00  0.00     0.049 A 
ATOM     28  C   UNL A   1      42.305  27.735  30.136  1.00  0.00     0.074 A 
ATOM     29  C   UNL A   1      41.468  30.363  35.863  1.00  0.00     0.029 A 
ATOM     30  N   UNL A   1      41.350  29.843  33.701  1.00  0.00    -0.354 N 
ATOM     31  N   UNL A   1      42.069  28.341  31.273  1.00  0.00    -0.248 NA
ATOM     32  C   UNL A   1      43.387  26.741  30.197  1.00  0.00     0.031 C 
ATOM     33  C   UNL A   1      42.383  29.337  35.599  1.00  0.00     0.029 A 
ATOM     34  C   UNL A   1      42.298  29.003  34.256  1.00  0.00     0.049 A 
ATOM     35  H   UNL A   1      41.079  29.842  32.755  1.00  0.00     0.167 HD
ATOM     36  C   UNL A   1      42.919  27.754  32.201  1.00  0.00     0.074 A 
ATOM     37  C   UNL A   1      43.697  26.763  31.487  1.00  0.00     0.031 C 
ATOM     38  C   UNL A   1      43.028  27.996  33.530  1.00  0.00     0.037 A 
BRANCH  25  39
ATOM     39  C   UNL A   1      39.367  32.563  35.544  1.00  0.00     0.064 A 
ATOM     40  C   UNL A   1      39.969  33.809  35.796  1.00  0.00     0.173 A 
ATOM     41  C   UNL A   1      38.381  32.115  36.431  1.00  0.00     0.173 A 
ATOM     42  F   UNL A   1      40.939  34.265  34.988  1.00  0.00    -0.203 F 
ATOM     43  C   UNL A   1      39.643  34.544  36.931  1.00  0.00     0.198 A 
ATOM     44  C   UNL A   1      38.036  32.869  37.550  1.00  0.00     0.198 A 
ATOM     45  F   UNL A   1      37.782  30.932  36.235  1.00  0.00    -0.203 F 
ATOM     46  F   UNL A   1      40.296  35.682  37.200  1.00  0.00    -0.200 F 
ATOM     47  C   UNL A   1      38.679  34.072  37.808  1.00  0.00     0.200 A 
ATOM     48  F   UNL A   1      37.104  32.415  38.399  1.00  0.00    -0.200 F 
ATOM     49  F   UNL A   1      38.386  34.766  38.917  1.00  0.00    -0.200 F 
ENDBRANCH  25  39
BRANCH  26  50
ATOM     50  C   UNL A   1      42.020  27.060  27.653  1.00  0.00     0.064 A 
ATOM     51  C   UNL A   1      41.507  25.772  27.449  1.00  0.00     0.173 A 
ATOM     52  C   UNL A   1      42.995  27.524  26.761  1.00  0.00     0.173 A 
ATOM     53  F   UNL A   1      40.597  25.275  28.299  1.00  0.00    -0.203 F 
ATOM     54  C   UNL A   1      41.966  24.972  26.404  1.00  0.00     0.198 A 
ATOM     55  C   UNL A   1      43.439  26.731  25.703  1.00  0.00     0.198 A 
ATOM     56  F   UNL A   1      43.523  28.745  26.922  1.00  0.00    -0.203 F 
ATOM     57  F   UNL A   1      41.490  23.729  26.256  1.00  0.00    -0.200 F 
ATOM     58  C   UNL A   1      42.930  25.452  25.530  1.00  0.00     0.200 A 
ATOM     59  F   UNL A   1      44.365  27.203  24.858  1.00  0.00    -0.200 F 
ATOM     60  F   UNL A   1      43.376  24.682  24.529  1.00  0.00    -0.200 F 
ENDBRANCH  26  50
BRANCH  38  61
ATOM     61  C   UNL A   1      43.954  27.122  34.318  1.00  0.00     0.064 A 
ATOM     62  C   UNL A   1      43.532  25.907  34.872  1.00  0.00     0.173 A 
ATOM     63  C   UNL A   1      45.301  27.485  34.464  1.00  0.00     0.173 A 
ATOM     64  F   UNL A   1      42.248  25.530  34.775  1.00  0.00    -0.203 F 
ATOM     65  C   UNL A   1      44.426  25.089  35.555  1.00  0.00     0.198 A 
ATOM     66  C   UNL A   1      46.198  26.652  35.123  1.00  0.00     0.198 A 
ATOM     67  F   UNL A   1      45.750  28.640  33.948  1.00  0.00    -0.203 F 
ATOM     68  F   UNL A   1      43.997  23.946  36.109  1.00  0.00    -0.200 F 
ATOM     69  C   UNL A   1      45.760  25.456  35.671  1.00  0.00     0.200 A 
ATOM     70  F   UNL A   1      47.487  27.004  35.224  1.00  0.00    -0.200 F 
ATOM     71  F   UNL A   1      46.621  24.659  36.318  1.00  0.00    -0.200 F 
ENDBRANCH  38  61
ENDBRANCH  12  13
ENDBRANCH   5   7
ENDBRANCH   4   5
ENDBRANCH   3   4
ENDBRANCH   2   3
ENDBRANCH   1   2
BRANCH   1  72
ATOM     72  C   UNL A   1      32.153  29.165  25.001  1.00  0.00     0.310 C 
ATOM     73  O   UNL A   1      33.292  29.231  24.556  1.00  0.00    -0.252 OA
BRANCH  72  74
ATOM     74  C   UNL A   1      31.367  27.853  25.143  1.00  0.00     0.116 C 
ATOM     75  C   UNL A   1      30.339  27.927  24.005  1.00  0.00     0.043 C 
ATOM     76  C   UNL A   1      32.350  26.677  25.060  1.00  0.00     0.097 C 
ATOM     77  C   UNL A   1      30.827  27.376  22.696  1.00  0.00    -0.030 C 
ATOM     78  C   UNL A   1      32.907  26.385  23.656  1.00  0.00     0.041 C 
ATOM     79  C   UNL A   1      31.976  26.708  22.538  1.00  0.00    -0.030 C 
BRANCH  76  80
ATOM     80  C   UNL A   1      32.318  25.385  25.889  1.00  0.00     0.228 C 
ATOM     81  O   UNL A   1      31.517  25.342  26.843  1.00  0.00    -0.274 OA
ATOM     82  N   UNL A   1      32.960  24.216  25.696  1.00  0.00    -0.325 N 
ATOM     83  H   UNL A   1      32.465  23.461  26.091  1.00  0.00     0.169 HD
BRANCH  82  84
ATOM     84  C   UNL A   1      34.141  23.793  25.084  1.00  0.00     0.054 A 
ATOM     85  C   UNL A   1      35.300  24.409  25.594  1.00  0.00     0.027 A 
ATOM     86  C   UNL A   1      34.290  22.888  24.037  1.00  0.00     0.063 A 
ATOM     87  C   UNL A   1      36.574  23.935  25.284  1.00  0.00     0.002 A 
ATOM     88  C   UNL A   1      35.580  22.360  23.792  1.00  0.00     0.016 A 
ATOM     89  C   UNL A   1      36.710  22.850  24.438  1.00  0.00     0.001 A 
BRANCH  86  90
ATOM     90  C   UNL A   1      33.264  22.462  23.050  1.00  0.00     0.253 C 
ATOM     91  O   UNL A   1      32.991  23.231  22.124  1.00  0.00    -0.269 OA
ATOM     92  N   UNL A   1      32.543  21.309  23.116  1.00  0.00    -0.345 N 
ATOM     93  H   UNL A   1      32.154  21.043  22.251  1.00  0.00     0.164 HD
BRANCH  92  94
ATOM     94  C   UNL A   1      32.229  20.392  24.196  1.00  0.00     0.191 C 
BRANCH  94  95
ATOM     95  C   UNL A   1      32.980  19.140  23.929  1.00  0.00     0.122 A 
ATOM     96  C   UNL A   1      32.687  18.013  23.183  1.00  0.00     0.047 A 
ATOM     97  O   UNL A   1      34.173  18.984  24.565  1.00  0.00    -0.467 OA
ATOM     98  C   UNL A   1      33.748  17.104  23.406  1.00  0.00     0.042 A 
ATOM     99  C   UNL A   1      34.630  17.745  24.244  1.00  0.00     0.195 A 
ENDBRANCH  94  95
ENDBRANCH  92  94
ENDBRANCH  86  90
ENDBRANCH  82  84
ENDBRANCH  76  80
ENDBRANCH  72  74
ENDBRANCH   1  72
TORSDOF 16
ENDMDL
