MODEL 1
REMARK VINA RESULT:     -13.8      0.000      0.000
REMARK SMILES O=C1C[C@H](c2cn[nH]c2C(=O)OCCOC(=O)c2ccc(-c3c4nc(c(-c5c(F)c(F)c(F)c(F)c5F)c5ccc([nH]5)c(-c5c(F)c(F)c(F)c(F)c5F)c5nc(c(-c6c(F)c(F)c(F)c(F)c6F)c6ccc3[nH]6)C=C5)C=C4)cc2)c2c(-c3cccs3)n[nH]c2N1
REMARK SMILES IDX 13 1 12 2 10 3 11 4 9 5 5 6 6 7 7 8 8 9 4 11 1 12 2 13 3 14
REMARK SMILES IDX 91 15 90 16 81 18 89 19 82 20 88 21 83 23 84 24 87 25 85 26
REMARK SMILES IDX 86 27 14 28 15 29 16 30 17 31 18 32 19 33 80 34 20 35 79 36
REMARK SMILES IDX 21 37 22 38 23 39 73 40 24 41 78 42 72 43 74 44 25 45 77 46
REMARK SMILES IDX 71 47 70 48 26 50 58 51 38 52 57 53 39 54 42 55 56 56 75 57
REMARK SMILES IDX 40 58 41 59 55 61 76 62 43 63 27 64 28 65 36 66 29 67 30 68
REMARK SMILES IDX 34 69 37 70 31 71 32 72 35 73 33 74 59 75 60 76 68 77 61 78
REMARK SMILES IDX 62 79 66 80 69 81 63 82 64 83 67 84 65 85 44 86 45 87 53 88
REMARK SMILES IDX 46 89 47 90 51 91 54 92 48 93 49 94 52 95 50 96
REMARK H PARENT 8 10 91 17 89 22 74 49 42 60
REMARK Flexibility Score: inf
ROOT
ATOM      1  C   UNL A   1      32.468  30.167  26.076  1.00  0.00     0.275 C 
ENDROOT
BRANCH   1   2
ATOM      2  O   UNL A   1      31.793  29.011  26.597  1.00  0.00    -0.457 OA
BRANCH   2   3
ATOM      3  C   UNL A   1      32.340  27.794  26.389  1.00  0.00     0.356 C 
ATOM      4  O   UNL A   1      33.512  27.527  26.552  1.00  0.00    -0.244 OA
BRANCH   3   5
ATOM      5  C   UNL A   1      31.337  26.829  25.992  1.00  0.00     0.147 A 
ATOM      6  C   UNL A   1      30.615  26.474  24.850  1.00  0.00     0.013 A 
ATOM      7  C   UNL A   1      29.832  25.365  25.301  1.00  0.00     0.140 A 
ATOM      8  N   UNL A   1      30.001  25.075  26.586  1.00  0.00    -0.183 NA
ATOM      9  N   UNL A   1      30.893  25.985  26.982  1.00  0.00    -0.271 N 
ATOM     10  H   UNL A   1      31.208  26.047  27.913  1.00  0.00     0.190 HD
BRANCH   6  11
ATOM     11  C   UNL A   1      30.528  26.942  23.402  1.00  0.00     0.069 C 
ATOM     12  O   UNL A   1      29.206  30.425  23.426  1.00  0.00    -0.275 OA
ATOM     13  C   UNL A   1      29.947  29.480  23.154  1.00  0.00     0.226 C 
ATOM     14  C   UNL A   1      29.449  28.036  23.202  1.00  0.00     0.114 C 
ATOM     15  N   UNL A   1      31.196  29.715  22.635  1.00  0.00    -0.311 N 
ATOM     16  C   UNL A   1      32.029  28.659  22.392  1.00  0.00     0.132 A 
ATOM     17  H   UNL A   1      31.489  30.633  22.438  1.00  0.00     0.171 HD
ATOM     18  C   UNL A   1      31.779  27.351  22.716  1.00  0.00     0.031 A 
ATOM     19  N   UNL A   1      33.284  28.707  21.874  1.00  0.00    -0.262 N 
ATOM     20  C   UNL A   1      32.971  26.664  22.367  1.00  0.00     0.108 A 
ATOM     21  N   UNL A   1      33.907  27.510  21.894  1.00  0.00    -0.173 NA
ATOM     22  H   UNL A   1      33.695  29.529  21.520  1.00  0.00     0.192 HD
BRANCH  20  23
ATOM     23  C   UNL A   1      33.262  25.237  22.710  1.00  0.00     0.055 A 
ATOM     24  C   UNL A   1      32.844  24.166  21.946  1.00  0.00     0.022 A 
ATOM     25  S   UNL A   1      34.261  24.747  24.001  1.00  0.00    -0.142 S 
ATOM     26  C   UNL A   1      33.432  22.941  22.376  1.00  0.00     0.012 A 
ATOM     27  C   UNL A   1      34.173  23.106  23.525  1.00  0.00     0.065 A 
ENDBRANCH  20  23
ENDBRANCH   6  11
ENDBRANCH   3   5
ENDBRANCH   2   3
ENDBRANCH   1   2
BRANCH   1  28
ATOM     28  C   UNL A   1      33.048  30.935  27.244  1.00  0.00     0.275 C 
BRANCH  28  29
ATOM     29  O   UNL A   1      34.446  30.700  27.267  1.00  0.00    -0.458 OA
BRANCH  29  30
ATOM     30  C   UNL A   1      35.239  31.672  27.760  1.00  0.00     0.338 C 
ATOM     31  O   UNL A   1      35.151  32.874  27.596  1.00  0.00    -0.246 OA
BRANCH  30  32
ATOM     32  C   UNL A   1      36.341  30.996  28.442  1.00  0.00     0.060 A 
ATOM     33  C   UNL A   1      37.386  31.769  28.952  1.00  0.00     0.016 A 
ATOM     34  C   UNL A   1      36.413  29.594  28.371  1.00  0.00     0.016 A 
ATOM     35  C   UNL A   1      38.576  31.137  29.238  1.00  0.00     0.010 A 
ATOM     36  C   UNL A   1      37.599  28.972  28.631  1.00  0.00     0.010 A 
ATOM     37  C   UNL A   1      38.681  29.763  28.990  1.00  0.00    -0.014 A 
BRANCH  37  38
ATOM     38  C   UNL A   1      39.949  29.112  29.184  1.00  0.00     0.031 A 
ATOM     39  C   UNL A   1      40.279  28.881  30.603  1.00  0.00     0.074 A 
ATOM     40  C   UNL A   1      40.658  28.622  28.153  1.00  0.00     0.049 A 
ATOM     41  N   UNL A   1      41.232  29.420  31.283  1.00  0.00    -0.248 NA
ATOM     42  C   UNL A   1      39.347  28.067  31.401  1.00  0.00     0.031 C 
ATOM     43  C   UNL A   1      40.263  28.495  26.748  1.00  0.00     0.029 A 
ATOM     44  N   UNL A   1      41.876  28.030  28.188  1.00  0.00    -0.354 N 
ATOM     45  C   UNL A   1      41.133  28.877  32.557  1.00  0.00     0.074 A 
ATOM     46  C   UNL A   1      39.866  28.196  32.621  1.00  0.00     0.031 C 
ATOM     47  C   UNL A   1      41.137  27.676  26.116  1.00  0.00     0.029 A 
ATOM     48  C   UNL A   1      42.213  27.342  27.036  1.00  0.00     0.049 A 
ATOM     49  H   UNL A   1      42.473  28.086  28.970  1.00  0.00     0.167 HD
ATOM     50  C   UNL A   1      42.215  28.825  33.376  1.00  0.00     0.037 A 
ATOM     51  C   UNL A   1      43.267  26.502  26.903  1.00  0.00     0.037 A 
ATOM     52  C   UNL A   1      43.252  29.723  32.937  1.00  0.00     0.049 A 
ATOM     53  C   UNL A   1      44.222  26.810  28.002  1.00  0.00     0.074 A 
ATOM     54  C   UNL A   1      43.328  31.091  32.759  1.00  0.00     0.029 A 
ATOM     55  N   UNL A   1      44.301  29.194  32.226  1.00  0.00    -0.354 N 
ATOM     56  N   UNL A   1      44.903  27.919  28.086  1.00  0.00    -0.248 NA
ATOM     57  C   UNL A   1      44.082  26.073  29.251  1.00  0.00     0.031 C 
ATOM     58  C   UNL A   1      44.118  31.269  31.585  1.00  0.00     0.029 A 
ATOM     59  C   UNL A   1      44.522  30.008  31.144  1.00  0.00     0.049 A 
ATOM     60  H   UNL A   1      44.805  28.379  32.452  1.00  0.00     0.167 HD
ATOM     61  C   UNL A   1      44.905  28.234  29.438  1.00  0.00     0.074 A 
ATOM     62  C   UNL A   1      44.476  27.013  30.114  1.00  0.00     0.031 C 
ATOM     63  C   UNL A   1      44.976  29.532  29.857  1.00  0.00     0.037 A 
BRANCH  50  64
ATOM     64  C   UNL A   1      42.468  27.701  34.342  1.00  0.00     0.064 A 
ATOM     65  C   UNL A   1      43.041  26.508  33.872  1.00  0.00     0.173 A 
ATOM     66  C   UNL A   1      41.908  27.646  35.638  1.00  0.00     0.173 A 
ATOM     67  F   UNL A   1      43.573  26.444  32.642  1.00  0.00    -0.203 F 
ATOM     68  C   UNL A   1      43.001  25.329  34.621  1.00  0.00     0.198 A 
ATOM     69  C   UNL A   1      41.921  26.486  36.405  1.00  0.00     0.198 A 
ATOM     70  F   UNL A   1      41.224  28.670  36.164  1.00  0.00    -0.203 F 
ATOM     71  F   UNL A   1      43.447  24.187  34.085  1.00  0.00    -0.200 F 
ATOM     72  C   UNL A   1      42.439  25.319  35.885  1.00  0.00     0.200 A 
ATOM     73  F   UNL A   1      41.352  26.492  37.618  1.00  0.00    -0.200 F 
ATOM     74  F   UNL A   1      42.347  24.179  36.581  1.00  0.00    -0.200 F 
ENDBRANCH  50  64
BRANCH  51  75
ATOM     75  C   UNL A   1      43.347  25.259  26.103  1.00  0.00     0.064 A 
ATOM     76  C   UNL A   1      44.431  25.028  25.242  1.00  0.00     0.173 A 
ATOM     77  C   UNL A   1      42.513  24.156  26.371  1.00  0.00     0.173 A 
ATOM     78  F   UNL A   1      45.297  26.015  24.969  1.00  0.00    -0.203 F 
ATOM     79  C   UNL A   1      44.684  23.761  24.707  1.00  0.00     0.198 A 
ATOM     80  C   UNL A   1      42.760  22.894  25.829  1.00  0.00     0.198 A 
ATOM     81  F   UNL A   1      41.496  24.254  27.240  1.00  0.00    -0.203 F 
ATOM     82  F   UNL A   1      45.768  23.562  23.943  1.00  0.00    -0.200 F 
ATOM     83  C   UNL A   1      43.855  22.693  25.009  1.00  0.00     0.200 A 
ATOM     84  F   UNL A   1      41.970  21.863  26.159  1.00  0.00    -0.200 F 
ATOM     85  F   UNL A   1      44.133  21.466  24.549  1.00  0.00    -0.200 F 
ENDBRANCH  51  75
BRANCH  63  86
ATOM     86  C   UNL A   1      45.329  30.575  28.832  1.00  0.00     0.064 A 
ATOM     87  C   UNL A   1      44.394  31.200  27.989  1.00  0.00     0.173 A 
ATOM     88  C   UNL A   1      46.647  31.050  28.794  1.00  0.00     0.173 A 
ATOM     89  F   UNL A   1      43.096  30.879  28.039  1.00  0.00    -0.203 F 
ATOM     90  C   UNL A   1      44.774  32.215  27.111  1.00  0.00     0.198 A 
ATOM     91  C   UNL A   1      47.016  32.090  27.946  1.00  0.00     0.198 A 
ATOM     92  F   UNL A   1      47.572  30.531  29.617  1.00  0.00    -0.203 F 
ATOM     93  F   UNL A   1      43.866  32.780  26.303  1.00  0.00    -0.200 F 
ATOM     94  C   UNL A   1      46.084  32.663  27.095  1.00  0.00     0.200 A 
ATOM     95  F   UNL A   1      48.273  32.554  27.970  1.00  0.00    -0.200 F 
ATOM     96  F   UNL A   1      46.443  33.664  26.279  1.00  0.00    -0.200 F 
ENDBRANCH  63  86
ENDBRANCH  37  38
ENDBRANCH  30  32
ENDBRANCH  29  30
ENDBRANCH  28  29
ENDBRANCH   1  28
TORSDOF 13
ENDMDL
MODEL 2
REMARK VINA RESULT:     -13.3      1.114      2.785
REMARK SMILES O=C1C[C@H](c2cn[nH]c2C(=O)OCCOC(=O)c2ccc(-c3c4nc(c(-c5c(F)c(F)c(F)c(F)c5F)c5ccc([nH]5)c(-c5c(F)c(F)c(F)c(F)c5F)c5nc(c(-c6c(F)c(F)c(F)c(F)c6F)c6ccc3[nH]6)C=C5)C=C4)cc2)c2c(-c3cccs3)n[nH]c2N1
REMARK SMILES IDX 13 1 12 2 10 3 11 4 9 5 5 6 6 7 7 8 8 9 4 11 1 12 2 13 3 14
REMARK SMILES IDX 91 15 90 16 81 18 89 19 82 20 88 21 83 23 84 24 87 25 85 26
REMARK SMILES IDX 86 27 14 28 15 29 16 30 17 31 18 32 19 33 80 34 20 35 79 36
REMARK SMILES IDX 21 37 22 38 23 39 73 40 24 41 78 42 72 43 74 44 25 45 77 46
REMARK SMILES IDX 71 47 70 48 26 50 58 51 38 52 57 53 39 54 42 55 56 56 75 57
REMARK SMILES IDX 40 58 41 59 55 61 76 62 43 63 27 64 28 65 36 66 29 67 30 68
REMARK SMILES IDX 34 69 37 70 31 71 32 72 35 73 33 74 59 75 60 76 68 77 61 78
REMARK SMILES IDX 62 79 66 80 69 81 63 82 64 83 67 84 65 85 44 86 45 87 53 88
REMARK SMILES IDX 46 89 47 90 51 91 54 92 48 93 49 94 52 95 50 96
REMARK H PARENT 8 10 91 17 89 22 74 49 42 60
REMARK Flexibility Score: inf
ROOT
ATOM      1  C   UNL A   1      32.490  30.235  26.752  1.00  0.00     0.275 C 
ENDROOT
BRANCH   1   2
ATOM      2  O   UNL A   1      33.304  29.803  25.650  1.00  0.00    -0.457 OA
BRANCH   2   3
ATOM      3  C   UNL A   1      33.686  28.508  25.596  1.00  0.00     0.356 C 
ATOM      4  O   UNL A   1      33.936  27.821  26.562  1.00  0.00    -0.244 OA
BRANCH   3   5
ATOM      5  C   UNL A   1      33.713  28.027  24.231  1.00  0.00     0.147 A 
ATOM      6  C   UNL A   1      33.380  26.873  23.518  1.00  0.00     0.013 A 
ATOM      7  C   UNL A   1      33.693  27.232  22.168  1.00  0.00     0.140 A 
ATOM      8  N   UNL A   1      34.205  28.451  22.042  1.00  0.00    -0.183 NA
ATOM      9  N   UNL A   1      34.228  28.897  23.300  1.00  0.00    -0.271 N 
ATOM     10  H   UNL A   1      34.587  29.781  23.541  1.00  0.00     0.190 HD
BRANCH   6  11
ATOM     11  C   UNL A   1      32.794  25.502  23.834  1.00  0.00     0.069 C 
ATOM     12  O   UNL A   1      35.405  23.559  25.647  1.00  0.00    -0.275 OA
ATOM     13  C   UNL A   1      34.305  24.055  25.404  1.00  0.00     0.226 C 
ATOM     14  C   UNL A   1      33.889  24.415  23.979  1.00  0.00     0.114 C 
ATOM     15  N   UNL A   1      33.356  24.140  26.394  1.00  0.00    -0.311 N 
ATOM     16  C   UNL A   1      32.161  24.745  26.126  1.00  0.00     0.132 A 
ATOM     17  H   UNL A   1      33.534  23.768  27.288  1.00  0.00     0.171 HD
ATOM     18  C   UNL A   1      31.834  25.388  24.960  1.00  0.00     0.031 A 
ATOM     19  N   UNL A   1      31.114  24.906  26.976  1.00  0.00    -0.262 N 
ATOM     20  C   UNL A   1      30.547  25.936  25.206  1.00  0.00     0.108 A 
ATOM     21  N   UNL A   1      30.133  25.676  26.461  1.00  0.00    -0.173 NA
ATOM     22  H   UNL A   1      31.075  24.502  27.873  1.00  0.00     0.192 HD
BRANCH  20  23
ATOM     23  C   UNL A   1      29.843  26.895  24.298  1.00  0.00     0.055 A 
ATOM     24  C   UNL A   1      28.581  26.675  23.785  1.00  0.00     0.022 A 
ATOM     25  S   UNL A   1      30.437  28.440  23.891  1.00  0.00    -0.142 S 
ATOM     26  C   UNL A   1      28.062  27.829  23.129  1.00  0.00     0.012 A 
ATOM     27  C   UNL A   1      28.996  28.839  23.058  1.00  0.00     0.065 A 
ENDBRANCH  20  23
ENDBRANCH   6  11
ENDBRANCH   3   5
ENDBRANCH   2   3
ENDBRANCH   1   2
BRANCH   1  28
ATOM     28  C   UNL A   1      33.248  31.309  27.500  1.00  0.00     0.275 C 
BRANCH  28  29
ATOM     29  O   UNL A   1      34.560  30.829  27.740  1.00  0.00    -0.458 OA
BRANCH  29  30
ATOM     30  C   UNL A   1      35.537  31.737  27.934  1.00  0.00     0.338 C 
ATOM     31  O   UNL A   1      35.572  32.897  27.568  1.00  0.00    -0.246 OA
BRANCH  30  32
ATOM     32  C   UNL A   1      36.645  31.021  28.565  1.00  0.00     0.060 A 
ATOM     33  C   UNL A   1      37.687  31.763  29.125  1.00  0.00     0.016 A 
ATOM     34  C   UNL A   1      36.724  29.628  28.396  1.00  0.00     0.016 A 
ATOM     35  C   UNL A   1      38.881  31.118  29.363  1.00  0.00     0.010 A 
ATOM     36  C   UNL A   1      37.913  28.996  28.610  1.00  0.00     0.010 A 
ATOM     37  C   UNL A   1      38.992  29.766  29.021  1.00  0.00    -0.014 A 
BRANCH  37  38
ATOM     38  C   UNL A   1      40.263  29.110  29.166  1.00  0.00     0.031 A 
ATOM     39  C   UNL A   1      40.647  28.878  30.572  1.00  0.00     0.074 A 
ATOM     40  C   UNL A   1      40.930  28.616  28.109  1.00  0.00     0.049 A 
ATOM     41  N   UNL A   1      41.628  29.414  31.213  1.00  0.00    -0.248 NA
ATOM     42  C   UNL A   1      39.743  28.069  31.405  1.00  0.00     0.031 C 
ATOM     43  C   UNL A   1      40.481  28.489  26.721  1.00  0.00     0.029 A 
ATOM     44  N   UNL A   1      42.146  28.019  28.098  1.00  0.00    -0.354 N 
ATOM     45  C   UNL A   1      41.576  28.873  32.491  1.00  0.00     0.074 A 
ATOM     46  C   UNL A   1      40.310  28.197  32.605  1.00  0.00     0.031 C 
ATOM     47  C   UNL A   1      41.327  27.667  26.056  1.00  0.00     0.029 A 
ATOM     48  C   UNL A   1      42.436  27.328  26.935  1.00  0.00     0.049 A 
ATOM     49  H   UNL A   1      42.774  28.073  28.856  1.00  0.00     0.167 HD
ATOM     50  C   UNL A   1      42.688  28.817  33.268  1.00  0.00     0.037 A 
ATOM     51  C   UNL A   1      43.480  26.484  26.762  1.00  0.00     0.037 A 
ATOM     52  C   UNL A   1      43.711  29.710  32.788  1.00  0.00     0.049 A 
ATOM     53  C   UNL A   1      44.478  26.789  27.822  1.00  0.00     0.074 A 
ATOM     54  C   UNL A   1      43.786  31.077  32.606  1.00  0.00     0.029 A 
ATOM     55  N   UNL A   1      44.730  29.176  32.038  1.00  0.00    -0.354 N 
ATOM     56  N   UNL A   1      45.166  27.895  27.879  1.00  0.00    -0.248 NA
ATOM     57  C   UNL A   1      44.384  26.054  29.076  1.00  0.00     0.031 C 
ATOM     58  C   UNL A   1      44.532  31.252  31.402  1.00  0.00     0.029 A 
ATOM     59  C   UNL A   1      44.912  29.989  30.947  1.00  0.00     0.049 A 
ATOM     60  H   UNL A   1      45.239  28.359  32.245  1.00  0.00     0.167 HD
ATOM     61  C   UNL A   1      45.222  28.211  29.230  1.00  0.00     0.074 A 
ATOM     62  C   UNL A   1      44.814  26.993  29.923  1.00  0.00     0.031 C 
ATOM     63  C   UNL A   1      45.315  29.509  29.645  1.00  0.00     0.037 A 
BRANCH  50  64
ATOM     64  C   UNL A   1      42.974  27.693  34.224  1.00  0.00     0.064 A 
ATOM     65  C   UNL A   1      43.397  26.452  33.719  1.00  0.00     0.173 A 
ATOM     66  C   UNL A   1      42.573  27.701  35.579  1.00  0.00     0.173 A 
ATOM     67  F   UNL A   1      43.769  26.329  32.437  1.00  0.00    -0.203 F 
ATOM     68  C   UNL A   1      43.361  25.292  34.497  1.00  0.00     0.198 A 
ATOM     69  C   UNL A   1      42.594  26.556  36.368  1.00  0.00     0.198 A 
ATOM     70  F   UNL A   1      42.034  28.782  36.157  1.00  0.00    -0.203 F 
ATOM     71  F   UNL A   1      43.654  24.110  33.941  1.00  0.00    -0.200 F 
ATOM     72  C   UNL A   1      42.958  25.345  35.820  1.00  0.00     0.200 A 
ATOM     73  F   UNL A   1      42.178  26.625  37.641  1.00  0.00    -0.200 F 
ATOM     74  F   UNL A   1      42.868  24.226  36.550  1.00  0.00    -0.200 F 
ENDBRANCH  50  64
BRANCH  51  75
ATOM     75  C   UNL A   1      43.524  25.240  25.960  1.00  0.00     0.064 A 
ATOM     76  C   UNL A   1      44.613  24.967  25.118  1.00  0.00     0.173 A 
ATOM     77  C   UNL A   1      42.642  24.171  26.211  1.00  0.00     0.173 A 
ATOM     78  F   UNL A   1      45.522  25.918  24.862  1.00  0.00    -0.203 F 
ATOM     79  C   UNL A   1      44.824  23.692  24.584  1.00  0.00     0.198 A 
ATOM     80  C   UNL A   1      42.848  22.901  25.671  1.00  0.00     0.198 A 
ATOM     81  F   UNL A   1      41.615  24.308  27.063  1.00  0.00    -0.203 F 
ATOM     82  F   UNL A   1      45.912  23.451  23.839  1.00  0.00    -0.200 F 
ATOM     83  C   UNL A   1      43.948  22.657  24.870  1.00  0.00     0.200 A 
ATOM     84  F   UNL A   1      42.012  21.902  25.985  1.00  0.00    -0.200 F 
ATOM     85  F   UNL A   1      44.185  21.421  24.412  1.00  0.00    -0.200 F 
ENDBRANCH  51  75
BRANCH  63  86
ATOM     86  C   UNL A   1      45.633  30.550  28.605  1.00  0.00     0.064 A 
ATOM     87  C   UNL A   1      44.666  31.191  27.810  1.00  0.00     0.173 A 
ATOM     88  C   UNL A   1      46.953  31.006  28.504  1.00  0.00     0.173 A 
ATOM     89  F   UNL A   1      43.368  30.888  27.923  1.00  0.00    -0.203 F 
ATOM     90  C   UNL A   1      45.018  32.202  26.917  1.00  0.00     0.198 A 
ATOM     91  C   UNL A   1      47.296  32.043  27.641  1.00  0.00     0.198 A 
ATOM     92  F   UNL A   1      47.910  30.472  29.280  1.00  0.00    -0.203 F 
ATOM     93  F   UNL A   1      44.080  32.783  26.155  1.00  0.00    -0.200 F 
ATOM     94  C   UNL A   1      46.332  32.632  26.838  1.00  0.00     0.200 A 
ATOM     95  F   UNL A   1      48.559  32.489  27.605  1.00  0.00    -0.200 F 
ATOM     96  F   UNL A   1      46.665  33.630  26.008  1.00  0.00    -0.200 F 
ENDBRANCH  63  86
ENDBRANCH  37  38
ENDBRANCH  30  32
ENDBRANCH  29  30
ENDBRANCH  28  29
ENDBRANCH   1  28
TORSDOF 13
ENDMDL
MODEL 3
REMARK VINA RESULT:     -13.3      3.507      8.827
REMARK SMILES O=C1C[C@H](c2cn[nH]c2C(=O)OCCOC(=O)c2ccc(-c3c4nc(c(-c5c(F)c(F)c(F)c(F)c5F)c5ccc([nH]5)c(-c5c(F)c(F)c(F)c(F)c5F)c5nc(c(-c6c(F)c(F)c(F)c(F)c6F)c6ccc3[nH]6)C=C5)C=C4)cc2)c2c(-c3cccs3)n[nH]c2N1
REMARK SMILES IDX 13 1 12 2 10 3 11 4 9 5 5 6 6 7 7 8 8 9 4 11 1 12 2 13 3 14
REMARK SMILES IDX 91 15 90 16 81 18 89 19 82 20 88 21 83 23 84 24 87 25 85 26
REMARK SMILES IDX 86 27 14 28 15 29 16 30 17 31 18 32 19 33 80 34 20 35 79 36
REMARK SMILES IDX 21 37 22 38 23 39 73 40 24 41 78 42 72 43 74 44 25 45 77 46
REMARK SMILES IDX 71 47 70 48 26 50 58 51 38 52 57 53 39 54 42 55 56 56 75 57
REMARK SMILES IDX 40 58 41 59 55 61 76 62 43 63 27 64 28 65 36 66 29 67 30 68
REMARK SMILES IDX 34 69 37 70 31 71 32 72 35 73 33 74 59 75 60 76 68 77 61 78
REMARK SMILES IDX 62 79 66 80 69 81 63 82 64 83 67 84 65 85 44 86 45 87 53 88
REMARK SMILES IDX 46 89 47 90 51 91 54 92 48 93 49 94 52 95 50 96
REMARK H PARENT 8 10 91 17 89 22 74 49 42 60
REMARK Flexibility Score: inf
ROOT
ATOM      1  C   UNL A   1      36.848  21.403  25.456  1.00  0.00     0.275 C 
ENDROOT
BRANCH   1   2
ATOM      2  O   UNL A   1      36.351  21.988  24.242  1.00  0.00    -0.457 OA
BRANCH   2   3
ATOM      3  C   UNL A   1      35.713  23.177  24.310  1.00  0.00     0.356 C 
ATOM      4  O   UNL A   1      36.091  24.127  24.961  1.00  0.00    -0.244 OA
BRANCH   3   5
ATOM      5  C   UNL A   1      34.538  23.191  23.464  1.00  0.00     0.147 A 
ATOM      6  C   UNL A   1      33.256  22.637  23.438  1.00  0.00     0.013 A 
ATOM      7  C   UNL A   1      32.695  23.188  22.243  1.00  0.00     0.140 A 
ATOM      8  N   UNL A   1      33.533  23.964  21.565  1.00  0.00    -0.183 NA
ATOM      9  N   UNL A   1      34.641  23.929  22.309  1.00  0.00    -0.271 N 
ATOM     10  H   UNL A   1      35.468  24.396  22.049  1.00  0.00     0.190 HD
BRANCH   6  11
ATOM     11  C   UNL A   1      32.427  21.715  24.325  1.00  0.00     0.069 C 
ATOM     12  O   UNL A   1      33.966  18.326  24.169  1.00  0.00    -0.275 OA
ATOM     13  C   UNL A   1      33.490  19.350  24.661  1.00  0.00     0.226 C 
ATOM     14  C   UNL A   1      32.519  20.233  23.881  1.00  0.00     0.114 C 
ATOM     15  N   UNL A   1      33.692  19.630  25.991  1.00  0.00    -0.311 N 
ATOM     16  C   UNL A   1      33.208  20.798  26.509  1.00  0.00     0.132 A 
ATOM     17  H   UNL A   1      34.179  18.997  26.565  1.00  0.00     0.171 HD
ATOM     18  C   UNL A   1      32.606  21.802  25.796  1.00  0.00     0.031 A 
ATOM     19  N   UNL A   1      33.305  21.227  27.795  1.00  0.00    -0.262 N 
ATOM     20  C   UNL A   1      32.384  22.830  26.748  1.00  0.00     0.108 A 
ATOM     21  N   UNL A   1      32.858  22.489  27.962  1.00  0.00    -0.173 NA
ATOM     22  H   UNL A   1      33.664  20.675  28.527  1.00  0.00     0.192 HD
BRANCH  20  23
ATOM     23  C   UNL A   1      31.923  24.215  26.414  1.00  0.00     0.055 A 
ATOM     24  C   UNL A   1      32.781  25.259  26.133  1.00  0.00     0.022 A 
ATOM     25  S   UNL A   1      30.291  24.654  26.197  1.00  0.00    -0.142 S 
ATOM     26  C   UNL A   1      32.087  26.404  25.644  1.00  0.00     0.012 A 
ATOM     27  C   UNL A   1      30.721  26.231  25.690  1.00  0.00     0.065 A 
ENDBRANCH  20  23
ENDBRANCH   6  11
ENDBRANCH   3   5
ENDBRANCH   2   3
ENDBRANCH   1   2
BRANCH   1  28
ATOM     28  C   UNL A   1      38.360  21.447  25.411  1.00  0.00     0.275 C 
BRANCH  28  29
ATOM     29  O   UNL A   1      38.781  22.618  26.089  1.00  0.00    -0.458 OA
BRANCH  29  30
ATOM     30  C   UNL A   1      39.844  22.520  26.912  1.00  0.00     0.338 C 
ATOM     31  O   UNL A   1      40.282  21.528  27.465  1.00  0.00    -0.246 OA
BRANCH  30  32
ATOM     32  C   UNL A   1      40.315  23.885  27.141  1.00  0.00     0.060 A 
ATOM     33  C   UNL A   1      41.401  24.084  27.995  1.00  0.00     0.016 A 
ATOM     34  C   UNL A   1      39.531  24.952  26.667  1.00  0.00     0.016 A 
ATOM     35  C   UNL A   1      41.596  25.348  28.507  1.00  0.00     0.010 A 
ATOM     36  C   UNL A   1      39.710  26.197  27.192  1.00  0.00     0.010 A 
ATOM     37  C   UNL A   1      40.693  26.358  28.158  1.00  0.00    -0.014 A 
BRANCH  37  38
ATOM     38  C   UNL A   1      40.823  27.654  28.768  1.00  0.00     0.031 A 
ATOM     39  C   UNL A   1      41.951  28.442  28.236  1.00  0.00     0.074 A 
ATOM     40  C   UNL A   1      39.895  28.137  29.611  1.00  0.00     0.049 A 
ATOM     41  N   UNL A   1      43.018  28.803  28.863  1.00  0.00    -0.248 NA
ATOM     42  C   UNL A   1      41.963  28.736  26.794  1.00  0.00     0.031 C 
ATOM     43  C   UNL A   1      38.578  27.583  29.938  1.00  0.00     0.029 A 
ATOM     44  N   UNL A   1      39.913  29.312  30.284  1.00  0.00    -0.354 N 
ATOM     45  C   UNL A   1      43.763  29.528  27.942  1.00  0.00     0.074 A 
ATOM     46  C   UNL A   1      43.159  29.308  26.654  1.00  0.00     0.031 C 
ATOM     47  C   UNL A   1      37.848  28.528  30.577  1.00  0.00     0.029 A 
ATOM     48  C   UNL A   1      38.693  29.688  30.817  1.00  0.00     0.049 A 
ATOM     49  H   UNL A   1      40.729  29.855  30.387  1.00  0.00     0.167 HD
ATOM     50  C   UNL A   1      44.671  30.450  28.354  1.00  0.00     0.037 A 
ATOM     51  C   UNL A   1      38.405  30.902  31.343  1.00  0.00     0.037 A 
ATOM     52  C   UNL A   1      45.023  30.261  29.738  1.00  0.00     0.049 A 
ATOM     53  C   UNL A   1      39.698  31.561  31.671  1.00  0.00     0.074 A 
ATOM     54  C   UNL A   1      45.600  29.228  30.451  1.00  0.00     0.029 A 
ATOM     55  N   UNL A   1      44.420  31.069  30.670  1.00  0.00    -0.354 N 
ATOM     56  N   UNL A   1      40.503  31.157  32.615  1.00  0.00    -0.248 NA
ATOM     57  C   UNL A   1      40.312  32.400  30.651  1.00  0.00     0.031 C 
ATOM     58  C   UNL A   1      44.917  29.215  31.704  1.00  0.00     0.029 A 
ATOM     59  C   UNL A   1      44.002  30.268  31.704  1.00  0.00     0.049 A 
ATOM     60  H   UNL A   1      44.307  32.045  30.609  1.00  0.00     0.167 HD
ATOM     61  C   UNL A   1      41.778  31.322  32.091  1.00  0.00     0.074 A 
ATOM     62  C   UNL A   1      41.601  32.183  30.925  1.00  0.00     0.031 C 
ATOM     63  C   UNL A   1      42.808  30.515  32.481  1.00  0.00     0.037 A 
BRANCH  50  64
ATOM     64  C   UNL A   1      44.948  31.727  27.612  1.00  0.00     0.064 A 
ATOM     65  C   UNL A   1      46.196  31.904  26.991  1.00  0.00     0.173 A 
ATOM     66  C   UNL A   1      44.152  32.889  27.735  1.00  0.00     0.173 A 
ATOM     67  F   UNL A   1      47.041  30.872  26.853  1.00  0.00    -0.203 F 
ATOM     68  C   UNL A   1      46.640  33.163  26.580  1.00  0.00     0.198 A 
ATOM     69  C   UNL A   1      44.573  34.130  27.271  1.00  0.00     0.198 A 
ATOM     70  F   UNL A   1      42.997  32.893  28.411  1.00  0.00    -0.203 F 
ATOM     71  F   UNL A   1      47.884  33.307  26.107  1.00  0.00    -0.200 F 
ATOM     72  C   UNL A   1      45.829  34.275  26.722  1.00  0.00     0.200 A 
ATOM     73  F   UNL A   1      43.780  35.199  27.440  1.00  0.00    -0.200 F 
ATOM     74  F   UNL A   1      46.273  35.491  26.382  1.00  0.00    -0.200 F 
ENDBRANCH  50  64
BRANCH  51  75
ATOM     75  C   UNL A   1      37.126  31.645  31.277  1.00  0.00     0.064 A 
ATOM     76  C   UNL A   1      36.374  31.883  32.437  1.00  0.00     0.173 A 
ATOM     77  C   UNL A   1      36.756  32.372  30.129  1.00  0.00     0.173 A 
ATOM     78  F   UNL A   1      36.688  31.261  33.583  1.00  0.00    -0.203 F 
ATOM     79  C   UNL A   1      35.333  32.817  32.457  1.00  0.00     0.198 A 
ATOM     80  C   UNL A   1      35.712  33.298  30.146  1.00  0.00     0.198 A 
ATOM     81  F   UNL A   1      37.461  32.275  28.992  1.00  0.00    -0.203 F 
ATOM     82  F   UNL A   1      34.681  33.067  33.601  1.00  0.00    -0.200 F 
ATOM     83  C   UNL A   1      35.010  33.531  31.315  1.00  0.00     0.200 A 
ATOM     84  F   UNL A   1      35.434  34.007  29.044  1.00  0.00    -0.200 F 
ATOM     85  F   UNL A   1      34.058  34.472  31.349  1.00  0.00    -0.200 F 
ENDBRANCH  51  75
BRANCH  63  86
ATOM     86  C   UNL A   1      42.587  29.639  33.684  1.00  0.00     0.064 A 
ATOM     87  C   UNL A   1      42.008  28.358  33.632  1.00  0.00     0.173 A 
ATOM     88  C   UNL A   1      43.100  30.062  34.917  1.00  0.00     0.173 A 
ATOM     89  F   UNL A   1      41.590  27.837  32.473  1.00  0.00    -0.203 F 
ATOM     90  C   UNL A   1      41.900  27.565  34.773  1.00  0.00     0.198 A 
ATOM     91  C   UNL A   1      43.028  29.252  36.047  1.00  0.00     0.198 A 
ATOM     92  F   UNL A   1      43.716  31.251  35.016  1.00  0.00    -0.203 F 
ATOM     93  F   UNL A   1      41.325  26.356  34.700  1.00  0.00    -0.200 F 
ATOM     94  C   UNL A   1      42.416  28.010  35.979  1.00  0.00     0.200 A 
ATOM     95  F   UNL A   1      43.572  29.667  37.199  1.00  0.00    -0.200 F 
ATOM     96  F   UNL A   1      42.347  27.233  37.068  1.00  0.00    -0.200 F 
ENDBRANCH  63  86
ENDBRANCH  37  38
ENDBRANCH  30  32
ENDBRANCH  29  30
ENDBRANCH  28  29
ENDBRANCH   1  28
TORSDOF 13
ENDMDL
