MODEL 1
REMARK VINA RESULT:     -12.2      0.000      0.000
REMARK SMILES CCn1c(=O)n(CC)c2cc(C(=O)OCCOC(=O)c3ccc(-c4c5nc(c(-c6c(F)c(F)c(F)c(F)c6F)c6ccc([nH]6)c(-c6c(F)c(F)c(F)c(F)c6F)c6nc(c(-c7c(F)c(F)c(F)c(F)c7F)c7ccc4[nH]7)C=C6)C=C5)cc3)ccc21
REMARK SMILES IDX 16 1 15 2 14 3 12 4 13 5 11 6 3 7 4 8 85 9 5 10 6 11 9 12
REMARK SMILES IDX 84 13 10 14 83 15 2 16 1 17 7 18 8 19 17 20 18 21 19 22
REMARK SMILES IDX 20 23 21 24 82 25 22 26 81 27 23 28 24 29 25 30 75 31 26 32
REMARK SMILES IDX 80 33 74 34 76 35 27 36 79 37 73 38 72 39 28 41 60 42 40 43
REMARK SMILES IDX 59 44 41 45 44 46 58 47 77 48 42 49 43 50 57 52 78 53 45 54
REMARK SMILES IDX 29 55 30 56 38 57 31 58 32 59 36 60 39 61 33 62 34 63 37 64
REMARK SMILES IDX 35 65 61 66 62 67 70 68 63 69 64 70 68 71 71 72 65 73 66 74
REMARK SMILES IDX 69 75 67 76 46 77 47 78 55 79 48 80 49 81 53 82 56 83 50 84
REMARK SMILES IDX 51 85 54 86 52 87
REMARK H PARENT 76 40 44 51
REMARK Flexibility Score: inf
ROOT
ATOM      1  C   UNL A   1      41.596  21.325  26.131  1.00  0.00     0.275 C 
ENDROOT
BRANCH   1   2
ATOM      2  C   UNL A   1      40.139  21.191  26.602  1.00  0.00     0.275 C 
BRANCH   2   3
ATOM      3  O   UNL A   1      39.201  21.905  25.743  1.00  0.00    -0.458 OA
BRANCH   3   4
ATOM      4  C   UNL A   1      38.119  21.190  25.337  1.00  0.00     0.338 C 
ATOM      5  O   UNL A   1      38.164  20.012  25.023  1.00  0.00    -0.246 OA
BRANCH   4   6
ATOM      6  C   UNL A   1      36.841  21.970  25.378  1.00  0.00     0.062 A 
ATOM      7  N   UNL A   1      33.049  23.745  25.422  1.00  0.00    -0.292 N 
ATOM      8  C   UNL A   1      32.231  22.598  25.376  1.00  0.00     0.329 A 
ATOM      9  C   UNL A   1      34.399  23.347  25.463  1.00  0.00     0.069 A 
ATOM     10  O   UNL A   1      31.008  22.565  25.382  1.00  0.00    -0.248 OA
ATOM     11  N   UNL A   1      33.092  21.499  25.284  1.00  0.00    -0.292 N 
ATOM     12  C   UNL A   1      34.421  21.968  25.278  1.00  0.00     0.070 A 
ATOM     13  C   UNL A   1      35.586  24.050  25.625  1.00  0.00     0.029 A 
ATOM     14  C   UNL A   1      35.626  21.320  25.102  1.00  0.00     0.044 A 
ATOM     15  C   UNL A   1      36.811  23.346  25.633  1.00  0.00     0.018 A 
BRANCH   7  16
ATOM     16  C   UNL A   1      32.436  25.027  25.255  1.00  0.00     0.124 C 
ATOM     17  C   UNL A   1      32.030  25.784  26.495  1.00  0.00     0.028 C 
ENDBRANCH   7  16
BRANCH  11  18
ATOM     18  C   UNL A   1      32.570  20.166  25.217  1.00  0.00     0.124 C 
ATOM     19  C   UNL A   1      32.536  19.646  23.799  1.00  0.00     0.028 C 
ENDBRANCH  11  18
ENDBRANCH   4   6
ENDBRANCH   3   4
ENDBRANCH   2   3
ENDBRANCH   1   2
BRANCH   1  20
ATOM     20  O   UNL A   1      42.208  22.426  26.822  1.00  0.00    -0.458 OA
BRANCH  20  21
ATOM     21  C   UNL A   1      42.517  23.502  26.063  1.00  0.00     0.338 C 
ATOM     22  O   UNL A   1      42.954  23.509  24.928  1.00  0.00    -0.246 OA
BRANCH  21  23
ATOM     23  C   UNL A   1      41.799  24.623  26.700  1.00  0.00     0.060 A 
ATOM     24  C   UNL A   1      41.082  25.591  25.978  1.00  0.00     0.016 A 
ATOM     25  C   UNL A   1      42.122  24.840  28.024  1.00  0.00     0.016 A 
ATOM     26  C   UNL A   1      40.867  26.866  26.529  1.00  0.00     0.010 A 
ATOM     27  C   UNL A   1      41.872  26.093  28.550  1.00  0.00     0.010 A 
ATOM     28  C   UNL A   1      41.363  27.163  27.797  1.00  0.00    -0.014 A 
BRANCH  28  29
ATOM     29  C   UNL A   1      41.202  28.490  28.455  1.00  0.00     0.031 A 
ATOM     30  C   UNL A   1      42.289  29.456  28.083  1.00  0.00     0.074 A 
ATOM     31  C   UNL A   1      40.108  28.963  29.138  1.00  0.00     0.049 A 
ATOM     32  N   UNL A   1      42.887  30.275  28.882  1.00  0.00    -0.248 NA
ATOM     33  C   UNL A   1      42.794  29.542  26.694  1.00  0.00     0.031 C 
ATOM     34  C   UNL A   1      38.827  28.293  29.383  1.00  0.00     0.029 A 
ATOM     35  N   UNL A   1      39.842  30.217  29.677  1.00  0.00    -0.354 N 
ATOM     36  C   UNL A   1      43.705  31.072  28.088  1.00  0.00     0.074 A 
ATOM     37  C   UNL A   1      43.627  30.578  26.749  1.00  0.00     0.031 C 
ATOM     38  C   UNL A   1      37.869  29.171  29.769  1.00  0.00     0.029 A 
ATOM     39  C   UNL A   1      38.496  30.452  30.029  1.00  0.00     0.049 A 
ATOM     40  H   UNL A   1      40.544  30.895  29.805  1.00  0.00     0.167 HD
ATOM     41  C   UNL A   1      44.260  32.203  28.580  1.00  0.00     0.037 A 
ATOM     42  C   UNL A   1      37.920  31.563  30.576  1.00  0.00     0.037 A 
ATOM     43  C   UNL A   1      44.340  32.160  30.010  1.00  0.00     0.049 A 
ATOM     44  C   UNL A   1      38.999  32.312  31.237  1.00  0.00     0.074 A 
ATOM     45  C   UNL A   1      45.179  31.549  30.914  1.00  0.00     0.029 A 
ATOM     46  N   UNL A   1      43.183  32.465  30.663  1.00  0.00    -0.354 N 
ATOM     47  N   UNL A   1      39.575  31.921  32.334  1.00  0.00    -0.248 NA
ATOM     48  C   UNL A   1      39.567  33.490  30.596  1.00  0.00     0.031 C 
ATOM     49  C   UNL A   1      44.428  31.376  32.112  1.00  0.00     0.029 A 
ATOM     50  C   UNL A   1      43.165  31.921  31.924  1.00  0.00     0.049 A 
ATOM     51  H   UNL A   1      42.454  33.006  30.281  1.00  0.00     0.167 HD
ATOM     52  C   UNL A   1      40.814  32.498  32.257  1.00  0.00     0.074 A 
ATOM     53  C   UNL A   1      40.679  33.607  31.323  1.00  0.00     0.031 C 
ATOM     54  C   UNL A   1      41.912  31.787  32.623  1.00  0.00     0.037 A 
BRANCH  41  55
ATOM     55  C   UNL A   1      44.371  33.478  27.799  1.00  0.00     0.064 A 
ATOM     56  C   UNL A   1      45.584  33.815  27.178  1.00  0.00     0.173 A 
ATOM     57  C   UNL A   1      43.420  34.515  27.909  1.00  0.00     0.173 A 
ATOM     58  F   UNL A   1      46.559  32.904  27.052  1.00  0.00    -0.203 F 
ATOM     59  C   UNL A   1      45.842  35.116  26.735  1.00  0.00     0.198 A 
ATOM     60  C   UNL A   1      43.669  35.804  27.443  1.00  0.00     0.198 A 
ATOM     61  F   UNL A   1      42.262  34.332  28.555  1.00  0.00    -0.203 F 
ATOM     62  F   UNL A   1      47.042  35.417  26.220  1.00  0.00    -0.200 F 
ATOM     63  C   UNL A   1      44.889  36.111  26.875  1.00  0.00     0.200 A 
ATOM     64  F   UNL A   1      42.745  36.761  27.612  1.00  0.00    -0.200 F 
ATOM     65  F   UNL A   1      45.158  37.368  26.500  1.00  0.00    -0.200 F 
ENDBRANCH  41  55
BRANCH  42  66
ATOM     66  C   UNL A   1      36.543  32.136  30.696  1.00  0.00     0.064 A 
ATOM     67  C   UNL A   1      35.874  32.146  31.946  1.00  0.00     0.173 A 
ATOM     68  C   UNL A   1      36.027  33.002  29.721  1.00  0.00     0.173 A 
ATOM     69  F   UNL A   1      36.278  31.345  32.942  1.00  0.00    -0.203 F 
ATOM     70  C   UNL A   1      34.838  33.038  32.235  1.00  0.00     0.198 A 
ATOM     71  C   UNL A   1      34.976  33.888  30.009  1.00  0.00     0.198 A 
ATOM     72  F   UNL A   1      36.599  33.075  28.512  1.00  0.00    -0.203 F 
ATOM     73  F   UNL A   1      34.317  33.083  33.470  1.00  0.00    -0.200 F 
ATOM     74  C   UNL A   1      34.406  33.929  31.272  1.00  0.00     0.200 A 
ATOM     75  F   UNL A   1      34.565  34.761  29.077  1.00  0.00    -0.200 F 
ATOM     76  F   UNL A   1      33.475  34.848  31.572  1.00  0.00    -0.200 F 
ENDBRANCH  42  66
BRANCH  54  77
ATOM     77  C   UNL A   1      41.741  30.711  33.652  1.00  0.00     0.064 A 
ATOM     78  C   UNL A   1      41.439  29.364  33.381  1.00  0.00     0.173 A 
ATOM     79  C   UNL A   1      41.941  31.067  34.992  1.00  0.00     0.173 A 
ATOM     80  F   UNL A   1      41.290  28.922  32.127  1.00  0.00    -0.203 F 
ATOM     81  C   UNL A   1      41.317  28.431  34.412  1.00  0.00     0.198 A 
ATOM     82  C   UNL A   1      41.859  30.126  36.013  1.00  0.00     0.198 A 
ATOM     83  F   UNL A   1      42.246  32.334  35.312  1.00  0.00    -0.203 F 
ATOM     84  F   UNL A   1      41.006  27.156  34.132  1.00  0.00    -0.200 F 
ATOM     85  C   UNL A   1      41.539  28.811  35.725  1.00  0.00     0.200 A 
ATOM     86  F   UNL A   1      42.108  30.495  37.277  1.00  0.00    -0.200 F 
ATOM     87  F   UNL A   1      41.462  27.906  36.712  1.00  0.00    -0.200 F 
ENDBRANCH  54  77
ENDBRANCH  28  29
ENDBRANCH  21  23
ENDBRANCH  20  21
ENDBRANCH   1  20
TORSDOF 13
ENDMDL
MODEL 2
REMARK VINA RESULT:     -12.0      0.781      1.626
REMARK SMILES CCn1c(=O)n(CC)c2cc(C(=O)OCCOC(=O)c3ccc(-c4c5nc(c(-c6c(F)c(F)c(F)c(F)c6F)c6ccc([nH]6)c(-c6c(F)c(F)c(F)c(F)c6F)c6nc(c(-c7c(F)c(F)c(F)c(F)c7F)c7ccc4[nH]7)C=C6)C=C5)cc3)ccc21
REMARK SMILES IDX 16 1 15 2 14 3 12 4 13 5 11 6 3 7 4 8 85 9 5 10 6 11 9 12
REMARK SMILES IDX 84 13 10 14 83 15 2 16 1 17 7 18 8 19 17 20 18 21 19 22
REMARK SMILES IDX 20 23 21 24 82 25 22 26 81 27 23 28 24 29 25 30 75 31 26 32
REMARK SMILES IDX 80 33 74 34 76 35 27 36 79 37 73 38 72 39 28 41 60 42 40 43
REMARK SMILES IDX 59 44 41 45 44 46 58 47 77 48 42 49 43 50 57 52 78 53 45 54
REMARK SMILES IDX 29 55 30 56 38 57 31 58 32 59 36 60 39 61 33 62 34 63 37 64
REMARK SMILES IDX 35 65 61 66 62 67 70 68 63 69 64 70 68 71 71 72 65 73 66 74
REMARK SMILES IDX 69 75 67 76 46 77 47 78 55 79 48 80 49 81 53 82 56 83 50 84
REMARK SMILES IDX 51 85 54 86 52 87
REMARK H PARENT 76 40 44 51
REMARK Flexibility Score: inf
ROOT
ATOM      1  C   UNL A   1      41.816  21.818  25.860  1.00  0.00     0.275 C 
ENDROOT
BRANCH   1   2
ATOM      2  C   UNL A   1      40.524  21.653  26.676  1.00  0.00     0.275 C 
BRANCH   2   3
ATOM      3  O   UNL A   1      39.322  21.762  25.858  1.00  0.00    -0.458 OA
BRANCH   3   4
ATOM      4  C   UNL A   1      38.470  22.765  26.200  1.00  0.00     0.338 C 
ATOM      5  O   UNL A   1      38.796  23.733  26.866  1.00  0.00    -0.246 OA
BRANCH   4   6
ATOM      6  C   UNL A   1      37.098  22.604  25.620  1.00  0.00     0.062 A 
ATOM      7  N   UNL A   1      33.210  22.613  24.068  1.00  0.00    -0.292 N 
ATOM      8  C   UNL A   1      32.942  23.998  24.063  1.00  0.00     0.329 A 
ATOM      9  C   UNL A   1      34.524  22.401  24.526  1.00  0.00     0.069 A 
ATOM     10  O   UNL A   1      31.918  24.548  23.680  1.00  0.00    -0.248 OA
ATOM     11  N   UNL A   1      34.064  24.622  24.618  1.00  0.00    -0.292 N 
ATOM     12  C   UNL A   1      35.009  23.632  24.955  1.00  0.00     0.070 A 
ATOM     13  C   UNL A   1      35.320  21.265  24.619  1.00  0.00     0.029 A 
ATOM     14  C   UNL A   1      36.218  23.700  25.615  1.00  0.00     0.044 A 
ATOM     15  C   UNL A   1      36.634  21.381  25.123  1.00  0.00     0.018 A 
BRANCH   7  16
ATOM     16  C   UNL A   1      32.135  21.709  23.798  1.00  0.00     0.124 C 
ATOM     17  C   UNL A   1      32.084  21.054  22.441  1.00  0.00     0.028 C 
ENDBRANCH   7  16
BRANCH  11  18
ATOM     18  C   UNL A   1      34.111  26.048  24.758  1.00  0.00     0.124 C 
ATOM     19  C   UNL A   1      33.454  26.508  26.038  1.00  0.00     0.028 C 
ENDBRANCH  11  18
ENDBRANCH   4   6
ENDBRANCH   3   4
ENDBRANCH   2   3
ENDBRANCH   1   2
BRANCH   1  20
ATOM     20  O   UNL A   1      42.681  22.740  26.541  1.00  0.00    -0.458 OA
BRANCH  20  21
ATOM     21  C   UNL A   1      42.980  23.877  25.869  1.00  0.00     0.338 C 
ATOM     22  O   UNL A   1      43.436  23.976  24.746  1.00  0.00    -0.246 OA
BRANCH  21  23
ATOM     23  C   UNL A   1      42.228  24.932  26.575  1.00  0.00     0.060 A 
ATOM     24  C   UNL A   1      41.335  25.805  25.933  1.00  0.00     0.016 A 
ATOM     25  C   UNL A   1      42.679  25.213  27.849  1.00  0.00     0.016 A 
ATOM     26  C   UNL A   1      41.054  27.064  26.491  1.00  0.00     0.010 A 
ATOM     27  C   UNL A   1      42.362  26.445  28.387  1.00  0.00     0.010 A 
ATOM     28  C   UNL A   1      41.660  27.440  27.688  1.00  0.00    -0.014 A 
BRANCH  28  29
ATOM     29  C   UNL A   1      41.440  28.758  28.345  1.00  0.00     0.031 A 
ATOM     30  C   UNL A   1      42.519  29.751  28.027  1.00  0.00     0.074 A 
ATOM     31  C   UNL A   1      40.305  29.201  28.981  1.00  0.00     0.049 A 
ATOM     32  N   UNL A   1      43.062  30.578  28.857  1.00  0.00    -0.248 NA
ATOM     33  C   UNL A   1      43.083  29.858  26.663  1.00  0.00     0.031 C 
ATOM     34  C   UNL A   1      39.031  28.501  29.166  1.00  0.00     0.029 A 
ATOM     35  N   UNL A   1      39.987  30.445  29.516  1.00  0.00    -0.354 N 
ATOM     36  C   UNL A   1      43.895  31.399  28.105  1.00  0.00     0.074 A 
ATOM     37  C   UNL A   1      43.889  30.912  26.761  1.00  0.00     0.031 C 
ATOM     38  C   UNL A   1      38.037  29.354  29.513  1.00  0.00     0.029 A 
ATOM     39  C   UNL A   1      38.621  30.647  29.808  1.00  0.00     0.049 A 
ATOM     40  H   UNL A   1      40.667  31.138  29.678  1.00  0.00     0.167 HD
ATOM     41  C   UNL A   1      44.402  32.539  28.627  1.00  0.00     0.037 A 
ATOM     42  C   UNL A   1      37.997  31.741  30.335  1.00  0.00     0.037 A 
ATOM     43  C   UNL A   1      44.419  32.488  30.059  1.00  0.00     0.049 A 
ATOM     44  C   UNL A   1      39.027  32.510  31.048  1.00  0.00     0.074 A 
ATOM     45  C   UNL A   1      45.232  31.891  30.997  1.00  0.00     0.029 A 
ATOM     46  N   UNL A   1      43.227  32.763  30.662  1.00  0.00    -0.354 N 
ATOM     47  N   UNL A   1      39.563  32.125  32.167  1.00  0.00    -0.248 NA
ATOM     48  C   UNL A   1      39.596  33.705  30.439  1.00  0.00     0.031 C 
ATOM     49  C   UNL A   1      44.432  31.692  32.158  1.00  0.00     0.029 A 
ATOM     50  C   UNL A   1      43.167  32.210  31.917  1.00  0.00     0.049 A 
ATOM     51  H   UNL A   1      42.504  33.289  30.251  1.00  0.00     0.167 HD
ATOM     52  C   UNL A   1      40.790  32.731  32.148  1.00  0.00     0.074 A 
ATOM     53  C   UNL A   1      40.671  33.842  31.216  1.00  0.00     0.031 C 
ATOM     54  C   UNL A   1      41.887  32.042  32.559  1.00  0.00     0.037 A 
BRANCH  41  55
ATOM     55  C   UNL A   1      44.518  33.821  27.859  1.00  0.00     0.064 A 
ATOM     56  C   UNL A   1      45.767  34.231  27.365  1.00  0.00     0.173 A 
ATOM     57  C   UNL A   1      43.502  34.801  27.868  1.00  0.00     0.173 A 
ATOM     58  F   UNL A   1      46.801  33.378  27.342  1.00  0.00    -0.203 F 
ATOM     59  C   UNL A   1      45.993  35.546  26.948  1.00  0.00     0.198 A 
ATOM     60  C   UNL A   1      43.722  36.104  27.428  1.00  0.00     0.198 A 
ATOM     61  F   UNL A   1      42.296  34.549  28.393  1.00  0.00    -0.203 F 
ATOM     62  F   UNL A   1      47.220  35.919  26.559  1.00  0.00    -0.200 F 
ATOM     63  C   UNL A   1      44.973  36.483  26.988  1.00  0.00     0.200 A 
ATOM     64  F   UNL A   1      42.731  37.005  27.500  1.00  0.00    -0.200 F 
ATOM     65  F   UNL A   1      45.206  37.756  26.640  1.00  0.00    -0.200 F 
ENDBRANCH  41  55
BRANCH  42  66
ATOM     66  C   UNL A   1      36.602  32.281  30.396  1.00  0.00     0.064 A 
ATOM     67  C   UNL A   1      35.837  32.164  31.584  1.00  0.00     0.173 A 
ATOM     68  C   UNL A   1      36.146  33.228  29.468  1.00  0.00     0.173 A 
ATOM     69  F   UNL A   1      36.178  31.278  32.531  1.00  0.00    -0.203 F 
ATOM     70  C   UNL A   1      34.763  33.012  31.871  1.00  0.00     0.198 A 
ATOM     71  C   UNL A   1      35.058  34.069  29.752  1.00  0.00     0.198 A 
ATOM     72  F   UNL A   1      36.810  33.423  28.321  1.00  0.00    -0.203 F 
ATOM     73  F   UNL A   1      34.145  32.933  33.059  1.00  0.00    -0.200 F 
ATOM     74  C   UNL A   1      34.390  33.983  30.964  1.00  0.00     0.200 A 
ATOM     75  F   UNL A   1      34.703  35.020  28.875  1.00  0.00    -0.200 F 
ATOM     76  F   UNL A   1      33.419  34.857  31.272  1.00  0.00    -0.200 F 
ENDBRANCH  42  66
BRANCH  54  77
ATOM     77  C   UNL A   1      41.696  30.956  33.574  1.00  0.00     0.064 A 
ATOM     78  C   UNL A   1      41.437  29.605  33.282  1.00  0.00     0.173 A 
ATOM     79  C   UNL A   1      41.827  31.308  34.923  1.00  0.00     0.173 A 
ATOM     80  F   UNL A   1      41.354  29.168  32.020  1.00  0.00    -0.203 F 
ATOM     81  C   UNL A   1      41.291  28.663  34.301  1.00  0.00     0.198 A 
ATOM     82  C   UNL A   1      41.722  30.358  35.934  1.00  0.00     0.198 A 
ATOM     83  F   UNL A   1      42.089  32.579  35.263  1.00  0.00    -0.203 F 
ATOM     84  F   UNL A   1      41.022  27.382  34.000  1.00  0.00    -0.200 F 
ATOM     85  C   UNL A   1      41.445  29.038  35.625  1.00  0.00     0.200 A 
ATOM     86  F   UNL A   1      41.907  30.724  37.210  1.00  0.00    -0.200 F 
ATOM     87  F   UNL A   1      41.345  28.126  36.602  1.00  0.00    -0.200 F 
ENDBRANCH  54  77
ENDBRANCH  28  29
ENDBRANCH  21  23
ENDBRANCH  20  21
ENDBRANCH   1  20
TORSDOF 13
ENDMDL
MODEL 3
REMARK VINA RESULT:     -12.0      4.134      9.684
REMARK SMILES CCn1c(=O)n(CC)c2cc(C(=O)OCCOC(=O)c3ccc(-c4c5nc(c(-c6c(F)c(F)c(F)c(F)c6F)c6ccc([nH]6)c(-c6c(F)c(F)c(F)c(F)c6F)c6nc(c(-c7c(F)c(F)c(F)c(F)c7F)c7ccc4[nH]7)C=C6)C=C5)cc3)ccc21
REMARK SMILES IDX 16 1 15 2 14 3 12 4 13 5 11 6 3 7 4 8 85 9 5 10 6 11 9 12
REMARK SMILES IDX 84 13 10 14 83 15 2 16 1 17 7 18 8 19 17 20 18 21 19 22
REMARK SMILES IDX 20 23 21 24 82 25 22 26 81 27 23 28 24 29 25 30 75 31 26 32
REMARK SMILES IDX 80 33 74 34 76 35 27 36 79 37 73 38 72 39 28 41 60 42 40 43
REMARK SMILES IDX 59 44 41 45 44 46 58 47 77 48 42 49 43 50 57 52 78 53 45 54
REMARK SMILES IDX 29 55 30 56 38 57 31 58 32 59 36 60 39 61 33 62 34 63 37 64
REMARK SMILES IDX 35 65 61 66 62 67 70 68 63 69 64 70 68 71 71 72 65 73 66 74
REMARK SMILES IDX 69 75 67 76 46 77 47 78 55 79 48 80 49 81 53 82 56 83 50 84
REMARK SMILES IDX 51 85 54 86 52 87
REMARK H PARENT 76 40 44 51
REMARK Flexibility Score: inf
ROOT
ATOM      1  C   UNL A   1      34.304  31.497  27.672  1.00  0.00     0.275 C 
ENDROOT
BRANCH   1   2
ATOM      2  C   UNL A   1      33.331  30.374  27.279  1.00  0.00     0.275 C 
BRANCH   2   3
ATOM      3  O   UNL A   1      34.000  29.250  26.633  1.00  0.00    -0.458 OA
BRANCH   3   4
ATOM      4  C   UNL A   1      33.377  28.752  25.533  1.00  0.00     0.338 C 
ATOM      5  O   UNL A   1      33.316  29.339  24.465  1.00  0.00    -0.246 OA
BRANCH   4   6
ATOM      6  C   UNL A   1      32.827  27.373  25.732  1.00  0.00     0.062 A 
ATOM      7  N   UNL A   1      31.729  23.367  26.254  1.00  0.00    -0.292 N 
ATOM      8  C   UNL A   1      33.000  22.762  26.322  1.00  0.00     0.329 A 
ATOM      9  C   UNL A   1      31.888  24.759  26.122  1.00  0.00     0.069 A 
ATOM     10  O   UNL A   1      33.242  21.574  26.487  1.00  0.00    -0.248 OA
ATOM     11  N   UNL A   1      33.937  23.783  26.128  1.00  0.00    -0.292 N 
ATOM     12  C   UNL A   1      33.248  24.998  25.947  1.00  0.00     0.070 A 
ATOM     13  C   UNL A   1      30.987  25.818  26.125  1.00  0.00     0.029 A 
ATOM     14  C   UNL A   1      33.684  26.265  25.620  1.00  0.00     0.044 A 
ATOM     15  C   UNL A   1      31.470  27.137  25.979  1.00  0.00     0.018 A 
BRANCH   7  16
ATOM     16  C   UNL A   1      30.577  22.524  26.158  1.00  0.00     0.124 C 
ATOM     17  C   UNL A   1      29.521  22.645  27.229  1.00  0.00     0.028 C 
ENDBRANCH   7  16
BRANCH  11  18
ATOM     18  C   UNL A   1      35.342  23.496  26.139  1.00  0.00     0.124 C 
ATOM     19  C   UNL A   1      35.938  23.554  24.752  1.00  0.00     0.028 C 
ENDBRANCH  11  18
ENDBRANCH   4   6
ENDBRANCH   3   4
ENDBRANCH   2   3
ENDBRANCH   1   2
BRANCH   1  20
ATOM     20  O   UNL A   1      35.352  30.941  28.481  1.00  0.00    -0.458 OA
BRANCH  20  21
ATOM     21  C   UNL A   1      35.553  31.535  29.680  1.00  0.00     0.338 C 
ATOM     22  O   UNL A   1      34.747  32.159  30.343  1.00  0.00    -0.246 OA
BRANCH  21  23
ATOM     23  C   UNL A   1      36.771  30.893  30.212  1.00  0.00     0.060 A 
ATOM     24  C   UNL A   1      38.043  31.485  30.159  1.00  0.00     0.016 A 
ATOM     25  C   UNL A   1      36.641  29.548  30.493  1.00  0.00     0.016 A 
ATOM     26  C   UNL A   1      39.196  30.683  30.186  1.00  0.00     0.010 A 
ATOM     27  C   UNL A   1      37.794  28.788  30.545  1.00  0.00     0.010 A 
ATOM     28  C   UNL A   1      39.073  29.298  30.273  1.00  0.00    -0.014 A 
BRANCH  28  29
ATOM     29  C   UNL A   1      40.235  28.366  30.288  1.00  0.00     0.031 A 
ATOM     30  C   UNL A   1      40.830  28.205  31.657  1.00  0.00     0.074 A 
ATOM     31  C   UNL A   1      40.644  27.516  29.289  1.00  0.00     0.049 A 
ATOM     32  N   UNL A   1      42.089  28.152  31.939  1.00  0.00    -0.248 NA
ATOM     33  C   UNL A   1      39.971  28.098  32.857  1.00  0.00     0.031 C 
ATOM     34  C   UNL A   1      40.043  27.305  27.969  1.00  0.00     0.029 A 
ATOM     35  N   UNL A   1      41.640  26.545  29.269  1.00  0.00    -0.354 N 
ATOM     36  C   UNL A   1      42.175  27.849  33.293  1.00  0.00     0.074 A 
ATOM     37  C   UNL A   1      40.847  27.837  33.823  1.00  0.00     0.031 C 
ATOM     38  C   UNL A   1      40.484  26.158  27.397  1.00  0.00     0.029 A 
ATOM     39  C   UNL A   1      41.580  25.639  28.190  1.00  0.00     0.049 A 
ATOM     40  H   UNL A   1      42.338  26.494  29.961  1.00  0.00     0.167 HD
ATOM     41  C   UNL A   1      43.347  27.457  33.843  1.00  0.00     0.037 A 
ATOM     42  C   UNL A   1      42.400  24.590  27.888  1.00  0.00     0.037 A 
ATOM     43  C   UNL A   1      44.460  27.897  33.056  1.00  0.00     0.049 A 
ATOM     44  C   UNL A   1      43.678  24.846  28.568  1.00  0.00     0.074 A 
ATOM     45  C   UNL A   1      45.122  29.094  32.898  1.00  0.00     0.029 A 
ATOM     46  N   UNL A   1      44.736  27.128  31.964  1.00  0.00    -0.354 N 
ATOM     47  N   UNL A   1      44.516  25.766  28.196  1.00  0.00    -0.248 NA
ATOM     48  C   UNL A   1      44.001  24.142  29.803  1.00  0.00     0.031 C 
ATOM     49  C   UNL A   1      45.703  29.070  31.598  1.00  0.00     0.029 A 
ATOM     50  C   UNL A   1      45.418  27.844  31.011  1.00  0.00     0.049 A 
ATOM     51  H   UNL A   1      44.480  26.182  31.870  1.00  0.00     0.167 HD
ATOM     52  C   UNL A   1      45.184  26.065  29.352  1.00  0.00     0.074 A 
ATOM     53  C   UNL A   1      45.005  24.913  30.224  1.00  0.00     0.031 C 
ATOM     54  C   UNL A   1      45.463  27.360  29.655  1.00  0.00     0.037 A 
BRANCH  41  55
ATOM     55  C   UNL A   1      43.458  26.368  34.867  1.00  0.00     0.064 A 
ATOM     56  C   UNL A   1      43.647  26.695  36.219  1.00  0.00     0.173 A 
ATOM     57  C   UNL A   1      43.696  25.022  34.514  1.00  0.00     0.173 A 
ATOM     58  F   UNL A   1      43.471  27.954  36.645  1.00  0.00    -0.203 F 
ATOM     59  C   UNL A   1      44.086  25.745  37.147  1.00  0.00     0.198 A 
ATOM     60  C   UNL A   1      44.109  24.071  35.446  1.00  0.00     0.198 A 
ATOM     61  F   UNL A   1      43.629  24.614  33.241  1.00  0.00    -0.203 F 
ATOM     62  F   UNL A   1      44.332  26.115  38.411  1.00  0.00    -0.200 F 
ATOM     63  C   UNL A   1      44.324  24.437  36.758  1.00  0.00     0.200 A 
ATOM     64  F   UNL A   1      44.361  22.817  35.045  1.00  0.00    -0.200 F 
ATOM     65  F   UNL A   1      44.797  23.543  37.636  1.00  0.00    -0.200 F 
ENDBRANCH  41  55
BRANCH  42  66
ATOM     66  C   UNL A   1      42.330  23.351  27.051  1.00  0.00     0.064 A 
ATOM     67  C   UNL A   1      43.119  23.229  25.880  1.00  0.00     0.173 A 
ATOM     68  C   UNL A   1      41.809  22.154  27.562  1.00  0.00     0.173 A 
ATOM     69  F   UNL A   1      43.653  24.314  25.300  1.00  0.00    -0.203 F 
ATOM     70  C   UNL A   1      43.456  21.989  25.328  1.00  0.00     0.198 A 
ATOM     71  C   UNL A   1      42.137  20.910  26.999  1.00  0.00     0.198 A 
ATOM     72  F   UNL A   1      41.062  22.164  28.675  1.00  0.00    -0.203 F 
ATOM     73  F   UNL A   1      44.299  21.925  24.287  1.00  0.00    -0.200 F 
ATOM     74  C   UNL A   1      42.985  20.827  25.905  1.00  0.00     0.200 A 
ATOM     75  F   UNL A   1      41.688  19.781  27.566  1.00  0.00    -0.200 F 
ATOM     76  F   UNL A   1      43.378  19.633  25.435  1.00  0.00    -0.200 F 
ENDBRANCH  42  66
BRANCH  54  77
ATOM     77  C   UNL A   1      45.630  28.325  28.520  1.00  0.00     0.064 A 
ATOM     78  C   UNL A   1      44.631  29.183  28.025  1.00  0.00     0.173 A 
ATOM     79  C   UNL A   1      46.898  28.411  27.932  1.00  0.00     0.173 A 
ATOM     80  F   UNL A   1      43.407  29.211  28.565  1.00  0.00    -0.203 F 
ATOM     81  C   UNL A   1      44.891  30.061  26.973  1.00  0.00     0.198 A 
ATOM     82  C   UNL A   1      47.165  29.318  26.911  1.00  0.00     0.198 A 
ATOM     83  F   UNL A   1      47.897  27.629  28.372  1.00  0.00    -0.203 F 
ATOM     84  F   UNL A   1      43.916  30.855  26.502  1.00  0.00    -0.200 F 
ATOM     85  C   UNL A   1      46.161  30.136  26.425  1.00  0.00     0.200 A 
ATOM     86  F   UNL A   1      48.405  29.406  26.410  1.00  0.00    -0.200 F 
ATOM     87  F   UNL A   1      46.422  31.008  25.442  1.00  0.00    -0.200 F 
ENDBRANCH  54  77
ENDBRANCH  28  29
ENDBRANCH  21  23
ENDBRANCH  20  21
ENDBRANCH   1  20
TORSDOF 13
ENDMDL
