MODEL 1
REMARK VINA RESULT:     -11.6      0.000      0.000
REMARK SMILES CCC[C@](C)(C(=O)OCCOC(=O)c1ccc(-c2c3nc(c(-c4c(F)c(F)c(F)c(F)c4F)c4ccc([nH]4)c(-c4c(F)c(F)c(F)c(F)c4F)c4nc(c(-c5c(F)c(F)c(F)c(F)c5F)c5ccc2[nH]5)C=C4)C=C3)cc1)[C@@H]1CCO[C@]2(CCSC2)C1
REMARK SMILES IDX 9 1 8 2 6 3 7 4 4 5 5 6 3 7 2 8 1 9 77 10 78 11 86 12 79 13
REMARK SMILES IDX 81 14 80 15 82 16 85 17 83 18 84 19 10 20 11 21 12 22 13 23
REMARK SMILES IDX 14 24 15 25 76 26 16 27 75 28 17 29 18 30 19 31 69 32 20 33
REMARK SMILES IDX 74 34 68 35 70 36 21 37 73 38 67 39 66 40 22 42 54 43 34 44
REMARK SMILES IDX 53 45 35 46 38 47 52 48 71 49 36 50 37 51 51 53 72 54 39 55
REMARK SMILES IDX 23 56 24 57 32 58 25 59 26 60 30 61 33 62 27 63 28 64 31 65
REMARK SMILES IDX 29 66 55 67 56 68 64 69 57 70 58 71 62 72 65 73 59 74 60 75
REMARK SMILES IDX 63 76 61 77 40 78 41 79 49 80 42 81 43 82 47 83 50 84 44 85
REMARK SMILES IDX 45 86 48 87 46 88
REMARK H PARENT 70 41 38 52
REMARK Flexibility Score: inf
ROOT
ATOM      1  C   UNL A   1      31.364  29.056  24.457  1.00  0.00     0.274 C 
ENDROOT
BRANCH   1   2
ATOM      2  O   UNL A   1      31.282  27.637  24.222  1.00  0.00    -0.462 OA
BRANCH   2   3
ATOM      3  C   UNL A   1      32.342  27.004  23.652  1.00  0.00     0.312 C 
ATOM      4  O   UNL A   1      32.889  27.376  22.621  1.00  0.00    -0.252 OA
BRANCH   3   5
ATOM      5  C   UNL A   1      32.784  25.754  24.466  1.00  0.00     0.068 C 
ATOM      6  C   UNL A   1      33.929  26.190  25.434  1.00  0.00     0.024 C 
BRANCH   5   7
ATOM      7  C   UNL A   1      31.589  25.379  25.393  1.00  0.00     0.018 C 
BRANCH   7   8
ATOM      8  C   UNL A   1      31.757  24.422  26.576  1.00  0.00    -0.002 C 
ATOM      9  C   UNL A   1      30.789  23.249  26.500  1.00  0.00     0.004 C 
ENDBRANCH   7   8
ENDBRANCH   5   7
BRANCH   5  10
ATOM     10  C   UNL A   1      33.408  24.716  23.434  1.00  0.00     0.011 C 
ATOM     11  C   UNL A   1      32.517  23.626  22.807  1.00  0.00     0.033 C 
ATOM     12  C   UNL A   1      34.779  24.078  23.731  1.00  0.00     0.041 C 
ATOM     13  C   UNL A   1      32.829  22.205  23.274  1.00  0.00     0.161 C 
ATOM     14  C   UNL A   1      34.734  22.818  24.614  1.00  0.00     0.078 C 
ATOM     15  O   UNL A   1      33.454  22.183  24.547  1.00  0.00    -0.374 OA
ATOM     16  C   UNL A   1      34.997  23.098  26.101  1.00  0.00     0.047 C 
ATOM     17  C   UNL A   1      35.865  21.834  24.250  1.00  0.00     0.105 C 
ATOM     18  C   UNL A   1      36.449  23.499  26.272  1.00  0.00     0.072 C 
ATOM     19  S   UNL A   1      37.352  22.424  25.125  1.00  0.00    -0.159 SA
ENDBRANCH   5  10
ENDBRANCH   3   5
ENDBRANCH   2   3
ENDBRANCH   1   2
BRANCH   1  20
ATOM     20  C   UNL A   1      31.783  29.309  25.903  1.00  0.00     0.275 C 
BRANCH  20  21
ATOM     21  O   UNL A   1      33.049  29.990  25.910  1.00  0.00    -0.458 OA
BRANCH  21  22
ATOM     22  C   UNL A   1      33.219  30.925  26.865  1.00  0.00     0.338 C 
ATOM     23  O   UNL A   1      32.429  31.787  27.231  1.00  0.00    -0.246 OA
BRANCH  22  24
ATOM     24  C   UNL A   1      34.541  30.743  27.471  1.00  0.00     0.060 A 
ATOM     25  C   UNL A   1      35.016  29.451  27.687  1.00  0.00     0.016 A 
ATOM     26  C   UNL A   1      35.262  31.845  27.925  1.00  0.00     0.016 A 
ATOM     27  C   UNL A   1      36.161  29.250  28.450  1.00  0.00     0.010 A 
ATOM     28  C   UNL A   1      36.477  31.642  28.585  1.00  0.00     0.010 A 
ATOM     29  C   UNL A   1      36.926  30.341  28.881  1.00  0.00    -0.014 A 
BRANCH  29  30
ATOM     30  C   UNL A   1      38.185  30.139  29.650  1.00  0.00     0.031 A 
ATOM     31  C   UNL A   1      39.289  29.303  29.066  1.00  0.00     0.074 A 
ATOM     32  C   UNL A   1      38.339  30.679  30.875  1.00  0.00     0.049 A 
ATOM     33  N   UNL A   1      40.307  28.737  29.664  1.00  0.00    -0.248 NA
ATOM     34  C   UNL A   1      39.233  29.059  27.616  1.00  0.00     0.031 C 
ATOM     35  C   UNL A   1      37.391  31.578  31.537  1.00  0.00     0.029 A 
ATOM     36  N   UNL A   1      39.354  30.542  31.790  1.00  0.00    -0.354 N 
ATOM     37  C   UNL A   1      40.964  28.008  28.681  1.00  0.00     0.074 A 
ATOM     38  C   UNL A   1      40.247  28.222  27.442  1.00  0.00     0.031 C 
ATOM     39  C   UNL A   1      37.881  31.935  32.733  1.00  0.00     0.029 A 
ATOM     40  C   UNL A   1      39.116  31.199  32.974  1.00  0.00     0.049 A 
ATOM     41  H   UNL A   1      40.173  30.024  31.616  1.00  0.00     0.167 HD
ATOM     42  C   UNL A   1      42.056  27.218  28.815  1.00  0.00     0.037 A 
ATOM     43  C   UNL A   1      39.774  31.160  34.147  1.00  0.00     0.037 A 
ATOM     44  C   UNL A   1      42.792  27.064  30.043  1.00  0.00     0.049 A 
ATOM     45  C   UNL A   1      40.962  30.253  34.286  1.00  0.00     0.074 A 
ATOM     46  C   UNL A   1      43.901  26.276  30.295  1.00  0.00     0.029 A 
ATOM     47  N   UNL A   1      42.505  27.741  31.220  1.00  0.00    -0.354 N 
ATOM     48  N   UNL A   1      41.510  29.469  33.390  1.00  0.00    -0.248 NA
ATOM     49  C   UNL A   1      41.602  30.196  35.607  1.00  0.00     0.031 C 
ATOM     50  C   UNL A   1      44.272  26.459  31.632  1.00  0.00     0.029 A 
ATOM     51  C   UNL A   1      43.416  27.389  32.201  1.00  0.00     0.049 A 
ATOM     52  H   UNL A   1      41.762  28.377  31.340  1.00  0.00     0.167 HD
ATOM     53  C   UNL A   1      42.563  28.835  34.031  1.00  0.00     0.074 A 
ATOM     54  C   UNL A   1      42.586  29.334  35.391  1.00  0.00     0.031 C 
ATOM     55  C   UNL A   1      43.428  27.914  33.540  1.00  0.00     0.037 A 
BRANCH  42  56
ATOM     56  C   UNL A   1      42.491  26.420  27.622  1.00  0.00     0.064 A 
ATOM     57  C   UNL A   1      43.480  26.877  26.742  1.00  0.00     0.173 A 
ATOM     58  C   UNL A   1      41.929  25.157  27.381  1.00  0.00     0.173 A 
ATOM     59  F   UNL A   1      44.037  28.084  26.919  1.00  0.00    -0.203 F 
ATOM     60  C   UNL A   1      43.879  26.105  25.652  1.00  0.00     0.198 A 
ATOM     61  C   UNL A   1      42.346  24.377  26.306  1.00  0.00     0.198 A 
ATOM     62  F   UNL A   1      40.979  24.673  28.197  1.00  0.00    -0.203 F 
ATOM     63  F   UNL A   1      44.800  26.575  24.800  1.00  0.00    -0.200 F 
ATOM     64  C   UNL A   1      43.317  24.854  25.439  1.00  0.00     0.200 A 
ATOM     65  F   UNL A   1      41.808  23.165  26.109  1.00  0.00    -0.200 F 
ATOM     66  F   UNL A   1      43.706  24.110  24.394  1.00  0.00    -0.200 F 
ENDBRANCH  42  56
BRANCH  43  67
ATOM     67  C   UNL A   1      39.275  31.957  35.298  1.00  0.00     0.064 A 
ATOM     68  C   UNL A   1      39.573  33.321  35.410  1.00  0.00     0.173 A 
ATOM     69  C   UNL A   1      38.467  31.381  36.290  1.00  0.00     0.173 A 
ATOM     70  F   UNL A   1      40.363  33.911  34.501  1.00  0.00    -0.203 F 
ATOM     71  C   UNL A   1      39.082  34.078  36.472  1.00  0.00     0.198 A 
ATOM     72  C   UNL A   1      37.951  32.145  37.333  1.00  0.00     0.198 A 
ATOM     73  F   UNL A   1      38.153  30.078  36.227  1.00  0.00    -0.203 F 
ATOM     74  F   UNL A   1      39.406  35.374  36.574  1.00  0.00    -0.200 F 
ATOM     75  C   UNL A   1      38.263  33.492  37.426  1.00  0.00     0.200 A 
ATOM     76  F   UNL A   1      37.149  31.577  38.243  1.00  0.00    -0.200 F 
ATOM     77  F   UNL A   1      37.778  34.225  38.438  1.00  0.00    -0.200 F 
ENDBRANCH  43  67
BRANCH  55  78
ATOM     78  C   UNL A   1      44.498  27.423  34.465  1.00  0.00     0.064 A 
ATOM     79  C   UNL A   1      44.322  26.269  35.239  1.00  0.00     0.173 A 
ATOM     80  C   UNL A   1      45.729  28.091  34.537  1.00  0.00     0.173 A 
ATOM     81  F   UNL A   1      43.154  25.610  35.214  1.00  0.00    -0.203 F 
ATOM     82  C   UNL A   1      45.343  25.803  36.062  1.00  0.00     0.198 A 
ATOM     83  C   UNL A   1      46.753  27.611  35.346  1.00  0.00     0.198 A 
ATOM     84  F   UNL A   1      45.941  29.199  33.811  1.00  0.00    -0.203 F 
ATOM     85  F   UNL A   1      45.148  24.712  36.818  1.00  0.00    -0.200 F 
ATOM     86  C   UNL A   1      46.559  26.470  36.110  1.00  0.00     0.200 A 
ATOM     87  F   UNL A   1      47.930  28.252  35.386  1.00  0.00    -0.200 F 
ATOM     88  F   UNL A   1      47.543  26.015  36.899  1.00  0.00    -0.200 F 
ENDBRANCH  55  78
ENDBRANCH  29  30
ENDBRANCH  22  24
ENDBRANCH  21  22
ENDBRANCH  20  21
ENDBRANCH   1  20
TORSDOF 14
ENDMDL
MODEL 2
REMARK VINA RESULT:     -11.5      0.925      2.025
REMARK SMILES CCC[C@](C)(C(=O)OCCOC(=O)c1ccc(-c2c3nc(c(-c4c(F)c(F)c(F)c(F)c4F)c4ccc([nH]4)c(-c4c(F)c(F)c(F)c(F)c4F)c4nc(c(-c5c(F)c(F)c(F)c(F)c5F)c5ccc2[nH]5)C=C4)C=C3)cc1)[C@@H]1CCO[C@]2(CCSC2)C1
REMARK SMILES IDX 9 1 8 2 6 3 7 4 4 5 5 6 3 7 2 8 1 9 77 10 78 11 86 12 79 13
REMARK SMILES IDX 81 14 80 15 82 16 85 17 83 18 84 19 10 20 11 21 12 22 13 23
REMARK SMILES IDX 14 24 15 25 76 26 16 27 75 28 17 29 18 30 19 31 69 32 20 33
REMARK SMILES IDX 74 34 68 35 70 36 21 37 73 38 67 39 66 40 22 42 54 43 34 44
REMARK SMILES IDX 53 45 35 46 38 47 52 48 71 49 36 50 37 51 51 53 72 54 39 55
REMARK SMILES IDX 23 56 24 57 32 58 25 59 26 60 30 61 33 62 27 63 28 64 31 65
REMARK SMILES IDX 29 66 55 67 56 68 64 69 57 70 58 71 62 72 65 73 59 74 60 75
REMARK SMILES IDX 63 76 61 77 40 78 41 79 49 80 42 81 43 82 47 83 50 84 44 85
REMARK SMILES IDX 45 86 48 87 46 88
REMARK H PARENT 70 41 38 52
REMARK Flexibility Score: inf
ROOT
ATOM      1  C   UNL A   1      31.556  28.428  25.903  1.00  0.00     0.274 C 
ENDROOT
BRANCH   1   2
ATOM      2  O   UNL A   1      31.354  27.626  24.724  1.00  0.00    -0.462 OA
BRANCH   2   3
ATOM      3  C   UNL A   1      30.791  26.396  24.856  1.00  0.00     0.312 C 
ATOM      4  O   UNL A   1      29.706  26.192  25.387  1.00  0.00    -0.252 OA
BRANCH   3   5
ATOM      5  C   UNL A   1      31.684  25.275  24.250  1.00  0.00     0.068 C 
ATOM      6  C   UNL A   1      30.744  24.141  23.729  1.00  0.00     0.024 C 
BRANCH   5   7
ATOM      7  C   UNL A   1      32.345  25.873  22.972  1.00  0.00     0.018 C 
BRANCH   7   8
ATOM      8  C   UNL A   1      32.881  24.980  21.850  1.00  0.00    -0.002 C 
ATOM      9  C   UNL A   1      32.564  25.547  20.472  1.00  0.00     0.004 C 
ENDBRANCH   7   8
ENDBRANCH   5   7
BRANCH   5  10
ATOM     10  C   UNL A   1      32.546  24.664  25.438  1.00  0.00     0.011 C 
ATOM     11  C   UNL A   1      33.937  25.247  25.757  1.00  0.00     0.033 C 
ATOM     12  C   UNL A   1      32.638  23.135  25.605  1.00  0.00     0.041 C 
ATOM     13  C   UNL A   1      35.105  24.318  25.430  1.00  0.00     0.161 C 
ATOM     14  C   UNL A   1      33.735  22.452  24.768  1.00  0.00     0.078 C 
ATOM     15  O   UNL A   1      34.774  23.372  24.427  1.00  0.00    -0.374 OA
ATOM     16  C   UNL A   1      33.224  21.869  23.442  1.00  0.00     0.047 C 
ATOM     17  C   UNL A   1      34.302  21.210  25.487  1.00  0.00     0.105 C 
ATOM     18  C   UNL A   1      32.332  20.681  23.744  1.00  0.00     0.072 C 
ATOM     19  S   UNL A   1      33.146  19.846  25.132  1.00  0.00    -0.159 SA
ENDBRANCH   5  10
ENDBRANCH   3   5
ENDBRANCH   2   3
ENDBRANCH   1   2
BRANCH   1  20
ATOM     20  C   UNL A   1      31.756  29.887  25.497  1.00  0.00     0.275 C 
BRANCH  20  21
ATOM     21  O   UNL A   1      33.098  30.284  25.827  1.00  0.00    -0.458 OA
BRANCH  21  22
ATOM     22  C   UNL A   1      33.233  31.124  26.871  1.00  0.00     0.338 C 
ATOM     23  O   UNL A   1      32.420  31.931  27.305  1.00  0.00    -0.246 OA
BRANCH  22  24
ATOM     24  C   UNL A   1      34.548  30.908  27.482  1.00  0.00     0.060 A 
ATOM     25  C   UNL A   1      34.908  29.621  27.877  1.00  0.00     0.016 A 
ATOM     26  C   UNL A   1      35.378  31.991  27.762  1.00  0.00     0.016 A 
ATOM     27  C   UNL A   1      36.049  29.425  28.648  1.00  0.00     0.010 A 
ATOM     28  C   UNL A   1      36.585  31.771  28.432  1.00  0.00     0.010 A 
ATOM     29  C   UNL A   1      36.921  30.489  28.908  1.00  0.00    -0.014 A 
BRANCH  29  30
ATOM     30  C   UNL A   1      38.175  30.282  29.683  1.00  0.00     0.031 A 
ATOM     31  C   UNL A   1      39.281  29.446  29.102  1.00  0.00     0.074 A 
ATOM     32  C   UNL A   1      38.323  30.818  30.911  1.00  0.00     0.049 A 
ATOM     33  N   UNL A   1      40.294  28.876  29.704  1.00  0.00    -0.248 NA
ATOM     34  C   UNL A   1      39.232  29.207  27.651  1.00  0.00     0.031 C 
ATOM     35  C   UNL A   1      37.374  31.716  31.570  1.00  0.00     0.029 A 
ATOM     36  N   UNL A   1      39.333  30.676  31.831  1.00  0.00    -0.354 N 
ATOM     37  C   UNL A   1      40.955  28.149  28.723  1.00  0.00     0.074 A 
ATOM     38  C   UNL A   1      40.246  28.369  27.480  1.00  0.00     0.031 C 
ATOM     39  C   UNL A   1      37.857  32.068  32.770  1.00  0.00     0.029 A 
ATOM     40  C   UNL A   1      39.090  31.329  33.015  1.00  0.00     0.049 A 
ATOM     41  H   UNL A   1      40.152  30.157  31.660  1.00  0.00     0.167 HD
ATOM     42  C   UNL A   1      42.045  27.356  28.860  1.00  0.00     0.037 A 
ATOM     43  C   UNL A   1      39.741  31.285  34.193  1.00  0.00     0.037 A 
ATOM     44  C   UNL A   1      42.774  27.197  30.091  1.00  0.00     0.049 A 
ATOM     45  C   UNL A   1      40.926  30.375  34.335  1.00  0.00     0.074 A 
ATOM     46  C   UNL A   1      43.880  26.406  30.347  1.00  0.00     0.029 A 
ATOM     47  N   UNL A   1      42.481  27.871  31.269  1.00  0.00    -0.354 N 
ATOM     48  N   UNL A   1      41.477  29.593  33.439  1.00  0.00    -0.248 NA
ATOM     49  C   UNL A   1      41.558  30.313  35.659  1.00  0.00     0.031 C 
ATOM     50  C   UNL A   1      44.244  26.584  31.687  1.00  0.00     0.029 A 
ATOM     51  C   UNL A   1      43.386  27.513  32.254  1.00  0.00     0.049 A 
ATOM     52  H   UNL A   1      41.739  28.508  31.387  1.00  0.00     0.167 HD
ATOM     53  C   UNL A   1      42.526  28.955  34.084  1.00  0.00     0.074 A 
ATOM     54  C   UNL A   1      42.542  29.450  35.445  1.00  0.00     0.031 C 
ATOM     55  C   UNL A   1      43.391  28.035  33.595  1.00  0.00     0.037 A 
BRANCH  42  56
ATOM     56  C   UNL A   1      42.485  26.562  27.667  1.00  0.00     0.064 A 
ATOM     57  C   UNL A   1      43.478  27.021  26.792  1.00  0.00     0.173 A 
ATOM     58  C   UNL A   1      41.924  25.299  27.420  1.00  0.00     0.173 A 
ATOM     59  F   UNL A   1      44.034  28.227  26.975  1.00  0.00    -0.203 F 
ATOM     60  C   UNL A   1      43.881  26.251  25.702  1.00  0.00     0.198 A 
ATOM     61  C   UNL A   1      42.346  24.523  26.345  1.00  0.00     0.198 A 
ATOM     62  F   UNL A   1      40.971  24.813  28.230  1.00  0.00    -0.203 F 
ATOM     63  F   UNL A   1      44.806  26.724  24.855  1.00  0.00    -0.200 F 
ATOM     64  C   UNL A   1      43.321  25.001  25.483  1.00  0.00     0.200 A 
ATOM     65  F   UNL A   1      41.809  23.311  26.143  1.00  0.00    -0.200 F 
ATOM     66  F   UNL A   1      43.714  24.260  24.438  1.00  0.00    -0.200 F 
ENDBRANCH  42  56
BRANCH  43  67
ATOM     67  C   UNL A   1      39.237  32.080  35.343  1.00  0.00     0.064 A 
ATOM     68  C   UNL A   1      38.454  31.485  36.339  1.00  0.00     0.173 A 
ATOM     69  C   UNL A   1      39.551  33.441  35.483  1.00  0.00     0.173 A 
ATOM     70  F   UNL A   1      38.105  30.194  36.235  1.00  0.00    -0.203 F 
ATOM     71  C   UNL A   1      38.004  32.220  37.434  1.00  0.00     0.198 A 
ATOM     72  C   UNL A   1      39.127  34.167  36.593  1.00  0.00     0.198 A 
ATOM     73  F   UNL A   1      40.298  34.057  34.555  1.00  0.00    -0.203 F 
ATOM     74  F   UNL A   1      37.230  31.635  38.359  1.00  0.00    -0.200 F 
ATOM     75  C   UNL A   1      38.350  33.558  37.566  1.00  0.00     0.200 A 
ATOM     76  F   UNL A   1      39.477  35.453  36.722  1.00  0.00    -0.200 F 
ATOM     77  F   UNL A   1      37.930  34.260  38.627  1.00  0.00    -0.200 F 
ENDBRANCH  43  67
BRANCH  55  78
ATOM     78  C   UNL A   1      44.456  27.538  34.524  1.00  0.00     0.064 A 
ATOM     79  C   UNL A   1      44.276  26.378  35.288  1.00  0.00     0.173 A 
ATOM     80  C   UNL A   1      45.685  28.207  34.610  1.00  0.00     0.173 A 
ATOM     81  F   UNL A   1      43.109  25.717  35.249  1.00  0.00    -0.203 F 
ATOM     82  C   UNL A   1      45.291  25.908  36.116  1.00  0.00     0.198 A 
ATOM     83  C   UNL A   1      46.704  27.723  35.424  1.00  0.00     0.198 A 
ATOM     84  F   UNL A   1      45.900  29.321  33.895  1.00  0.00    -0.203 F 
ATOM     85  F   UNL A   1      45.092  24.811  36.861  1.00  0.00    -0.200 F 
ATOM     86  C   UNL A   1      46.506  26.576  36.178  1.00  0.00     0.200 A 
ATOM     87  F   UNL A   1      47.879  28.365  35.478  1.00  0.00    -0.200 F 
ATOM     88  F   UNL A   1      47.485  26.117  36.970  1.00  0.00    -0.200 F 
ENDBRANCH  55  78
ENDBRANCH  29  30
ENDBRANCH  22  24
ENDBRANCH  21  22
ENDBRANCH  20  21
ENDBRANCH   1  20
TORSDOF 14
ENDMDL
MODEL 3
REMARK VINA RESULT:     -11.5      0.353      2.014
REMARK SMILES CCC[C@](C)(C(=O)OCCOC(=O)c1ccc(-c2c3nc(c(-c4c(F)c(F)c(F)c(F)c4F)c4ccc([nH]4)c(-c4c(F)c(F)c(F)c(F)c4F)c4nc(c(-c5c(F)c(F)c(F)c(F)c5F)c5ccc2[nH]5)C=C4)C=C3)cc1)[C@@H]1CCO[C@]2(CCSC2)C1
REMARK SMILES IDX 9 1 8 2 6 3 7 4 4 5 5 6 3 7 2 8 1 9 77 10 78 11 86 12 79 13
REMARK SMILES IDX 81 14 80 15 82 16 85 17 83 18 84 19 10 20 11 21 12 22 13 23
REMARK SMILES IDX 14 24 15 25 76 26 16 27 75 28 17 29 18 30 19 31 69 32 20 33
REMARK SMILES IDX 74 34 68 35 70 36 21 37 73 38 67 39 66 40 22 42 54 43 34 44
REMARK SMILES IDX 53 45 35 46 38 47 52 48 71 49 36 50 37 51 51 53 72 54 39 55
REMARK SMILES IDX 23 56 24 57 32 58 25 59 26 60 30 61 33 62 27 63 28 64 31 65
REMARK SMILES IDX 29 66 55 67 56 68 64 69 57 70 58 71 62 72 65 73 59 74 60 75
REMARK SMILES IDX 63 76 61 77 40 78 41 79 49 80 42 81 43 82 47 83 50 84 44 85
REMARK SMILES IDX 45 86 48 87 46 88
REMARK H PARENT 70 41 38 52
REMARK Flexibility Score: inf
ROOT
ATOM      1  C   UNL A   1      31.347  29.101  24.795  1.00  0.00     0.274 C 
ENDROOT
BRANCH   1   2
ATOM      2  O   UNL A   1      31.123  27.679  24.831  1.00  0.00    -0.462 OA
BRANCH   2   3
ATOM      3  C   UNL A   1      31.828  26.881  23.986  1.00  0.00     0.312 C 
ATOM      4  O   UNL A   1      31.797  26.978  22.765  1.00  0.00    -0.252 OA
BRANCH   3   5
ATOM      5  C   UNL A   1      32.684  25.831  24.750  1.00  0.00     0.068 C 
ATOM      6  C   UNL A   1      33.969  26.549  25.276  1.00  0.00     0.024 C 
BRANCH   5   7
ATOM      7  C   UNL A   1      31.883  25.446  26.029  1.00  0.00     0.018 C 
BRANCH   7   8
ATOM      8  C   UNL A   1      30.535  24.724  25.948  1.00  0.00    -0.002 C 
ATOM      9  C   UNL A   1      30.552  23.403  26.707  1.00  0.00     0.004 C 
ENDBRANCH   7   8
ENDBRANCH   5   7
BRANCH   5  10
ATOM     10  C   UNL A   1      33.153  24.742  23.690  1.00  0.00     0.011 C 
ATOM     11  C   UNL A   1      32.172  23.646  23.230  1.00  0.00     0.033 C 
ATOM     12  C   UNL A   1      34.542  24.089  23.831  1.00  0.00     0.041 C 
ATOM     13  C   UNL A   1      32.523  22.239  23.710  1.00  0.00     0.161 C 
ATOM     14  C   UNL A   1      34.596  22.865  24.763  1.00  0.00     0.078 C 
ATOM     15  O   UNL A   1      33.309  22.254  24.890  1.00  0.00    -0.374 OA
ATOM     16  C   UNL A   1      35.055  23.198  26.190  1.00  0.00     0.047 C 
ATOM     17  C   UNL A   1      35.655  21.846  24.296  1.00  0.00     0.105 C 
ATOM     18  C   UNL A   1      36.523  23.577  26.153  1.00  0.00     0.072 C 
ATOM     19  S   UNL A   1      37.252  22.441  24.943  1.00  0.00    -0.159 SA
ENDBRANCH   5  10
ENDBRANCH   3   5
ENDBRANCH   2   3
ENDBRANCH   1   2
BRANCH   1  20
ATOM     20  C   UNL A   1      31.750  29.588  26.185  1.00  0.00     0.275 C 
BRANCH  20  21
ATOM     21  O   UNL A   1      33.093  30.098  26.131  1.00  0.00    -0.458 OA
BRANCH  21  22
ATOM     22  C   UNL A   1      33.371  31.134  26.945  1.00  0.00     0.338 C 
ATOM     23  O   UNL A   1      32.674  32.108  27.198  1.00  0.00    -0.246 OA
BRANCH  22  24
ATOM     24  C   UNL A   1      34.686  30.913  27.555  1.00  0.00     0.060 A 
ATOM     25  C   UNL A   1      35.048  29.622  27.937  1.00  0.00     0.016 A 
ATOM     26  C   UNL A   1      35.515  31.994  27.847  1.00  0.00     0.016 A 
ATOM     27  C   UNL A   1      36.189  29.420  28.706  1.00  0.00     0.010 A 
ATOM     28  C   UNL A   1      36.722  31.769  28.514  1.00  0.00     0.010 A 
ATOM     29  C   UNL A   1      37.059  30.482  28.978  1.00  0.00    -0.014 A 
BRANCH  29  30
ATOM     30  C   UNL A   1      38.313  30.269  29.751  1.00  0.00     0.031 A 
ATOM     31  C   UNL A   1      39.405  29.410  29.179  1.00  0.00     0.074 A 
ATOM     32  C   UNL A   1      38.472  30.820  30.971  1.00  0.00     0.049 A 
ATOM     33  N   UNL A   1      40.412  28.835  29.785  1.00  0.00    -0.248 NA
ATOM     34  C   UNL A   1      39.348  29.151  27.731  1.00  0.00     0.031 C 
ATOM     35  C   UNL A   1      37.537  31.740  31.621  1.00  0.00     0.029 A 
ATOM     36  N   UNL A   1      39.484  30.676  31.890  1.00  0.00    -0.354 N 
ATOM     37  C   UNL A   1      41.060  28.085  28.811  1.00  0.00     0.074 A 
ATOM     38  C   UNL A   1      40.349  28.297  27.569  1.00  0.00     0.031 C 
ATOM     39  C   UNL A   1      38.030  32.102  32.815  1.00  0.00     0.029 A 
ATOM     40  C   UNL A   1      39.253  31.349  33.066  1.00  0.00     0.049 A 
ATOM     41  H   UNL A   1      40.294  30.144  31.723  1.00  0.00     0.167 HD
ATOM     42  C   UNL A   1      42.139  27.279  28.956  1.00  0.00     0.037 A 
ATOM     43  C   UNL A   1      39.908  31.312  34.241  1.00  0.00     0.037 A 
ATOM     44  C   UNL A   1      42.870  27.127  30.187  1.00  0.00     0.049 A 
ATOM     45  C   UNL A   1      41.080  30.388  34.392  1.00  0.00     0.074 A 
ATOM     46  C   UNL A   1      43.966  26.324  30.451  1.00  0.00     0.029 A 
ATOM     47  N   UNL A   1      42.591  27.820  31.356  1.00  0.00    -0.354 N 
ATOM     48  N   UNL A   1      41.618  29.586  33.506  1.00  0.00    -0.248 NA
ATOM     49  C   UNL A   1      41.717  30.335  35.715  1.00  0.00     0.031 C 
ATOM     50  C   UNL A   1      44.337  26.516  31.787  1.00  0.00     0.029 A 
ATOM     51  C   UNL A   1      43.494  27.464  32.343  1.00  0.00     0.049 A 
ATOM     52  H   UNL A   1      41.858  28.469  31.468  1.00  0.00     0.167 HD
ATOM     53  C   UNL A   1      42.660  28.943  34.156  1.00  0.00     0.074 A 
ATOM     54  C   UNL A   1      42.688  29.456  35.511  1.00  0.00     0.031 C 
ATOM     55  C   UNL A   1      43.511  28.004  33.677  1.00  0.00     0.037 A 
BRANCH  42  56
ATOM     56  C   UNL A   1      42.564  26.462  27.773  1.00  0.00     0.064 A 
ATOM     57  C   UNL A   1      41.988  25.220  27.479  1.00  0.00     0.173 A 
ATOM     58  C   UNL A   1      43.544  26.956  26.897  1.00  0.00     0.173 A 
ATOM     59  F   UNL A   1      41.059  24.697  28.294  1.00  0.00    -0.203 F 
ATOM     60  C   UNL A   1      42.389  24.492  26.361  1.00  0.00     0.198 A 
ATOM     61  C   UNL A   1      43.925  26.238  25.767  1.00  0.00     0.198 A 
ATOM     62  F   UNL A   1      44.125  28.143  27.132  1.00  0.00    -0.203 F 
ATOM     63  F   UNL A   1      41.853  23.288  26.118  1.00  0.00    -0.200 F 
ATOM     64  C   UNL A   1      43.352  25.004  25.502  1.00  0.00     0.200 A 
ATOM     65  F   UNL A   1      44.848  26.741  24.935  1.00  0.00    -0.200 F 
ATOM     66  F   UNL A   1      43.732  24.305  24.423  1.00  0.00    -0.200 F 
ENDBRANCH  42  56
BRANCH  43  67
ATOM     67  C   UNL A   1      39.418  32.130  35.382  1.00  0.00     0.064 A 
ATOM     68  C   UNL A   1      38.536  31.591  36.326  1.00  0.00     0.173 A 
ATOM     69  C   UNL A   1      39.845  33.454  35.567  1.00  0.00     0.173 A 
ATOM     70  F   UNL A   1      38.080  30.338  36.178  1.00  0.00    -0.203 F 
ATOM     71  C   UNL A   1      38.099  32.345  37.413  1.00  0.00     0.198 A 
ATOM     72  C   UNL A   1      39.431  34.197  36.669  1.00  0.00     0.198 A 
ATOM     73  F   UNL A   1      40.689  34.017  34.690  1.00  0.00    -0.203 F 
ATOM     74  F   UNL A   1      37.230  31.817  38.287  1.00  0.00    -0.200 F 
ATOM     75  C   UNL A   1      38.555  33.644  37.590  1.00  0.00     0.200 A 
ATOM     76  F   UNL A   1      39.887  35.444  36.843  1.00  0.00    -0.200 F 
ATOM     77  F   UNL A   1      38.146  34.363  38.644  1.00  0.00    -0.200 F 
ENDBRANCH  43  67
BRANCH  55  78
ATOM     78  C   UNL A   1      44.572  27.506  34.610  1.00  0.00     0.064 A 
ATOM     79  C   UNL A   1      45.801  28.165  34.737  1.00  0.00     0.173 A 
ATOM     80  C   UNL A   1      44.331  26.386  35.418  1.00  0.00     0.173 A 
ATOM     81  F   UNL A   1      46.079  29.231  33.971  1.00  0.00    -0.203 F 
ATOM     82  C   UNL A   1      46.760  27.713  35.639  1.00  0.00     0.198 A 
ATOM     83  C   UNL A   1      45.284  25.948  36.331  1.00  0.00     0.198 A 
ATOM     84  F   UNL A   1      43.167  25.725  35.329  1.00  0.00    -0.203 F 
ATOM     85  F   UNL A   1      47.942  28.339  35.728  1.00  0.00    -0.200 F 
ATOM     86  C   UNL A   1      46.498  26.609  36.440  1.00  0.00     0.200 A 
ATOM     87  F   UNL A   1      45.028  24.887  37.109  1.00  0.00    -0.200 F 
ATOM     88  F   UNL A   1      47.421  26.181  37.312  1.00  0.00    -0.200 F 
ENDBRANCH  55  78
ENDBRANCH  29  30
ENDBRANCH  22  24
ENDBRANCH  21  22
ENDBRANCH  20  21
ENDBRANCH   1  20
TORSDOF 14
ENDMDL
