MODEL 1
REMARK VINA RESULT:     -12.6      0.000      0.000
REMARK SMILES C/C(Nc1ccc(C(=O)OCCOC(=O)c2ccc(-c3c4nc(c(-c5c(F)c(F)c(F)c(F)c5F)c5ccc([nH]5)c(-c5c(F)c(F)c(F)c(F)c5F)c5nc(c(-c6c(F)c(F)c(F)c(F)c6F)c6ccc3[nH]6)C=C5)C=C4)cc2)c(O)c1)=C1/C(=O)O[C@H](C)C1=O
REMARK SMILES IDX 11 1 10 2 8 3 9 4 7 5 4 6 5 7 81 8 6 9 79 10 3 11 2 13 1 14
REMARK SMILES IDX 82 15 83 16 88 17 84 18 85 19 86 20 89 21 87 22 80 23 12 25
REMARK SMILES IDX 13 26 14 27 15 28 16 29 17 30 78 31 18 32 77 33 19 34 20 35
REMARK SMILES IDX 21 36 71 37 22 38 76 39 70 40 72 41 23 42 75 43 69 44 68 45
REMARK SMILES IDX 24 47 56 48 36 49 55 50 37 51 40 52 54 53 73 54 38 55 39 56
REMARK SMILES IDX 53 58 74 59 41 60 25 61 26 62 34 63 27 64 28 65 32 66 35 67
REMARK SMILES IDX 29 68 30 69 33 70 31 71 57 72 58 73 66 74 59 75 60 76 64 77
REMARK SMILES IDX 67 78 61 79 62 80 65 81 63 82 42 83 43 84 51 85 44 86 45 87
REMARK SMILES IDX 49 88 52 89 46 90 47 91 50 92 48 93
REMARK H PARENT 3 12 80 24 72 46 40 57
REMARK Flexibility Score: inf
ROOT
ATOM      1  C   UNL A   1      42.316  20.569  26.130  1.00  0.00     0.275 C 
ENDROOT
BRANCH   1   2
ATOM      2  O   UNL A   1      41.005  20.997  25.693  1.00  0.00    -0.458 OA
BRANCH   2   3
ATOM      3  C   UNL A   1      40.159  21.434  26.666  1.00  0.00     0.342 C 
ATOM      4  O   UNL A   1      40.399  21.461  27.862  1.00  0.00    -0.246 OA
BRANCH   3   5
ATOM      5  C   UNL A   1      38.915  22.002  26.076  1.00  0.00     0.101 A 
ATOM      6  C   UNL A   1      36.386  22.760  25.072  1.00  0.00     0.042 A 
ATOM      7  C   UNL A   1      37.026  21.620  24.582  1.00  0.00     0.027 A 
ATOM      8  C   UNL A   1      37.075  23.575  25.982  1.00  0.00     0.073 A 
ATOM      9  C   UNL A   1      38.293  21.263  25.054  1.00  0.00     0.022 A 
ATOM     10  C   UNL A   1      38.314  23.187  26.501  1.00  0.00     0.132 A 
BRANCH   6  11
ATOM     11  N   UNL A   1      35.058  23.074  24.753  1.00  0.00    -0.358 N 
ATOM     12  H   UNL A   1      34.732  23.919  25.137  1.00  0.00     0.166 HD
BRANCH  11  13
ATOM     13  C   UNL A   1      34.122  22.389  23.984  1.00  0.00     0.030 C 
ATOM     14  C   UNL A   1      33.874  23.080  22.647  1.00  0.00     0.065 C 
ATOM     15  C   UNL A   1      33.416  21.271  24.281  1.00  0.00     0.125 C 
ATOM     16  C   UNL A   1      33.427  20.424  25.497  1.00  0.00     0.344 C 
ATOM     17  C   UNL A   1      32.453  20.611  23.371  1.00  0.00     0.212 C 
ATOM     18  O   UNL A   1      33.804  20.694  26.616  1.00  0.00    -0.246 OA
ATOM     19  O   UNL A   1      32.862  19.219  25.170  1.00  0.00    -0.451 OA
ATOM     20  C   UNL A   1      32.153  19.247  23.916  1.00  0.00     0.245 C 
ATOM     21  O   UNL A   1      31.967  21.077  22.354  1.00  0.00    -0.290 OA
ATOM     22  C   UNL A   1      32.645  18.147  22.995  1.00  0.00     0.062 C 
ENDBRANCH  11  13
ENDBRANCH   6  11
BRANCH  10  23
ATOM     23  O   UNL A   1      38.858  24.024  27.437  1.00  0.00    -0.507 OA
ATOM     24  H   UNL A   1      38.309  24.433  28.076  1.00  0.00     0.293 HD
ENDBRANCH  10  23
ENDBRANCH   3   5
ENDBRANCH   2   3
ENDBRANCH   1   2
BRANCH   1  25
ATOM     25  C   UNL A   1      43.426  21.476  25.593  1.00  0.00     0.275 C 
BRANCH  25  26
ATOM     26  O   UNL A   1      42.873  22.609  24.896  1.00  0.00    -0.458 OA
BRANCH  26  27
ATOM     27  C   UNL A   1      43.590  23.750  25.010  1.00  0.00     0.338 C 
ATOM     28  O   UNL A   1      44.570  24.078  24.363  1.00  0.00    -0.246 OA
BRANCH  27  29
ATOM     29  C   UNL A   1      42.963  24.636  25.999  1.00  0.00     0.060 A 
ATOM     30  C   UNL A   1      43.206  26.000  25.888  1.00  0.00     0.016 A 
ATOM     31  C   UNL A   1      42.287  24.134  27.108  1.00  0.00     0.016 A 
ATOM     32  C   UNL A   1      42.846  26.870  26.911  1.00  0.00     0.010 A 
ATOM     33  C   UNL A   1      41.853  25.021  28.105  1.00  0.00     0.010 A 
ATOM     34  C   UNL A   1      42.155  26.396  28.033  1.00  0.00    -0.014 A 
BRANCH  34  35
ATOM     35  C   UNL A   1      41.793  27.334  29.134  1.00  0.00     0.031 A 
ATOM     36  C   UNL A   1      42.613  27.378  30.397  1.00  0.00     0.074 A 
ATOM     37  C   UNL A   1      40.740  28.166  28.998  1.00  0.00     0.049 A 
ATOM     38  N   UNL A   1      42.377  28.011  31.519  1.00  0.00    -0.248 NA
ATOM     39  C   UNL A   1      43.860  26.597  30.403  1.00  0.00     0.031 C 
ATOM     40  C   UNL A   1      39.890  28.269  27.812  1.00  0.00     0.029 A 
ATOM     41  N   UNL A   1      40.204  29.089  29.867  1.00  0.00    -0.354 N 
ATOM     42  C   UNL A   1      43.411  27.663  32.379  1.00  0.00     0.074 A 
ATOM     43  C   UNL A   1      44.272  26.753  31.653  1.00  0.00     0.031 C 
ATOM     44  C   UNL A   1      38.962  29.216  28.013  1.00  0.00     0.029 A 
ATOM     45  C   UNL A   1      39.088  29.721  29.375  1.00  0.00     0.049 A 
ATOM     46  H   UNL A   1      40.584  29.277  30.755  1.00  0.00     0.167 HD
ATOM     47  C   UNL A   1      43.623  28.069  33.655  1.00  0.00     0.037 A 
ATOM     48  C   UNL A   1      38.227  30.573  29.965  1.00  0.00     0.037 A 
ATOM     49  C   UNL A   1      42.782  29.005  34.359  1.00  0.00     0.049 A 
ATOM     50  C   UNL A   1      38.452  30.960  31.402  1.00  0.00     0.074 A 
ATOM     51  C   UNL A   1      42.926  29.497  35.645  1.00  0.00     0.029 A 
ATOM     52  N   UNL A   1      41.640  29.595  33.835  1.00  0.00    -0.354 N 
ATOM     53  N   UNL A   1      39.421  30.610  32.212  1.00  0.00    -0.248 NA
ATOM     54  C   UNL A   1      37.456  31.853  32.010  1.00  0.00     0.031 C 
ATOM     55  C   UNL A   1      41.842  30.336  35.920  1.00  0.00     0.029 A 
ATOM     56  C   UNL A   1      41.059  30.426  34.781  1.00  0.00     0.049 A 
ATOM     57  H   UNL A   1      41.294  29.445  32.925  1.00  0.00     0.167 HD
ATOM     58  C   UNL A   1      39.167  31.259  33.413  1.00  0.00     0.074 A 
ATOM     59  C   UNL A   1      37.964  32.040  33.218  1.00  0.00     0.031 C 
ATOM     60  C   UNL A   1      39.867  31.209  34.572  1.00  0.00     0.037 A 
BRANCH  47  61
ATOM     61  C   UNL A   1      44.792  27.480  34.396  1.00  0.00     0.064 A 
ATOM     62  C   UNL A   1      46.074  28.046  34.336  1.00  0.00     0.173 A 
ATOM     63  C   UNL A   1      44.613  26.355  35.218  1.00  0.00     0.173 A 
ATOM     64  F   UNL A   1      46.306  29.115  33.559  1.00  0.00    -0.203 F 
ATOM     65  C   UNL A   1      47.136  27.494  35.050  1.00  0.00     0.198 A 
ATOM     66  C   UNL A   1      45.668  25.827  35.957  1.00  0.00     0.198 A 
ATOM     67  F   UNL A   1      43.406  25.777  35.320  1.00  0.00    -0.203 F 
ATOM     68  F   UNL A   1      48.363  28.023  34.939  1.00  0.00    -0.200 F 
ATOM     69  C   UNL A   1      46.931  26.391  35.866  1.00  0.00     0.200 A 
ATOM     70  F   UNL A   1      45.462  24.772  36.758  1.00  0.00    -0.200 F 
ATOM     71  F   UNL A   1      47.952  25.869  36.561  1.00  0.00    -0.200 F 
ENDBRANCH  47  61
BRANCH  48  72
ATOM     72  C   UNL A   1      37.048  31.084  29.215  1.00  0.00     0.064 A 
ATOM     73  C   UNL A   1      37.002  32.406  28.751  1.00  0.00     0.173 A 
ATOM     74  C   UNL A   1      35.935  30.267  28.959  1.00  0.00     0.173 A 
ATOM     75  F   UNL A   1      38.028  33.236  28.991  1.00  0.00    -0.203 F 
ATOM     76  C   UNL A   1      35.882  32.898  28.084  1.00  0.00     0.198 A 
ATOM     77  C   UNL A   1      34.833  30.747  28.258  1.00  0.00     0.198 A 
ATOM     78  F   UNL A   1      35.924  28.994  29.382  1.00  0.00    -0.203 F 
ATOM     79  F   UNL A   1      35.840  34.182  27.704  1.00  0.00    -0.200 F 
ATOM     80  C   UNL A   1      34.801  32.066  27.830  1.00  0.00     0.200 A 
ATOM     81  F   UNL A   1      33.799  29.935  28.001  1.00  0.00    -0.200 F 
ATOM     82  F   UNL A   1      33.726  32.537  27.184  1.00  0.00    -0.200 F 
ENDBRANCH  48  72
BRANCH  60  83
ATOM     83  C   UNL A   1      39.381  32.066  35.707  1.00  0.00     0.064 A 
ATOM     84  C   UNL A   1      39.811  33.391  35.876  1.00  0.00     0.173 A 
ATOM     85  C   UNL A   1      38.446  31.559  36.624  1.00  0.00     0.173 A 
ATOM     86  F   UNL A   1      40.717  33.918  35.039  1.00  0.00    -0.203 F 
ATOM     87  C   UNL A   1      39.349  34.164  36.938  1.00  0.00     0.198 A 
ATOM     88  C   UNL A   1      37.958  32.347  37.662  1.00  0.00     0.198 A 
ATOM     89  F   UNL A   1      37.995  30.300  36.505  1.00  0.00    -0.203 F 
ATOM     90  F   UNL A   1      39.818  35.406  37.113  1.00  0.00    -0.200 F 
ATOM     91  C   UNL A   1      38.416  33.645  37.824  1.00  0.00     0.200 A 
ATOM     92  F   UNL A   1      37.045  31.848  38.507  1.00  0.00    -0.200 F 
ATOM     93  F   UNL A   1      37.966  34.393  38.841  1.00  0.00    -0.200 F 
ENDBRANCH  60  83
ENDBRANCH  34  35
ENDBRANCH  27  29
ENDBRANCH  26  27
ENDBRANCH  25  26
ENDBRANCH   1  25
TORSDOF 14
ENDMDL
MODEL 2
REMARK VINA RESULT:     -12.4      3.451      8.397
REMARK SMILES C/C(Nc1ccc(C(=O)OCCOC(=O)c2ccc(-c3c4nc(c(-c5c(F)c(F)c(F)c(F)c5F)c5ccc([nH]5)c(-c5c(F)c(F)c(F)c(F)c5F)c5nc(c(-c6c(F)c(F)c(F)c(F)c6F)c6ccc3[nH]6)C=C5)C=C4)cc2)c(O)c1)=C1/C(=O)O[C@H](C)C1=O
REMARK SMILES IDX 11 1 10 2 8 3 9 4 7 5 4 6 5 7 81 8 6 9 79 10 3 11 2 13 1 14
REMARK SMILES IDX 82 15 83 16 88 17 84 18 85 19 86 20 89 21 87 22 80 23 12 25
REMARK SMILES IDX 13 26 14 27 15 28 16 29 17 30 78 31 18 32 77 33 19 34 20 35
REMARK SMILES IDX 21 36 71 37 22 38 76 39 70 40 72 41 23 42 75 43 69 44 68 45
REMARK SMILES IDX 24 47 56 48 36 49 55 50 37 51 40 52 54 53 73 54 38 55 39 56
REMARK SMILES IDX 53 58 74 59 41 60 25 61 26 62 34 63 27 64 28 65 32 66 35 67
REMARK SMILES IDX 29 68 30 69 33 70 31 71 57 72 58 73 66 74 59 75 60 76 64 77
REMARK SMILES IDX 67 78 61 79 62 80 65 81 63 82 42 83 43 84 51 85 44 86 45 87
REMARK SMILES IDX 49 88 52 89 46 90 47 91 50 92 48 93
REMARK H PARENT 3 12 80 24 72 46 40 57
REMARK Flexibility Score: inf
ROOT
ATOM      1  C   UNL A   1      31.489  29.735  24.686  1.00  0.00     0.275 C 
ENDROOT
BRANCH   1   2
ATOM      2  O   UNL A   1      30.264  29.757  23.918  1.00  0.00    -0.458 OA
BRANCH   2   3
ATOM      3  C   UNL A   1      30.281  29.079  22.737  1.00  0.00     0.342 C 
ATOM      4  O   UNL A   1      30.206  29.578  21.626  1.00  0.00    -0.246 OA
BRANCH   3   5
ATOM      5  C   UNL A   1      30.528  27.628  22.958  1.00  0.00     0.101 A 
ATOM      6  C   UNL A   1      30.654  24.818  23.222  1.00  0.00     0.042 A 
ATOM      7  C   UNL A   1      29.655  25.543  23.874  1.00  0.00     0.027 A 
ATOM      8  C   UNL A   1      31.652  25.524  22.534  1.00  0.00     0.073 A 
ATOM      9  C   UNL A   1      29.613  26.937  23.772  1.00  0.00     0.022 A 
ATOM     10  C   UNL A   1      31.575  26.911  22.378  1.00  0.00     0.132 A 
BRANCH   6  11
ATOM     11  N   UNL A   1      30.651  23.418  23.160  1.00  0.00    -0.358 N 
ATOM     12  H   UNL A   1      29.840  23.027  22.762  1.00  0.00     0.166 HD
BRANCH  11  13
ATOM     13  C   UNL A   1      31.602  22.488  23.569  1.00  0.00     0.030 C 
ATOM     14  C   UNL A   1      32.154  21.690  22.392  1.00  0.00     0.065 C 
ATOM     15  C   UNL A   1      32.039  22.195  24.818  1.00  0.00     0.125 C 
ATOM     16  C   UNL A   1      31.660  22.776  26.127  1.00  0.00     0.344 C 
ATOM     17  C   UNL A   1      33.079  21.192  25.138  1.00  0.00     0.212 C 
ATOM     18  O   UNL A   1      30.664  23.396  26.432  1.00  0.00    -0.246 OA
ATOM     19  O   UNL A   1      32.639  22.446  27.028  1.00  0.00    -0.451 OA
ATOM     20  C   UNL A   1      33.518  21.408  26.555  1.00  0.00     0.245 C 
ATOM     21  O   UNL A   1      33.513  20.325  24.398  1.00  0.00    -0.290 OA
ATOM     22  C   UNL A   1      34.966  21.850  26.639  1.00  0.00     0.062 C 
ENDBRANCH  11  13
ENDBRANCH   6  11
BRANCH  10  23
ATOM     23  O   UNL A   1      32.564  27.483  21.626  1.00  0.00    -0.507 OA
ATOM     24  H   UNL A   1      32.363  28.194  21.050  1.00  0.00     0.293 HD
ENDBRANCH  10  23
ENDBRANCH   3   5
ENDBRANCH   2   3
ENDBRANCH   1   2
BRANCH   1  25
ATOM     25  C   UNL A   1      31.475  30.762  25.823  1.00  0.00     0.275 C 
BRANCH  25  26
ATOM     26  O   UNL A   1      32.567  30.535  26.734  1.00  0.00    -0.458 OA
BRANCH  26  27
ATOM     27  C   UNL A   1      33.163  31.658  27.196  1.00  0.00     0.338 C 
ATOM     28  O   UNL A   1      32.690  32.779  27.250  1.00  0.00    -0.246 OA
BRANCH  27  29
ATOM     29  C   UNL A   1      34.491  31.332  27.733  1.00  0.00     0.060 A 
ATOM     30  C   UNL A   1      34.731  30.013  28.099  1.00  0.00     0.016 A 
ATOM     31  C   UNL A   1      35.426  32.322  28.026  1.00  0.00     0.016 A 
ATOM     32  C   UNL A   1      35.867  29.675  28.825  1.00  0.00     0.010 A 
ATOM     33  C   UNL A   1      36.610  31.969  28.690  1.00  0.00     0.010 A 
ATOM     34  C   UNL A   1      36.830  30.646  29.125  1.00  0.00    -0.014 A 
BRANCH  34  35
ATOM     35  C   UNL A   1      38.035  30.277  29.923  1.00  0.00     0.031 A 
ATOM     36  C   UNL A   1      39.093  29.381  29.334  1.00  0.00     0.074 A 
ATOM     37  C   UNL A   1      38.197  30.761  31.171  1.00  0.00     0.049 A 
ATOM     38  N   UNL A   1      40.131  28.830  29.912  1.00  0.00    -0.248 NA
ATOM     39  C   UNL A   1      38.961  29.051  27.906  1.00  0.00     0.031 C 
ATOM     40  C   UNL A   1      37.281  31.679  31.849  1.00  0.00     0.029 A 
ATOM     41  N   UNL A   1      39.194  30.551  32.096  1.00  0.00    -0.354 N 
ATOM     42  C   UNL A   1      40.742  28.049  28.938  1.00  0.00     0.074 A 
ATOM     43  C   UNL A   1      39.951  28.187  27.733  1.00  0.00     0.031 C 
ATOM     44  C   UNL A   1      37.767  31.974  33.063  1.00  0.00     0.029 A 
ATOM     45  C   UNL A   1      38.979  31.195  33.291  1.00  0.00     0.049 A 
ATOM     46  H   UNL A   1      39.984  29.991  31.919  1.00  0.00     0.167 HD
ATOM     47  C   UNL A   1      41.860  27.289  29.040  1.00  0.00     0.037 A 
ATOM     48  C   UNL A   1      39.647  31.131  34.458  1.00  0.00     0.037 A 
ATOM     49  C   UNL A   1      42.664  27.186  30.233  1.00  0.00     0.049 A 
ATOM     50  C   UNL A   1      40.850  30.233  34.563  1.00  0.00     0.074 A 
ATOM     51  C   UNL A   1      43.827  26.461  30.430  1.00  0.00     0.029 A 
ATOM     52  N   UNL A   1      42.390  27.828  31.433  1.00  0.00    -0.354 N 
ATOM     53  N   UNL A   1      41.407  29.484  33.643  1.00  0.00    -0.248 NA
ATOM     54  C   UNL A   1      41.512  30.163  35.873  1.00  0.00     0.031 C 
ATOM     55  C   UNL A   1      44.224  26.618  31.761  1.00  0.00     0.029 A 
ATOM     56  C   UNL A   1      43.349  27.497  32.378  1.00  0.00     0.049 A 
ATOM     57  H   UNL A   1      41.626  28.430  31.589  1.00  0.00     0.167 HD
ATOM     58  C   UNL A   1      42.496  28.877  34.253  1.00  0.00     0.074 A 
ATOM     59  C   UNL A   1      42.534  29.361  35.616  1.00  0.00     0.031 C 
ATOM     60  C   UNL A   1      43.383  27.996  33.730  1.00  0.00     0.037 A 
BRANCH  47  61
ATOM     61  C   UNL A   1      42.270  26.477  27.844  1.00  0.00     0.064 A 
ATOM     62  C   UNL A   1      43.260  26.913  26.950  1.00  0.00     0.173 A 
ATOM     63  C   UNL A   1      41.695  25.215  27.615  1.00  0.00     0.173 A 
ATOM     64  F   UNL A   1      43.837  28.114  27.113  1.00  0.00    -0.203 F 
ATOM     65  C   UNL A   1      43.639  26.131  25.861  1.00  0.00     0.198 A 
ATOM     66  C   UNL A   1      42.100  24.422  26.546  1.00  0.00     0.198 A 
ATOM     67  F   UNL A   1      40.750  24.744  28.442  1.00  0.00    -0.203 F 
ATOM     68  F   UNL A   1      44.552  26.590  24.994  1.00  0.00    -0.200 F 
ATOM     69  C   UNL A   1      43.065  24.883  25.664  1.00  0.00     0.200 A 
ATOM     70  F   UNL A   1      41.557  23.209  26.369  1.00  0.00    -0.200 F 
ATOM     71  F   UNL A   1      43.440  24.128  24.622  1.00  0.00    -0.200 F 
ENDBRANCH  47  61
BRANCH  48  72
ATOM     72  C   UNL A   1      39.170  31.904  35.636  1.00  0.00     0.064 A 
ATOM     73  C   UNL A   1      39.595  33.222  35.858  1.00  0.00     0.173 A 
ATOM     74  C   UNL A   1      38.293  31.338  36.575  1.00  0.00     0.173 A 
ATOM     75  F   UNL A   1      40.453  33.802  35.006  1.00  0.00    -0.203 F 
ATOM     76  C   UNL A   1      39.180  33.933  36.983  1.00  0.00     0.198 A 
ATOM     77  C   UNL A   1      37.848  32.063  37.678  1.00  0.00     0.198 A 
ATOM     78  F   UNL A   1      37.856  30.080  36.414  1.00  0.00    -0.203 F 
ATOM     79  F   UNL A   1      39.648  35.170  37.201  1.00  0.00    -0.200 F 
ATOM     80  C   UNL A   1      38.301  33.356  37.887  1.00  0.00     0.200 A 
ATOM     81  F   UNL A   1      36.986  31.507  38.539  1.00  0.00    -0.200 F 
ATOM     82  F   UNL A   1      37.899  34.042  38.966  1.00  0.00    -0.200 F 
ENDBRANCH  48  72
BRANCH  60  83
ATOM     83  C   UNL A   1      44.505  27.538  34.620  1.00  0.00     0.064 A 
ATOM     84  C   UNL A   1      45.711  28.248  34.720  1.00  0.00     0.173 A 
ATOM     85  C   UNL A   1      44.357  26.385  35.407  1.00  0.00     0.173 A 
ATOM     86  F   UNL A   1      45.912  29.347  33.976  1.00  0.00    -0.203 F 
ATOM     87  C   UNL A   1      46.738  27.803  35.548  1.00  0.00     0.198 A 
ATOM     88  C   UNL A   1      45.371  25.964  36.262  1.00  0.00     0.198 A 
ATOM     89  F   UNL A   1      43.221  25.672  35.355  1.00  0.00    -0.203 F 
ATOM     90  F   UNL A   1      47.903  28.464  35.583  1.00  0.00    -0.200 F 
ATOM     91  C   UNL A   1      46.564  26.667  36.325  1.00  0.00     0.200 A 
ATOM     92  F   UNL A   1      45.193  24.875  37.023  1.00  0.00    -0.200 F 
ATOM     93  F   UNL A   1      47.549  26.244  37.128  1.00  0.00    -0.200 F 
ENDBRANCH  60  83
ENDBRANCH  34  35
ENDBRANCH  27  29
ENDBRANCH  26  27
ENDBRANCH  25  26
ENDBRANCH   1  25
TORSDOF 14
ENDMDL
MODEL 3
REMARK VINA RESULT:     -12.4      3.234      8.393
REMARK SMILES C/C(Nc1ccc(C(=O)OCCOC(=O)c2ccc(-c3c4nc(c(-c5c(F)c(F)c(F)c(F)c5F)c5ccc([nH]5)c(-c5c(F)c(F)c(F)c(F)c5F)c5nc(c(-c6c(F)c(F)c(F)c(F)c6F)c6ccc3[nH]6)C=C5)C=C4)cc2)c(O)c1)=C1/C(=O)O[C@H](C)C1=O
REMARK SMILES IDX 11 1 10 2 8 3 9 4 7 5 4 6 5 7 81 8 6 9 79 10 3 11 2 13 1 14
REMARK SMILES IDX 82 15 83 16 88 17 84 18 85 19 86 20 89 21 87 22 80 23 12 25
REMARK SMILES IDX 13 26 14 27 15 28 16 29 17 30 78 31 18 32 77 33 19 34 20 35
REMARK SMILES IDX 21 36 71 37 22 38 76 39 70 40 72 41 23 42 75 43 69 44 68 45
REMARK SMILES IDX 24 47 56 48 36 49 55 50 37 51 40 52 54 53 73 54 38 55 39 56
REMARK SMILES IDX 53 58 74 59 41 60 25 61 26 62 34 63 27 64 28 65 32 66 35 67
REMARK SMILES IDX 29 68 30 69 33 70 31 71 57 72 58 73 66 74 59 75 60 76 64 77
REMARK SMILES IDX 67 78 61 79 62 80 65 81 63 82 42 83 43 84 51 85 44 86 45 87
REMARK SMILES IDX 49 88 52 89 46 90 47 91 50 92 48 93
REMARK H PARENT 3 12 80 24 72 46 40 57
REMARK Flexibility Score: inf
ROOT
ATOM      1  C   UNL A   1      31.369  29.519  24.693  1.00  0.00     0.275 C 
ENDROOT
BRANCH   1   2
ATOM      2  O   UNL A   1      31.591  28.090  24.655  1.00  0.00    -0.458 OA
BRANCH   2   3
ATOM      3  C   UNL A   1      30.633  27.348  24.033  1.00  0.00     0.342 C 
ATOM      4  O   UNL A   1      29.887  27.740  23.150  1.00  0.00    -0.246 OA
BRANCH   3   5
ATOM      5  C   UNL A   1      30.681  25.930  24.483  1.00  0.00     0.101 A 
ATOM      6  C   UNL A   1      31.100  23.216  25.147  1.00  0.00     0.042 A 
ATOM      7  C   UNL A   1      30.959  23.601  23.813  1.00  0.00     0.027 A 
ATOM      8  C   UNL A   1      30.915  24.183  26.145  1.00  0.00     0.073 A 
ATOM      9  C   UNL A   1      30.718  24.939  23.486  1.00  0.00     0.022 A 
ATOM     10  C   UNL A   1      30.736  25.530  25.819  1.00  0.00     0.132 A 
BRANCH   6  11
ATOM     11  N   UNL A   1      31.499  21.925  25.520  1.00  0.00    -0.358 N 
ATOM     12  H   UNL A   1      30.866  21.454  26.109  1.00  0.00     0.166 HD
BRANCH  11  13
ATOM     13  C   UNL A   1      32.641  21.198  25.197  1.00  0.00     0.030 C 
ATOM     14  C   UNL A   1      32.314  19.990  24.326  1.00  0.00     0.065 C 
ATOM     15  C   UNL A   1      33.926  21.401  25.576  1.00  0.00     0.125 C 
ATOM     16  C   UNL A   1      34.519  22.455  26.432  1.00  0.00     0.344 C 
ATOM     17  C   UNL A   1      35.075  20.569  25.153  1.00  0.00     0.212 C 
ATOM     18  O   UNL A   1      33.983  23.175  27.245  1.00  0.00    -0.246 OA
ATOM     19  O   UNL A   1      35.869  22.471  26.196  1.00  0.00    -0.451 OA
ATOM     20  C   UNL A   1      36.336  21.304  25.493  1.00  0.00     0.245 C 
ATOM     21  O   UNL A   1      35.030  19.470  24.626  1.00  0.00    -0.290 OA
ATOM     22  C   UNL A   1      37.114  21.700  24.252  1.00  0.00     0.062 C 
ENDBRANCH  11  13
ENDBRANCH   6  11
BRANCH  10  23
ATOM     23  O   UNL A   1      30.640  26.394  26.876  1.00  0.00    -0.507 OA
ATOM     24  H   UNL A   1      30.029  27.103  26.848  1.00  0.00     0.293 HD
ENDBRANCH  10  23
ENDBRANCH   3   5
ENDBRANCH   2   3
ENDBRANCH   1   2
BRANCH   1  25
ATOM     25  C   UNL A   1      31.704  30.117  26.062  1.00  0.00     0.275 C 
BRANCH  25  26
ATOM     26  O   UNL A   1      33.125  30.301  26.209  1.00  0.00    -0.458 OA
BRANCH  26  27
ATOM     27  C   UNL A   1      33.484  31.277  27.074  1.00  0.00     0.338 C 
ATOM     28  O   UNL A   1      32.819  32.233  27.430  1.00  0.00    -0.246 OA
BRANCH  27  29
ATOM     29  C   UNL A   1      34.812  30.985  27.631  1.00  0.00     0.060 A 
ATOM     30  C   UNL A   1      35.087  29.669  27.982  1.00  0.00     0.016 A 
ATOM     31  C   UNL A   1      35.710  31.998  27.954  1.00  0.00     0.016 A 
ATOM     32  C   UNL A   1      36.221  29.356  28.724  1.00  0.00     0.010 A 
ATOM     33  C   UNL A   1      36.893  31.673  28.635  1.00  0.00     0.010 A 
ATOM     34  C   UNL A   1      37.147  30.351  29.055  1.00  0.00    -0.014 A 
BRANCH  34  35
ATOM     35  C   UNL A   1      38.348  30.009  29.870  1.00  0.00     0.031 A 
ATOM     36  C   UNL A   1      39.406  29.089  29.316  1.00  0.00     0.074 A 
ATOM     37  C   UNL A   1      38.508  30.537  31.100  1.00  0.00     0.049 A 
ATOM     38  N   UNL A   1      40.441  28.557  29.917  1.00  0.00    -0.248 NA
ATOM     39  C   UNL A   1      39.277  28.708  27.901  1.00  0.00     0.031 C 
ATOM     40  C   UNL A   1      37.593  31.481  31.741  1.00  0.00     0.029 A 
ATOM     41  N   UNL A   1      39.501  30.358  32.035  1.00  0.00    -0.354 N 
ATOM     42  C   UNL A   1      41.052  27.739  28.974  1.00  0.00     0.074 A 
ATOM     43  C   UNL A   1      40.265  27.836  27.763  1.00  0.00     0.031 C 
ATOM     44  C   UNL A   1      38.076  31.819  32.945  1.00  0.00     0.029 A 
ATOM     45  C   UNL A   1      39.285  31.046  33.204  1.00  0.00     0.049 A 
ATOM     46  H   UNL A   1      40.291  29.791  31.881  1.00  0.00     0.167 HD
ATOM     47  C   UNL A   1      42.168  26.981  29.108  1.00  0.00     0.037 A 
ATOM     48  C   UNL A   1      39.950  31.022  34.376  1.00  0.00     0.037 A 
ATOM     49  C   UNL A   1      42.968  26.919  30.305  1.00  0.00     0.049 A 
ATOM     50  C   UNL A   1      41.150  30.126  34.516  1.00  0.00     0.074 A 
ATOM     51  C   UNL A   1      44.129  26.199  30.532  1.00  0.00     0.029 A 
ATOM     52  N   UNL A   1      42.692  27.605  31.480  1.00  0.00    -0.354 N 
ATOM     53  N   UNL A   1      41.707  29.343  33.626  1.00  0.00    -0.248 NA
ATOM     54  C   UNL A   1      41.808  30.103  35.830  1.00  0.00     0.031 C 
ATOM     55  C   UNL A   1      44.522  26.403  31.858  1.00  0.00     0.029 A 
ATOM     56  C   UNL A   1      43.648  27.306  32.440  1.00  0.00     0.049 A 
ATOM     57  H   UNL A   1      41.930  28.215  31.612  1.00  0.00     0.167 HD
ATOM     58  C   UNL A   1      42.793  28.756  34.261  1.00  0.00     0.074 A 
ATOM     59  C   UNL A   1      42.828  29.289  35.606  1.00  0.00     0.031 C 
ATOM     60  C   UNL A   1      43.680  27.854  33.773  1.00  0.00     0.037 A 
BRANCH  47  61
ATOM     61  C   UNL A   1      42.580  26.125  27.942  1.00  0.00     0.064 A 
ATOM     62  C   UNL A   1      42.023  24.857  27.715  1.00  0.00     0.173 A 
ATOM     63  C   UNL A   1      43.514  26.604  27.009  1.00  0.00     0.173 A 
ATOM     64  F   UNL A   1      41.134  24.344  28.578  1.00  0.00    -0.203 F 
ATOM     65  C   UNL A   1      42.405  24.093  26.614  1.00  0.00     0.198 A 
ATOM     66  C   UNL A   1      43.868  25.853  25.892  1.00  0.00     0.198 A 
ATOM     67  F   UNL A   1      44.072  27.814  27.171  1.00  0.00    -0.203 F 
ATOM     68  F   UNL A   1      41.896  22.864  26.444  1.00  0.00    -0.200 F 
ATOM     69  C   UNL A   1      43.320  24.594  25.699  1.00  0.00     0.200 A 
ATOM     70  F   UNL A   1      44.738  26.348  25.001  1.00  0.00    -0.200 F 
ATOM     71  F   UNL A   1      43.677  23.861  24.635  1.00  0.00    -0.200 F 
ENDBRANCH  47  61
BRANCH  48  72
ATOM     72  C   UNL A   1      39.471  31.839  35.523  1.00  0.00     0.064 A 
ATOM     73  C   UNL A   1      38.541  31.327  36.439  1.00  0.00     0.173 A 
ATOM     74  C   UNL A   1      39.919  33.155  35.720  1.00  0.00     0.173 A 
ATOM     75  F   UNL A   1      38.061  30.084  36.282  1.00  0.00    -0.203 F 
ATOM     76  C   UNL A   1      38.061  32.105  37.491  1.00  0.00     0.198 A 
ATOM     77  C   UNL A   1      39.468  33.919  36.794  1.00  0.00     0.198 A 
ATOM     78  F   UNL A   1      40.807  33.697  34.874  1.00  0.00    -0.203 F 
ATOM     79  F   UNL A   1      37.128  31.610  38.316  1.00  0.00    -0.200 F 
ATOM     80  C   UNL A   1      38.531  33.398  37.672  1.00  0.00     0.200 A 
ATOM     81  F   UNL A   1      39.938  35.160  36.975  1.00  0.00    -0.200 F 
ATOM     82  F   UNL A   1      38.072  34.144  38.686  1.00  0.00    -0.200 F 
ENDBRANCH  48  72
BRANCH  60  83
ATOM     83  C   UNL A   1      44.798  27.426  34.682  1.00  0.00     0.064 A 
ATOM     84  C   UNL A   1      44.696  26.293  35.504  1.00  0.00     0.173 A 
ATOM     85  C   UNL A   1      46.002  28.148  34.708  1.00  0.00     0.173 A 
ATOM     86  F   UNL A   1      43.561  25.579  35.531  1.00  0.00    -0.203 F 
ATOM     87  C   UNL A   1      45.743  25.920  36.341  1.00  0.00     0.198 A 
ATOM     88  C   UNL A   1      47.061  27.749  35.518  1.00  0.00     0.198 A 
ATOM     89  F   UNL A   1      46.156  29.235  33.936  1.00  0.00    -0.203 F 
ATOM     90  F   UNL A   1      45.601  24.869  37.160  1.00  0.00    -0.200 F 
ATOM     91  C   UNL A   1      46.928  26.641  36.341  1.00  0.00     0.200 A 
ATOM     92  F   UNL A   1      48.210  28.439  35.503  1.00  0.00    -0.200 F 
ATOM     93  F   UNL A   1      47.939  26.275  37.141  1.00  0.00    -0.200 F 
ENDBRANCH  60  83
ENDBRANCH  34  35
ENDBRANCH  27  29
ENDBRANCH  26  27
ENDBRANCH  25  26
ENDBRANCH   1  25
TORSDOF 14
ENDMDL
