MODEL 1
REMARK VINA RESULT:     -13.4      0.000      0.000
REMARK SMILES Cc1cc(C(=O)OCCOC(=O)c2ccc(-c3c4nc(c(-c5c(F)c(F)c(F)c(F)c5F)c5ccc([nH]5)c(-c5c(F)c(F)c(F)c(F)c5F)c5nc(c(-c6c(F)c(F)c(F)c(F)c6F)c6ccc3[nH]6)C=C5)C=C4)cc2)ccc1NS(=O)(=O)c1ccc(C#N)cc1C
REMARK SMILES IDX 8 1 7 2 5 3 6 4 4 5 1 6 2 7 3 8 78 9 77 10 76 11 79 12 80 14
REMARK SMILES IDX 81 15 82 16 83 17 84 18 90 19 85 20 89 21 91 22 86 23 87 24
REMARK SMILES IDX 88 25 9 26 10 27 11 28 12 29 13 30 14 31 75 32 15 33 74 34
REMARK SMILES IDX 16 35 17 36 18 37 68 38 19 39 73 40 67 41 69 42 20 43 72 44
REMARK SMILES IDX 66 45 65 46 21 48 53 49 33 50 52 51 34 52 37 53 51 54 70 55
REMARK SMILES IDX 35 56 36 57 50 59 71 60 38 61 22 62 23 63 31 64 24 65 25 66
REMARK SMILES IDX 29 67 32 68 26 69 27 70 30 71 28 72 54 73 55 74 63 75 56 76
REMARK SMILES IDX 57 77 61 78 64 79 58 80 59 81 62 82 60 83 39 84 40 85 48 86
REMARK SMILES IDX 41 87 42 88 46 89 49 90 43 91 44 92 47 93 45 94
REMARK H PARENT 79 13 69 47 37 58
REMARK Flexibility Score: inf
ROOT
ATOM      1  C   UNL A   1      37.633  22.161  25.700  1.00  0.00     0.275 C 
ENDROOT
BRANCH   1   2
ATOM      2  O   UNL A   1      36.206  22.132  25.541  1.00  0.00    -0.458 OA
BRANCH   2   3
ATOM      3  C   UNL A   1      35.812  22.167  24.247  1.00  0.00     0.338 C 
ATOM      4  O   UNL A   1      36.418  22.659  23.305  1.00  0.00    -0.246 OA
BRANCH   3   5
ATOM      5  C   UNL A   1      34.437  21.686  24.054  1.00  0.00     0.060 A 
ATOM      6  C   UNL A   1      31.111  23.216  23.040  1.00  0.00     0.046 C 
ATOM      7  C   UNL A   1      32.123  22.376  23.774  1.00  0.00    -0.026 A 
ATOM      8  C   UNL A   1      33.471  22.452  23.392  1.00  0.00     0.021 A 
ATOM      9  C   UNL A   1      31.809  21.584  24.886  1.00  0.00     0.052 A 
ATOM     10  C   UNL A   1      32.712  20.601  25.306  1.00  0.00     0.028 A 
ATOM     11  C   UNL A   1      34.046  20.682  24.928  1.00  0.00     0.018 A 
BRANCH   9  12
ATOM     12  N   UNL A   1      30.764  22.037  25.745  1.00  0.00    -0.279 N 
ATOM     13  H   UNL A   1      29.867  21.657  25.601  1.00  0.00     0.180 HD
BRANCH  12  14
ATOM     14  S   UNL A   1      30.928  23.157  26.976  1.00  0.00     0.262 S 
ATOM     15  O   UNL A   1      29.648  23.211  27.647  1.00  0.00    -0.201 OA
ATOM     16  O   UNL A   1      32.142  22.805  27.683  1.00  0.00    -0.201 OA
BRANCH  14  17
ATOM     17  C   UNL A   1      31.189  24.786  26.240  1.00  0.00     0.090 A 
ATOM     18  C   UNL A   1      30.093  25.584  25.869  1.00  0.00     0.024 A 
ATOM     19  C   UNL A   1      32.490  25.162  25.845  1.00  0.00    -0.029 A 
ATOM     20  C   UNL A   1      30.267  26.653  24.977  1.00  0.00     0.021 A 
ATOM     21  C   UNL A   1      32.644  26.245  24.955  1.00  0.00     0.024 A 
ATOM     22  C   UNL A   1      33.750  24.514  26.355  1.00  0.00     0.046 C 
ATOM     23  C   UNL A   1      31.538  26.960  24.488  1.00  0.00     0.052 A 
BRANCH  23  24
ATOM     24  C   UNL A   1      31.715  27.981  23.487  1.00  0.00     0.099 C 
ATOM     25  N   UNL A   1      31.887  28.797  22.694  1.00  0.00    -0.192 NA
ENDBRANCH  23  24
ENDBRANCH  14  17
ENDBRANCH  12  14
ENDBRANCH   9  12
ENDBRANCH   3   5
ENDBRANCH   2   3
ENDBRANCH   1   2
BRANCH   1  26
ATOM     26  C   UNL A   1      38.168  23.554  26.072  1.00  0.00     0.275 C 
BRANCH  26  27
ATOM     27  O   UNL A   1      38.759  23.799  27.381  1.00  0.00    -0.458 OA
BRANCH  27  28
ATOM     28  C   UNL A   1      39.981  24.333  27.601  1.00  0.00     0.338 C 
ATOM     29  O   UNL A   1      41.020  23.700  27.508  1.00  0.00    -0.246 OA
BRANCH  28  30
ATOM     30  C   UNL A   1      39.979  25.751  27.984  1.00  0.00     0.060 A 
ATOM     31  C   UNL A   1      40.252  26.711  26.998  1.00  0.00     0.016 A 
ATOM     32  C   UNL A   1      39.551  26.110  29.256  1.00  0.00     0.016 A 
ATOM     33  C   UNL A   1      39.993  28.047  27.240  1.00  0.00     0.010 A 
ATOM     34  C   UNL A   1      39.126  27.391  29.449  1.00  0.00     0.010 A 
ATOM     35  C   UNL A   1      39.434  28.353  28.474  1.00  0.00    -0.014 A 
BRANCH  35  36
ATOM     36  C   UNL A   1      39.550  29.665  29.066  1.00  0.00     0.031 A 
ATOM     37  C   UNL A   1      38.496  30.650  28.799  1.00  0.00     0.074 A 
ATOM     38  C   UNL A   1      40.536  29.607  29.997  1.00  0.00     0.049 A 
ATOM     39  N   UNL A   1      38.633  31.916  28.944  1.00  0.00    -0.248 NA
ATOM     40  C   UNL A   1      37.180  30.309  28.249  1.00  0.00     0.031 C 
ATOM     41  C   UNL A   1      40.862  30.382  31.175  1.00  0.00     0.029 A 
ATOM     42  N   UNL A   1      41.599  28.668  29.942  1.00  0.00    -0.354 N 
ATOM     43  C   UNL A   1      37.355  32.444  28.997  1.00  0.00     0.074 A 
ATOM     44  C   UNL A   1      36.533  31.481  28.318  1.00  0.00     0.031 C 
ATOM     45  C   UNL A   1      42.160  30.162  31.484  1.00  0.00     0.029 A 
ATOM     46  C   UNL A   1      42.728  29.308  30.443  1.00  0.00     0.049 A 
ATOM     47  H   UNL A   1      41.547  27.742  29.614  1.00  0.00     0.167 HD
ATOM     48  C   UNL A   1      37.143  33.496  29.844  1.00  0.00     0.037 A 
ATOM     49  C   UNL A   1      43.668  29.665  29.518  1.00  0.00     0.037 A 
ATOM     50  C   UNL A   1      38.414  33.802  30.504  1.00  0.00     0.049 A 
ATOM     51  C   UNL A   1      43.605  31.163  29.345  1.00  0.00     0.074 A 
ATOM     52  C   UNL A   1      38.933  33.407  31.726  1.00  0.00     0.029 A 
ATOM     53  N   UNL A   1      39.491  34.209  29.726  1.00  0.00    -0.354 N 
ATOM     54  N   UNL A   1      42.502  31.869  29.361  1.00  0.00    -0.248 NA
ATOM     55  C   UNL A   1      44.814  31.973  29.339  1.00  0.00     0.031 C 
ATOM     56  C   UNL A   1      40.351  33.501  31.636  1.00  0.00     0.029 A 
ATOM     57  C   UNL A   1      40.687  33.908  30.353  1.00  0.00     0.049 A 
ATOM     58  H   UNL A   1      39.413  34.650  28.851  1.00  0.00     0.167 HD
ATOM     59  C   UNL A   1      42.835  33.192  29.493  1.00  0.00     0.074 A 
ATOM     60  C   UNL A   1      44.290  33.203  29.450  1.00  0.00     0.031 C 
ATOM     61  C   UNL A   1      41.946  34.212  29.695  1.00  0.00     0.037 A 
BRANCH  48  62
ATOM     62  C   UNL A   1      35.828  34.071  30.343  1.00  0.00     0.064 A 
ATOM     63  C   UNL A   1      34.922  34.643  29.414  1.00  0.00     0.173 A 
ATOM     64  C   UNL A   1      35.389  34.117  31.680  1.00  0.00     0.173 A 
ATOM     65  F   UNL A   1      35.168  34.626  28.096  1.00  0.00    -0.203 F 
ATOM     66  C   UNL A   1      33.721  35.249  29.793  1.00  0.00     0.198 A 
ATOM     67  C   UNL A   1      34.182  34.724  32.060  1.00  0.00     0.198 A 
ATOM     68  F   UNL A   1      36.083  33.556  32.672  1.00  0.00    -0.203 F 
ATOM     69  F   UNL A   1      32.924  35.785  28.858  1.00  0.00    -0.200 F 
ATOM     70  C   UNL A   1      33.351  35.296  31.118  1.00  0.00     0.200 A 
ATOM     71  F   UNL A   1      33.827  34.744  33.352  1.00  0.00    -0.200 F 
ATOM     72  F   UNL A   1      32.198  35.871  31.482  1.00  0.00    -0.200 F 
ENDBRANCH  48  62
BRANCH  49  73
ATOM     73  C   UNL A   1      43.881  28.630  28.442  1.00  0.00     0.064 A 
ATOM     74  C   UNL A   1      44.242  27.318  28.844  1.00  0.00     0.173 A 
ATOM     75  C   UNL A   1      43.488  28.780  27.106  1.00  0.00     0.173 A 
ATOM     76  F   UNL A   1      44.646  27.093  30.105  1.00  0.00    -0.203 F 
ATOM     77  C   UNL A   1      44.095  26.211  28.006  1.00  0.00     0.198 A 
ATOM     78  C   UNL A   1      43.374  27.667  26.254  1.00  0.00     0.198 A 
ATOM     79  F   UNL A   1      43.121  29.978  26.632  1.00  0.00    -0.203 F 
ATOM     80  F   UNL A   1      44.307  24.976  28.485  1.00  0.00    -0.200 F 
ATOM     81  C   UNL A   1      43.650  26.386  26.712  1.00  0.00     0.200 A 
ATOM     82  F   UNL A   1      42.881  27.822  25.014  1.00  0.00    -0.200 F 
ATOM     83  F   UNL A   1      43.415  25.323  25.927  1.00  0.00    -0.200 F 
ENDBRANCH  49  73
BRANCH  61  84
ATOM     84  C   UNL A   1      42.246  35.649  29.352  1.00  0.00     0.064 A 
ATOM     85  C   UNL A   1      43.110  36.451  30.116  1.00  0.00     0.173 A 
ATOM     86  C   UNL A   1      41.809  36.219  28.132  1.00  0.00     0.173 A 
ATOM     87  F   UNL A   1      43.744  35.974  31.196  1.00  0.00    -0.203 F 
ATOM     88  C   UNL A   1      43.404  37.764  29.759  1.00  0.00     0.198 A 
ATOM     89  C   UNL A   1      42.194  37.492  27.727  1.00  0.00     0.198 A 
ATOM     90  F   UNL A   1      41.029  35.550  27.270  1.00  0.00    -0.203 F 
ATOM     91  F   UNL A   1      44.151  38.515  30.578  1.00  0.00    -0.200 F 
ATOM     92  C   UNL A   1      42.958  38.279  28.560  1.00  0.00     0.200 A 
ATOM     93  F   UNL A   1      41.834  37.940  26.516  1.00  0.00    -0.200 F 
ATOM     94  F   UNL A   1      43.284  39.525  28.197  1.00  0.00    -0.200 F 
ENDBRANCH  61  84
ENDBRANCH  35  36
ENDBRANCH  28  30
ENDBRANCH  27  28
ENDBRANCH  26  27
ENDBRANCH   1  26
TORSDOF 15
ENDMDL
MODEL 2
REMARK VINA RESULT:     -13.4      4.009     10.255
REMARK SMILES Cc1cc(C(=O)OCCOC(=O)c2ccc(-c3c4nc(c(-c5c(F)c(F)c(F)c(F)c5F)c5ccc([nH]5)c(-c5c(F)c(F)c(F)c(F)c5F)c5nc(c(-c6c(F)c(F)c(F)c(F)c6F)c6ccc3[nH]6)C=C5)C=C4)cc2)ccc1NS(=O)(=O)c1ccc(C#N)cc1C
REMARK SMILES IDX 8 1 7 2 5 3 6 4 4 5 1 6 2 7 3 8 78 9 77 10 76 11 79 12 80 14
REMARK SMILES IDX 81 15 82 16 83 17 84 18 90 19 85 20 89 21 91 22 86 23 87 24
REMARK SMILES IDX 88 25 9 26 10 27 11 28 12 29 13 30 14 31 75 32 15 33 74 34
REMARK SMILES IDX 16 35 17 36 18 37 68 38 19 39 73 40 67 41 69 42 20 43 72 44
REMARK SMILES IDX 66 45 65 46 21 48 53 49 33 50 52 51 34 52 37 53 51 54 70 55
REMARK SMILES IDX 35 56 36 57 50 59 71 60 38 61 22 62 23 63 31 64 24 65 25 66
REMARK SMILES IDX 29 67 32 68 26 69 27 70 30 71 28 72 54 73 55 74 63 75 56 76
REMARK SMILES IDX 57 77 61 78 64 79 58 80 59 81 62 82 60 83 39 84 40 85 48 86
REMARK SMILES IDX 41 87 42 88 46 89 49 90 43 91 44 92 47 93 45 94
REMARK H PARENT 79 13 69 47 37 58
REMARK Flexibility Score: inf
ROOT
ATOM      1  C   UNL A   1      33.014  30.450  26.545  1.00  0.00     0.275 C 
ENDROOT
BRANCH   1   2
ATOM      2  O   UNL A   1      31.764  29.869  26.950  1.00  0.00    -0.458 OA
BRANCH   2   3
ATOM      3  C   UNL A   1      31.805  28.519  27.032  1.00  0.00     0.338 C 
ATOM      4  O   UNL A   1      31.559  27.832  28.014  1.00  0.00    -0.246 OA
BRANCH   3   5
ATOM      5  C   UNL A   1      32.363  27.889  25.828  1.00  0.00     0.060 A 
ATOM      6  C   UNL A   1      31.017  26.680  22.487  1.00  0.00     0.046 C 
ATOM      7  C   UNL A   1      31.807  26.722  23.769  1.00  0.00    -0.026 A 
ATOM      8  C   UNL A   1      31.646  27.819  24.628  1.00  0.00     0.021 A 
ATOM      9  C   UNL A   1      32.631  25.676  24.203  1.00  0.00     0.052 A 
ATOM     10  C   UNL A   1      33.565  25.913  25.218  1.00  0.00     0.028 A 
ATOM     11  C   UNL A   1      33.400  26.999  26.067  1.00  0.00     0.018 A 
BRANCH   9  12
ATOM     12  N   UNL A   1      32.252  24.346  23.849  1.00  0.00    -0.279 N 
ATOM     13  H   UNL A   1      31.415  24.000  24.235  1.00  0.00     0.180 HD
BRANCH  12  14
ATOM     14  S   UNL A   1      33.105  23.325  22.836  1.00  0.00     0.262 S 
ATOM     15  O   UNL A   1      32.221  22.219  22.540  1.00  0.00    -0.201 OA
ATOM     16  O   UNL A   1      33.654  24.161  21.788  1.00  0.00    -0.201 OA
BRANCH  14  17
ATOM     17  C   UNL A   1      34.498  22.633  23.756  1.00  0.00     0.090 A 
ATOM     18  C   UNL A   1      35.814  23.025  23.458  1.00  0.00     0.024 A 
ATOM     19  C   UNL A   1      34.275  21.543  24.624  1.00  0.00    -0.029 A 
ATOM     20  C   UNL A   1      36.898  22.245  23.885  1.00  0.00     0.021 A 
ATOM     21  C   UNL A   1      35.379  20.777  25.049  1.00  0.00     0.024 A 
ATOM     22  C   UNL A   1      32.928  21.167  25.181  1.00  0.00     0.046 C 
ATOM     23  C   UNL A   1      36.679  21.097  24.648  1.00  0.00     0.052 A 
BRANCH  23  24
ATOM     24  C   UNL A   1      37.773  20.225  24.998  1.00  0.00     0.099 C 
ATOM     25  N   UNL A   1      38.664  19.546  25.256  1.00  0.00    -0.192 NA
ENDBRANCH  23  24
ENDBRANCH  14  17
ENDBRANCH  12  14
ENDBRANCH   9  12
ENDBRANCH   3   5
ENDBRANCH   2   3
ENDBRANCH   1   2
BRANCH   1  26
ATOM     26  C   UNL A   1      34.052  30.492  27.678  1.00  0.00     0.275 C 
BRANCH  26  27
ATOM     27  O   UNL A   1      35.424  30.055  27.448  1.00  0.00    -0.458 OA
BRANCH  27  28
ATOM     28  C   UNL A   1      36.531  30.670  27.919  1.00  0.00     0.338 C 
ATOM     29  O   UNL A   1      36.620  31.878  28.068  1.00  0.00    -0.246 OA
BRANCH  28  30
ATOM     30  C   UNL A   1      37.652  29.775  28.233  1.00  0.00     0.060 A 
ATOM     31  C   UNL A   1      37.546  28.935  29.353  1.00  0.00     0.016 A 
ATOM     32  C   UNL A   1      38.705  29.663  27.333  1.00  0.00     0.016 A 
ATOM     33  C   UNL A   1      38.438  27.894  29.527  1.00  0.00     0.010 A 
ATOM     34  C   UNL A   1      39.480  28.544  27.392  1.00  0.00     0.010 A 
ATOM     35  C   UNL A   1      39.393  27.728  28.532  1.00  0.00    -0.014 A 
BRANCH  35  36
ATOM     36  C   UNL A   1      40.644  27.049  28.774  1.00  0.00     0.031 A 
ATOM     37  C   UNL A   1      40.724  25.609  28.501  1.00  0.00     0.074 A 
ATOM     38  C   UNL A   1      41.594  27.999  28.969  1.00  0.00     0.049 A 
ATOM     39  N   UNL A   1      41.614  24.827  28.990  1.00  0.00    -0.248 NA
ATOM     40  C   UNL A   1      39.739  24.874  27.701  1.00  0.00     0.031 C 
ATOM     41  C   UNL A   1      43.035  28.030  28.842  1.00  0.00     0.029 A 
ATOM     42  N   UNL A   1      41.298  29.303  29.444  1.00  0.00    -0.354 N 
ATOM     43  C   UNL A   1      41.607  23.688  28.204  1.00  0.00     0.074 A 
ATOM     44  C   UNL A   1      40.298  23.658  27.614  1.00  0.00     0.031 C 
ATOM     45  C   UNL A   1      43.503  29.079  29.557  1.00  0.00     0.029 A 
ATOM     46  C   UNL A   1      42.368  29.693  30.242  1.00  0.00     0.049 A 
ATOM     47  H   UNL A   1      40.491  29.831  29.245  1.00  0.00     0.167 HD
ATOM     48  C   UNL A   1      42.810  23.082  27.964  1.00  0.00     0.037 A 
ATOM     49  C   UNL A   1      42.135  29.698  31.589  1.00  0.00     0.037 A 
ATOM     50  C   UNL A   1      43.845  23.853  28.656  1.00  0.00     0.049 A 
ATOM     51  C   UNL A   1      42.862  28.521  32.191  1.00  0.00     0.074 A 
ATOM     52  C   UNL A   1      44.688  24.860  28.216  1.00  0.00     0.029 A 
ATOM     53  N   UNL A   1      43.791  23.953  30.041  1.00  0.00    -0.354 N 
ATOM     54  N   UNL A   1      42.980  27.347  31.621  1.00  0.00    -0.248 NA
ATOM     55  C   UNL A   1      43.669  28.667  33.394  1.00  0.00     0.031 C 
ATOM     56  C   UNL A   1      45.070  25.622  29.358  1.00  0.00     0.029 A 
ATOM     57  C   UNL A   1      44.425  25.104  30.471  1.00  0.00     0.049 A 
ATOM     58  H   UNL A   1      43.360  23.296  30.633  1.00  0.00     0.167 HD
ATOM     59  C   UNL A   1      43.948  26.639  32.285  1.00  0.00     0.074 A 
ATOM     60  C   UNL A   1      44.327  27.499  33.396  1.00  0.00     0.031 C 
ATOM     61  C   UNL A   1      44.452  25.430  31.887  1.00  0.00     0.037 A 
BRANCH  48  62
ATOM     62  C   UNL A   1      43.160  22.036  26.920  1.00  0.00     0.064 A 
ATOM     63  C   UNL A   1      42.525  20.768  26.965  1.00  0.00     0.173 A 
ATOM     64  C   UNL A   1      44.091  22.177  25.874  1.00  0.00     0.173 A 
ATOM     65  F   UNL A   1      41.571  20.495  27.867  1.00  0.00    -0.203 F 
ATOM     66  C   UNL A   1      42.833  19.728  26.083  1.00  0.00     0.198 A 
ATOM     67  C   UNL A   1      44.399  21.132  24.987  1.00  0.00     0.198 A 
ATOM     68  F   UNL A   1      44.722  23.330  25.639  1.00  0.00    -0.203 F 
ATOM     69  F   UNL A   1      42.203  18.551  26.200  1.00  0.00    -0.200 F 
ATOM     70  C   UNL A   1      43.775  19.906  25.097  1.00  0.00     0.200 A 
ATOM     71  F   UNL A   1      45.305  21.329  24.019  1.00  0.00    -0.200 F 
ATOM     72  F   UNL A   1      44.068  18.913  24.247  1.00  0.00    -0.200 F 
ENDBRANCH  48  62
BRANCH  49  73
ATOM     73  C   UNL A   1      40.769  30.216  31.963  1.00  0.00     0.064 A 
ATOM     74  C   UNL A   1      39.787  29.272  32.361  1.00  0.00     0.173 A 
ATOM     75  C   UNL A   1      40.470  31.560  32.214  1.00  0.00     0.173 A 
ATOM     76  F   UNL A   1      39.989  27.963  32.141  1.00  0.00    -0.203 F 
ATOM     77  C   UNL A   1      38.644  29.637  33.077  1.00  0.00     0.198 A 
ATOM     78  C   UNL A   1      39.302  31.928  32.905  1.00  0.00     0.198 A 
ATOM     79  F   UNL A   1      41.337  32.526  31.883  1.00  0.00    -0.203 F 
ATOM     80  F   UNL A   1      37.826  28.690  33.559  1.00  0.00    -0.200 F 
ATOM     81  C   UNL A   1      38.408  30.967  33.358  1.00  0.00     0.200 A 
ATOM     82  F   UNL A   1      39.098  33.213  33.238  1.00  0.00    -0.200 F 
ATOM     83  F   UNL A   1      37.366  31.322  34.125  1.00  0.00    -0.200 F 
ENDBRANCH  49  73
BRANCH  61  84
ATOM     84  C   UNL A   1      45.115  24.461  32.832  1.00  0.00     0.064 A 
ATOM     85  C   UNL A   1      46.402  24.667  33.356  1.00  0.00     0.173 A 
ATOM     86  C   UNL A   1      44.401  23.371  33.386  1.00  0.00     0.173 A 
ATOM     87  F   UNL A   1      47.117  25.762  33.062  1.00  0.00    -0.203 F 
ATOM     88  C   UNL A   1      46.981  23.779  34.258  1.00  0.00     0.198 A 
ATOM     89  C   UNL A   1      44.945  22.549  34.368  1.00  0.00     0.198 A 
ATOM     90  F   UNL A   1      43.141  23.087  33.027  1.00  0.00    -0.203 F 
ATOM     91  F   UNL A   1      48.248  23.969  34.645  1.00  0.00    -0.200 F 
ATOM     92  C   UNL A   1      46.249  22.729  34.774  1.00  0.00     0.200 A 
ATOM     93  F   UNL A   1      44.187  21.597  34.928  1.00  0.00    -0.200 F 
ATOM     94  F   UNL A   1      46.792  21.906  35.678  1.00  0.00    -0.200 F 
ENDBRANCH  61  84
ENDBRANCH  35  36
ENDBRANCH  28  30
ENDBRANCH  27  28
ENDBRANCH  26  27
ENDBRANCH   1  26
TORSDOF 15
ENDMDL
MODEL 3
REMARK VINA RESULT:     -13.3      1.482      1.913
REMARK SMILES Cc1cc(C(=O)OCCOC(=O)c2ccc(-c3c4nc(c(-c5c(F)c(F)c(F)c(F)c5F)c5ccc([nH]5)c(-c5c(F)c(F)c(F)c(F)c5F)c5nc(c(-c6c(F)c(F)c(F)c(F)c6F)c6ccc3[nH]6)C=C5)C=C4)cc2)ccc1NS(=O)(=O)c1ccc(C#N)cc1C
REMARK SMILES IDX 8 1 7 2 5 3 6 4 4 5 1 6 2 7 3 8 78 9 77 10 76 11 79 12 80 14
REMARK SMILES IDX 81 15 82 16 83 17 84 18 90 19 85 20 89 21 91 22 86 23 87 24
REMARK SMILES IDX 88 25 9 26 10 27 11 28 12 29 13 30 14 31 75 32 15 33 74 34
REMARK SMILES IDX 16 35 17 36 18 37 68 38 19 39 73 40 67 41 69 42 20 43 72 44
REMARK SMILES IDX 66 45 65 46 21 48 53 49 33 50 52 51 34 52 37 53 51 54 70 55
REMARK SMILES IDX 35 56 36 57 50 59 71 60 38 61 22 62 23 63 31 64 24 65 25 66
REMARK SMILES IDX 29 67 32 68 26 69 27 70 30 71 28 72 54 73 55 74 63 75 56 76
REMARK SMILES IDX 57 77 61 78 64 79 58 80 59 81 62 82 60 83 39 84 40 85 48 86
REMARK SMILES IDX 41 87 42 88 46 89 49 90 43 91 44 92 47 93 45 94
REMARK H PARENT 79 13 69 47 37 58
REMARK Flexibility Score: inf
ROOT
ATOM      1  C   UNL A   1      37.071  21.704  25.697  1.00  0.00     0.275 C 
ENDROOT
BRANCH   1   2
ATOM      2  O   UNL A   1      36.333  22.172  24.557  1.00  0.00    -0.458 OA
BRANCH   2   3
ATOM      3  C   UNL A   1      35.040  21.773  24.558  1.00  0.00     0.338 C 
ATOM      4  O   UNL A   1      34.566  20.808  25.141  1.00  0.00    -0.246 OA
BRANCH   3   5
ATOM      5  C   UNL A   1      34.206  22.532  23.615  1.00  0.00     0.060 A 
ATOM      6  C   UNL A   1      33.739  26.186  22.688  1.00  0.00     0.046 C 
ATOM      7  C   UNL A   1      33.417  24.752  23.018  1.00  0.00    -0.026 A 
ATOM      8  C   UNL A   1      34.470  23.870  23.304  1.00  0.00     0.021 A 
ATOM      9  C   UNL A   1      32.111  24.264  23.147  1.00  0.00     0.052 A 
ATOM     10  C   UNL A   1      31.890  22.882  23.133  1.00  0.00     0.028 A 
ATOM     11  C   UNL A   1      32.935  22.013  23.419  1.00  0.00     0.018 A 
BRANCH   9  12
ATOM     12  N   UNL A   1      31.115  25.162  23.633  1.00  0.00    -0.279 N 
ATOM     13  H   UNL A   1      30.508  25.562  22.969  1.00  0.00     0.180 HD
BRANCH  12  14
ATOM     14  S   UNL A   1      30.886  25.594  25.233  1.00  0.00     0.262 S 
ATOM     15  O   UNL A   1      29.491  25.952  25.359  1.00  0.00    -0.201 OA
ATOM     16  O   UNL A   1      31.474  24.533  26.025  1.00  0.00    -0.201 OA
BRANCH  14  17
ATOM     17  C   UNL A   1      31.832  27.097  25.563  1.00  0.00     0.090 A 
ATOM     18  C   UNL A   1      32.851  27.100  26.531  1.00  0.00     0.024 A 
ATOM     19  C   UNL A   1      31.401  28.318  25.001  1.00  0.00    -0.029 A 
ATOM     20  C   UNL A   1      33.325  28.312  27.055  1.00  0.00     0.021 A 
ATOM     21  C   UNL A   1      31.895  29.524  25.538  1.00  0.00     0.024 A 
ATOM     22  C   UNL A   1      30.478  28.425  23.817  1.00  0.00     0.046 C 
ATOM     23  C   UNL A   1      32.818  29.525  26.587  1.00  0.00     0.052 A 
BRANCH  23  24
ATOM     24  C   UNL A   1      33.212  30.771  27.195  1.00  0.00     0.099 C 
ATOM     25  N   UNL A   1      33.537  31.749  27.706  1.00  0.00    -0.192 NA
ENDBRANCH  23  24
ENDBRANCH  14  17
ENDBRANCH  12  14
ENDBRANCH   9  12
ENDBRANCH   3   5
ENDBRANCH   2   3
ENDBRANCH   1   2
BRANCH   1  26
ATOM     26  C   UNL A   1      38.500  22.267  25.759  1.00  0.00     0.275 C 
BRANCH  26  27
ATOM     27  O   UNL A   1      38.785  23.495  26.490  1.00  0.00    -0.458 OA
BRANCH  27  28
ATOM     28  C   UNL A   1      40.009  23.895  26.902  1.00  0.00     0.338 C 
ATOM     29  O   UNL A   1      41.000  23.186  26.858  1.00  0.00    -0.246 OA
BRANCH  28  30
ATOM     30  C   UNL A   1      40.068  25.263  27.435  1.00  0.00     0.060 A 
ATOM     31  C   UNL A   1      40.406  26.308  26.561  1.00  0.00     0.016 A 
ATOM     32  C   UNL A   1      39.633  25.506  28.732  1.00  0.00     0.016 A 
ATOM     33  C   UNL A   1      40.207  27.621  26.940  1.00  0.00     0.010 A 
ATOM     34  C   UNL A   1      39.267  26.779  29.055  1.00  0.00     0.010 A 
ATOM     35  C   UNL A   1      39.639  27.822  28.192  1.00  0.00    -0.014 A 
BRANCH  35  36
ATOM     36  C   UNL A   1      39.807  29.057  28.922  1.00  0.00     0.031 A 
ATOM     37  C   UNL A   1      38.738  30.060  28.857  1.00  0.00     0.074 A 
ATOM     38  C   UNL A   1      40.864  28.896  29.759  1.00  0.00     0.049 A 
ATOM     39  N   UNL A   1      38.891  31.301  29.139  1.00  0.00    -0.248 NA
ATOM     40  C   UNL A   1      37.381  29.778  28.378  1.00  0.00     0.031 C 
ATOM     41  C   UNL A   1      41.286  29.530  30.990  1.00  0.00     0.029 A 
ATOM     42  N   UNL A   1      41.916  27.976  29.510  1.00  0.00    -0.354 N 
ATOM     43  C   UNL A   1      37.623  31.812  29.354  1.00  0.00     0.074 A 
ATOM     44  C   UNL A   1      36.746  30.931  28.635  1.00  0.00     0.031 C 
ATOM     45  C   UNL A   1      42.603  29.283  31.166  1.00  0.00     0.029 A 
ATOM     46  C   UNL A   1      43.083  28.559  29.991  1.00  0.00     0.049 A 
ATOM     47  H   UNL A   1      41.834  27.094  29.081  1.00  0.00     0.167 HD
ATOM     48  C   UNL A   1      37.483  32.757  30.333  1.00  0.00     0.037 A 
ATOM     49  C   UNL A   1      43.948  29.028  29.042  1.00  0.00     0.037 A 
ATOM     50  C   UNL A   1      38.805  32.991  30.921  1.00  0.00     0.049 A 
ATOM     51  C   UNL A   1      43.876  30.535  29.051  1.00  0.00     0.074 A 
ATOM     52  C   UNL A   1      39.417  32.458  32.043  1.00  0.00     0.029 A 
ATOM     53  N   UNL A   1      39.817  33.492  30.113  1.00  0.00    -0.354 N 
ATOM     54  N   UNL A   1      42.781  31.228  29.238  1.00  0.00    -0.248 NA
ATOM     55  C   UNL A   1      45.084  31.348  29.044  1.00  0.00     0.031 C 
ATOM     56  C   UNL A   1      40.824  32.570  31.852  1.00  0.00     0.029 A 
ATOM     57  C   UNL A   1      41.058  33.127  30.603  1.00  0.00     0.049 A 
ATOM     58  H   UNL A   1      39.671  34.032  29.304  1.00  0.00     0.167 HD
ATOM     59  C   UNL A   1      43.128  32.528  29.496  1.00  0.00     0.074 A 
ATOM     60  C   UNL A   1      44.575  32.553  29.340  1.00  0.00     0.031 C 
ATOM     61  C   UNL A   1      42.262  33.513  29.887  1.00  0.00     0.037 A 
BRANCH  48  62
ATOM     62  C   UNL A   1      36.215  33.262  30.999  1.00  0.00     0.064 A 
ATOM     63  C   UNL A   1      35.370  34.159  30.296  1.00  0.00     0.173 A 
ATOM     64  C   UNL A   1      35.765  32.940  32.293  1.00  0.00     0.173 A 
ATOM     65  F   UNL A   1      35.630  34.518  29.031  1.00  0.00    -0.203 F 
ATOM     66  C   UNL A   1      34.218  34.720  30.855  1.00  0.00     0.198 A 
ATOM     67  C   UNL A   1      34.607  33.503  32.854  1.00  0.00     0.198 A 
ATOM     68  F   UNL A   1      36.398  32.052  33.062  1.00  0.00    -0.203 F 
ATOM     69  F   UNL A   1      33.480  35.576  30.135  1.00  0.00    -0.200 F 
ATOM     70  C   UNL A   1      33.838  34.398  32.138  1.00  0.00     0.200 A 
ATOM     71  F   UNL A   1      34.239  33.163  34.098  1.00  0.00    -0.200 F 
ATOM     72  F   UNL A   1      32.732  34.930  32.674  1.00  0.00    -0.200 F 
ENDBRANCH  48  62
BRANCH  49  73
ATOM     73  C   UNL A   1      44.071  28.127  27.839  1.00  0.00     0.064 A 
ATOM     74  C   UNL A   1      44.505  26.793  28.050  1.00  0.00     0.173 A 
ATOM     75  C   UNL A   1      43.533  28.409  26.577  1.00  0.00     0.173 A 
ATOM     76  F   UNL A   1      45.048  26.445  29.228  1.00  0.00    -0.203 F 
ATOM     77  C   UNL A   1      44.298  25.780  27.110  1.00  0.00     0.198 A 
ATOM     78  C   UNL A   1      43.357  27.394  25.619  1.00  0.00     0.198 A 
ATOM     79  F   UNL A   1      43.087  29.638  26.283  1.00  0.00    -0.203 F 
ATOM     80  F   UNL A   1      44.592  24.509  27.420  1.00  0.00    -0.200 F 
ATOM     81  C   UNL A   1      43.713  26.081  25.897  1.00  0.00     0.200 A 
ATOM     82  F   UNL A   1      42.730  27.667  24.463  1.00  0.00    -0.200 F 
ATOM     83  F   UNL A   1      43.423  25.104  25.025  1.00  0.00    -0.200 F 
ENDBRANCH  49  73
BRANCH  61  84
ATOM     84  C   UNL A   1      42.539  34.982  29.691  1.00  0.00     0.064 A 
ATOM     85  C   UNL A   1      43.432  35.703  30.501  1.00  0.00     0.173 A 
ATOM     86  C   UNL A   1      42.044  35.678  28.562  1.00  0.00     0.173 A 
ATOM     87  F   UNL A   1      44.117  35.117  31.492  1.00  0.00    -0.203 F 
ATOM     88  C   UNL A   1      43.703  37.050  30.279  1.00  0.00     0.198 A 
ATOM     89  C   UNL A   1      42.404  36.992  28.284  1.00  0.00     0.198 A 
ATOM     90  F   UNL A   1      41.230  35.100  27.668  1.00  0.00    -0.203 F 
ATOM     91  F   UNL A   1      44.482  37.714  31.142  1.00  0.00    -0.200 F 
ATOM     92  C   UNL A   1      43.201  37.690  29.164  1.00  0.00     0.200 A 
ATOM     93  F   UNL A   1      41.987  37.566  27.148  1.00  0.00    -0.200 F 
ATOM     94  F   UNL A   1      43.504  38.972  28.927  1.00  0.00    -0.200 F 
ENDBRANCH  61  84
ENDBRANCH  35  36
ENDBRANCH  28  30
ENDBRANCH  27  28
ENDBRANCH  26  27
ENDBRANCH   1  26
TORSDOF 15
ENDMDL
