MODEL 1
REMARK VINA RESULT:     -10.9      0.000      0.000
REMARK SMILES O=C(CC[NH+]1CCC(CC(=O)OCCOC(=O)c2ccc(-c3c4nc(c(-c5c(F)c(F)c(F)c(F)c5F)c5ccc([nH]5)c(-c5c(F)c(F)c(F)c(F)c5F)c5nc(c(-c6c(F)c(F)c(F)c(F)c6F)c6ccc3[nH]6)C=C5)C=C4)cc2)CC1)NC1CC1
REMARK SMILES IDX 12 1 10 2 11 3 9 4 8 5 5 6 6 7 82 8 7 10 81 11 4 12 3 13
REMARK SMILES IDX 2 14 1 15 83 16 84 18 85 19 86 20 13 21 14 22 15 23 16 24
REMARK SMILES IDX 17 25 18 26 19 27 80 28 20 29 79 30 21 31 22 32 23 33 73 34
REMARK SMILES IDX 24 35 78 36 72 37 74 38 25 39 77 40 71 41 70 42 26 44 58 45
REMARK SMILES IDX 38 46 57 47 39 48 42 49 56 50 75 51 40 52 41 53 55 55 76 56
REMARK SMILES IDX 43 57 27 58 28 59 36 60 29 61 30 62 34 63 37 64 31 65 32 66
REMARK SMILES IDX 35 67 33 68 59 69 60 70 68 71 61 72 62 73 66 74 69 75 63 76
REMARK SMILES IDX 64 77 67 78 65 79 44 80 45 81 53 82 46 83 47 84 51 85 54 86
REMARK SMILES IDX 48 87 49 88 52 89 50 90
REMARK H PARENT 5 9 83 17 74 43 42 54
REMARK Flexibility Score: inf
ROOT
ATOM      1  O   UNL A   1      41.688  20.767  25.802  1.00  0.00    -0.462 OA
ENDROOT
BRANCH   1   2
ATOM      2  C   UNL A   1      40.804  21.255  26.707  1.00  0.00     0.306 C 
ATOM      3  O   UNL A   1      40.659  20.816  27.842  1.00  0.00    -0.252 OA
BRANCH   2   4
ATOM      4  C   UNL A   1      39.930  22.360  26.144  1.00  0.00     0.126 C 
BRANCH   4   5
ATOM      5  C   UNL A   1      38.406  22.153  26.190  1.00  0.00     0.011 C 
ATOM      6  N   UNL A   1      35.701  22.022  25.047  1.00  0.00    -0.334 N 
ATOM      7  C   UNL A   1      36.123  23.163  25.849  1.00  0.00     0.262 C 
ATOM      8  C   UNL A   1      36.488  20.800  25.146  1.00  0.00     0.262 C 
ATOM      9  H   UNL A   1      35.969  22.288  24.100  1.00  0.00     0.348 HD
ATOM     10  C   UNL A   1      37.627  23.407  25.786  1.00  0.00     0.066 C 
ATOM     11  C   UNL A   1      38.003  21.024  25.222  1.00  0.00     0.066 C 
BRANCH   6  12
ATOM     12  C   UNL A   1      34.238  21.866  24.983  1.00  0.00     0.272 C 
BRANCH  12  13
ATOM     13  C   UNL A   1      33.513  20.893  25.921  1.00  0.00     0.161 C 
BRANCH  13  14
ATOM     14  C   UNL A   1      32.896  19.664  25.280  1.00  0.00     0.225 C 
ATOM     15  O   UNL A   1      31.881  19.729  24.592  1.00  0.00    -0.275 OA
ATOM     16  N   UNL A   1      33.631  18.515  25.450  1.00  0.00    -0.353 N 
ATOM     17  H   UNL A   1      34.381  18.544  26.088  1.00  0.00     0.163 HD
BRANCH  16  18
ATOM     18  C   UNL A   1      33.390  17.286  24.773  1.00  0.00     0.082 C 
ATOM     19  C   UNL A   1      34.282  16.917  23.614  1.00  0.00     0.027 C 
ATOM     20  C   UNL A   1      34.350  16.138  24.894  1.00  0.00     0.027 C 
ENDBRANCH  16  18
ENDBRANCH  13  14
ENDBRANCH  12  13
ENDBRANCH   6  12
ENDBRANCH   4   5
ENDBRANCH   2   4
ENDBRANCH   1   2
BRANCH   1  21
ATOM     21  C   UNL A   1      43.088  21.002  26.055  1.00  0.00     0.274 C 
BRANCH  21  22
ATOM     22  C   UNL A   1      43.747  21.878  24.982  1.00  0.00     0.275 C 
BRANCH  22  23
ATOM     23  O   UNL A   1      43.132  23.177  24.883  1.00  0.00    -0.458 OA
BRANCH  23  24
ATOM     24  C   UNL A   1      43.962  24.210  25.136  1.00  0.00     0.338 C 
ATOM     25  O   UNL A   1      44.970  24.508  24.507  1.00  0.00    -0.246 OA
BRANCH  24  26
ATOM     26  C   UNL A   1      43.434  25.055  26.216  1.00  0.00     0.060 A 
ATOM     27  C   UNL A   1      43.889  26.376  26.293  1.00  0.00     0.016 A 
ATOM     28  C   UNL A   1      42.558  24.546  27.176  1.00  0.00     0.016 A 
ATOM     29  C   UNL A   1      43.465  27.199  27.334  1.00  0.00     0.010 A 
ATOM     30  C   UNL A   1      42.133  25.373  28.219  1.00  0.00     0.010 A 
ATOM     31  C   UNL A   1      42.587  26.702  28.305  1.00  0.00    -0.014 A 
BRANCH  31  32
ATOM     32  C   UNL A   1      42.138  27.574  29.415  1.00  0.00     0.031 A 
ATOM     33  C   UNL A   1      42.878  27.575  30.719  1.00  0.00     0.074 A 
ATOM     34  C   UNL A   1      41.060  28.359  29.244  1.00  0.00     0.049 A 
ATOM     35  N   UNL A   1      42.588  28.195  31.834  1.00  0.00    -0.248 NA
ATOM     36  C   UNL A   1      44.108  26.772  30.776  1.00  0.00     0.031 C 
ATOM     37  C   UNL A   1      40.285  28.466  28.008  1.00  0.00     0.029 A 
ATOM     38  N   UNL A   1      40.423  29.206  30.116  1.00  0.00    -0.354 N 
ATOM     39  C   UNL A   1      43.589  27.847  32.731  1.00  0.00     0.074 A 
ATOM     40  C   UNL A   1      44.487  26.950  32.034  1.00  0.00     0.031 C 
ATOM     41  C   UNL A   1      39.270  29.324  28.202  1.00  0.00     0.029 A 
ATOM     42  C   UNL A   1      39.299  29.791  29.586  1.00  0.00     0.049 A 
ATOM     43  H   UNL A   1      40.740  29.377  31.032  1.00  0.00     0.167 HD
ATOM     44  C   UNL A   1      43.740  28.245  34.017  1.00  0.00     0.037 A 
ATOM     45  C   UNL A   1      38.381  30.588  30.163  1.00  0.00     0.037 A 
ATOM     46  C   UNL A   1      42.844  29.141  34.701  1.00  0.00     0.049 A 
ATOM     47  C   UNL A   1      38.541  30.965  31.610  1.00  0.00     0.074 A 
ATOM     48  C   UNL A   1      42.918  29.612  36.001  1.00  0.00     0.029 A 
ATOM     49  N   UNL A   1      41.705  29.698  34.139  1.00  0.00    -0.354 N 
ATOM     50  N   UNL A   1      39.491  30.635  32.450  1.00  0.00    -0.248 NA
ATOM     51  C   UNL A   1      37.497  31.822  32.191  1.00  0.00     0.031 C 
ATOM     52  C   UNL A   1      41.802  30.422  36.238  1.00  0.00     0.029 A 
ATOM     53  C   UNL A   1      41.057  30.493  35.073  1.00  0.00     0.049 A 
ATOM     54  H   UNL A   1      41.401  29.552  33.215  1.00  0.00     0.167 HD
ATOM     55  C   UNL A   1      39.175  31.261  33.648  1.00  0.00     0.074 A 
ATOM     56  C   UNL A   1      37.950  31.999  33.424  1.00  0.00     0.031 C 
ATOM     57  C   UNL A   1      39.841  31.227  34.828  1.00  0.00     0.037 A 
BRANCH  44  58
ATOM     58  C   UNL A   1      44.907  27.692  34.780  1.00  0.00     0.064 A 
ATOM     59  C   UNL A   1      44.835  26.461  35.448  1.00  0.00     0.173 A 
ATOM     60  C   UNL A   1      46.128  28.385  34.809  1.00  0.00     0.173 A 
ATOM     61  F   UNL A   1      43.687  25.767  35.461  1.00  0.00    -0.203 F 
ATOM     62  C   UNL A   1      45.935  25.954  36.135  1.00  0.00     0.198 A 
ATOM     63  C   UNL A   1      47.233  27.862  35.476  1.00  0.00     0.198 A 
ATOM     64  F   UNL A   1      46.251  29.564  34.182  1.00  0.00    -0.203 F 
ATOM     65  F   UNL A   1      45.832  24.794  36.799  1.00  0.00    -0.200 F 
ATOM     66  C   UNL A   1      47.135  26.651  36.143  1.00  0.00     0.200 A 
ATOM     67  F   UNL A   1      48.393  28.534  35.473  1.00  0.00    -0.200 F 
ATOM     68  F   UNL A   1      48.194  26.159  36.799  1.00  0.00    -0.200 F 
ENDBRANCH  44  58
BRANCH  45  69
ATOM     69  C   UNL A   1      37.220  31.067  29.371  1.00  0.00     0.064 A 
ATOM     70  C   UNL A   1      37.169  32.382  28.891  1.00  0.00     0.173 A 
ATOM     71  C   UNL A   1      36.141  30.220  29.077  1.00  0.00     0.173 A 
ATOM     72  F   UNL A   1      38.165  33.236  29.167  1.00  0.00    -0.203 F 
ATOM     73  C   UNL A   1      36.076  32.835  28.154  1.00  0.00     0.198 A 
ATOM     74  C   UNL A   1      35.062  30.666  28.319  1.00  0.00     0.198 A 
ATOM     75  F   UNL A   1      36.144  28.953  29.517  1.00  0.00    -0.203 F 
ATOM     76  F   UNL A   1      36.033  34.108  27.738  1.00  0.00    -0.200 F 
ATOM     77  C   UNL A   1      35.026  31.975  27.863  1.00  0.00     0.200 A 
ATOM     78  F   UNL A   1      34.057  29.829  28.031  1.00  0.00    -0.200 F 
ATOM     79  F   UNL A   1      33.979  32.410  27.150  1.00  0.00    -0.200 F 
ENDBRANCH  45  69
BRANCH  57  80
ATOM     80  C   UNL A   1      39.279  32.040  35.956  1.00  0.00     0.064 A 
ATOM     81  C   UNL A   1      38.337  31.508  36.847  1.00  0.00     0.173 A 
ATOM     82  C   UNL A   1      39.717  33.357  36.167  1.00  0.00     0.173 A 
ATOM     83  F   UNL A   1      37.875  30.260  36.676  1.00  0.00    -0.203 F 
ATOM     84  C   UNL A   1      37.837  32.273  37.898  1.00  0.00     0.198 A 
ATOM     85  C   UNL A   1      39.234  34.109  37.233  1.00  0.00     0.198 A 
ATOM     86  F   UNL A   1      40.620  33.909  35.344  1.00  0.00    -0.203 F 
ATOM     87  F   UNL A   1      36.905  31.760  38.713  1.00  0.00    -0.200 F 
ATOM     88  C   UNL A   1      38.291  33.569  38.094  1.00  0.00     0.200 A 
ATOM     89  F   UNL A   1      39.680  35.357  37.428  1.00  0.00    -0.200 F 
ATOM     90  F   UNL A   1      37.811  34.302  39.109  1.00  0.00    -0.200 F 
ENDBRANCH  57  80
ENDBRANCH  31  32
ENDBRANCH  24  26
ENDBRANCH  23  24
ENDBRANCH  22  23
ENDBRANCH  21  22
ENDBRANCH   1  21
TORSDOF 16
ENDMDL
MODEL 2
REMARK VINA RESULT:     -10.7      5.289      9.939
REMARK SMILES O=C(CC[NH+]1CCC(CC(=O)OCCOC(=O)c2ccc(-c3c4nc(c(-c5c(F)c(F)c(F)c(F)c5F)c5ccc([nH]5)c(-c5c(F)c(F)c(F)c(F)c5F)c5nc(c(-c6c(F)c(F)c(F)c(F)c6F)c6ccc3[nH]6)C=C5)C=C4)cc2)CC1)NC1CC1
REMARK SMILES IDX 12 1 10 2 11 3 9 4 8 5 5 6 6 7 82 8 7 10 81 11 4 12 3 13
REMARK SMILES IDX 2 14 1 15 83 16 84 18 85 19 86 20 13 21 14 22 15 23 16 24
REMARK SMILES IDX 17 25 18 26 19 27 80 28 20 29 79 30 21 31 22 32 23 33 73 34
REMARK SMILES IDX 24 35 78 36 72 37 74 38 25 39 77 40 71 41 70 42 26 44 58 45
REMARK SMILES IDX 38 46 57 47 39 48 42 49 56 50 75 51 40 52 41 53 55 55 76 56
REMARK SMILES IDX 43 57 27 58 28 59 36 60 29 61 30 62 34 63 37 64 31 65 32 66
REMARK SMILES IDX 35 67 33 68 59 69 60 70 68 71 61 72 62 73 66 74 69 75 63 76
REMARK SMILES IDX 64 77 67 78 65 79 44 80 45 81 53 82 46 83 47 84 51 85 54 86
REMARK SMILES IDX 48 87 49 88 52 89 50 90
REMARK H PARENT 5 9 83 17 74 43 42 54
REMARK Flexibility Score: inf
ROOT
ATOM      1  O   UNL A   1      34.127  33.827  29.234  1.00  0.00    -0.462 OA
ENDROOT
BRANCH   1   2
ATOM      2  C   UNL A   1      34.914  33.074  28.427  1.00  0.00     0.306 C 
ATOM      3  O   UNL A   1      35.476  33.490  27.420  1.00  0.00    -0.252 OA
BRANCH   2   4
ATOM      4  C   UNL A   1      34.964  31.615  28.842  1.00  0.00     0.126 C 
BRANCH   4   5
ATOM      5  C   UNL A   1      34.101  30.620  28.047  1.00  0.00     0.011 C 
ATOM      6  N   UNL A   1      33.057  29.358  25.606  1.00  0.00    -0.334 N 
ATOM      7  C   UNL A   1      32.246  30.296  26.373  1.00  0.00     0.262 C 
ATOM      8  C   UNL A   1      34.216  28.772  26.266  1.00  0.00     0.262 C 
ATOM      9  H   UNL A   1      33.554  29.960  24.950  1.00  0.00     0.348 HD
ATOM     10  C   UNL A   1      33.084  31.314  27.139  1.00  0.00     0.066 C 
ATOM     11  C   UNL A   1      35.001  29.745  27.154  1.00  0.00     0.066 C 
BRANCH   6  12
ATOM     12  C   UNL A   1      32.258  28.465  24.750  1.00  0.00     0.272 C 
BRANCH  12  13
ATOM     13  C   UNL A   1      32.055  28.780  23.264  1.00  0.00     0.161 C 
BRANCH  13  14
ATOM     14  C   UNL A   1      30.625  28.997  22.805  1.00  0.00     0.225 C 
ATOM     15  O   UNL A   1      30.030  28.171  22.119  1.00  0.00    -0.275 OA
ATOM     16  N   UNL A   1      30.039  30.131  23.314  1.00  0.00    -0.353 N 
ATOM     17  H   UNL A   1      30.620  30.774  23.782  1.00  0.00     0.163 HD
BRANCH  16  18
ATOM     18  C   UNL A   1      28.654  30.447  23.216  1.00  0.00     0.082 C 
ATOM     19  C   UNL A   1      28.260  31.879  22.952  1.00  0.00     0.027 C 
ATOM     20  C   UNL A   1      28.041  30.831  21.902  1.00  0.00     0.027 C 
ENDBRANCH  16  18
ENDBRANCH  13  14
ENDBRANCH  12  13
ENDBRANCH   6  12
ENDBRANCH   4   5
ENDBRANCH   2   4
ENDBRANCH   1   2
BRANCH   1  21
ATOM     21  C   UNL A   1      33.468  34.963  28.638  1.00  0.00     0.274 C 
BRANCH  21  22
ATOM     22  C   UNL A   1      32.951  35.963  29.680  1.00  0.00     0.275 C 
BRANCH  22  23
ATOM     23  O   UNL A   1      32.305  35.312  30.790  1.00  0.00    -0.458 OA
BRANCH  23  24
ATOM     24  C   UNL A   1      32.711  35.737  32.004  1.00  0.00     0.338 C 
ATOM     25  O   UNL A   1      32.150  36.562  32.715  1.00  0.00    -0.246 OA
BRANCH  24  26
ATOM     26  C   UNL A   1      33.882  34.976  32.461  1.00  0.00     0.060 A 
ATOM     27  C   UNL A   1      35.142  35.565  32.312  1.00  0.00     0.016 A 
ATOM     28  C   UNL A   1      33.757  33.682  32.967  1.00  0.00     0.016 A 
ATOM     29  C   UNL A   1      36.288  34.861  32.674  1.00  0.00     0.010 A 
ATOM     30  C   UNL A   1      34.907  32.976  33.330  1.00  0.00     0.010 A 
ATOM     31  C   UNL A   1      36.178  33.560  33.182  1.00  0.00    -0.014 A 
BRANCH  31  32
ATOM     32  C   UNL A   1      37.395  32.808  33.564  1.00  0.00     0.031 A 
ATOM     33  C   UNL A   1      38.082  33.095  34.865  1.00  0.00     0.074 A 
ATOM     34  C   UNL A   1      37.881  31.870  32.731  1.00  0.00     0.049 A 
ATOM     35  N   UNL A   1      39.204  32.613  35.333  1.00  0.00    -0.248 NA
ATOM     36  C   UNL A   1      37.417  34.055  35.760  1.00  0.00     0.031 C 
ATOM     37  C   UNL A   1      37.276  31.482  31.458  1.00  0.00     0.029 A 
ATOM     38  N   UNL A   1      39.001  31.084  32.826  1.00  0.00    -0.354 N 
ATOM     39  C   UNL A   1      39.390  33.218  36.569  1.00  0.00     0.074 A 
ATOM     40  C   UNL A   1      38.271  34.114  36.772  1.00  0.00     0.031 C 
ATOM     41  C   UNL A   1      38.036  30.535  30.884  1.00  0.00     0.029 A 
ATOM     42  C   UNL A   1      39.201  30.283  31.728  1.00  0.00     0.049 A 
ATOM     43  H   UNL A   1      39.603  31.092  33.605  1.00  0.00     0.167 HD
ATOM     44  C   UNL A   1      40.403  33.036  37.449  1.00  0.00     0.037 A 
ATOM     45  C   UNL A   1      40.225  29.465  31.426  1.00  0.00     0.037 A 
ATOM     46  C   UNL A   1      41.510  32.139  37.240  1.00  0.00     0.049 A 
ATOM     47  C   UNL A   1      41.368  29.328  32.394  1.00  0.00     0.074 A 
ATOM     48  C   UNL A   1      42.581  31.877  38.078  1.00  0.00     0.029 A 
ATOM     49  N   UNL A   1      41.691  31.359  36.107  1.00  0.00    -0.354 N 
ATOM     50  N   UNL A   1      41.535  29.901  33.561  1.00  0.00    -0.248 NA
ATOM     51  C   UNL A   1      42.467  28.435  32.001  1.00  0.00     0.031 C 
ATOM     52  C   UNL A   1      43.430  30.970  37.434  1.00  0.00     0.029 A 
ATOM     53  C   UNL A   1      42.866  30.631  36.215  1.00  0.00     0.049 A 
ATOM     54  H   UNL A   1      41.076  31.327  35.339  1.00  0.00     0.167 HD
ATOM     55  C   UNL A   1      42.741  29.420  34.052  1.00  0.00     0.074 A 
ATOM     56  C   UNL A   1      43.260  28.502  33.061  1.00  0.00     0.031 C 
ATOM     57  C   UNL A   1      43.362  29.714  35.220  1.00  0.00     0.037 A 
BRANCH  44  58
ATOM     58  C   UNL A   1      40.375  33.844  38.712  1.00  0.00     0.064 A 
ATOM     59  C   UNL A   1      41.078  35.053  38.830  1.00  0.00     0.173 A 
ATOM     60  C   UNL A   1      39.603  33.423  39.807  1.00  0.00     0.173 A 
ATOM     61  F   UNL A   1      41.840  35.491  37.817  1.00  0.00    -0.203 F 
ATOM     62  C   UNL A   1      41.024  35.799  40.004  1.00  0.00     0.198 A 
ATOM     63  C   UNL A   1      39.533  34.186  40.969  1.00  0.00     0.198 A 
ATOM     64  F   UNL A   1      38.909  32.277  39.743  1.00  0.00    -0.203 F 
ATOM     65  F   UNL A   1      41.734  36.932  40.109  1.00  0.00    -0.200 F 
ATOM     66  C   UNL A   1      40.247  35.370  41.070  1.00  0.00     0.200 A 
ATOM     67  F   UNL A   1      38.774  33.773  41.994  1.00  0.00    -0.200 F 
ATOM     68  F   UNL A   1      40.192  36.093  42.197  1.00  0.00    -0.200 F 
ENDBRANCH  44  58
BRANCH  45  69
ATOM     69  C   UNL A   1      40.222  28.726  30.138  1.00  0.00     0.064 A 
ATOM     70  C   UNL A   1      40.859  29.249  29.005  1.00  0.00     0.173 A 
ATOM     71  C   UNL A   1      39.584  27.482  30.015  1.00  0.00     0.173 A 
ATOM     72  F   UNL A   1      41.461  30.446  29.068  1.00  0.00    -0.203 F 
ATOM     73  C   UNL A   1      40.850  28.560  27.794  1.00  0.00     0.198 A 
ATOM     74  C   UNL A   1      39.599  26.783  28.811  1.00  0.00     0.198 A 
ATOM     75  F   UNL A   1      38.959  26.941  31.071  1.00  0.00    -0.203 F 
ATOM     76  F   UNL A   1      41.434  29.099  26.715  1.00  0.00    -0.200 F 
ATOM     77  C   UNL A   1      40.226  27.324  27.699  1.00  0.00     0.200 A 
ATOM     78  F   UNL A   1      39.004  25.585  28.728  1.00  0.00    -0.200 F 
ATOM     79  F   UNL A   1      40.223  26.660  26.536  1.00  0.00    -0.200 F 
ENDBRANCH  45  69
BRANCH  57  80
ATOM     80  C   UNL A   1      44.654  29.008  35.506  1.00  0.00     0.064 A 
ATOM     81  C   UNL A   1      44.684  27.764  36.152  1.00  0.00     0.173 A 
ATOM     82  C   UNL A   1      45.873  29.568  35.095  1.00  0.00     0.173 A 
ATOM     83  F   UNL A   1      43.546  27.197  36.578  1.00  0.00    -0.203 F 
ATOM     84  C   UNL A   1      45.892  27.115  36.395  1.00  0.00     0.198 A 
ATOM     85  C   UNL A   1      47.076  28.904  35.317  1.00  0.00     0.198 A 
ATOM     86  F   UNL A   1      45.897  30.753  34.469  1.00  0.00    -0.203 F 
ATOM     87  F   UNL A   1      45.902  25.946  37.052  1.00  0.00    -0.200 F 
ATOM     88  C   UNL A   1      47.085  27.681  35.972  1.00  0.00     0.200 A 
ATOM     89  F   UNL A   1      48.227  29.447  34.899  1.00  0.00    -0.200 F 
ATOM     90  F   UNL A   1      48.246  27.052  36.203  1.00  0.00    -0.200 F 
ENDBRANCH  57  80
ENDBRANCH  31  32
ENDBRANCH  24  26
ENDBRANCH  23  24
ENDBRANCH  22  23
ENDBRANCH  21  22
ENDBRANCH   1  21
TORSDOF 16
ENDMDL
MODEL 3
REMARK VINA RESULT:     -10.7      0.875      2.049
REMARK SMILES O=C(CC[NH+]1CCC(CC(=O)OCCOC(=O)c2ccc(-c3c4nc(c(-c5c(F)c(F)c(F)c(F)c5F)c5ccc([nH]5)c(-c5c(F)c(F)c(F)c(F)c5F)c5nc(c(-c6c(F)c(F)c(F)c(F)c6F)c6ccc3[nH]6)C=C5)C=C4)cc2)CC1)NC1CC1
REMARK SMILES IDX 12 1 10 2 11 3 9 4 8 5 5 6 6 7 82 8 7 10 81 11 4 12 3 13
REMARK SMILES IDX 2 14 1 15 83 16 84 18 85 19 86 20 13 21 14 22 15 23 16 24
REMARK SMILES IDX 17 25 18 26 19 27 80 28 20 29 79 30 21 31 22 32 23 33 73 34
REMARK SMILES IDX 24 35 78 36 72 37 74 38 25 39 77 40 71 41 70 42 26 44 58 45
REMARK SMILES IDX 38 46 57 47 39 48 42 49 56 50 75 51 40 52 41 53 55 55 76 56
REMARK SMILES IDX 43 57 27 58 28 59 36 60 29 61 30 62 34 63 37 64 31 65 32 66
REMARK SMILES IDX 35 67 33 68 59 69 60 70 68 71 61 72 62 73 66 74 69 75 63 76
REMARK SMILES IDX 64 77 67 78 65 79 44 80 45 81 53 82 46 83 47 84 51 85 54 86
REMARK SMILES IDX 48 87 49 88 52 89 50 90
REMARK H PARENT 5 9 83 17 74 43 42 54
REMARK Flexibility Score: inf
ROOT
ATOM      1  O   UNL A   1      43.142  19.721  24.946  1.00  0.00    -0.462 OA
ENDROOT
BRANCH   1   2
ATOM      2  C   UNL A   1      42.632  18.948  25.937  1.00  0.00     0.306 C 
ATOM      3  O   UNL A   1      42.620  17.722  25.924  1.00  0.00    -0.252 OA
BRANCH   2   4
ATOM      4  C   UNL A   1      41.984  19.757  27.045  1.00  0.00     0.126 C 
BRANCH   4   5
ATOM      5  C   UNL A   1      40.547  20.254  26.815  1.00  0.00     0.011 C 
ATOM      6  N   UNL A   1      38.318  21.308  25.214  1.00  0.00    -0.334 N 
ATOM      7  C   UNL A   1      39.053  22.165  26.135  1.00  0.00     0.262 C 
ATOM      8  C   UNL A   1      38.448  19.866  25.385  1.00  0.00     0.262 C 
ATOM      9  H   UNL A   1      38.841  21.396  24.343  1.00  0.00     0.348 HD
ATOM     10  C   UNL A   1      40.492  21.710  26.347  1.00  0.00     0.066 C 
ATOM     11  C   UNL A   1      39.864  19.393  25.735  1.00  0.00     0.066 C 
BRANCH   6  12
ATOM     12  C   UNL A   1      36.976  21.819  24.889  1.00  0.00     0.272 C 
BRANCH  12  13
ATOM     13  C   UNL A   1      35.802  21.603  25.850  1.00  0.00     0.161 C 
BRANCH  13  14
ATOM     14  C   UNL A   1      34.596  20.868  25.296  1.00  0.00     0.225 C 
ATOM     15  O   UNL A   1      33.558  21.452  25.000  1.00  0.00    -0.275 OA
ATOM     16  N   UNL A   1      34.814  19.531  25.060  1.00  0.00    -0.353 N 
ATOM     17  H   UNL A   1      35.645  19.137  25.410  1.00  0.00     0.163 HD
BRANCH  16  18
ATOM     18  C   UNL A   1      33.928  18.675  24.347  1.00  0.00     0.082 C 
ATOM     19  C   UNL A   1      34.132  17.184  24.451  1.00  0.00     0.027 C 
ATOM     20  C   UNL A   1      32.927  17.825  25.073  1.00  0.00     0.027 C 
ENDBRANCH  16  18
ENDBRANCH  13  14
ENDBRANCH  12  13
ENDBRANCH   6  12
ENDBRANCH   4   5
ENDBRANCH   2   4
ENDBRANCH   1   2
BRANCH   1  21
ATOM     21  C   UNL A   1      44.427  20.332  25.182  1.00  0.00     0.274 C 
BRANCH  21  22
ATOM     22  C   UNL A   1      44.506  21.771  24.658  1.00  0.00     0.275 C 
BRANCH  22  23
ATOM     23  O   UNL A   1      43.896  22.715  25.559  1.00  0.00    -0.458 OA
BRANCH  23  24
ATOM     24  C   UNL A   1      44.320  23.987  25.410  1.00  0.00     0.338 C 
ATOM     25  O   UNL A   1      44.979  24.433  24.478  1.00  0.00    -0.246 OA
BRANCH  24  26
ATOM     26  C   UNL A   1      43.772  24.850  26.465  1.00  0.00     0.060 A 
ATOM     27  C   UNL A   1      44.224  26.172  26.528  1.00  0.00     0.016 A 
ATOM     28  C   UNL A   1      42.879  24.356  27.418  1.00  0.00     0.016 A 
ATOM     29  C   UNL A   1      43.782  27.012  27.546  1.00  0.00     0.010 A 
ATOM     30  C   UNL A   1      42.435  25.201  28.439  1.00  0.00     0.010 A 
ATOM     31  C   UNL A   1      42.886  26.531  28.511  1.00  0.00    -0.014 A 
BRANCH  31  32
ATOM     32  C   UNL A   1      42.417  27.422  29.597  1.00  0.00     0.031 A 
ATOM     33  C   UNL A   1      43.139  27.453  30.911  1.00  0.00     0.074 A 
ATOM     34  C   UNL A   1      41.337  28.197  29.396  1.00  0.00     0.049 A 
ATOM     35  N   UNL A   1      42.830  28.092  32.010  1.00  0.00    -0.248 NA
ATOM     36  C   UNL A   1      44.374  26.658  31.000  1.00  0.00     0.031 C 
ATOM     37  C   UNL A   1      40.579  28.275  28.148  1.00  0.00     0.029 A 
ATOM     38  N   UNL A   1      40.683  29.056  30.242  1.00  0.00    -0.354 N 
ATOM     39  C   UNL A   1      43.821  27.767  32.927  1.00  0.00     0.074 A 
ATOM     40  C   UNL A   1      44.734  26.863  32.259  1.00  0.00     0.031 C 
ATOM     41  C   UNL A   1      39.556  29.130  28.312  1.00  0.00     0.029 A 
ATOM     42  C   UNL A   1      39.563  29.624  29.687  1.00  0.00     0.049 A 
ATOM     43  H   UNL A   1      40.986  29.246  31.159  1.00  0.00     0.167 HD
ATOM     44  C   UNL A   1      43.952  28.191  34.207  1.00  0.00     0.037 A 
ATOM     45  C   UNL A   1      38.633  30.426  30.235  1.00  0.00     0.037 A 
ATOM     46  C   UNL A   1      43.042  29.094  34.861  1.00  0.00     0.049 A 
ATOM     47  C   UNL A   1      38.770  30.832  31.677  1.00  0.00     0.074 A 
ATOM     48  C   UNL A   1      43.095  29.591  36.152  1.00  0.00     0.029 A 
ATOM     49  N   UNL A   1      41.907  29.633  34.273  1.00  0.00    -0.354 N 
ATOM     50  N   UNL A   1      39.710  30.524  32.536  1.00  0.00    -0.248 NA
ATOM     51  C   UNL A   1      37.714  31.693  32.226  1.00  0.00     0.031 C 
ATOM     52  C   UNL A   1      41.971  30.398  36.359  1.00  0.00     0.029 A 
ATOM     53  C   UNL A   1      41.241  30.442  35.182  1.00  0.00     0.049 A 
ATOM     54  H   UNL A   1      41.617  29.468  33.348  1.00  0.00     0.167 HD
ATOM     55  C   UNL A   1      39.374  31.171  33.717  1.00  0.00     0.074 A 
ATOM     56  C   UNL A   1      38.148  31.897  33.462  1.00  0.00     0.031 C 
ATOM     57  C   UNL A   1      40.025  31.164  34.906  1.00  0.00     0.037 A 
BRANCH  44  58
ATOM     58  C   UNL A   1      45.112  27.660  34.996  1.00  0.00     0.064 A 
ATOM     59  C   UNL A   1      45.057  26.417  35.643  1.00  0.00     0.173 A 
ATOM     60  C   UNL A   1      46.310  28.388  35.072  1.00  0.00     0.173 A 
ATOM     61  F   UNL A   1      43.929  25.690  35.610  1.00  0.00    -0.203 F 
ATOM     62  C   UNL A   1      46.150  25.931  36.354  1.00  0.00     0.198 A 
ATOM     63  C   UNL A   1      47.410  27.887  35.764  1.00  0.00     0.198 A 
ATOM     64  F   UNL A   1      46.417  29.580  34.467  1.00  0.00    -0.203 F 
ATOM     65  F   UNL A   1      46.062  24.759  36.998  1.00  0.00    -0.200 F 
ATOM     66  C   UNL A   1      47.328  26.663  36.409  1.00  0.00     0.200 A 
ATOM     67  F   UNL A   1      48.549  28.592  35.806  1.00  0.00    -0.200 F 
ATOM     68  F   UNL A   1      48.382  26.191  37.089  1.00  0.00    -0.200 F 
ENDBRANCH  44  58
BRANCH  45  69
ATOM     69  C   UNL A   1      37.480  30.883  29.419  1.00  0.00     0.064 A 
ATOM     70  C   UNL A   1      36.422  30.014  29.116  1.00  0.00     0.173 A 
ATOM     71  C   UNL A   1      37.410  32.195  28.927  1.00  0.00     0.173 A 
ATOM     72  F   UNL A   1      36.456  28.744  29.544  1.00  0.00    -0.203 F 
ATOM     73  C   UNL A   1      35.343  30.439  28.344  1.00  0.00     0.198 A 
ATOM     74  C   UNL A   1      36.319  32.625  28.178  1.00  0.00     0.198 A 
ATOM     75  F   UNL A   1      38.399  33.063  29.189  1.00  0.00    -0.203 F 
ATOM     76  F   UNL A   1      34.363  29.579  28.037  1.00  0.00    -0.200 F 
ATOM     77  C   UNL A   1      35.288  31.746  27.881  1.00  0.00     0.200 A 
ATOM     78  F   UNL A   1      36.266  33.891  27.742  1.00  0.00    -0.200 F 
ATOM     79  F   UNL A   1      34.248  32.155  27.143  1.00  0.00    -0.200 F 
ENDBRANCH  45  69
BRANCH  57  80
ATOM     80  C   UNL A   1      39.442  31.995  36.011  1.00  0.00     0.064 A 
ATOM     81  C   UNL A   1      39.860  33.314  36.237  1.00  0.00     0.173 A 
ATOM     82  C   UNL A   1      38.427  31.475  36.828  1.00  0.00     0.173 A 
ATOM     83  F   UNL A   1      40.839  33.849  35.492  1.00  0.00    -0.203 F 
ATOM     84  C   UNL A   1      39.296  34.077  37.257  1.00  0.00     0.198 A 
ATOM     85  C   UNL A   1      37.849  32.249  37.830  1.00  0.00     0.198 A 
ATOM     86  F   UNL A   1      37.990  30.220  36.649  1.00  0.00    -0.203 F 
ATOM     87  F   UNL A   1      39.740  35.321  37.483  1.00  0.00    -0.200 F 
ATOM     88  C   UNL A   1      38.287  33.546  38.047  1.00  0.00     0.200 A 
ATOM     89  F   UNL A   1      36.867  31.739  38.587  1.00  0.00    -0.200 F 
ATOM     90  F   UNL A   1      37.744  34.284  39.026  1.00  0.00    -0.200 F 
ENDBRANCH  57  80
ENDBRANCH  31  32
ENDBRANCH  24  26
ENDBRANCH  23  24
ENDBRANCH  22  23
ENDBRANCH  21  22
ENDBRANCH   1  21
TORSDOF 16
ENDMDL
