MODEL 1
REMARK VINA RESULT:     -11.5      0.000      0.000
REMARK SMILES CC1(C)C(C(=O)N2CCOC[C@H]2C(=O)OCCOC(=O)c2ccc(-c3c4nc(c(-c5c(F)c(F)c(F)c(F)c5F)c5ccc([nH]5)c(-c5c(F)c(F)c(F)c(F)c5F)c5nc(c(-c6c(F)c(F)c(F)c(F)c6F)c6ccc3[nH]6)C=C5)C=C4)cc2)C1(C)C
REMARK SMILES IDX 16 1 15 2 13 3 14 4 12 5 7 6 8 7 9 8 11 9 10 10 5 11 6 12
REMARK SMILES IDX 4 13 1 14 2 15 3 16 84 17 85 18 86 19 17 20 18 21 19 22
REMARK SMILES IDX 20 23 21 24 22 25 83 26 23 27 82 28 24 29 25 30 26 31 76 32
REMARK SMILES IDX 27 33 81 34 75 35 77 36 28 37 80 38 74 39 73 40 29 42 61 43
REMARK SMILES IDX 41 44 60 45 42 46 45 47 59 48 78 49 43 50 44 51 58 53 79 54
REMARK SMILES IDX 46 55 30 56 31 57 39 58 32 59 33 60 37 61 40 62 34 63 35 64
REMARK SMILES IDX 38 65 36 66 62 67 63 68 71 69 64 70 65 71 69 72 72 73 66 74
REMARK SMILES IDX 67 75 70 76 68 77 47 78 48 79 56 80 49 81 50 82 54 83 57 84
REMARK SMILES IDX 51 85 52 86 55 87 53 88
REMARK H PARENT 77 41 45 52
REMARK Flexibility Score: inf
ROOT
ATOM      1  C   UNL A   1      33.466  33.981  28.626  1.00  0.00     0.274 C 
ENDROOT
BRANCH   1   2
ATOM      2  O   UNL A   1      34.015  35.239  29.060  1.00  0.00    -0.460 OA
BRANCH   2   3
ATOM      3  C   UNL A   1      33.300  35.950  29.969  1.00  0.00     0.331 C 
ATOM      4  O   UNL A   1      32.945  37.116  29.806  1.00  0.00    -0.250 OA
BRANCH   3   5
ATOM      5  C   UNL A   1      33.117  35.220  31.308  1.00  0.00     0.221 C 
ATOM      6  N   UNL A   1      34.278  34.976  32.199  1.00  0.00    -0.324 N 
ATOM      7  C   UNL A   1      34.824  36.166  32.836  1.00  0.00     0.149 C 
ATOM      8  C   UNL A   1      33.707  36.996  33.490  1.00  0.00     0.181 C 
ATOM      9  C   UNL A   1      32.060  36.008  32.091  1.00  0.00     0.197 C 
ATOM     10  O   UNL A   1      32.607  37.239  32.596  1.00  0.00    -0.377 OA
BRANCH   6  11
ATOM     11  C   UNL A   1      34.656  33.659  32.402  1.00  0.00     0.227 C 
ATOM     12  O   UNL A   1      33.969  32.741  31.949  1.00  0.00    -0.275 OA
BRANCH  11  13
ATOM     13  C   UNL A   1      35.826  33.216  33.227  1.00  0.00     0.091 C 
ATOM     14  C   UNL A   1      37.668  32.073  34.633  1.00  0.00     0.012 C 
ATOM     15  C   UNL A   1      36.880  32.117  33.323  1.00  0.00    -0.017 C 
ATOM     16  C   UNL A   1      36.709  30.714  32.804  1.00  0.00     0.012 C 
ATOM     17  C   UNL A   1      37.137  33.277  32.375  1.00  0.00    -0.017 C 
ATOM     18  C   UNL A   1      38.141  34.358  32.703  1.00  0.00     0.012 C 
ATOM     19  C   UNL A   1      37.048  33.059  30.873  1.00  0.00     0.012 C 
ENDBRANCH  11  13
ENDBRANCH   6  11
ENDBRANCH   3   5
ENDBRANCH   2   3
ENDBRANCH   1   2
BRANCH   1  20
ATOM     20  C   UNL A   1      34.579  33.032  28.186  1.00  0.00     0.275 C 
BRANCH  20  21
ATOM     21  O   UNL A   1      34.390  31.727  28.756  1.00  0.00    -0.458 OA
BRANCH  21  22
ATOM     22  C   UNL A   1      34.628  30.697  27.908  1.00  0.00     0.338 C 
ATOM     23  O   UNL A   1      33.946  30.331  26.970  1.00  0.00    -0.246 OA
BRANCH  22  24
ATOM     24  C   UNL A   1      35.951  30.136  28.217  1.00  0.00     0.060 A 
ATOM     25  C   UNL A   1      36.141  29.549  29.469  1.00  0.00     0.016 A 
ATOM     26  C   UNL A   1      37.005  30.242  27.310  1.00  0.00     0.016 A 
ATOM     27  C   UNL A   1      37.399  29.082  29.836  1.00  0.00     0.010 A 
ATOM     28  C   UNL A   1      38.265  29.764  27.676  1.00  0.00     0.010 A 
ATOM     29  C   UNL A   1      38.471  29.197  28.947  1.00  0.00    -0.014 A 
BRANCH  29  30
ATOM     30  C   UNL A   1      39.829  28.792  29.373  1.00  0.00     0.031 A 
ATOM     31  C   UNL A   1      40.606  29.679  30.299  1.00  0.00     0.074 A 
ATOM     32  C   UNL A   1      40.353  27.632  28.939  1.00  0.00     0.049 A 
ATOM     33  N   UNL A   1      41.846  29.573  30.703  1.00  0.00    -0.248 NA
ATOM     34  C   UNL A   1      39.893  30.847  30.835  1.00  0.00     0.031 C 
ATOM     35  C   UNL A   1      39.667  26.667  28.080  1.00  0.00     0.029 A 
ATOM     36  N   UNL A   1      41.586  27.075  29.156  1.00  0.00    -0.354 N 
ATOM     37  C   UNL A   1      42.069  30.672  31.521  1.00  0.00     0.074 A 
ATOM     38  C   UNL A   1      40.843  31.442  31.543  1.00  0.00     0.031 C 
ATOM     39  C   UNL A   1      40.492  25.636  27.839  1.00  0.00     0.029 A 
ATOM     40  C   UNL A   1      41.777  25.893  28.485  1.00  0.00     0.049 A 
ATOM     41  H   UNL A   1      42.269  27.483  29.736  1.00  0.00     0.167 HD
ATOM     42  C   UNL A   1      43.197  31.003  32.195  1.00  0.00     0.037 A 
ATOM     43  C   UNL A   1      42.877  25.124  28.379  1.00  0.00     0.037 A 
ATOM     44  C   UNL A   1      44.404  30.219  32.182  1.00  0.00     0.049 A 
ATOM     45  C   UNL A   1      44.135  25.542  29.092  1.00  0.00     0.074 A 
ATOM     46  C   UNL A   1      45.596  30.458  32.841  1.00  0.00     0.029 A 
ATOM     47  N   UNL A   1      44.570  29.039  31.470  1.00  0.00    -0.354 N 
ATOM     48  N   UNL A   1      44.345  26.587  29.854  1.00  0.00    -0.248 NA
ATOM     49  C   UNL A   1      45.310  24.676  28.923  1.00  0.00     0.031 C 
ATOM     50  C   UNL A   1      46.499  29.445  32.494  1.00  0.00     0.029 A 
ATOM     51  C   UNL A   1      45.852  28.549  31.658  1.00  0.00     0.049 A 
ATOM     52  H   UNL A   1      43.877  28.612  30.915  1.00  0.00     0.167 HD
ATOM     53  C   UNL A   1      45.665  26.495  30.275  1.00  0.00     0.074 A 
ATOM     54  C   UNL A   1      46.203  25.283  29.692  1.00  0.00     0.031 C 
ATOM     55  C   UNL A   1      46.367  27.337  31.072  1.00  0.00     0.037 A 
BRANCH  42  56
ATOM     56  C   UNL A   1      43.186  32.286  32.970  1.00  0.00     0.064 A 
ATOM     57  C   UNL A   1      43.500  33.516  32.372  1.00  0.00     0.173 A 
ATOM     58  C   UNL A   1      42.836  32.289  34.328  1.00  0.00     0.173 A 
ATOM     59  F   UNL A   1      43.856  33.567  31.079  1.00  0.00    -0.203 F 
ATOM     60  C   UNL A   1      43.493  34.696  33.112  1.00  0.00     0.198 A 
ATOM     61  C   UNL A   1      42.802  33.474  35.059  1.00  0.00     0.198 A 
ATOM     62  F   UNL A   1      42.523  31.141  34.948  1.00  0.00    -0.203 F 
ATOM     63  F   UNL A   1      43.844  35.852  32.533  1.00  0.00    -0.200 F 
ATOM     64  C   UNL A   1      43.138  34.674  34.453  1.00  0.00     0.200 A 
ATOM     65  F   UNL A   1      42.448  33.452  36.352  1.00  0.00    -0.200 F 
ATOM     66  F   UNL A   1      43.128  35.810  35.164  1.00  0.00    -0.200 F 
ENDBRANCH  42  56
BRANCH  43  67
ATOM     67  C   UNL A   1      42.838  23.892  27.550  1.00  0.00     0.064 A 
ATOM     68  C   UNL A   1      43.220  23.917  26.203  1.00  0.00     0.173 A 
ATOM     69  C   UNL A   1      42.426  22.665  28.091  1.00  0.00     0.173 A 
ATOM     70  F   UNL A   1      43.597  25.071  25.634  1.00  0.00    -0.203 F 
ATOM     71  C   UNL A   1      43.180  22.762  25.423  1.00  0.00     0.198 A 
ATOM     72  C   UNL A   1      42.412  21.506  27.318  1.00  0.00     0.198 A 
ATOM     73  F   UNL A   1      42.047  22.590  29.375  1.00  0.00    -0.203 F 
ATOM     74  F   UNL A   1      43.514  22.820  24.126  1.00  0.00    -0.200 F 
ATOM     75  C   UNL A   1      42.784  21.557  25.984  1.00  0.00     0.200 A 
ATOM     76  F   UNL A   1      42.039  20.342  27.866  1.00  0.00    -0.200 F 
ATOM     77  F   UNL A   1      42.754  20.445  25.235  1.00  0.00    -0.200 F 
ENDBRANCH  43  67
BRANCH  55  78
ATOM     78  C   UNL A   1      47.786  26.960  31.386  1.00  0.00     0.064 A 
ATOM     79  C   UNL A   1      48.097  26.070  32.423  1.00  0.00     0.173 A 
ATOM     80  C   UNL A   1      48.841  27.465  30.612  1.00  0.00     0.173 A 
ATOM     81  F   UNL A   1      47.124  25.572  33.201  1.00  0.00    -0.203 F 
ATOM     82  C   UNL A   1      49.417  25.714  32.687  1.00  0.00     0.198 A 
ATOM     83  C   UNL A   1      50.156  27.086  30.860  1.00  0.00     0.198 A 
ATOM     84  F   UNL A   1      48.593  28.316  29.604  1.00  0.00    -0.203 F 
ATOM     85  F   UNL A   1      49.697  24.894  33.709  1.00  0.00    -0.200 F 
ATOM     86  C   UNL A   1      50.444  26.216  31.901  1.00  0.00     0.200 A 
ATOM     87  F   UNL A   1      51.146  27.563  30.093  1.00  0.00    -0.200 F 
ATOM     88  F   UNL A   1      51.713  25.867  32.153  1.00  0.00    -0.200 F 
ENDBRANCH  55  78
ENDBRANCH  29  30
ENDBRANCH  22  24
ENDBRANCH  21  22
ENDBRANCH  20  21
ENDBRANCH   1  20
TORSDOF 13
ENDMDL
MODEL 2
REMARK VINA RESULT:     -11.0      1.002      7.426
REMARK SMILES CC1(C)C(C(=O)N2CCOC[C@H]2C(=O)OCCOC(=O)c2ccc(-c3c4nc(c(-c5c(F)c(F)c(F)c(F)c5F)c5ccc([nH]5)c(-c5c(F)c(F)c(F)c(F)c5F)c5nc(c(-c6c(F)c(F)c(F)c(F)c6F)c6ccc3[nH]6)C=C5)C=C4)cc2)C1(C)C
REMARK SMILES IDX 16 1 15 2 13 3 14 4 12 5 7 6 8 7 9 8 11 9 10 10 5 11 6 12
REMARK SMILES IDX 4 13 1 14 2 15 3 16 84 17 85 18 86 19 17 20 18 21 19 22
REMARK SMILES IDX 20 23 21 24 22 25 83 26 23 27 82 28 24 29 25 30 26 31 76 32
REMARK SMILES IDX 27 33 81 34 75 35 77 36 28 37 80 38 74 39 73 40 29 42 61 43
REMARK SMILES IDX 41 44 60 45 42 46 45 47 59 48 78 49 43 50 44 51 58 53 79 54
REMARK SMILES IDX 46 55 30 56 31 57 39 58 32 59 33 60 37 61 40 62 34 63 35 64
REMARK SMILES IDX 38 65 36 66 62 67 63 68 71 69 64 70 65 71 69 72 72 73 66 74
REMARK SMILES IDX 67 75 70 76 68 77 47 78 48 79 56 80 49 81 50 82 54 83 57 84
REMARK SMILES IDX 51 85 52 86 55 87 53 88
REMARK H PARENT 77 41 45 52
REMARK Flexibility Score: inf
ROOT
ATOM      1  C   UNL A   1      34.003  34.140  28.623  1.00  0.00     0.274 C 
ENDROOT
BRANCH   1   2
ATOM      2  O   UNL A   1      32.837  34.909  28.971  1.00  0.00    -0.460 OA
BRANCH   2   3
ATOM      3  C   UNL A   1      32.959  35.797  29.991  1.00  0.00     0.331 C 
ATOM      4  O   UNL A   1      33.211  36.991  29.837  1.00  0.00    -0.250 OA
BRANCH   3   5
ATOM      5  C   UNL A   1      32.925  35.142  31.379  1.00  0.00     0.221 C 
ATOM      6  N   UNL A   1      34.175  34.960  32.158  1.00  0.00    -0.324 N 
ATOM      7  C   UNL A   1      34.765  36.189  32.669  1.00  0.00     0.149 C 
ATOM      8  C   UNL A   1      33.707  37.043  33.389  1.00  0.00     0.181 C 
ATOM      9  C   UNL A   1      31.942  35.961  32.223  1.00  0.00     0.197 C 
ATOM     10  O   UNL A   1      32.519  37.225  32.601  1.00  0.00    -0.377 OA
BRANCH   6  11
ATOM     11  C   UNL A   1      34.593  33.660  32.393  1.00  0.00     0.227 C 
ATOM     12  O   UNL A   1      33.894  32.711  32.032  1.00  0.00    -0.275 OA
BRANCH  11  13
ATOM     13  C   UNL A   1      35.827  33.276  33.153  1.00  0.00     0.091 C 
ATOM     14  C   UNL A   1      37.784  32.230  34.476  1.00  0.00     0.012 C 
ATOM     15  C   UNL A   1      36.903  32.196  33.227  1.00  0.00    -0.017 C 
ATOM     16  C   UNL A   1      36.718  30.766  32.794  1.00  0.00     0.012 C 
ATOM     17  C   UNL A   1      37.071  33.310  32.205  1.00  0.00    -0.017 C 
ATOM     18  C   UNL A   1      38.079  34.419  32.404  1.00  0.00     0.012 C 
ATOM     19  C   UNL A   1      36.878  33.013  30.726  1.00  0.00     0.012 C 
ENDBRANCH  11  13
ENDBRANCH   6  11
ENDBRANCH   3   5
ENDBRANCH   2   3
ENDBRANCH   1   2
BRANCH   1  20
ATOM     20  C   UNL A   1      33.604  32.745  28.146  1.00  0.00     0.275 C 
BRANCH  20  21
ATOM     21  O   UNL A   1      34.731  32.059  27.577  1.00  0.00    -0.458 OA
BRANCH  21  22
ATOM     22  C   UNL A   1      34.677  30.708  27.662  1.00  0.00     0.338 C 
ATOM     23  O   UNL A   1      33.757  29.978  27.343  1.00  0.00    -0.246 OA
BRANCH  22  24
ATOM     24  C   UNL A   1      35.992  30.215  28.094  1.00  0.00     0.060 A 
ATOM     25  C   UNL A   1      36.091  29.621  29.353  1.00  0.00     0.016 A 
ATOM     26  C   UNL A   1      37.122  30.391  27.295  1.00  0.00     0.016 A 
ATOM     27  C   UNL A   1      37.330  29.217  29.838  1.00  0.00     0.010 A 
ATOM     28  C   UNL A   1      38.365  29.976  27.779  1.00  0.00     0.010 A 
ATOM     29  C   UNL A   1      38.477  29.403  29.059  1.00  0.00    -0.014 A 
BRANCH  29  30
ATOM     30  C   UNL A   1      39.806  29.065  29.613  1.00  0.00     0.031 A 
ATOM     31  C   UNL A   1      40.525  27.847  29.113  1.00  0.00     0.074 A 
ATOM     32  C   UNL A   1      40.366  29.851  30.549  1.00  0.00     0.049 A 
ATOM     33  N   UNL A   1      41.638  27.307  29.539  1.00  0.00    -0.248 NA
ATOM     34  C   UNL A   1      39.902  27.138  27.986  1.00  0.00     0.031 C 
ATOM     35  C   UNL A   1      39.782  31.087  31.069  1.00  0.00     0.029 A 
ATOM     36  N   UNL A   1      41.547  29.720  31.233  1.00  0.00    -0.354 N 
ATOM     37  C   UNL A   1      41.835  26.183  28.750  1.00  0.00     0.074 A 
ATOM     38  C   UNL A   1      40.720  26.107  27.830  1.00  0.00     0.031 C 
ATOM     39  C   UNL A   1      40.606  31.601  31.996  1.00  0.00     0.029 A 
ATOM     40  C   UNL A   1      41.748  30.705  32.168  1.00  0.00     0.049 A 
ATOM     41  H   UNL A   1      42.187  28.991  31.070  1.00  0.00     0.167 HD
ATOM     42  C   UNL A   1      42.860  25.297  28.790  1.00  0.00     0.037 A 
ATOM     43  C   UNL A   1      42.728  30.847  33.080  1.00  0.00     0.037 A 
ATOM     44  C   UNL A   1      43.974  25.392  29.696  1.00  0.00     0.049 A 
ATOM     45  C   UNL A   1      43.826  29.819  33.143  1.00  0.00     0.074 A 
ATOM     46  C   UNL A   1      45.070  24.557  29.808  1.00  0.00     0.029 A 
ATOM     47  N   UNL A   1      44.133  26.391  30.647  1.00  0.00    -0.354 N 
ATOM     48  N   UNL A   1      44.003  28.752  32.403  1.00  0.00    -0.248 NA
ATOM     49  C   UNL A   1      44.856  30.014  34.172  1.00  0.00     0.031 C 
ATOM     50  C   UNL A   1      45.872  25.025  30.857  1.00  0.00     0.029 A 
ATOM     51  C   UNL A   1      45.299  26.181  31.365  1.00  0.00     0.049 A 
ATOM     52  H   UNL A   1      43.509  27.140  30.790  1.00  0.00     0.167 HD
ATOM     53  C   UNL A   1      45.172  28.160  32.859  1.00  0.00     0.074 A 
ATOM     54  C   UNL A   1      45.670  28.995  33.933  1.00  0.00     0.031 C 
ATOM     55  C   UNL A   1      45.779  27.027  32.427  1.00  0.00     0.037 A 
BRANCH  42  56
ATOM     56  C   UNL A   1      42.799  24.128  27.852  1.00  0.00     0.064 A 
ATOM     57  C   UNL A   1      43.174  24.240  26.505  1.00  0.00     0.173 A 
ATOM     58  C   UNL A   1      42.378  22.873  28.314  1.00  0.00     0.173 A 
ATOM     59  F   UNL A   1      43.569  25.422  26.009  1.00  0.00    -0.203 F 
ATOM     60  C   UNL A   1      43.101  23.144  25.648  1.00  0.00     0.198 A 
ATOM     61  C   UNL A   1      42.333  21.772  27.462  1.00  0.00     0.198 A 
ATOM     62  F   UNL A   1      42.013  22.711  29.595  1.00  0.00    -0.203 F 
ATOM     63  F   UNL A   1      43.417  23.284  24.353  1.00  0.00    -0.200 F 
ATOM     64  C   UNL A   1      42.688  21.910  26.129  1.00  0.00     0.200 A 
ATOM     65  F   UNL A   1      41.944  20.578  27.932  1.00  0.00    -0.200 F 
ATOM     66  F   UNL A   1      42.621  20.855  25.305  1.00  0.00    -0.200 F 
ENDBRANCH  42  56
BRANCH  43  67
ATOM     67  C   UNL A   1      42.700  31.999  34.018  1.00  0.00     0.064 A 
ATOM     68  C   UNL A   1      43.401  33.178  33.734  1.00  0.00     0.173 A 
ATOM     69  C   UNL A   1      41.965  31.946  35.211  1.00  0.00     0.173 A 
ATOM     70  F   UNL A   1      44.139  33.266  32.618  1.00  0.00    -0.203 F 
ATOM     71  C   UNL A   1      43.378  34.257  34.615  1.00  0.00     0.198 A 
ATOM     72  C   UNL A   1      41.920  33.036  36.078  1.00  0.00     0.198 A 
ATOM     73  F   UNL A   1      41.279  30.839  35.530  1.00  0.00    -0.203 F 
ATOM     74  F   UNL A   1      44.089  35.360  34.340  1.00  0.00    -0.200 F 
ATOM     75  C   UNL A   1      42.631  34.188  35.782  1.00  0.00     0.200 A 
ATOM     76  F   UNL A   1      41.189  32.969  37.199  1.00  0.00    -0.200 F 
ATOM     77  F   UNL A   1      42.603  35.230  36.624  1.00  0.00    -0.200 F 
ENDBRANCH  43  67
BRANCH  55  78
ATOM     78  C   UNL A   1      47.067  26.643  33.096  1.00  0.00     0.064 A 
ATOM     79  C   UNL A   1      47.093  25.777  34.199  1.00  0.00     0.173 A 
ATOM     80  C   UNL A   1      48.292  27.114  32.600  1.00  0.00     0.173 A 
ATOM     81  F   UNL A   1      45.947  25.312  34.719  1.00  0.00    -0.203 F 
ATOM     82  C   UNL A   1      48.298  25.414  34.794  1.00  0.00     0.198 A 
ATOM     83  C   UNL A   1      49.496  26.728  33.180  1.00  0.00     0.198 A 
ATOM     84  F   UNL A   1      48.320  27.940  31.542  1.00  0.00    -0.203 F 
ATOM     85  F   UNL A   1      48.298  24.619  35.873  1.00  0.00    -0.200 F 
ATOM     86  C   UNL A   1      49.497  25.883  34.280  1.00  0.00     0.200 A 
ATOM     87  F   UNL A   1      50.655  27.172  32.675  1.00  0.00    -0.200 F 
ATOM     88  F   UNL A   1      50.657  25.527  34.851  1.00  0.00    -0.200 F 
ENDBRANCH  55  78
ENDBRANCH  29  30
ENDBRANCH  22  24
ENDBRANCH  21  22
ENDBRANCH  20  21
ENDBRANCH   1  20
TORSDOF 13
ENDMDL
MODEL 3
REMARK VINA RESULT:     -10.6      3.950      9.796
REMARK SMILES CC1(C)C(C(=O)N2CCOC[C@H]2C(=O)OCCOC(=O)c2ccc(-c3c4nc(c(-c5c(F)c(F)c(F)c(F)c5F)c5ccc([nH]5)c(-c5c(F)c(F)c(F)c(F)c5F)c5nc(c(-c6c(F)c(F)c(F)c(F)c6F)c6ccc3[nH]6)C=C5)C=C4)cc2)C1(C)C
REMARK SMILES IDX 16 1 15 2 13 3 14 4 12 5 7 6 8 7 9 8 11 9 10 10 5 11 6 12
REMARK SMILES IDX 4 13 1 14 2 15 3 16 84 17 85 18 86 19 17 20 18 21 19 22
REMARK SMILES IDX 20 23 21 24 22 25 83 26 23 27 82 28 24 29 25 30 26 31 76 32
REMARK SMILES IDX 27 33 81 34 75 35 77 36 28 37 80 38 74 39 73 40 29 42 61 43
REMARK SMILES IDX 41 44 60 45 42 46 45 47 59 48 78 49 43 50 44 51 58 53 79 54
REMARK SMILES IDX 46 55 30 56 31 57 39 58 32 59 33 60 37 61 40 62 34 63 35 64
REMARK SMILES IDX 38 65 36 66 62 67 63 68 71 69 64 70 65 71 69 72 72 73 66 74
REMARK SMILES IDX 67 75 70 76 68 77 47 78 48 79 56 80 49 81 50 82 54 83 57 84
REMARK SMILES IDX 51 85 52 86 55 87 53 88
REMARK H PARENT 77 41 45 52
REMARK Flexibility Score: inf
ROOT
ATOM      1  C   UNL A   1      31.446  29.510  24.547  1.00  0.00     0.274 C 
ENDROOT
BRANCH   1   2
ATOM      2  O   UNL A   1      30.584  28.359  24.616  1.00  0.00    -0.460 OA
BRANCH   2   3
ATOM      3  C   UNL A   1      31.074  27.251  25.229  1.00  0.00     0.331 C 
ATOM      4  O   UNL A   1      30.899  26.989  26.417  1.00  0.00    -0.250 OA
BRANCH   3   5
ATOM      5  C   UNL A   1      32.022  26.430  24.342  1.00  0.00     0.221 C 
ATOM      6  N   UNL A   1      32.572  25.138  24.820  1.00  0.00    -0.324 N 
ATOM      7  C   UNL A   1      31.603  24.056  24.916  1.00  0.00     0.149 C 
ATOM      8  C   UNL A   1      30.787  23.938  23.618  1.00  0.00     0.181 C 
ATOM      9  C   UNL A   1      31.280  26.185  23.023  1.00  0.00     0.197 C 
ATOM     10  O   UNL A   1      30.245  25.200  23.193  1.00  0.00    -0.377 OA
BRANCH   6  11
ATOM     11  C   UNL A   1      33.940  25.070  25.032  1.00  0.00     0.227 C 
ATOM     12  O   UNL A   1      34.493  25.889  25.768  1.00  0.00    -0.275 OA
BRANCH  11  13
ATOM     13  C   UNL A   1      34.869  24.107  24.358  1.00  0.00     0.091 C 
ATOM     14  C   UNL A   1      36.776  22.704  23.323  1.00  0.00     0.012 C 
ATOM     15  C   UNL A   1      36.179  23.353  24.572  1.00  0.00    -0.017 C 
ATOM     16  C   UNL A   1      37.296  23.810  25.471  1.00  0.00     0.012 C 
ATOM     17  C   UNL A   1      34.904  22.755  25.146  1.00  0.00    -0.017 C 
ATOM     18  C   UNL A   1      34.241  21.553  24.514  1.00  0.00     0.012 C 
ATOM     19  C   UNL A   1      34.672  22.774  26.649  1.00  0.00     0.012 C 
ENDBRANCH  11  13
ENDBRANCH   6  11
ENDBRANCH   3   5
ENDBRANCH   2   3
ENDBRANCH   1   2
BRANCH   1  20
ATOM     20  C   UNL A   1      31.686  30.085  25.942  1.00  0.00     0.275 C 
BRANCH  20  21
ATOM     21  O   UNL A   1      33.092  30.234  26.196  1.00  0.00    -0.458 OA
BRANCH  21  22
ATOM     22  C   UNL A   1      33.419  31.286  26.985  1.00  0.00     0.338 C 
ATOM     23  O   UNL A   1      32.745  32.268  27.234  1.00  0.00    -0.246 OA
BRANCH  22  24
ATOM     24  C   UNL A   1      34.709  31.002  27.630  1.00  0.00     0.060 A 
ATOM     25  C   UNL A   1      34.982  29.686  28.003  1.00  0.00     0.016 A 
ATOM     26  C   UNL A   1      35.608  32.028  27.917  1.00  0.00     0.016 A 
ATOM     27  C   UNL A   1      36.152  29.385  28.692  1.00  0.00     0.010 A 
ATOM     28  C   UNL A   1      36.788  31.724  28.600  1.00  0.00     0.010 A 
ATOM     29  C   UNL A   1      37.057  30.404  29.006  1.00  0.00    -0.014 A 
BRANCH  29  30
ATOM     30  C   UNL A   1      38.252  30.102  29.823  1.00  0.00     0.031 A 
ATOM     31  C   UNL A   1      39.307  29.187  29.277  1.00  0.00     0.074 A 
ATOM     32  C   UNL A   1      38.392  30.653  31.041  1.00  0.00     0.049 A 
ATOM     33  N   UNL A   1      40.370  28.701  29.864  1.00  0.00    -0.248 NA
ATOM     34  C   UNL A   1      39.137  28.755  27.881  1.00  0.00     0.031 C 
ATOM     35  C   UNL A   1      37.456  31.598  31.651  1.00  0.00     0.029 A 
ATOM     36  N   UNL A   1      39.372  30.491  31.986  1.00  0.00    -0.354 N 
ATOM     37  C   UNL A   1      40.982  27.888  28.920  1.00  0.00     0.074 A 
ATOM     38  C   UNL A   1      40.164  27.931  27.727  1.00  0.00     0.031 C 
ATOM     39  C   UNL A   1      37.906  31.929  32.872  1.00  0.00     0.029 A 
ATOM     40  C   UNL A   1      39.131  31.182  33.147  1.00  0.00     0.049 A 
ATOM     41  H   UNL A   1      40.170  29.931  31.846  1.00  0.00     0.167 HD
ATOM     42  C   UNL A   1      42.127  27.173  29.042  1.00  0.00     0.037 A 
ATOM     43  C   UNL A   1      39.809  31.186  34.311  1.00  0.00     0.037 A 
ATOM     44  C   UNL A   1      42.943  27.153  30.228  1.00  0.00     0.049 A 
ATOM     45  C   UNL A   1      41.047  30.340  34.441  1.00  0.00     0.074 A 
ATOM     46  C   UNL A   1      44.128  26.475  30.449  1.00  0.00     0.029 A 
ATOM     47  N   UNL A   1      42.655  27.848  31.394  1.00  0.00    -0.354 N 
ATOM     48  N   UNL A   1      41.616  29.564  33.550  1.00  0.00    -0.248 NA
ATOM     49  C   UNL A   1      41.733  30.367  35.739  1.00  0.00     0.031 C 
ATOM     50  C   UNL A   1      44.535  26.724  31.765  1.00  0.00     0.029 A 
ATOM     51  C   UNL A   1      43.630  27.597  32.348  1.00  0.00     0.049 A 
ATOM     52  H   UNL A   1      41.874  28.433  31.525  1.00  0.00     0.167 HD
ATOM     53  C   UNL A   1      42.736  29.028  34.169  1.00  0.00     0.074 A 
ATOM     54  C   UNL A   1      42.774  29.578  35.509  1.00  0.00     0.031 C 
ATOM     55  C   UNL A   1      43.651  28.159  33.674  1.00  0.00     0.037 A 
BRANCH  42  56
ATOM     56  C   UNL A   1      42.539  26.327  27.875  1.00  0.00     0.064 A 
ATOM     57  C   UNL A   1      43.439  26.792  26.905  1.00  0.00     0.173 A 
ATOM     58  C   UNL A   1      42.042  25.023  27.737  1.00  0.00     0.173 A 
ATOM     59  F   UNL A   1      43.933  28.037  26.982  1.00  0.00    -0.203 F 
ATOM     60  C   UNL A   1      43.802  25.992  25.823  1.00  0.00     0.198 A 
ATOM     61  C   UNL A   1      42.428  24.216  26.670  1.00  0.00     0.198 A 
ATOM     62  F   UNL A   1      41.181  24.529  28.640  1.00  0.00    -0.203 F 
ATOM     63  F   UNL A   1      44.625  26.473  24.881  1.00  0.00    -0.200 F 
ATOM     64  C   UNL A   1      43.302  24.703  25.711  1.00  0.00     0.200 A 
ATOM     65  F   UNL A   1      41.952  22.967  26.570  1.00  0.00    -0.200 F 
ATOM     66  F   UNL A   1      43.655  23.934  24.672  1.00  0.00    -0.200 F 
ENDBRANCH  42  56
BRANCH  43  67
ATOM     67  C   UNL A   1      39.316  32.005  35.448  1.00  0.00     0.064 A 
ATOM     68  C   UNL A   1      38.468  31.455  36.418  1.00  0.00     0.173 A 
ATOM     69  C   UNL A   1      39.690  33.349  35.591  1.00  0.00     0.173 A 
ATOM     70  F   UNL A   1      38.062  30.182  36.310  1.00  0.00    -0.203 F 
ATOM     71  C   UNL A   1      38.002  32.223  37.483  1.00  0.00     0.198 A 
ATOM     72  C   UNL A   1      39.245  34.108  36.671  1.00  0.00     0.198 A 
ATOM     73  F   UNL A   1      40.497  33.922  34.687  1.00  0.00    -0.203 F 
ATOM     74  F   UNL A   1      37.160  31.686  38.377  1.00  0.00    -0.200 F 
ATOM     75  C   UNL A   1      38.398  33.547  37.613  1.00  0.00     0.200 A 
ATOM     76  F   UNL A   1      39.639  35.383  36.798  1.00  0.00    -0.200 F 
ATOM     77  F   UNL A   1      37.956  34.283  38.642  1.00  0.00    -0.200 F 
ENDBRANCH  43  67
BRANCH  55  78
ATOM     78  C   UNL A   1      44.789  27.774  34.575  1.00  0.00     0.064 A 
ATOM     79  C   UNL A   1      45.957  28.544  34.653  1.00  0.00     0.173 A 
ATOM     80  C   UNL A   1      44.688  26.644  35.400  1.00  0.00     0.173 A 
ATOM     81  F   UNL A   1      46.107  29.626  33.873  1.00  0.00    -0.203 F 
ATOM     82  C   UNL A   1      46.994  28.185  35.510  1.00  0.00     0.198 A 
ATOM     83  C   UNL A   1      45.714  26.303  36.275  1.00  0.00     0.198 A 
ATOM     84  F   UNL A   1      43.586  25.878  35.365  1.00  0.00    -0.203 F 
ATOM     85  F   UNL A   1      48.120  28.911  35.539  1.00  0.00    -0.200 F 
ATOM     86  C   UNL A   1      46.868  27.070  36.325  1.00  0.00     0.200 A 
ATOM     87  F   UNL A   1      45.587  25.231  37.070  1.00  0.00    -0.200 F 
ATOM     88  F   UNL A   1      47.865  26.729  37.154  1.00  0.00    -0.200 F 
ENDBRANCH  55  78
ENDBRANCH  29  30
ENDBRANCH  22  24
ENDBRANCH  21  22
ENDBRANCH  20  21
ENDBRANCH   1  20
TORSDOF 13
ENDMDL
