MODEL 1
REMARK VINA RESULT:     -12.2      0.000      0.000
REMARK SMILES CO[C@@H]1C[C@H](C(=O)OCCOC(=O)c2ccc(-c3c4nc(c(-c5c(F)c(F)c(F)c(F)c5F)c5ccc([nH]5)c(-c5c(F)c(F)c(F)c(F)c5F)c5nc(c(-c6c(F)c(F)c(F)c(F)c6F)c6ccc3[nH]6)C=C5)C=C4)cc2)N(C(=O)c2ccn(C)c(=O)c2)C1
REMARK SMILES IDX 9 1 8 2 6 3 7 4 5 5 3 6 4 7 88 8 77 9 2 10 1 11 78 12 79 13
REMARK SMILES IDX 80 14 81 15 87 16 82 17 85 18 83 19 86 20 84 21 10 22 11 23
REMARK SMILES IDX 12 24 13 25 14 26 15 27 76 28 16 29 75 30 17 31 18 32 19 33
REMARK SMILES IDX 69 34 20 35 74 36 68 37 70 38 21 39 73 40 67 41 66 42 22 44
REMARK SMILES IDX 54 45 34 46 53 47 35 48 38 49 52 50 71 51 36 52 37 53 51 55
REMARK SMILES IDX 72 56 39 57 23 58 24 59 32 60 25 61 26 62 30 63 33 64 27 65
REMARK SMILES IDX 28 66 31 67 29 68 55 69 56 70 64 71 57 72 58 73 62 74 65 75
REMARK SMILES IDX 59 76 60 77 63 78 61 79 40 80 41 81 49 82 42 83 43 84 47 85
REMARK SMILES IDX 50 86 44 87 45 88 48 89 46 90
REMARK H PARENT 70 43 38 54
REMARK Flexibility Score: inf
ROOT
ATOM      1  C   UNL A   1      31.679  28.752  27.131  1.00  0.00     0.274 C 
ENDROOT
BRANCH   1   2
ATOM      2  O   UNL A   1      32.453  27.630  26.668  1.00  0.00    -0.461 OA
BRANCH   2   3
ATOM      3  C   UNL A   1      31.778  26.471  26.457  1.00  0.00     0.329 C 
ATOM      4  O   UNL A   1      30.636  26.249  26.848  1.00  0.00    -0.250 OA
BRANCH   3   5
ATOM      5  C   UNL A   1      32.592  25.432  25.666  1.00  0.00     0.198 C 
ATOM      6  C   UNL A   1      31.951  23.158  26.198  1.00  0.00     0.140 C 
ATOM      7  C   UNL A   1      33.064  24.193  26.406  1.00  0.00     0.071 C 
ATOM      8  C   UNL A   1      31.109  23.699  25.023  1.00  0.00     0.152 C 
ATOM      9  N   UNL A   1      31.786  24.907  24.581  1.00  0.00    -0.322 N 
BRANCH   6  10
ATOM     10  O   UNL A   1      31.146  22.995  27.365  1.00  0.00    -0.380 OA
ATOM     11  C   UNL A   1      29.756  22.876  27.069  1.00  0.00     0.195 C 
ENDBRANCH   6  10
BRANCH   9  12
ATOM     12  C   UNL A   1      31.569  25.465  23.343  1.00  0.00     0.254 C 
ATOM     13  O   UNL A   1      32.214  25.151  22.346  1.00  0.00    -0.269 OA
BRANCH  12  14
ATOM     14  C   UNL A   1      30.520  26.522  23.240  1.00  0.00     0.046 A 
ATOM     15  C   UNL A   1      29.223  26.348  23.850  1.00  0.00     0.032 A 
ATOM     16  C   UNL A   1      30.785  27.608  22.499  1.00  0.00     0.085 A 
ATOM     17  C   UNL A   1      28.288  27.296  23.705  1.00  0.00     0.089 A 
ATOM     18  C   UNL A   1      29.776  28.689  22.382  1.00  0.00     0.251 A 
ATOM     19  N   UNL A   1      28.548  28.456  22.996  1.00  0.00    -0.319 N 
ATOM     20  O   UNL A   1      30.080  29.715  21.778  1.00  0.00    -0.269 OA
ATOM     21  C   UNL A   1      27.490  29.443  22.845  1.00  0.00     0.153 C 
ENDBRANCH  12  14
ENDBRANCH   9  12
ENDBRANCH   3   5
ENDBRANCH   2   3
ENDBRANCH   1   2
BRANCH   1  22
ATOM     22  C   UNL A   1      31.793  29.912  26.142  1.00  0.00     0.275 C 
BRANCH  22  23
ATOM     23  O   UNL A   1      33.139  30.423  26.104  1.00  0.00    -0.458 OA
BRANCH  23  24
ATOM     24  C   UNL A   1      33.393  31.437  26.965  1.00  0.00     0.338 C 
ATOM     25  O   UNL A   1      32.674  32.376  27.252  1.00  0.00    -0.246 OA
BRANCH  24  26
ATOM     26  C   UNL A   1      34.666  31.177  27.648  1.00  0.00     0.060 A 
ATOM     27  C   UNL A   1      34.921  29.878  28.087  1.00  0.00     0.016 A 
ATOM     28  C   UNL A   1      35.553  32.210  27.937  1.00  0.00     0.016 A 
ATOM     29  C   UNL A   1      36.056  29.597  28.835  1.00  0.00     0.010 A 
ATOM     30  C   UNL A   1      36.717  31.923  28.658  1.00  0.00     0.010 A 
ATOM     31  C   UNL A   1      36.972  30.616  29.113  1.00  0.00    -0.014 A 
BRANCH  31  32
ATOM     32  C   UNL A   1      38.208  30.302  29.864  1.00  0.00     0.031 A 
ATOM     33  C   UNL A   1      39.246  29.406  29.263  1.00  0.00     0.074 A 
ATOM     34  C   UNL A   1      38.378  30.823  31.093  1.00  0.00     0.049 A 
ATOM     35  N   UNL A   1      40.307  28.883  29.822  1.00  0.00    -0.248 NA
ATOM     36  C   UNL A   1      39.064  29.038  27.850  1.00  0.00     0.031 C 
ATOM     37  C   UNL A   1      37.447  31.738  31.757  1.00  0.00     0.029 A 
ATOM     38  N   UNL A   1      39.384  30.651  32.008  1.00  0.00    -0.354 N 
ATOM     39  C   UNL A   1      40.893  28.089  28.847  1.00  0.00     0.074 A 
ATOM     40  C   UNL A   1      40.079  28.207  27.655  1.00  0.00     0.031 C 
ATOM     41  C   UNL A   1      37.926  32.046  32.972  1.00  0.00     0.029 A 
ATOM     42  C   UNL A   1      39.164  31.306  33.194  1.00  0.00     0.049 A 
ATOM     43  H   UNL A   1      40.188  30.110  31.831  1.00  0.00     0.167 HD
ATOM     44  C   UNL A   1      42.005  27.324  28.951  1.00  0.00     0.037 A 
ATOM     45  C   UNL A   1      39.858  31.276  34.346  1.00  0.00     0.037 A 
ATOM     46  C   UNL A   1      42.831  27.256  30.128  1.00  0.00     0.049 A 
ATOM     47  C   UNL A   1      41.075  30.398  34.438  1.00  0.00     0.074 A 
ATOM     48  C   UNL A   1      44.010  26.556  30.315  1.00  0.00     0.029 A 
ATOM     49  N   UNL A   1      42.564  27.919  31.317  1.00  0.00    -0.354 N 
ATOM     50  N   UNL A   1      41.619  29.642  33.517  1.00  0.00    -0.248 NA
ATOM     51  C   UNL A   1      41.759  30.348  35.738  1.00  0.00     0.031 C 
ATOM     52  C   UNL A   1      44.432  26.760  31.633  1.00  0.00     0.029 A 
ATOM     53  C   UNL A   1      43.536  27.614  32.254  1.00  0.00     0.049 A 
ATOM     54  H   UNL A   1      41.797  28.517  31.471  1.00  0.00     0.167 HD
ATOM     55  C   UNL A   1      42.699  29.018  34.123  1.00  0.00     0.074 A 
ATOM     56  C   UNL A   1      42.756  29.511  35.484  1.00  0.00     0.031 C 
ATOM     57  C   UNL A   1      43.558  28.107  33.607  1.00  0.00     0.037 A 
BRANCH  44  58
ATOM     58  C   UNL A   1      42.375  26.462  27.785  1.00  0.00     0.064 A 
ATOM     59  C   UNL A   1      43.317  26.865  26.830  1.00  0.00     0.173 A 
ATOM     60  C   UNL A   1      41.818  25.179  27.661  1.00  0.00     0.173 A 
ATOM     61  F   UNL A   1      43.867  28.086  26.898  1.00  0.00    -0.203 F 
ATOM     62  C   UNL A   1      43.683  26.017  25.786  1.00  0.00     0.198 A 
ATOM     63  C   UNL A   1      42.200  24.327  26.629  1.00  0.00     0.198 A 
ATOM     64  F   UNL A   1      40.912  24.747  28.551  1.00  0.00    -0.203 F 
ATOM     65  F   UNL A   1      44.569  26.430  24.870  1.00  0.00    -0.200 F 
ATOM     66  C   UNL A   1      43.131  24.748  25.692  1.00  0.00     0.200 A 
ATOM     67  F   UNL A   1      41.672  23.099  26.544  1.00  0.00    -0.200 F 
ATOM     68  F   UNL A   1      43.494  23.930  24.694  1.00  0.00    -0.200 F 
ENDBRANCH  44  58
BRANCH  45  69
ATOM     69  C   UNL A   1      39.384  32.054  35.519  1.00  0.00     0.064 A 
ATOM     70  C   UNL A   1      38.520  31.483  36.462  1.00  0.00     0.173 A 
ATOM     71  C   UNL A   1      39.786  33.383  35.721  1.00  0.00     0.173 A 
ATOM     72  F   UNL A   1      38.091  30.224  36.300  1.00  0.00    -0.203 F 
ATOM     73  C   UNL A   1      38.065  32.216  37.556  1.00  0.00     0.198 A 
ATOM     74  C   UNL A   1      39.356  34.105  36.831  1.00  0.00     0.198 A 
ATOM     75  F   UNL A   1      40.615  33.975  34.848  1.00  0.00    -0.203 F 
ATOM     76  F   UNL A   1      37.209  31.660  38.423  1.00  0.00    -0.200 F 
ATOM     77  C   UNL A   1      38.490  33.523  37.744  1.00  0.00     0.200 A 
ATOM     78  F   UNL A   1      39.781  35.362  37.017  1.00  0.00    -0.200 F 
ATOM     79  F   UNL A   1      38.059  34.224  38.803  1.00  0.00    -0.200 F 
ENDBRANCH  45  69
BRANCH  57  80
ATOM     80  C   UNL A   1      44.613  27.572  34.524  1.00  0.00     0.064 A 
ATOM     81  C   UNL A   1      45.835  28.242  34.688  1.00  0.00     0.173 A 
ATOM     82  C   UNL A   1      44.388  26.412  35.278  1.00  0.00     0.173 A 
ATOM     83  F   UNL A   1      46.100  29.345  33.972  1.00  0.00    -0.203 F 
ATOM     84  C   UNL A   1      46.801  27.761  35.567  1.00  0.00     0.198 A 
ATOM     85  C   UNL A   1      45.347  25.947  36.174  1.00  0.00     0.198 A 
ATOM     86  F   UNL A   1      43.234  25.740  35.158  1.00  0.00    -0.203 F 
ATOM     87  F   UNL A   1      47.973  28.397  35.684  1.00  0.00    -0.200 F 
ATOM     88  C   UNL A   1      46.553  26.618  36.314  1.00  0.00     0.200 A 
ATOM     89  F   UNL A   1      45.104  24.848  36.902  1.00  0.00    -0.200 F 
ATOM     90  F   UNL A   1      47.480  26.161  37.167  1.00  0.00    -0.200 F 
ENDBRANCH  57  80
ENDBRANCH  31  32
ENDBRANCH  24  26
ENDBRANCH  23  24
ENDBRANCH  22  23
ENDBRANCH   1  22
TORSDOF 14
ENDMDL
MODEL 2
REMARK VINA RESULT:     -12.1      1.318      2.201
REMARK SMILES CO[C@@H]1C[C@H](C(=O)OCCOC(=O)c2ccc(-c3c4nc(c(-c5c(F)c(F)c(F)c(F)c5F)c5ccc([nH]5)c(-c5c(F)c(F)c(F)c(F)c5F)c5nc(c(-c6c(F)c(F)c(F)c(F)c6F)c6ccc3[nH]6)C=C5)C=C4)cc2)N(C(=O)c2ccn(C)c(=O)c2)C1
REMARK SMILES IDX 9 1 8 2 6 3 7 4 5 5 3 6 4 7 88 8 77 9 2 10 1 11 78 12 79 13
REMARK SMILES IDX 80 14 81 15 87 16 82 17 85 18 83 19 86 20 84 21 10 22 11 23
REMARK SMILES IDX 12 24 13 25 14 26 15 27 76 28 16 29 75 30 17 31 18 32 19 33
REMARK SMILES IDX 69 34 20 35 74 36 68 37 70 38 21 39 73 40 67 41 66 42 22 44
REMARK SMILES IDX 54 45 34 46 53 47 35 48 38 49 52 50 71 51 36 52 37 53 51 55
REMARK SMILES IDX 72 56 39 57 23 58 24 59 32 60 25 61 26 62 30 63 33 64 27 65
REMARK SMILES IDX 28 66 31 67 29 68 55 69 56 70 64 71 57 72 58 73 62 74 65 75
REMARK SMILES IDX 59 76 60 77 63 78 61 79 40 80 41 81 49 82 42 83 43 84 47 85
REMARK SMILES IDX 50 86 44 87 45 88 48 89 46 90
REMARK H PARENT 70 43 38 54
REMARK Flexibility Score: inf
ROOT
ATOM      1  C   UNL A   1      31.982  28.335  26.847  1.00  0.00     0.274 C 
ENDROOT
BRANCH   1   2
ATOM      2  O   UNL A   1      31.664  27.453  25.755  1.00  0.00    -0.461 OA
BRANCH   2   3
ATOM      3  C   UNL A   1      32.641  27.246  24.836  1.00  0.00     0.329 C 
ATOM      4  O   UNL A   1      33.687  26.641  25.055  1.00  0.00    -0.250 OA
BRANCH   3   5
ATOM      5  C   UNL A   1      32.315  27.852  23.459  1.00  0.00     0.198 C 
ATOM      6  C   UNL A   1      32.900  26.369  21.637  1.00  0.00     0.140 C 
ATOM      7  C   UNL A   1      33.329  27.659  22.346  1.00  0.00     0.071 C 
ATOM      8  C   UNL A   1      31.449  26.115  22.099  1.00  0.00     0.152 C 
ATOM      9  N   UNL A   1      31.103  27.250  22.938  1.00  0.00    -0.322 N 
BRANCH   6  10
ATOM     10  O   UNL A   1      33.740  25.266  21.976  1.00  0.00    -0.380 OA
ATOM     11  C   UNL A   1      33.019  24.170  22.536  1.00  0.00     0.195 C 
ENDBRANCH   6  10
BRANCH   9  12
ATOM     12  C   UNL A   1      29.801  27.583  23.231  1.00  0.00     0.254 C 
ATOM     13  O   UNL A   1      29.033  26.824  23.816  1.00  0.00    -0.269 OA
BRANCH  12  14
ATOM     14  C   UNL A   1      29.314  28.917  22.774  1.00  0.00     0.046 A 
ATOM     15  C   UNL A   1      29.902  29.575  21.631  1.00  0.00     0.032 A 
ATOM     16  C   UNL A   1      28.367  29.530  23.501  1.00  0.00     0.085 A 
ATOM     17  C   UNL A   1      29.473  30.791  21.270  1.00  0.00     0.089 A 
ATOM     18  C   UNL A   1      27.846  30.852  23.074  1.00  0.00     0.251 A 
ATOM     19  N   UNL A   1      28.457  31.427  21.963  1.00  0.00    -0.319 N 
ATOM     20  O   UNL A   1      26.912  31.346  23.701  1.00  0.00    -0.269 OA
ATOM     21  C   UNL A   1      28.045  32.759  21.548  1.00  0.00     0.153 C 
ENDBRANCH  12  14
ENDBRANCH   9  12
ENDBRANCH   3   5
ENDBRANCH   2   3
ENDBRANCH   1   2
BRANCH   1  22
ATOM     22  C   UNL A   1      31.782  29.789  26.422  1.00  0.00     0.275 C 
BRANCH  22  23
ATOM     23  O   UNL A   1      33.048  30.433  26.181  1.00  0.00    -0.458 OA
BRANCH  23  24
ATOM     24  C   UNL A   1      33.332  31.467  27.008  1.00  0.00     0.338 C 
ATOM     25  O   UNL A   1      32.642  32.437  27.262  1.00  0.00    -0.246 OA
BRANCH  24  26
ATOM     26  C   UNL A   1      34.596  31.192  27.702  1.00  0.00     0.060 A 
ATOM     27  C   UNL A   1      34.834  29.889  28.138  1.00  0.00     0.016 A 
ATOM     28  C   UNL A   1      35.490  32.215  28.003  1.00  0.00     0.016 A 
ATOM     29  C   UNL A   1      35.959  29.593  28.895  1.00  0.00     0.010 A 
ATOM     30  C   UNL A   1      36.645  31.913  28.733  1.00  0.00     0.010 A 
ATOM     31  C   UNL A   1      36.883  30.602  29.185  1.00  0.00    -0.014 A 
BRANCH  31  32
ATOM     32  C   UNL A   1      38.108  30.273  29.946  1.00  0.00     0.031 A 
ATOM     33  C   UNL A   1      39.151  29.381  29.345  1.00  0.00     0.074 A 
ATOM     34  C   UNL A   1      38.266  30.776  31.185  1.00  0.00     0.049 A 
ATOM     35  N   UNL A   1      40.203  28.846  29.908  1.00  0.00    -0.248 NA
ATOM     36  C   UNL A   1      38.983  29.034  27.925  1.00  0.00     0.031 C 
ATOM     37  C   UNL A   1      37.331  31.685  31.850  1.00  0.00     0.029 A 
ATOM     38  N   UNL A   1      39.261  30.587  32.108  1.00  0.00    -0.354 N 
ATOM     39  C   UNL A   1      40.797  28.064  28.929  1.00  0.00     0.074 A 
ATOM     40  C   UNL A   1      39.998  28.201  27.730  1.00  0.00     0.031 C 
ATOM     41  C   UNL A   1      37.797  31.974  33.075  1.00  0.00     0.029 A 
ATOM     42  C   UNL A   1      39.030  31.226  33.301  1.00  0.00     0.049 A 
ATOM     43  H   UNL A   1      40.064  30.045  31.933  1.00  0.00     0.167 HD
ATOM     44  C   UNL A   1      41.905  27.293  29.036  1.00  0.00     0.037 A 
ATOM     45  C   UNL A   1      39.710  31.177  34.461  1.00  0.00     0.037 A 
ATOM     46  C   UNL A   1      42.717  27.205  30.221  1.00  0.00     0.049 A 
ATOM     47  C   UNL A   1      40.923  30.293  34.554  1.00  0.00     0.074 A 
ATOM     48  C   UNL A   1      43.890  26.497  30.412  1.00  0.00     0.029 A 
ATOM     49  N   UNL A   1      42.438  27.852  31.416  1.00  0.00    -0.354 N 
ATOM     50  N   UNL A   1      41.474  29.547  33.629  1.00  0.00    -0.248 NA
ATOM     51  C   UNL A   1      41.591  30.222  35.861  1.00  0.00     0.031 C 
ATOM     52  C   UNL A   1      44.298  26.681  31.738  1.00  0.00     0.029 A 
ATOM     53  C   UNL A   1      43.398  27.530  32.360  1.00  0.00     0.049 A 
ATOM     54  H   UNL A   1      41.672  28.451  31.569  1.00  0.00     0.167 HD
ATOM     55  C   UNL A   1      42.544  28.911  34.239  1.00  0.00     0.074 A 
ATOM     56  C   UNL A   1      42.588  29.385  35.607  1.00  0.00     0.031 C 
ATOM     57  C   UNL A   1      43.406  28.004  33.719  1.00  0.00     0.037 A 
BRANCH  44  58
ATOM     58  C   UNL A   1      42.285  26.445  27.861  1.00  0.00     0.064 A 
ATOM     59  C   UNL A   1      43.246  26.855  26.928  1.00  0.00     0.173 A 
ATOM     60  C   UNL A   1      41.718  25.170  27.709  1.00  0.00     0.173 A 
ATOM     61  F   UNL A   1      43.806  28.070  27.024  1.00  0.00    -0.203 F 
ATOM     62  C   UNL A   1      43.620  26.020  25.877  1.00  0.00     0.198 A 
ATOM     63  C   UNL A   1      42.109  24.331  26.669  1.00  0.00     0.198 A 
ATOM     64  F   UNL A   1      40.795  24.733  28.578  1.00  0.00    -0.203 F 
ATOM     65  F   UNL A   1      44.524  26.439  24.981  1.00  0.00    -0.200 F 
ATOM     66  C   UNL A   1      43.059  24.757  25.754  1.00  0.00     0.200 A 
ATOM     67  F   UNL A   1      41.571  23.109  26.557  1.00  0.00    -0.200 F 
ATOM     68  F   UNL A   1      43.429  23.952  24.749  1.00  0.00    -0.200 F 
ENDBRANCH  44  58
BRANCH  45  69
ATOM     69  C   UNL A   1      39.225  31.941  35.639  1.00  0.00     0.064 A 
ATOM     70  C   UNL A   1      38.372  31.350  36.579  1.00  0.00     0.173 A 
ATOM     71  C   UNL A   1      39.605  33.275  35.848  1.00  0.00     0.173 A 
ATOM     72  F   UNL A   1      37.964  30.084  36.411  1.00  0.00    -0.203 F 
ATOM     73  C   UNL A   1      37.908  32.069  37.679  1.00  0.00     0.198 A 
ATOM     74  C   UNL A   1      39.165  33.983  36.962  1.00  0.00     0.198 A 
ATOM     75  F   UNL A   1      40.422  33.885  34.976  1.00  0.00    -0.203 F 
ATOM     76  F   UNL A   1      37.062  31.493  38.545  1.00  0.00    -0.200 F 
ATOM     77  C   UNL A   1      38.311  33.382  37.873  1.00  0.00     0.200 A 
ATOM     78  F   UNL A   1      39.570  35.245  37.154  1.00  0.00    -0.200 F 
ATOM     79  F   UNL A   1      37.871  34.069  38.937  1.00  0.00    -0.200 F 
ENDBRANCH  45  69
BRANCH  57  80
ATOM     80  C   UNL A   1      44.449  27.452  34.642  1.00  0.00     0.064 A 
ATOM     81  C   UNL A   1      44.231  26.258  35.346  1.00  0.00     0.173 A 
ATOM     82  C   UNL A   1      45.688  28.089  34.788  1.00  0.00     0.173 A 
ATOM     83  F   UNL A   1      43.052  25.624  35.251  1.00  0.00    -0.203 F 
ATOM     84  C   UNL A   1      45.214  25.730  36.176  1.00  0.00     0.198 A 
ATOM     85  C   UNL A   1      46.678  27.546  35.601  1.00  0.00     0.198 A 
ATOM     86  F   UNL A   1      45.944  29.231  34.131  1.00  0.00    -0.203 F 
ATOM     87  F   UNL A   1      44.974  24.607  36.866  1.00  0.00    -0.200 F 
ATOM     88  C   UNL A   1      46.439  26.370  36.297  1.00  0.00     0.200 A 
ATOM     89  F   UNL A   1      47.865  28.159  35.710  1.00  0.00    -0.200 F 
ATOM     90  F   UNL A   1      47.389  25.855  37.090  1.00  0.00    -0.200 F 
ENDBRANCH  57  80
ENDBRANCH  31  32
ENDBRANCH  24  26
ENDBRANCH  23  24
ENDBRANCH  22  23
ENDBRANCH   1  22
TORSDOF 14
ENDMDL
MODEL 3
REMARK VINA RESULT:     -12.0      1.618      3.549
REMARK SMILES CO[C@@H]1C[C@H](C(=O)OCCOC(=O)c2ccc(-c3c4nc(c(-c5c(F)c(F)c(F)c(F)c5F)c5ccc([nH]5)c(-c5c(F)c(F)c(F)c(F)c5F)c5nc(c(-c6c(F)c(F)c(F)c(F)c6F)c6ccc3[nH]6)C=C5)C=C4)cc2)N(C(=O)c2ccn(C)c(=O)c2)C1
REMARK SMILES IDX 9 1 8 2 6 3 7 4 5 5 3 6 4 7 88 8 77 9 2 10 1 11 78 12 79 13
REMARK SMILES IDX 80 14 81 15 87 16 82 17 85 18 83 19 86 20 84 21 10 22 11 23
REMARK SMILES IDX 12 24 13 25 14 26 15 27 76 28 16 29 75 30 17 31 18 32 19 33
REMARK SMILES IDX 69 34 20 35 74 36 68 37 70 38 21 39 73 40 67 41 66 42 22 44
REMARK SMILES IDX 54 45 34 46 53 47 35 48 38 49 52 50 71 51 36 52 37 53 51 55
REMARK SMILES IDX 72 56 39 57 23 58 24 59 32 60 25 61 26 62 30 63 33 64 27 65
REMARK SMILES IDX 28 66 31 67 29 68 55 69 56 70 64 71 57 72 58 73 62 74 65 75
REMARK SMILES IDX 59 76 60 77 63 78 61 79 40 80 41 81 49 82 42 83 43 84 47 85
REMARK SMILES IDX 50 86 44 87 45 88 48 89 46 90
REMARK H PARENT 70 43 38 54
REMARK Flexibility Score: inf
ROOT
ATOM      1  C   UNL A   1      31.480  29.478  24.474  1.00  0.00     0.274 C 
ENDROOT
BRANCH   1   2
ATOM      2  O   UNL A   1      32.760  28.954  24.076  1.00  0.00    -0.461 OA
BRANCH   2   3
ATOM      3  C   UNL A   1      32.814  27.628  23.795  1.00  0.00     0.329 C 
ATOM      4  O   UNL A   1      32.295  27.102  22.815  1.00  0.00    -0.250 OA
BRANCH   3   5
ATOM      5  C   UNL A   1      33.603  26.820  24.840  1.00  0.00     0.198 C 
ATOM      6  C   UNL A   1      32.159  25.797  26.495  1.00  0.00     0.140 C 
ATOM      7  C   UNL A   1      33.170  26.933  26.292  1.00  0.00     0.071 C 
ATOM      8  C   UNL A   1      32.371  24.847  25.297  1.00  0.00     0.152 C 
ATOM      9  N   UNL A   1      33.485  25.404  24.549  1.00  0.00    -0.322 N 
BRANCH   6  10
ATOM     10  O   UNL A   1      30.816  26.276  26.530  1.00  0.00    -0.380 OA
ATOM     11  C   UNL A   1      29.953  25.578  25.634  1.00  0.00     0.195 C 
ENDBRANCH   6  10
BRANCH   9  12
ATOM     12  C   UNL A   1      34.211  24.665  23.644  1.00  0.00     0.254 C 
ATOM     13  O   UNL A   1      33.943  24.624  22.446  1.00  0.00    -0.269 OA
BRANCH  12  14
ATOM     14  C   UNL A   1      35.349  23.857  24.173  1.00  0.00     0.046 A 
ATOM     15  C   UNL A   1      35.655  22.554  23.632  1.00  0.00     0.032 A 
ATOM     16  C   UNL A   1      36.035  24.338  25.221  1.00  0.00     0.085 A 
ATOM     17  C   UNL A   1      36.656  21.835  24.155  1.00  0.00     0.089 A 
ATOM     18  C   UNL A   1      37.182  23.574  25.770  1.00  0.00     0.251 A 
ATOM     19  N   UNL A   1      37.422  22.326  25.198  1.00  0.00    -0.319 N 
ATOM     20  O   UNL A   1      37.853  24.081  26.665  1.00  0.00    -0.269 OA
ATOM     21  C   UNL A   1      38.480  21.495  25.750  1.00  0.00     0.153 C 
ENDBRANCH  12  14
ENDBRANCH   9  12
ENDBRANCH   3   5
ENDBRANCH   2   3
ENDBRANCH   1   2
BRANCH   1  22
ATOM     22  C   UNL A   1      31.627  30.321  25.740  1.00  0.00     0.275 C 
BRANCH  22  23
ATOM     23  O   UNL A   1      33.011  30.437  26.121  1.00  0.00    -0.458 OA
BRANCH  23  24
ATOM     24  C   UNL A   1      33.287  31.443  26.985  1.00  0.00     0.338 C 
ATOM     25  O   UNL A   1      32.631  32.446  27.202  1.00  0.00    -0.246 OA
BRANCH  24  26
ATOM     26  C   UNL A   1      34.477  31.091  27.768  1.00  0.00     0.060 A 
ATOM     27  C   UNL A   1      35.416  32.090  28.019  1.00  0.00     0.016 A 
ATOM     28  C   UNL A   1      34.713  29.779  28.169  1.00  0.00     0.016 A 
ATOM     29  C   UNL A   1      36.611  31.790  28.658  1.00  0.00     0.010 A 
ATOM     30  C   UNL A   1      35.899  29.480  28.847  1.00  0.00     0.010 A 
ATOM     31  C   UNL A   1      36.854  30.483  29.092  1.00  0.00    -0.014 A 
BRANCH  31  32
ATOM     32  C   UNL A   1      38.106  30.177  29.821  1.00  0.00     0.031 A 
ATOM     33  C   UNL A   1      39.130  29.272  29.210  1.00  0.00     0.074 A 
ATOM     34  C   UNL A   1      38.303  30.715  31.039  1.00  0.00     0.049 A 
ATOM     35  N   UNL A   1      40.202  28.755  29.753  1.00  0.00    -0.248 NA
ATOM     36  C   UNL A   1      38.917  28.885  27.806  1.00  0.00     0.031 C 
ATOM     37  C   UNL A   1      37.387  31.640  31.710  1.00  0.00     0.029 A 
ATOM     38  N   UNL A   1      39.328  30.553  31.934  1.00  0.00    -0.354 N 
ATOM     39  C   UNL A   1      40.766  27.947  28.776  1.00  0.00     0.074 A 
ATOM     40  C   UNL A   1      39.927  28.050  27.601  1.00  0.00     0.031 C 
ATOM     41  C   UNL A   1      37.893  31.963  32.911  1.00  0.00     0.029 A 
ATOM     42  C   UNL A   1      39.134  31.224  33.116  1.00  0.00     0.049 A 
ATOM     43  H   UNL A   1      40.127  30.008  31.748  1.00  0.00     0.167 HD
ATOM     44  C   UNL A   1      41.879  27.182  28.867  1.00  0.00     0.037 A 
ATOM     45  C   UNL A   1      39.853  31.209  34.254  1.00  0.00     0.037 A 
ATOM     46  C   UNL A   1      42.730  27.129  30.027  1.00  0.00     0.049 A 
ATOM     47  C   UNL A   1      41.071  30.330  34.331  1.00  0.00     0.074 A 
ATOM     48  C   UNL A   1      43.912  26.429  30.198  1.00  0.00     0.029 A 
ATOM     49  N   UNL A   1      42.489  27.807  31.212  1.00  0.00    -0.354 N 
ATOM     50  N   UNL A   1      41.593  29.561  33.408  1.00  0.00    -0.248 NA
ATOM     51  C   UNL A   1      41.782  30.297  35.617  1.00  0.00     0.031 C 
ATOM     52  C   UNL A   1      44.362  26.650  31.504  1.00  0.00     0.029 A 
ATOM     53  C   UNL A   1      43.481  27.514  32.132  1.00  0.00     0.049 A 
ATOM     54  H   UNL A   1      41.727  28.409  31.374  1.00  0.00     0.167 HD
ATOM     55  C   UNL A   1      42.685  28.944  34.000  1.00  0.00     0.074 A 
ATOM     56  C   UNL A   1      42.773  29.455  35.352  1.00  0.00     0.031 C 
ATOM     57  C   UNL A   1      43.532  28.025  33.477  1.00  0.00     0.037 A 
BRANCH  44  58
ATOM     58  C   UNL A   1      42.223  26.303  27.704  1.00  0.00     0.064 A 
ATOM     59  C   UNL A   1      43.199  26.660  26.765  1.00  0.00     0.173 A 
ATOM     60  C   UNL A   1      41.603  25.051  27.570  1.00  0.00     0.173 A 
ATOM     61  F   UNL A   1      43.809  27.851  26.845  1.00  0.00    -0.203 F 
ATOM     62  C   UNL A   1      43.538  25.796  25.726  1.00  0.00     0.198 A 
ATOM     63  C   UNL A   1      41.958  24.182  26.541  1.00  0.00     0.198 A 
ATOM     64  F   UNL A   1      40.663  24.665  28.445  1.00  0.00    -0.203 F 
ATOM     65  F   UNL A   1      44.458  26.164  24.824  1.00  0.00    -0.200 F 
ATOM     66  C   UNL A   1      42.924  24.556  25.620  1.00  0.00     0.200 A 
ATOM     67  F   UNL A   1      41.369  22.982  26.446  1.00  0.00    -0.200 F 
ATOM     68  F   UNL A   1      43.260  23.722  24.626  1.00  0.00    -0.200 F 
ENDBRANCH  44  58
BRANCH  45  69
ATOM     69  C   UNL A   1      39.405  32.003  35.426  1.00  0.00     0.064 A 
ATOM     70  C   UNL A   1      39.809  33.334  35.591  1.00  0.00     0.173 A 
ATOM     71  C   UNL A   1      38.565  31.448  36.403  1.00  0.00     0.173 A 
ATOM     72  F   UNL A   1      40.629  33.901  34.695  1.00  0.00    -0.203 F 
ATOM     73  C   UNL A   1      39.398  34.077  36.697  1.00  0.00     0.198 A 
ATOM     74  C   UNL A   1      38.131  32.200  37.491  1.00  0.00     0.198 A 
ATOM     75  F   UNL A   1      38.150  30.178  36.289  1.00  0.00    -0.203 F 
ATOM     76  F   UNL A   1      39.829  35.336  36.852  1.00  0.00    -0.200 F 
ATOM     77  C   UNL A   1      38.554  33.512  37.641  1.00  0.00     0.200 A 
ATOM     78  F   UNL A   1      37.303  31.656  38.392  1.00  0.00    -0.200 F 
ATOM     79  F   UNL A   1      38.153  34.231  38.698  1.00  0.00    -0.200 F 
ENDBRANCH  45  69
BRANCH  57  80
ATOM     80  C   UNL A   1      44.607  27.500  34.379  1.00  0.00     0.064 A 
ATOM     81  C   UNL A   1      44.371  26.404  35.221  1.00  0.00     0.173 A 
ATOM     82  C   UNL A   1      45.890  28.063  34.369  1.00  0.00     0.173 A 
ATOM     83  F   UNL A   1      43.152  25.846  35.277  1.00  0.00    -0.203 F 
ATOM     84  C   UNL A   1      45.381  25.898  36.034  1.00  0.00     0.198 A 
ATOM     85  C   UNL A   1      46.904  27.540  35.166  1.00  0.00     0.198 A 
ATOM     86  F   UNL A   1      46.164  29.110  33.578  1.00  0.00    -0.203 F 
ATOM     87  F   UNL A   1      45.126  24.871  36.856  1.00  0.00    -0.200 F 
ATOM     88  C   UNL A   1      46.648  26.461  36.000  1.00  0.00     0.200 A 
ATOM     89  F   UNL A   1      48.131  28.078  35.126  1.00  0.00    -0.200 F 
ATOM     90  F   UNL A   1      47.623  25.967  36.776  1.00  0.00    -0.200 F 
ENDBRANCH  57  80
ENDBRANCH  31  32
ENDBRANCH  24  26
ENDBRANCH  23  24
ENDBRANCH  22  23
ENDBRANCH   1  22
TORSDOF 14
ENDMDL
