MODEL 1
REMARK VINA RESULT:     -11.4      0.000      0.000
REMARK SMILES CC(C)(C)OC(=O)[C@]1(C(=O)OCCOC(=O)c2ccc(-c3c4nc(c(-c5c(F)c(F)c(F)c(F)c5F)c5ccc([nH]5)c(-c5c(F)c(F)c(F)c(F)c5F)c5nc(c(-c6c(F)c(F)c(F)c(F)c6F)c6ccc3[nH]6)C=C5)C=C4)cc2)CC=CC[C@@H]1[NH3+]
REMARK SMILES IDX 12 1 11 2 9 3 10 4 8 5 80 6 84 7 81 8 83 9 82 10 6 11 7 12
REMARK SMILES IDX 5 13 2 14 1 15 3 16 4 17 85 18 13 22 14 23 15 24 16 25 17 26
REMARK SMILES IDX 18 27 79 28 19 29 78 30 20 31 21 32 22 33 72 34 23 35 77 36
REMARK SMILES IDX 71 37 73 38 24 39 76 40 70 41 69 42 25 44 57 45 37 46 56 47
REMARK SMILES IDX 38 48 41 49 55 50 74 51 39 52 40 53 54 55 75 56 42 57 26 58
REMARK SMILES IDX 27 59 35 60 28 61 29 62 33 63 36 64 30 65 31 66 34 67 32 68
REMARK SMILES IDX 58 69 59 70 67 71 60 72 61 73 65 74 68 75 62 76 63 77 66 78
REMARK SMILES IDX 64 79 43 80 44 81 52 82 45 83 46 84 50 85 53 86 47 87 48 88
REMARK SMILES IDX 51 89 49 90
REMARK H PARENT 85 19 85 20 85 21 73 43 41 54
REMARK Flexibility Score: inf
ROOT
ATOM      1  C   UNL A   1      36.814  22.187  23.936  1.00  0.00     0.274 C 
ENDROOT
BRANCH   1   2
ATOM      2  O   UNL A   1      35.681  22.573  24.745  1.00  0.00    -0.461 OA
BRANCH   2   3
ATOM      3  C   UNL A   1      34.456  22.462  24.159  1.00  0.00     0.330 C 
ATOM      4  O   UNL A   1      34.190  22.952  23.066  1.00  0.00    -0.251 OA
BRANCH   3   5
ATOM      5  C   UNL A   1      33.470  21.609  24.963  1.00  0.00     0.219 C 
ATOM      6  C   UNL A   1      34.133  21.075  26.262  1.00  0.00     0.064 C 
ATOM      7  C   UNL A   1      32.232  22.511  25.310  1.00  0.00     0.214 C 
ATOM      8  C   UNL A   1      34.128  22.007  27.438  1.00  0.00    -0.029 C 
ATOM      9  C   UNL A   1      32.606  23.633  26.318  1.00  0.00     0.093 C 
ATOM     10  C   UNL A   1      33.450  23.161  27.461  1.00  0.00    -0.025 C 
BRANCH   5  11
ATOM     11  C   UNL A   1      33.132  20.358  24.145  1.00  0.00     0.330 C 
ATOM     12  O   UNL A   1      32.150  20.286  23.414  1.00  0.00    -0.251 OA
BRANCH  11  13
ATOM     13  O   UNL A   1      34.060  19.365  24.255  1.00  0.00    -0.459 OA
BRANCH  13  14
ATOM     14  C   UNL A   1      33.640  17.970  24.317  1.00  0.00     0.104 C 
ATOM     15  C   UNL A   1      34.888  17.181  24.743  1.00  0.00     0.056 C 
ATOM     16  C   UNL A   1      33.244  17.496  22.913  1.00  0.00     0.056 C 
ATOM     17  C   UNL A   1      32.530  17.713  25.339  1.00  0.00     0.056 C 
ENDBRANCH  13  14
ENDBRANCH  11  13
ENDBRANCH   5  11
BRANCH   7  18
ATOM     18  N   UNL A   1      31.072  21.779  25.873  1.00  0.00    -0.353 N 
ATOM     19  H   UNL A   1      30.760  22.243  26.725  1.00  0.00     0.344 HD
ATOM     20  H   UNL A   1      31.346  20.820  26.087  1.00  0.00     0.344 HD
ATOM     21  H   UNL A   1      30.312  21.772  25.192  1.00  0.00     0.344 HD
ENDBRANCH   7  18
ENDBRANCH   3   5
ENDBRANCH   2   3
ENDBRANCH   1   2
BRANCH   1  22
ATOM     22  C   UNL A   1      37.502  20.954  24.522  1.00  0.00     0.275 C 
BRANCH  22  23
ATOM     23  O   UNL A   1      37.870  21.221  25.885  1.00  0.00    -0.458 OA
BRANCH  23  24
ATOM     24  C   UNL A   1      39.193  21.196  26.150  1.00  0.00     0.338 C 
ATOM     25  O   UNL A   1      39.975  20.285  25.905  1.00  0.00    -0.246 OA
BRANCH  24  26
ATOM     26  C   UNL A   1      39.616  22.472  26.770  1.00  0.00     0.060 A 
ATOM     27  C   UNL A   1      38.979  23.671  26.451  1.00  0.00     0.016 A 
ATOM     28  C   UNL A   1      40.755  22.492  27.578  1.00  0.00     0.016 A 
ATOM     29  C   UNL A   1      39.553  24.886  26.822  1.00  0.00     0.010 A 
ATOM     30  C   UNL A   1      41.280  23.711  28.022  1.00  0.00     0.010 A 
ATOM     31  C   UNL A   1      40.732  24.928  27.584  1.00  0.00    -0.014 A 
BRANCH  31  32
ATOM     32  C   UNL A   1      41.454  26.221  27.791  1.00  0.00     0.031 A 
ATOM     33  C   UNL A   1      40.822  27.322  28.615  1.00  0.00     0.074 A 
ATOM     34  C   UNL A   1      42.706  26.403  27.326  1.00  0.00     0.049 A 
ATOM     35  N   UNL A   1      41.240  28.547  28.829  1.00  0.00    -0.248 NA
ATOM     36  C   UNL A   1      39.553  27.006  29.290  1.00  0.00     0.031 C 
ATOM     37  C   UNL A   1      43.479  25.422  26.567  1.00  0.00     0.029 A 
ATOM     38  N   UNL A   1      43.559  27.476  27.448  1.00  0.00    -0.354 N 
ATOM     39  C   UNL A   1      40.260  29.157  29.603  1.00  0.00     0.074 A 
ATOM     40  C   UNL A   1      39.228  28.171  29.830  1.00  0.00     0.031 C 
ATOM     41  C   UNL A   1      44.705  25.914  26.334  1.00  0.00     0.029 A 
ATOM     42  C   UNL A   1      44.780  27.278  26.851  1.00  0.00     0.049 A 
ATOM     43  H   UNL A   1      43.318  28.306  27.917  1.00  0.00     0.167 HD
ATOM     44  C   UNL A   1      40.218  30.424  30.085  1.00  0.00     0.037 A 
ATOM     45  C   UNL A   1      45.832  28.106  26.699  1.00  0.00     0.037 A 
ATOM     46  C   UNL A   1      41.266  31.397  29.927  1.00  0.00     0.049 A 
ATOM     47  C   UNL A   1      45.760  29.510  27.228  1.00  0.00     0.074 A 
ATOM     48  C   UNL A   1      41.310  32.701  30.391  1.00  0.00     0.029 A 
ATOM     49  N   UNL A   1      42.464  31.167  29.269  1.00  0.00    -0.354 N 
ATOM     50  N   UNL A   1      44.793  30.096  27.890  1.00  0.00    -0.248 NA
ATOM     51  C   UNL A   1      46.919  30.375  26.967  1.00  0.00     0.031 C 
ATOM     52  C   UNL A   1      42.525  33.270  29.990  1.00  0.00     0.029 A 
ATOM     53  C   UNL A   1      43.251  32.308  29.307  1.00  0.00     0.049 A 
ATOM     54  H   UNL A   1      42.718  30.319  28.839  1.00  0.00     0.167 HD
ATOM     55  C   UNL A   1      45.221  31.397  28.118  1.00  0.00     0.074 A 
ATOM     56  C   UNL A   1      46.550  31.507  27.552  1.00  0.00     0.031 C 
ATOM     57  C   UNL A   1      44.565  32.412  28.730  1.00  0.00     0.037 A 
BRANCH  44  58
ATOM     58  C   UNL A   1      38.971  30.848  30.802  1.00  0.00     0.064 A 
ATOM     59  C   UNL A   1      37.873  31.398  30.125  1.00  0.00     0.173 A 
ATOM     60  C   UNL A   1      38.866  30.670  32.190  1.00  0.00     0.173 A 
ATOM     61  F   UNL A   1      37.933  31.604  28.801  1.00  0.00    -0.203 F 
ATOM     62  C   UNL A   1      36.724  31.774  30.815  1.00  0.00     0.198 A 
ATOM     63  C   UNL A   1      37.707  31.025  32.874  1.00  0.00     0.198 A 
ATOM     64  F   UNL A   1      39.888  30.144  32.883  1.00  0.00    -0.203 F 
ATOM     65  F   UNL A   1      35.701  32.334  30.155  1.00  0.00    -0.200 F 
ATOM     66  C   UNL A   1      36.638  31.582  32.187  1.00  0.00     0.200 A 
ATOM     67  F   UNL A   1      37.624  30.829  34.198  1.00  0.00    -0.200 F 
ATOM     68  F   UNL A   1      35.530  31.939  32.848  1.00  0.00    -0.200 F 
ENDBRANCH  44  58
BRANCH  45  69
ATOM     69  C   UNL A   1      47.035  27.629  25.970  1.00  0.00     0.064 A 
ATOM     70  C   UNL A   1      47.107  27.689  24.573  1.00  0.00     0.173 A 
ATOM     71  C   UNL A   1      48.146  27.124  26.663  1.00  0.00     0.173 A 
ATOM     72  F   UNL A   1      46.059  28.137  23.867  1.00  0.00    -0.203 F 
ATOM     73  C   UNL A   1      48.247  27.264  23.895  1.00  0.00     0.198 A 
ATOM     74  C   UNL A   1      49.296  26.728  25.987  1.00  0.00     0.198 A 
ATOM     75  F   UNL A   1      48.123  27.044  28.001  1.00  0.00    -0.203 F 
ATOM     76  F   UNL A   1      48.282  27.305  22.556  1.00  0.00    -0.200 F 
ATOM     77  C   UNL A   1      49.345  26.795  24.603  1.00  0.00     0.200 A 
ATOM     78  F   UNL A   1      50.359  26.290  26.675  1.00  0.00    -0.200 F 
ATOM     79  F   UNL A   1      50.448  26.405  23.950  1.00  0.00    -0.200 F 
ENDBRANCH  45  69
BRANCH  57  80
ATOM     80  C   UNL A   1      45.275  33.730  28.818  1.00  0.00     0.064 A 
ATOM     81  C   UNL A   1      46.124  34.031  29.893  1.00  0.00     0.173 A 
ATOM     82  C   UNL A   1      45.120  34.694  27.811  1.00  0.00     0.173 A 
ATOM     83  F   UNL A   1      46.292  33.146  30.887  1.00  0.00    -0.203 F 
ATOM     84  C   UNL A   1      46.774  35.259  29.969  1.00  0.00     0.198 A 
ATOM     85  C   UNL A   1      45.789  35.914  27.880  1.00  0.00     0.198 A 
ATOM     86  F   UNL A   1      44.322  34.453  26.760  1.00  0.00    -0.203 F 
ATOM     87  F   UNL A   1      47.545  35.543  31.028  1.00  0.00    -0.200 F 
ATOM     88  C   UNL A   1      46.609  36.198  28.962  1.00  0.00     0.200 A 
ATOM     89  F   UNL A   1      45.636  36.817  26.901  1.00  0.00    -0.200 F 
ATOM     90  F   UNL A   1      47.232  37.382  29.038  1.00  0.00    -0.200 F 
ENDBRANCH  57  80
ENDBRANCH  31  32
ENDBRANCH  24  26
ENDBRANCH  23  24
ENDBRANCH  22  23
ENDBRANCH   1  22
TORSDOF 15
ENDMDL
MODEL 2
REMARK VINA RESULT:     -11.4      0.156      1.636
REMARK SMILES CC(C)(C)OC(=O)[C@]1(C(=O)OCCOC(=O)c2ccc(-c3c4nc(c(-c5c(F)c(F)c(F)c(F)c5F)c5ccc([nH]5)c(-c5c(F)c(F)c(F)c(F)c5F)c5nc(c(-c6c(F)c(F)c(F)c(F)c6F)c6ccc3[nH]6)C=C5)C=C4)cc2)CC=CC[C@@H]1[NH3+]
REMARK SMILES IDX 12 1 11 2 9 3 10 4 8 5 80 6 84 7 81 8 83 9 82 10 6 11 7 12
REMARK SMILES IDX 5 13 2 14 1 15 3 16 4 17 85 18 13 22 14 23 15 24 16 25 17 26
REMARK SMILES IDX 18 27 79 28 19 29 78 30 20 31 21 32 22 33 72 34 23 35 77 36
REMARK SMILES IDX 71 37 73 38 24 39 76 40 70 41 69 42 25 44 57 45 37 46 56 47
REMARK SMILES IDX 38 48 41 49 55 50 74 51 39 52 40 53 54 55 75 56 42 57 26 58
REMARK SMILES IDX 27 59 35 60 28 61 29 62 33 63 36 64 30 65 31 66 34 67 32 68
REMARK SMILES IDX 58 69 59 70 67 71 60 72 61 73 65 74 68 75 62 76 63 77 66 78
REMARK SMILES IDX 64 79 43 80 44 81 52 82 45 83 46 84 50 85 53 86 47 87 48 88
REMARK SMILES IDX 51 89 49 90
REMARK H PARENT 85 19 85 20 85 21 73 43 41 54
REMARK Flexibility Score: inf
ROOT
ATOM      1  C   UNL A   1      36.803  22.032  24.070  1.00  0.00     0.274 C 
ENDROOT
BRANCH   1   2
ATOM      2  O   UNL A   1      35.717  22.491  24.905  1.00  0.00    -0.461 OA
BRANCH   2   3
ATOM      3  C   UNL A   1      34.482  22.518  24.328  1.00  0.00     0.330 C 
ATOM      4  O   UNL A   1      34.239  23.135  23.295  1.00  0.00    -0.251 OA
BRANCH   3   5
ATOM      5  C   UNL A   1      33.451  21.649  25.053  1.00  0.00     0.219 C 
ATOM      6  C   UNL A   1      34.057  21.034  26.344  1.00  0.00     0.064 C 
ATOM      7  C   UNL A   1      32.222  22.561  25.405  1.00  0.00     0.214 C 
ATOM      8  C   UNL A   1      34.031  21.904  27.567  1.00  0.00    -0.029 C 
ATOM      9  C   UNL A   1      32.585  23.621  26.482  1.00  0.00     0.093 C 
ATOM     10  C   UNL A   1      33.379  23.071  27.627  1.00  0.00    -0.025 C 
BRANCH   5  11
ATOM     11  C   UNL A   1      33.113  20.450  24.161  1.00  0.00     0.330 C 
ATOM     12  O   UNL A   1      32.157  20.439  23.394  1.00  0.00    -0.251 OA
BRANCH  11  13
ATOM     13  O   UNL A   1      34.015  19.430  24.251  1.00  0.00    -0.459 OA
BRANCH  13  14
ATOM     14  C   UNL A   1      33.556  18.048  24.323  1.00  0.00     0.104 C 
ATOM     15  C   UNL A   1      34.809  17.212  24.626  1.00  0.00     0.056 C 
ATOM     16  C   UNL A   1      33.026  17.616  22.950  1.00  0.00     0.056 C 
ATOM     17  C   UNL A   1      32.528  17.804  25.432  1.00  0.00     0.056 C 
ENDBRANCH  13  14
ENDBRANCH  11  13
ENDBRANCH   5  11
BRANCH   7  18
ATOM     18  N   UNL A   1      31.027  21.829  25.891  1.00  0.00    -0.353 N 
ATOM     19  H   UNL A   1      30.401  22.479  26.365  1.00  0.00     0.344 HD
ATOM     20  H   UNL A   1      31.317  21.099  26.541  1.00  0.00     0.344 HD
ATOM     21  H   UNL A   1      30.542  21.408  25.098  1.00  0.00     0.344 HD
ENDBRANCH   7  18
ENDBRANCH   3   5
ENDBRANCH   2   3
ENDBRANCH   1   2
BRANCH   1  22
ATOM     22  C   UNL A   1      37.422  20.757  24.640  1.00  0.00     0.275 C 
BRANCH  22  23
ATOM     23  O   UNL A   1      37.891  21.015  25.974  1.00  0.00    -0.458 OA
BRANCH  23  24
ATOM     24  C   UNL A   1      39.232  21.054  26.126  1.00  0.00     0.338 C 
ATOM     25  O   UNL A   1      40.034  20.189  25.797  1.00  0.00    -0.246 OA
BRANCH  24  26
ATOM     26  C   UNL A   1      39.642  22.339  26.733  1.00  0.00     0.060 A 
ATOM     27  C   UNL A   1      39.015  23.533  26.380  1.00  0.00     0.016 A 
ATOM     28  C   UNL A   1      40.763  22.372  27.567  1.00  0.00     0.016 A 
ATOM     29  C   UNL A   1      39.582  24.755  26.744  1.00  0.00     0.010 A 
ATOM     30  C   UNL A   1      41.279  23.598  28.002  1.00  0.00     0.010 A 
ATOM     31  C   UNL A   1      40.743  24.808  27.532  1.00  0.00    -0.014 A 
BRANCH  31  32
ATOM     32  C   UNL A   1      41.462  26.103  27.734  1.00  0.00     0.031 A 
ATOM     33  C   UNL A   1      40.834  27.200  28.566  1.00  0.00     0.074 A 
ATOM     34  C   UNL A   1      42.708  26.291  27.257  1.00  0.00     0.049 A 
ATOM     35  N   UNL A   1      41.249  28.427  28.778  1.00  0.00    -0.248 NA
ATOM     36  C   UNL A   1      39.573  26.878  29.254  1.00  0.00     0.031 C 
ATOM     37  C   UNL A   1      43.477  25.315  26.487  1.00  0.00     0.029 A 
ATOM     38  N   UNL A   1      43.558  27.367  27.371  1.00  0.00    -0.354 N 
ATOM     39  C   UNL A   1      40.274  29.032  29.563  1.00  0.00     0.074 A 
ATOM     40  C   UNL A   1      39.249  28.041  29.799  1.00  0.00     0.031 C 
ATOM     41  C   UNL A   1      44.699  25.812  26.243  1.00  0.00     0.029 A 
ATOM     42  C   UNL A   1      44.773  27.175  26.761  1.00  0.00     0.049 A 
ATOM     43  H   UNL A   1      43.318  28.196  27.844  1.00  0.00     0.167 HD
ATOM     44  C   UNL A   1      40.232  30.297  30.047  1.00  0.00     0.037 A 
ATOM     45  C   UNL A   1      45.821  28.008  26.601  1.00  0.00     0.037 A 
ATOM     46  C   UNL A   1      41.275  31.275  29.880  1.00  0.00     0.049 A 
ATOM     47  C   UNL A   1      45.748  29.411  27.132  1.00  0.00     0.074 A 
ATOM     48  C   UNL A   1      41.318  32.578  30.346  1.00  0.00     0.029 A 
ATOM     49  N   UNL A   1      42.467  31.051  29.210  1.00  0.00    -0.354 N 
ATOM     50  N   UNL A   1      44.786  29.991  27.805  1.00  0.00    -0.248 NA
ATOM     51  C   UNL A   1      46.902  30.281  26.861  1.00  0.00     0.031 C 
ATOM     52  C   UNL A   1      42.526  33.153  29.934  1.00  0.00     0.029 A 
ATOM     53  C   UNL A   1      43.249  32.195  29.242  1.00  0.00     0.049 A 
ATOM     54  H   UNL A   1      42.720  30.204  28.776  1.00  0.00     0.167 HD
ATOM     55  C   UNL A   1      45.211  31.294  28.031  1.00  0.00     0.074 A 
ATOM     56  C   UNL A   1      46.534  31.410  27.453  1.00  0.00     0.031 C 
ATOM     57  C   UNL A   1      44.557  32.306  28.652  1.00  0.00     0.037 A 
BRANCH  44  58
ATOM     58  C   UNL A   1      38.991  30.716  30.778  1.00  0.00     0.064 A 
ATOM     59  C   UNL A   1      38.871  30.597  32.170  1.00  0.00     0.173 A 
ATOM     60  C   UNL A   1      37.916  31.275  30.070  1.00  0.00     0.173 A 
ATOM     61  F   UNL A   1      39.865  30.052  32.887  1.00  0.00    -0.203 F 
ATOM     62  C   UNL A   1      37.710  31.003  32.824  1.00  0.00     0.198 A 
ATOM     63  C   UNL A   1      36.766  31.701  30.729  1.00  0.00     0.198 A 
ATOM     64  F   UNL A   1      37.984  31.413  28.737  1.00  0.00    -0.203 F 
ATOM     65  F   UNL A   1      37.600  30.844  34.149  1.00  0.00    -0.200 F 
ATOM     66  C   UNL A   1      36.662  31.561  32.105  1.00  0.00     0.200 A 
ATOM     67  F   UNL A   1      35.759  32.248  30.033  1.00  0.00    -0.200 F 
ATOM     68  F   UNL A   1      35.549  31.955  32.736  1.00  0.00    -0.200 F 
ENDBRANCH  44  58
BRANCH  45  69
ATOM     69  C   UNL A   1      47.019  27.537  25.859  1.00  0.00     0.064 A 
ATOM     70  C   UNL A   1      47.113  27.681  24.469  1.00  0.00     0.173 A 
ATOM     71  C   UNL A   1      48.102  26.954  26.532  1.00  0.00     0.173 A 
ATOM     72  F   UNL A   1      46.090  28.206  23.779  1.00  0.00    -0.203 F 
ATOM     73  C   UNL A   1      48.249  27.261  23.781  1.00  0.00     0.198 A 
ATOM     74  C   UNL A   1      49.248  26.562  25.848  1.00  0.00     0.198 A 
ATOM     75  F   UNL A   1      48.057  26.791  27.863  1.00  0.00    -0.203 F 
ATOM     76  F   UNL A   1      48.304  27.383  22.448  1.00  0.00    -0.200 F 
ATOM     77  C   UNL A   1      49.320  26.713  24.472  1.00  0.00     0.200 A 
ATOM     78  F   UNL A   1      50.286  26.047  26.521  1.00  0.00    -0.200 F 
ATOM     79  F   UNL A   1      50.419  26.327  23.810  1.00  0.00    -0.200 F 
ENDBRANCH  45  69
BRANCH  57  80
ATOM     80  C   UNL A   1      45.262  33.626  28.735  1.00  0.00     0.064 A 
ATOM     81  C   UNL A   1      45.036  34.635  27.786  1.00  0.00     0.173 A 
ATOM     82  C   UNL A   1      46.157  33.895  29.781  1.00  0.00     0.173 A 
ATOM     83  F   UNL A   1      44.201  34.419  26.759  1.00  0.00    -0.203 F 
ATOM     84  C   UNL A   1      45.700  35.855  27.868  1.00  0.00     0.198 A 
ATOM     85  C   UNL A   1      46.802  35.125  29.872  1.00  0.00     0.198 A 
ATOM     86  F   UNL A   1      46.403  32.965  30.716  1.00  0.00    -0.203 F 
ATOM     87  F   UNL A   1      45.504  36.787  26.926  1.00  0.00    -0.200 F 
ATOM     88  C   UNL A   1      46.579  36.101  28.912  1.00  0.00     0.200 A 
ATOM     89  F   UNL A   1      47.646  35.364  30.886  1.00  0.00    -0.200 F 
ATOM     90  F   UNL A   1      47.221  37.275  28.988  1.00  0.00    -0.200 F 
ENDBRANCH  57  80
ENDBRANCH  31  32
ENDBRANCH  24  26
ENDBRANCH  23  24
ENDBRANCH  22  23
ENDBRANCH   1  22
TORSDOF 15
ENDMDL
MODEL 3
REMARK VINA RESULT:     -11.3      5.394     10.398
REMARK SMILES CC(C)(C)OC(=O)[C@]1(C(=O)OCCOC(=O)c2ccc(-c3c4nc(c(-c5c(F)c(F)c(F)c(F)c5F)c5ccc([nH]5)c(-c5c(F)c(F)c(F)c(F)c5F)c5nc(c(-c6c(F)c(F)c(F)c(F)c6F)c6ccc3[nH]6)C=C5)C=C4)cc2)CC=CC[C@@H]1[NH3+]
REMARK SMILES IDX 12 1 11 2 9 3 10 4 8 5 80 6 84 7 81 8 83 9 82 10 6 11 7 12
REMARK SMILES IDX 5 13 2 14 1 15 3 16 4 17 85 18 13 22 14 23 15 24 16 25 17 26
REMARK SMILES IDX 18 27 79 28 19 29 78 30 20 31 21 32 22 33 72 34 23 35 77 36
REMARK SMILES IDX 71 37 73 38 24 39 76 40 70 41 69 42 25 44 57 45 37 46 56 47
REMARK SMILES IDX 38 48 41 49 55 50 74 51 39 52 40 53 54 55 75 56 42 57 26 58
REMARK SMILES IDX 27 59 35 60 28 61 29 62 33 63 36 64 30 65 31 66 34 67 32 68
REMARK SMILES IDX 58 69 59 70 67 71 60 72 61 73 65 74 68 75 62 76 63 77 66 78
REMARK SMILES IDX 64 79 43 80 44 81 52 82 45 83 46 84 50 85 53 86 47 87 48 88
REMARK SMILES IDX 51 89 49 90
REMARK H PARENT 85 19 85 20 85 21 73 43 41 54
REMARK Flexibility Score: inf
ROOT
ATOM      1  C   UNL A   1      31.783  28.909  27.047  1.00  0.00     0.274 C 
ENDROOT
BRANCH   1   2
ATOM      2  O   UNL A   1      32.321  28.234  25.888  1.00  0.00    -0.461 OA
BRANCH   2   3
ATOM      3  C   UNL A   1      31.470  27.399  25.228  1.00  0.00     0.330 C 
ATOM      4  O   UNL A   1      30.860  26.490  25.783  1.00  0.00    -0.251 OA
BRANCH   3   5
ATOM      5  C   UNL A   1      31.297  27.750  23.747  1.00  0.00     0.219 C 
ATOM      6  C   UNL A   1      32.150  28.993  23.371  1.00  0.00     0.064 C 
ATOM      7  C   UNL A   1      31.746  26.502  22.906  1.00  0.00     0.214 C 
ATOM      8  C   UNL A   1      33.589  28.731  23.035  1.00  0.00    -0.029 C 
ATOM      9  C   UNL A   1      33.276  26.257  23.017  1.00  0.00     0.093 C 
ATOM     10  C   UNL A   1      34.099  27.503  22.886  1.00  0.00    -0.025 C 
BRANCH   5  11
ATOM     11  C   UNL A   1      29.844  28.179  23.517  1.00  0.00     0.330 C 
ATOM     12  O   UNL A   1      28.982  27.413  23.103  1.00  0.00    -0.251 OA
BRANCH  11  13
ATOM     13  O   UNL A   1      29.591  29.469  23.880  1.00  0.00    -0.459 OA
BRANCH  13  14
ATOM     14  C   UNL A   1      28.727  30.308  23.056  1.00  0.00     0.104 C 
ATOM     15  C   UNL A   1      28.796  31.710  23.681  1.00  0.00     0.056 C 
ATOM     16  C   UNL A   1      27.279  29.814  23.172  1.00  0.00     0.056 C 
ATOM     17  C   UNL A   1      29.182  30.402  21.597  1.00  0.00     0.056 C 
ENDBRANCH  13  14
ENDBRANCH  11  13
ENDBRANCH   5  11
BRANCH   7  18
ATOM     18  N   UNL A   1      31.414  26.578  21.463  1.00  0.00    -0.353 N 
ATOM     19  H   UNL A   1      30.975  27.476  21.262  1.00  0.00     0.344 HD
ATOM     20  H   UNL A   1      30.773  25.822  21.222  1.00  0.00     0.344 HD
ATOM     21  H   UNL A   1      32.269  26.488  20.913  1.00  0.00     0.344 HD
ENDBRANCH   7  18
ENDBRANCH   3   5
ENDBRANCH   2   3
ENDBRANCH   1   2
BRANCH   1  22
ATOM     22  C   UNL A   1      31.708  30.417  26.809  1.00  0.00     0.275 C 
BRANCH  22  23
ATOM     23  O   UNL A   1      33.006  30.900  26.424  1.00  0.00    -0.458 OA
BRANCH  23  24
ATOM     24  C   UNL A   1      33.587  31.764  27.282  1.00  0.00     0.338 C 
ATOM     25  O   UNL A   1      33.106  32.804  27.717  1.00  0.00    -0.246 OA
BRANCH  24  26
ATOM     26  C   UNL A   1      34.922  31.268  27.683  1.00  0.00     0.060 A 
ATOM     27  C   UNL A   1      35.154  29.907  27.877  1.00  0.00     0.016 A 
ATOM     28  C   UNL A   1      35.923  32.188  28.005  1.00  0.00     0.016 A 
ATOM     29  C   UNL A   1      36.321  29.480  28.511  1.00  0.00     0.010 A 
ATOM     30  C   UNL A   1      37.129  31.749  28.562  1.00  0.00     0.010 A 
ATOM     31  C   UNL A   1      37.313  30.397  28.896  1.00  0.00    -0.014 A 
BRANCH  31  32
ATOM     32  C   UNL A   1      38.451  29.962  29.763  1.00  0.00     0.031 A 
ATOM     33  C   UNL A   1      39.520  29.045  29.211  1.00  0.00     0.074 A 
ATOM     34  C   UNL A   1      38.595  30.438  31.016  1.00  0.00     0.049 A 
ATOM     35  N   UNL A   1      40.530  28.477  29.827  1.00  0.00    -0.248 NA
ATOM     36  C   UNL A   1      39.449  28.724  27.776  1.00  0.00     0.031 C 
ATOM     37  C   UNL A   1      37.687  31.374  31.676  1.00  0.00     0.029 A 
ATOM     38  N   UNL A   1      39.580  30.215  31.950  1.00  0.00    -0.354 N 
ATOM     39  C   UNL A   1      41.167  27.689  28.874  1.00  0.00     0.074 A 
ATOM     40  C   UNL A   1      40.438  27.855  27.636  1.00  0.00     0.031 C 
ATOM     41  C   UNL A   1      38.180  31.685  32.885  1.00  0.00     0.029 A 
ATOM     42  C   UNL A   1      39.392  30.905  33.122  1.00  0.00     0.049 A 
ATOM     43  H   UNL A   1      40.345  29.616  31.795  1.00  0.00     0.167 HD
ATOM     44  C   UNL A   1      42.259  26.899  29.012  1.00  0.00     0.037 A 
ATOM     45  C   UNL A   1      40.090  30.892  34.275  1.00  0.00     0.037 A 
ATOM     46  C   UNL A   1      43.037  26.776  30.217  1.00  0.00     0.049 A 
ATOM     47  C   UNL A   1      41.289  29.998  34.412  1.00  0.00     0.074 A 
ATOM     48  C   UNL A   1      44.164  26.005  30.441  1.00  0.00     0.029 A 
ATOM     49  N   UNL A   1      42.778  27.456  31.396  1.00  0.00    -0.354 N 
ATOM     50  N   UNL A   1      41.831  29.201  33.526  1.00  0.00    -0.248 NA
ATOM     51  C   UNL A   1      41.960  29.988  35.720  1.00  0.00     0.031 C 
ATOM     52  C   UNL A   1      44.573  26.198  31.766  1.00  0.00     0.029 A 
ATOM     53  C   UNL A   1      43.720  27.117  32.354  1.00  0.00     0.049 A 
ATOM     54  H   UNL A   1      42.035  28.088  31.532  1.00  0.00     0.167 HD
ATOM     55  C   UNL A   1      42.900  28.588  34.168  1.00  0.00     0.074 A 
ATOM     56  C   UNL A   1      42.950  29.131  35.510  1.00  0.00     0.031 C 
ATOM     57  C   UNL A   1      43.753  27.650  33.691  1.00  0.00     0.037 A 
BRANCH  44  58
ATOM     58  C   UNL A   1      42.662  26.066  27.831  1.00  0.00     0.064 A 
ATOM     59  C   UNL A   1      42.054  24.836  27.546  1.00  0.00     0.173 A 
ATOM     60  C   UNL A   1      43.655  26.529  26.953  1.00  0.00     0.173 A 
ATOM     61  F   UNL A   1      41.113  24.343  28.366  1.00  0.00    -0.203 F 
ATOM     62  C   UNL A   1      42.441  24.088  26.437  1.00  0.00     0.198 A 
ATOM     63  C   UNL A   1      44.023  25.791  25.832  1.00  0.00     0.198 A 
ATOM     64  F   UNL A   1      44.263  27.704  27.181  1.00  0.00    -0.203 F 
ATOM     65  F   UNL A   1      41.876  22.896  26.204  1.00  0.00    -0.200 F 
ATOM     66  C   UNL A   1      43.419  24.569  25.577  1.00  0.00     0.200 A 
ATOM     67  F   UNL A   1      44.961  26.262  24.999  1.00  0.00    -0.200 F 
ATOM     68  F   UNL A   1      43.786  23.850  24.508  1.00  0.00    -0.200 F 
ENDBRANCH  44  58
BRANCH  45  69
ATOM     69  C   UNL A   1      39.634  31.733  35.412  1.00  0.00     0.064 A 
ATOM     70  C   UNL A   1      40.182  33.001  35.642  1.00  0.00     0.173 A 
ATOM     71  C   UNL A   1      38.623  31.289  36.279  1.00  0.00     0.173 A 
ATOM     72  F   UNL A   1      41.171  33.455  34.857  1.00  0.00    -0.203 F 
ATOM     73  C   UNL A   1      39.734  33.796  36.693  1.00  0.00     0.198 A 
ATOM     74  C   UNL A   1      38.156  32.096  37.311  1.00  0.00     0.198 A 
ATOM     75  F   UNL A   1      38.071  30.080  36.102  1.00  0.00    -0.203 F 
ATOM     76  F   UNL A   1      40.293  34.994  36.910  1.00  0.00    -0.200 F 
ATOM     77  C   UNL A   1      38.713  33.348  37.520  1.00  0.00     0.200 A 
ATOM     78  F   UNL A   1      37.160  31.665  38.098  1.00  0.00    -0.200 F 
ATOM     79  F   UNL A   1      38.270  34.121  38.520  1.00  0.00    -0.200 F 
ENDBRANCH  45  69
BRANCH  57  80
ATOM     80  C   UNL A   1      44.813  27.151  34.626  1.00  0.00     0.064 A 
ATOM     81  C   UNL A   1      46.055  27.794  34.731  1.00  0.00     0.173 A 
ATOM     82  C   UNL A   1      44.580  26.032  35.439  1.00  0.00     0.173 A 
ATOM     83  F   UNL A   1      46.330  28.859  33.963  1.00  0.00    -0.203 F 
ATOM     84  C   UNL A   1      47.036  27.319  35.598  1.00  0.00     0.198 A 
ATOM     85  C   UNL A   1      45.555  25.573  36.322  1.00  0.00     0.198 A 
ATOM     86  F   UNL A   1      43.407  25.385  35.379  1.00  0.00    -0.203 F 
ATOM     87  F   UNL A   1      48.231  27.921  35.649  1.00  0.00    -0.200 F 
ATOM     88  C   UNL A   1      46.784  26.212  36.395  1.00  0.00     0.200 A 
ATOM     89  F   UNL A   1      45.307  24.508  37.097  1.00  0.00    -0.200 F 
ATOM     90  F   UNL A   1      47.730  25.755  37.226  1.00  0.00    -0.200 F 
ENDBRANCH  57  80
ENDBRANCH  31  32
ENDBRANCH  24  26
ENDBRANCH  23  24
ENDBRANCH  22  23
ENDBRANCH   1  22
TORSDOF 15
ENDMDL
