MODEL 1
REMARK VINA RESULT:     -12.9      0.000      0.000
REMARK SMILES CN(C(=O)C[C@@H]1SC(=O)N(c2ccccc2)C1=O)c1ccccc1C(=O)OCCOC(=O)c1ccc(-c2c3nc(c(-c4c(F)c(F)c(F)c(F)c4F)c4ccc([nH]4)c(-c4c(F)c(F)c(F)c(F)c4F)c4nc(c(-c5c(F)c(F)c(F)c(F)c5F)c5ccc2[nH]5)C=C4)C=C3)cc1
REMARK SMILES IDX 27 1 25 2 26 3 24 4 19 5 20 6 21 7 23 8 22 9 2 10 1 11 3 12
REMARK SMILES IDX 4 13 5 14 6 15 7 16 17 17 8 18 10 19 18 20 9 21 11 22 12 23
REMARK SMILES IDX 16 24 13 25 15 26 14 27 28 28 29 29 30 30 31 31 32 32 33 33
REMARK SMILES IDX 34 34 95 35 35 36 94 37 36 38 37 39 38 40 88 41 39 42 93 43
REMARK SMILES IDX 87 44 89 45 40 46 92 47 86 48 85 49 41 51 73 52 53 53 72 54
REMARK SMILES IDX 54 55 57 56 71 57 90 58 55 59 56 60 70 62 91 63 58 64 42 65
REMARK SMILES IDX 43 66 51 67 44 68 45 69 49 70 52 71 46 72 47 73 50 74 48 75
REMARK SMILES IDX 74 76 75 77 83 78 76 79 77 80 81 81 84 82 78 83 79 84 82 85
REMARK SMILES IDX 80 86 59 87 60 88 68 89 61 90 62 91 66 92 69 93 63 94 64 95
REMARK SMILES IDX 67 96 65 97
REMARK H PARENT 89 50 57 61
REMARK Flexibility Score: inf
ROOT
ATOM      1  O   UNL A   1      32.699  27.424  26.749  1.00  0.00    -0.458 OA
ENDROOT
BRANCH   1   2
ATOM      2  C   UNL A   1      32.216  26.191  26.458  1.00  0.00     0.340 C 
ATOM      3  O   UNL A   1      31.068  25.831  26.688  1.00  0.00    -0.246 OA
BRANCH   2   4
ATOM      4  C   UNL A   1      33.167  25.281  25.739  1.00  0.00     0.083 A 
ATOM      5  C   UNL A   1      33.751  25.426  24.459  1.00  0.00     0.058 A 
ATOM      6  C   UNL A   1      34.656  24.410  24.052  1.00  0.00     0.027 A 
ATOM      7  C   UNL A   1      34.912  23.260  24.802  1.00  0.00     0.002 A 
ATOM      8  C   UNL A   1      33.482  24.122  26.502  1.00  0.00     0.018 A 
ATOM      9  C   UNL A   1      34.306  23.105  26.029  1.00  0.00     0.001 A 
BRANCH   5  10
ATOM     10  N   UNL A   1      33.547  26.532  23.543  1.00  0.00    -0.315 N 
ATOM     11  C   UNL A   1      34.179  27.808  23.855  1.00  0.00     0.153 C 
BRANCH  10  12
ATOM     12  C   UNL A   1      32.853  26.329  22.339  1.00  0.00     0.228 C 
ATOM     13  O   UNL A   1      33.386  26.171  21.238  1.00  0.00    -0.274 OA
BRANCH  12  14
ATOM     14  C   UNL A   1      31.343  26.208  22.370  1.00  0.00     0.125 C 
BRANCH  14  15
ATOM     15  C   UNL A   1      30.672  27.120  23.398  1.00  0.00     0.156 C 
ATOM     16  S   UNL A   1      29.035  26.506  23.838  1.00  0.00    -0.050 SA
ATOM     17  C   UNL A   1      30.477  28.580  23.023  1.00  0.00     0.248 C 
ATOM     18  C   UNL A   1      28.231  27.988  23.358  1.00  0.00     0.293 C 
ATOM     19  N   UNL A   1      29.139  28.937  22.933  1.00  0.00    -0.240 N 
ATOM     20  O   UNL A   1      31.441  29.340  22.951  1.00  0.00    -0.273 OA
ATOM     21  O   UNL A   1      27.018  28.034  23.413  1.00  0.00    -0.261 OA
BRANCH  19  22
ATOM     22  C   UNL A   1      28.731  30.245  22.493  1.00  0.00     0.053 A 
ATOM     23  C   UNL A   1      28.740  31.343  23.373  1.00  0.00     0.027 A 
ATOM     24  C   UNL A   1      28.358  30.494  21.160  1.00  0.00     0.027 A 
ATOM     25  C   UNL A   1      28.425  32.636  22.931  1.00  0.00     0.002 A 
ATOM     26  C   UNL A   1      28.031  31.784  20.720  1.00  0.00     0.002 A 
ATOM     27  C   UNL A   1      28.071  32.856  21.605  1.00  0.00     0.000 A 
ENDBRANCH  19  22
ENDBRANCH  14  15
ENDBRANCH  12  14
ENDBRANCH  10  12
ENDBRANCH   5  10
ENDBRANCH   2   4
ENDBRANCH   1   2
BRANCH   1  28
ATOM     28  C   UNL A   1      31.756  28.358  27.336  1.00  0.00     0.275 C 
BRANCH  28  29
ATOM     29  C   UNL A   1      31.776  29.751  26.682  1.00  0.00     0.275 C 
BRANCH  29  30
ATOM     30  O   UNL A   1      33.089  30.199  26.292  1.00  0.00    -0.458 OA
BRANCH  30  31
ATOM     31  C   UNL A   1      33.551  31.189  27.081  1.00  0.00     0.338 C 
ATOM     32  O   UNL A   1      32.920  32.145  27.499  1.00  0.00    -0.246 OA
BRANCH  31  33
ATOM     33  C   UNL A   1      34.906  30.958  27.574  1.00  0.00     0.060 A 
ATOM     34  C   UNL A   1      35.166  29.645  27.957  1.00  0.00     0.016 A 
ATOM     35  C   UNL A   1      35.787  31.987  27.907  1.00  0.00     0.016 A 
ATOM     36  C   UNL A   1      36.261  29.352  28.745  1.00  0.00     0.010 A 
ATOM     37  C   UNL A   1      36.936  31.679  28.649  1.00  0.00     0.010 A 
ATOM     38  C   UNL A   1      37.168  30.363  29.089  1.00  0.00    -0.014 A 
BRANCH  38  39
ATOM     39  C   UNL A   1      38.364  29.992  29.883  1.00  0.00     0.031 A 
ATOM     40  C   UNL A   1      39.438  29.116  29.308  1.00  0.00     0.074 A 
ATOM     41  C   UNL A   1      38.496  30.517  31.117  1.00  0.00     0.049 A 
ATOM     42  N   UNL A   1      40.515  28.646  29.887  1.00  0.00    -0.248 NA
ATOM     43  C   UNL A   1      39.287  28.710  27.903  1.00  0.00     0.031 C 
ATOM     44  C   UNL A   1      37.532  31.419  31.753  1.00  0.00     0.029 A 
ATOM     45  N   UNL A   1      39.493  30.391  32.048  1.00  0.00    -0.354 N 
ATOM     46  C   UNL A   1      41.145  27.855  28.934  1.00  0.00     0.074 A 
ATOM     47  C   UNL A   1      40.335  27.912  27.736  1.00  0.00     0.031 C 
ATOM     48  C   UNL A   1      38.004  31.797  32.949  1.00  0.00     0.029 A 
ATOM     49  C   UNL A   1      39.256  31.099  33.200  1.00  0.00     0.049 A 
ATOM     50  H   UNL A   1      40.301  29.846  31.904  1.00  0.00     0.167 HD
ATOM     51  C   UNL A   1      42.292  27.143  29.064  1.00  0.00     0.037 A 
ATOM     52  C   UNL A   1      39.952  31.149  34.350  1.00  0.00     0.037 A 
ATOM     53  C   UNL A   1      43.105  27.131  30.255  1.00  0.00     0.049 A 
ATOM     54  C   UNL A   1      41.205  30.334  34.466  1.00  0.00     0.074 A 
ATOM     55  C   UNL A   1      44.289  26.452  30.487  1.00  0.00     0.029 A 
ATOM     56  N   UNL A   1      42.821  27.842  31.414  1.00  0.00    -0.354 N 
ATOM     57  N   UNL A   1      41.775  29.561  33.573  1.00  0.00    -0.248 NA
ATOM     58  C   UNL A   1      41.909  30.390  35.753  1.00  0.00     0.031 C 
ATOM     59  C   UNL A   1      44.699  26.719  31.799  1.00  0.00     0.029 A 
ATOM     60  C   UNL A   1      43.800  27.606  32.367  1.00  0.00     0.049 A 
ATOM     61  H   UNL A   1      42.039  28.427  31.540  1.00  0.00     0.167 HD
ATOM     62  C   UNL A   1      42.915  29.057  34.179  1.00  0.00     0.074 A 
ATOM     63  C   UNL A   1      42.965  29.628  35.510  1.00  0.00     0.031 C 
ATOM     64  C   UNL A   1      43.836  28.197  33.681  1.00  0.00     0.037 A 
BRANCH  51  65
ATOM     65  C   UNL A   1      42.722  26.282  27.911  1.00  0.00     0.064 A 
ATOM     66  C   UNL A   1      42.233  24.981  27.727  1.00  0.00     0.173 A 
ATOM     67  C   UNL A   1      43.589  26.799  26.934  1.00  0.00     0.173 A 
ATOM     68  F   UNL A   1      41.409  24.435  28.634  1.00  0.00    -0.203 F 
ATOM     69  C   UNL A   1      42.607  24.225  26.617  1.00  0.00     0.198 A 
ATOM     70  C   UNL A   1      43.941  26.050  25.814  1.00  0.00     0.198 A 
ATOM     71  F   UNL A   1      44.082  28.040  27.058  1.00  0.00    -0.203 F 
ATOM     72  F   UNL A   1      42.152  22.971  26.477  1.00  0.00    -0.200 F 
ATOM     73  C   UNL A   1      43.452  24.763  25.658  1.00  0.00     0.200 A 
ATOM     74  F   UNL A   1      44.746  26.578  24.882  1.00  0.00    -0.200 F 
ATOM     75  F   UNL A   1      43.798  24.039  24.584  1.00  0.00    -0.200 F 
ENDBRANCH  51  65
BRANCH  52  76
ATOM     76  C   UNL A   1      39.456  31.976  35.480  1.00  0.00     0.064 A 
ATOM     77  C   UNL A   1      38.556  31.452  36.418  1.00  0.00     0.173 A 
ATOM     78  C   UNL A   1      39.877  33.303  35.651  1.00  0.00     0.173 A 
ATOM     79  F   UNL A   1      38.106  30.196  36.287  1.00  0.00    -0.203 F 
ATOM     80  C   UNL A   1      38.084  32.230  37.474  1.00  0.00     0.198 A 
ATOM     81  C   UNL A   1      39.434  34.068  36.726  1.00  0.00     0.198 A 
ATOM     82  F   UNL A   1      40.742  33.851  34.784  1.00  0.00    -0.203 F 
ATOM     83  F   UNL A   1      37.190  31.721  38.331  1.00  0.00    -0.200 F 
ATOM     84  C   UNL A   1      38.531  33.534  37.632  1.00  0.00     0.200 A 
ATOM     85  F   UNL A   1      39.884  35.320  36.886  1.00  0.00    -0.200 F 
ATOM     86  F   UNL A   1      38.085  34.278  38.653  1.00  0.00    -0.200 F 
ENDBRANCH  52  76
BRANCH  64  87
ATOM     87  C   UNL A   1      45.003  27.874  34.566  1.00  0.00     0.064 A 
ATOM     88  C   UNL A   1      44.981  26.782  35.446  1.00  0.00     0.173 A 
ATOM     89  C   UNL A   1      46.154  28.674  34.534  1.00  0.00     0.173 A 
ATOM     90  F   UNL A   1      43.895  26.000  35.526  1.00  0.00    -0.203 F 
ATOM     91  C   UNL A   1      46.058  26.526  36.290  1.00  0.00     0.198 A 
ATOM     92  C   UNL A   1      47.241  28.396  35.357  1.00  0.00     0.198 A 
ATOM     93  F   UNL A   1      46.224  29.727  33.705  1.00  0.00    -0.203 F 
ATOM     94  F   UNL A   1      45.992  25.516  37.169  1.00  0.00    -0.200 F 
ATOM     95  C   UNL A   1      47.188  27.330  36.243  1.00  0.00     0.200 A 
ATOM     96  F   UNL A   1      48.335  29.168  35.303  1.00  0.00    -0.200 F 
ATOM     97  F   UNL A   1      48.220  27.085  37.060  1.00  0.00    -0.200 F 
ENDBRANCH  64  87
ENDBRANCH  38  39
ENDBRANCH  31  33
ENDBRANCH  30  31
ENDBRANCH  29  30
ENDBRANCH  28  29
ENDBRANCH   1  28
TORSDOF 16
ENDMDL
MODEL 2
REMARK VINA RESULT:     -12.5      2.285      5.310
REMARK SMILES CN(C(=O)C[C@@H]1SC(=O)N(c2ccccc2)C1=O)c1ccccc1C(=O)OCCOC(=O)c1ccc(-c2c3nc(c(-c4c(F)c(F)c(F)c(F)c4F)c4ccc([nH]4)c(-c4c(F)c(F)c(F)c(F)c4F)c4nc(c(-c5c(F)c(F)c(F)c(F)c5F)c5ccc2[nH]5)C=C4)C=C3)cc1
REMARK SMILES IDX 27 1 25 2 26 3 24 4 19 5 20 6 21 7 23 8 22 9 2 10 1 11 3 12
REMARK SMILES IDX 4 13 5 14 6 15 7 16 17 17 8 18 10 19 18 20 9 21 11 22 12 23
REMARK SMILES IDX 16 24 13 25 15 26 14 27 28 28 29 29 30 30 31 31 32 32 33 33
REMARK SMILES IDX 34 34 95 35 35 36 94 37 36 38 37 39 38 40 88 41 39 42 93 43
REMARK SMILES IDX 87 44 89 45 40 46 92 47 86 48 85 49 41 51 73 52 53 53 72 54
REMARK SMILES IDX 54 55 57 56 71 57 90 58 55 59 56 60 70 62 91 63 58 64 42 65
REMARK SMILES IDX 43 66 51 67 44 68 45 69 49 70 52 71 46 72 47 73 50 74 48 75
REMARK SMILES IDX 74 76 75 77 83 78 76 79 77 80 81 81 84 82 78 83 79 84 82 85
REMARK SMILES IDX 80 86 59 87 60 88 68 89 61 90 62 91 66 92 69 93 63 94 64 95
REMARK SMILES IDX 67 96 65 97
REMARK H PARENT 89 50 57 61
REMARK Flexibility Score: inf
ROOT
ATOM      1  O   UNL A   1      32.763  29.486  23.550  1.00  0.00    -0.458 OA
ENDROOT
BRANCH   1   2
ATOM      2  C   UNL A   1      32.660  28.305  22.893  1.00  0.00     0.340 C 
ATOM      3  O   UNL A   1      33.446  27.926  22.033  1.00  0.00    -0.246 OA
BRANCH   2   4
ATOM      4  C   UNL A   1      31.540  27.414  23.343  1.00  0.00     0.083 A 
ATOM      5  C   UNL A   1      31.600  26.156  23.987  1.00  0.00     0.058 A 
ATOM      6  C   UNL A   1      30.360  25.557  24.333  1.00  0.00     0.027 A 
ATOM      7  C   UNL A   1      29.120  26.097  23.987  1.00  0.00     0.002 A 
ATOM      8  C   UNL A   1      30.263  27.965  23.045  1.00  0.00     0.018 A 
ATOM      9  C   UNL A   1      29.070  27.302  23.322  1.00  0.00     0.001 A 
BRANCH   5  10
ATOM     10  N   UNL A   1      32.805  25.442  24.366  1.00  0.00    -0.315 N 
ATOM     11  C   UNL A   1      33.246  25.525  25.752  1.00  0.00     0.153 C 
BRANCH  10  12
ATOM     12  C   UNL A   1      33.450  24.610  23.436  1.00  0.00     0.228 C 
ATOM     13  O   UNL A   1      34.375  24.962  22.701  1.00  0.00    -0.274 OA
BRANCH  12  14
ATOM     14  C   UNL A   1      33.059  23.148  23.360  1.00  0.00     0.125 C 
BRANCH  14  15
ATOM     15  C   UNL A   1      33.383  22.356  24.628  1.00  0.00     0.156 C 
ATOM     16  S   UNL A   1      35.163  22.271  24.903  1.00  0.00    -0.050 SA
ATOM     17  C   UNL A   1      32.885  20.922  24.710  1.00  0.00     0.248 C 
ATOM     18  C   UNL A   1      35.189  20.518  24.904  1.00  0.00     0.293 C 
ATOM     19  N   UNL A   1      33.918  19.997  24.761  1.00  0.00    -0.240 N 
ATOM     20  O   UNL A   1      31.686  20.685  24.845  1.00  0.00    -0.273 OA
ATOM     21  O   UNL A   1      36.261  19.954  24.998  1.00  0.00    -0.261 OA
BRANCH  19  22
ATOM     22  C   UNL A   1      33.669  18.580  24.740  1.00  0.00     0.053 A 
ATOM     23  C   UNL A   1      32.976  17.950  25.789  1.00  0.00     0.027 A 
ATOM     24  C   UNL A   1      34.058  17.777  23.653  1.00  0.00     0.027 A 
ATOM     25  C   UNL A   1      32.655  16.585  25.736  1.00  0.00     0.002 A 
ATOM     26  C   UNL A   1      33.749  16.411  23.605  1.00  0.00     0.002 A 
ATOM     27  C   UNL A   1      33.042  15.816  24.644  1.00  0.00     0.000 A 
ENDBRANCH  19  22
ENDBRANCH  14  15
ENDBRANCH  12  14
ENDBRANCH  10  12
ENDBRANCH   5  10
ENDBRANCH   2   4
ENDBRANCH   1   2
BRANCH   1  28
ATOM     28  C   UNL A   1      33.021  29.402  24.976  1.00  0.00     0.275 C 
BRANCH  28  29
ATOM     29  C   UNL A   1      32.038  30.222  25.831  1.00  0.00     0.275 C 
BRANCH  29  30
ATOM     30  O   UNL A   1      32.472  30.428  27.191  1.00  0.00    -0.458 OA
BRANCH  30  31
ATOM     31  C   UNL A   1      33.259  31.514  27.321  1.00  0.00     0.338 C 
ATOM     32  O   UNL A   1      32.915  32.680  27.232  1.00  0.00    -0.246 OA
BRANCH  31  33
ATOM     33  C   UNL A   1      34.616  31.202  27.760  1.00  0.00     0.060 A 
ATOM     34  C   UNL A   1      34.794  29.893  28.200  1.00  0.00     0.016 A 
ATOM     35  C   UNL A   1      35.589  32.173  27.994  1.00  0.00     0.016 A 
ATOM     36  C   UNL A   1      35.904  29.554  28.950  1.00  0.00     0.010 A 
ATOM     37  C   UNL A   1      36.748  31.813  28.696  1.00  0.00     0.010 A 
ATOM     38  C   UNL A   1      36.902  30.506  29.195  1.00  0.00    -0.014 A 
BRANCH  38  39
ATOM     39  C   UNL A   1      38.105  30.081  29.950  1.00  0.00     0.031 A 
ATOM     40  C   UNL A   1      39.144  29.198  29.324  1.00  0.00     0.074 A 
ATOM     41  C   UNL A   1      38.277  30.564  31.196  1.00  0.00     0.049 A 
ATOM     42  N   UNL A   1      40.221  28.684  29.863  1.00  0.00    -0.248 NA
ATOM     43  C   UNL A   1      38.953  28.840  27.911  1.00  0.00     0.031 C 
ATOM     44  C   UNL A   1      37.350  31.469  31.881  1.00  0.00     0.029 A 
ATOM     45  N   UNL A   1      39.292  30.385  32.100  1.00  0.00    -0.354 N 
ATOM     46  C   UNL A   1      40.810  27.909  28.873  1.00  0.00     0.074 A 
ATOM     47  C   UNL A   1      39.976  28.023  27.696  1.00  0.00     0.031 C 
ATOM     48  C   UNL A   1      37.857  31.799  33.077  1.00  0.00     0.029 A 
ATOM     49  C   UNL A   1      39.097  31.062  33.278  1.00  0.00     0.049 A 
ATOM     50  H   UNL A   1      40.082  29.826  31.921  1.00  0.00     0.167 HD
ATOM     51  C   UNL A   1      41.942  27.165  28.954  1.00  0.00     0.037 A 
ATOM     52  C   UNL A   1      39.819  31.060  34.413  1.00  0.00     0.037 A 
ATOM     53  C   UNL A   1      42.781  27.097  30.126  1.00  0.00     0.049 A 
ATOM     54  C   UNL A   1      41.054  30.211  34.476  1.00  0.00     0.074 A 
ATOM     55  C   UNL A   1      43.952  26.383  30.310  1.00  0.00     0.029 A 
ATOM     56  N   UNL A   1      42.540  27.778  31.312  1.00  0.00    -0.354 N 
ATOM     57  N   UNL A   1      41.585  29.453  33.547  1.00  0.00    -0.248 NA
ATOM     58  C   UNL A   1      41.787  30.211  35.747  1.00  0.00     0.031 C 
ATOM     59  C   UNL A   1      44.397  26.598  31.620  1.00  0.00     0.029 A 
ATOM     60  C   UNL A   1      43.533  27.489  32.235  1.00  0.00     0.049 A 
ATOM     61  H   UNL A   1      41.776  28.377  31.474  1.00  0.00     0.167 HD
ATOM     62  C   UNL A   1      42.725  28.903  34.110  1.00  0.00     0.074 A 
ATOM     63  C   UNL A   1      42.819  29.431  35.457  1.00  0.00     0.031 C 
ATOM     64  C   UNL A   1      43.613  28.037  33.565  1.00  0.00     0.037 A 
BRANCH  51  65
ATOM     65  C   UNL A   1      42.325  26.331  27.766  1.00  0.00     0.064 A 
ATOM     66  C   UNL A   1      43.257  26.769  26.815  1.00  0.00     0.173 A 
ATOM     67  C   UNL A   1      41.798  25.037  27.618  1.00  0.00     0.173 A 
ATOM     68  F   UNL A   1      43.785  27.999  26.903  1.00  0.00    -0.203 F 
ATOM     69  C   UNL A   1      43.636  25.950  25.752  1.00  0.00     0.198 A 
ATOM     70  C   UNL A   1      42.198  24.212  26.570  1.00  0.00     0.198 A 
ATOM     71  F   UNL A   1      40.907  24.565  28.503  1.00  0.00    -0.203 F 
ATOM     72  F   UNL A   1      44.506  26.401  24.837  1.00  0.00    -0.200 F 
ATOM     73  C   UNL A   1      43.114  24.670  25.636  1.00  0.00     0.200 A 
ATOM     74  F   UNL A   1      41.702  22.971  26.468  1.00  0.00    -0.200 F 
ATOM     75  F   UNL A   1      43.491  23.879  24.621  1.00  0.00    -0.200 F 
ENDBRANCH  51  65
BRANCH  52  76
ATOM     76  C   UNL A   1      39.369  31.863  35.579  1.00  0.00     0.064 A 
ATOM     77  C   UNL A   1      39.829  33.171  35.777  1.00  0.00     0.173 A 
ATOM     78  C   UNL A   1      38.462  31.342  36.514  1.00  0.00     0.173 A 
ATOM     79  F   UNL A   1      40.713  33.707  34.922  1.00  0.00    -0.203 F 
ATOM     80  C   UNL A   1      39.412  33.922  36.875  1.00  0.00     0.198 A 
ATOM     81  C   UNL A   1      38.017  32.105  37.590  1.00  0.00     0.198 A 
ATOM     82  F   UNL A   1      37.986  30.096  36.368  1.00  0.00    -0.203 F 
ATOM     83  F   UNL A   1      39.901  35.154  37.065  1.00  0.00    -0.200 F 
ATOM     84  C   UNL A   1      38.500  33.391  37.775  1.00  0.00     0.200 A 
ATOM     85  F   UNL A   1      37.121  31.595  38.446  1.00  0.00    -0.200 F 
ATOM     86  F   UNL A   1      38.091  34.117  38.825  1.00  0.00    -0.200 F 
ENDBRANCH  52  76
BRANCH  64  87
ATOM     87  C   UNL A   1      44.791  27.659  34.413  1.00  0.00     0.064 A 
ATOM     88  C   UNL A   1      45.978  28.407  34.405  1.00  0.00     0.173 A 
ATOM     89  C   UNL A   1      44.730  26.527  35.239  1.00  0.00     0.173 A 
ATOM     90  F   UNL A   1      46.090  29.486  33.616  1.00  0.00    -0.203 F 
ATOM     91  C   UNL A   1      47.074  28.013  35.166  1.00  0.00     0.198 A 
ATOM     92  C   UNL A   1      45.817  26.154  36.023  1.00  0.00     0.198 A 
ATOM     93  F   UNL A   1      43.615  25.782  35.285  1.00  0.00    -0.203 F 
ATOM     94  F   UNL A   1      48.220  28.705  35.096  1.00  0.00    -0.200 F 
ATOM     95  C   UNL A   1      46.992  26.890  35.977  1.00  0.00     0.200 A 
ATOM     96  F   UNL A   1      45.733  25.075  36.812  1.00  0.00    -0.200 F 
ATOM     97  F   UNL A   1      48.050  26.509  36.704  1.00  0.00    -0.200 F 
ENDBRANCH  64  87
ENDBRANCH  38  39
ENDBRANCH  31  33
ENDBRANCH  30  31
ENDBRANCH  29  30
ENDBRANCH  28  29
ENDBRANCH   1  28
TORSDOF 16
ENDMDL
MODEL 3
REMARK VINA RESULT:     -12.3      1.734      4.251
REMARK SMILES CN(C(=O)C[C@@H]1SC(=O)N(c2ccccc2)C1=O)c1ccccc1C(=O)OCCOC(=O)c1ccc(-c2c3nc(c(-c4c(F)c(F)c(F)c(F)c4F)c4ccc([nH]4)c(-c4c(F)c(F)c(F)c(F)c4F)c4nc(c(-c5c(F)c(F)c(F)c(F)c5F)c5ccc2[nH]5)C=C4)C=C3)cc1
REMARK SMILES IDX 27 1 25 2 26 3 24 4 19 5 20 6 21 7 23 8 22 9 2 10 1 11 3 12
REMARK SMILES IDX 4 13 5 14 6 15 7 16 17 17 8 18 10 19 18 20 9 21 11 22 12 23
REMARK SMILES IDX 16 24 13 25 15 26 14 27 28 28 29 29 30 30 31 31 32 32 33 33
REMARK SMILES IDX 34 34 95 35 35 36 94 37 36 38 37 39 38 40 88 41 39 42 93 43
REMARK SMILES IDX 87 44 89 45 40 46 92 47 86 48 85 49 41 51 73 52 53 53 72 54
REMARK SMILES IDX 54 55 57 56 71 57 90 58 55 59 56 60 70 62 91 63 58 64 42 65
REMARK SMILES IDX 43 66 51 67 44 68 45 69 49 70 52 71 46 72 47 73 50 74 48 75
REMARK SMILES IDX 74 76 75 77 83 78 76 79 77 80 81 81 84 82 78 83 79 84 82 85
REMARK SMILES IDX 80 86 59 87 60 88 68 89 61 90 62 91 66 92 69 93 63 94 64 95
REMARK SMILES IDX 67 96 65 97
REMARK H PARENT 89 50 57 61
REMARK Flexibility Score: inf
ROOT
ATOM      1  O   UNL A   1      31.692  28.773  23.427  1.00  0.00    -0.458 OA
ENDROOT
BRANCH   1   2
ATOM      2  C   UNL A   1      30.905  27.712  23.122  1.00  0.00     0.340 C 
ATOM      3  O   UNL A   1      30.338  27.564  22.046  1.00  0.00    -0.246 OA
BRANCH   2   4
ATOM      4  C   UNL A   1      30.823  26.648  24.176  1.00  0.00     0.083 A 
ATOM      5  C   UNL A   1      31.832  25.775  24.647  1.00  0.00     0.058 A 
ATOM      6  C   UNL A   1      31.468  24.886  25.693  1.00  0.00     0.027 A 
ATOM      7  C   UNL A   1      30.169  24.775  26.194  1.00  0.00     0.002 A 
ATOM      8  C   UNL A   1      29.520  26.546  24.738  1.00  0.00     0.018 A 
ATOM      9  C   UNL A   1      29.183  25.599  25.700  1.00  0.00     0.001 A 
BRANCH   5  10
ATOM     10  N   UNL A   1      33.210  25.732  24.195  1.00  0.00    -0.315 N 
ATOM     11  C   UNL A   1      34.260  26.020  25.163  1.00  0.00     0.153 C 
BRANCH  10  12
ATOM     12  C   UNL A   1      33.507  25.312  22.888  1.00  0.00     0.228 C 
ATOM     13  O   UNL A   1      34.305  25.873  22.134  1.00  0.00    -0.274 OA
BRANCH  12  14
ATOM     14  C   UNL A   1      32.881  24.035  22.364  1.00  0.00     0.125 C 
BRANCH  14  15
ATOM     15  C   UNL A   1      33.606  22.765  22.807  1.00  0.00     0.156 C 
ATOM     16  S   UNL A   1      32.727  21.953  24.155  1.00  0.00    -0.050 SA
ATOM     17  C   UNL A   1      35.045  22.903  23.277  1.00  0.00     0.248 C 
ATOM     18  C   UNL A   1      34.105  22.017  25.237  1.00  0.00     0.293 C 
ATOM     19  N   UNL A   1      35.206  22.571  24.615  1.00  0.00    -0.240 N 
ATOM     20  O   UNL A   1      35.942  23.158  22.476  1.00  0.00    -0.273 OA
ATOM     21  O   UNL A   1      33.968  21.618  26.377  1.00  0.00    -0.261 OA
BRANCH  19  22
ATOM     22  C   UNL A   1      36.468  22.729  25.289  1.00  0.00     0.053 A 
ATOM     23  C   UNL A   1      37.399  21.675  25.342  1.00  0.00     0.027 A 
ATOM     24  C   UNL A   1      36.847  23.950  25.874  1.00  0.00     0.027 A 
ATOM     25  C   UNL A   1      38.664  21.847  25.923  1.00  0.00     0.002 A 
ATOM     26  C   UNL A   1      38.106  24.119  26.466  1.00  0.00     0.002 A 
ATOM     27  C   UNL A   1      39.017  23.069  26.484  1.00  0.00     0.000 A 
ENDBRANCH  19  22
ENDBRANCH  14  15
ENDBRANCH  12  14
ENDBRANCH  10  12
ENDBRANCH   5  10
ENDBRANCH   2   4
ENDBRANCH   1   2
BRANCH   1  28
ATOM     28  C   UNL A   1      31.510  29.344  24.749  1.00  0.00     0.275 C 
BRANCH  28  29
ATOM     29  C   UNL A   1      32.808  29.890  25.371  1.00  0.00     0.275 C 
BRANCH  29  30
ATOM     30  O   UNL A   1      32.726  30.127  26.790  1.00  0.00    -0.458 OA
BRANCH  30  31
ATOM     31  C   UNL A   1      33.382  31.243  27.165  1.00  0.00     0.338 C 
ATOM     32  O   UNL A   1      32.917  32.366  27.261  1.00  0.00    -0.246 OA
BRANCH  31  33
ATOM     33  C   UNL A   1      34.741  30.990  27.634  1.00  0.00     0.060 A 
ATOM     34  C   UNL A   1      34.959  29.699  28.106  1.00  0.00     0.016 A 
ATOM     35  C   UNL A   1      35.674  32.002  27.862  1.00  0.00     0.016 A 
ATOM     36  C   UNL A   1      36.067  29.418  28.882  1.00  0.00     0.010 A 
ATOM     37  C   UNL A   1      36.833  31.700  28.592  1.00  0.00     0.010 A 
ATOM     38  C   UNL A   1      37.025  30.411  29.123  1.00  0.00    -0.014 A 
BRANCH  38  39
ATOM     39  C   UNL A   1      38.229  30.048  29.907  1.00  0.00     0.031 A 
ATOM     40  C   UNL A   1      39.309  29.187  29.320  1.00  0.00     0.074 A 
ATOM     41  C   UNL A   1      38.363  30.567  31.144  1.00  0.00     0.049 A 
ATOM     42  N   UNL A   1      40.394  28.725  29.890  1.00  0.00    -0.248 NA
ATOM     43  C   UNL A   1      39.154  28.788  27.914  1.00  0.00     0.031 C 
ATOM     44  C   UNL A   1      37.393  31.455  31.791  1.00  0.00     0.029 A 
ATOM     45  N   UNL A   1      39.367  30.446  32.068  1.00  0.00    -0.354 N 
ATOM     46  C   UNL A   1      41.027  27.947  28.929  1.00  0.00     0.074 A 
ATOM     47  C   UNL A   1      40.209  28.002  27.736  1.00  0.00     0.031 C 
ATOM     48  C   UNL A   1      37.868  31.831  32.986  1.00  0.00     0.029 A 
ATOM     49  C   UNL A   1      39.130  31.144  33.225  1.00  0.00     0.049 A 
ATOM     50  H   UNL A   1      40.180  29.911  31.916  1.00  0.00     0.167 HD
ATOM     51  C   UNL A   1      42.182  27.246  29.047  1.00  0.00     0.037 A 
ATOM     52  C   UNL A   1      39.832  31.195  34.372  1.00  0.00     0.037 A 
ATOM     53  C   UNL A   1      43.003  27.236  30.233  1.00  0.00     0.049 A 
ATOM     54  C   UNL A   1      41.094  30.393  34.476  1.00  0.00     0.074 A 
ATOM     55  C   UNL A   1      44.195  26.568  30.455  1.00  0.00     0.029 A 
ATOM     56  N   UNL A   1      42.718  27.936  31.398  1.00  0.00    -0.354 N 
ATOM     57  N   UNL A   1      41.667  29.631  33.574  1.00  0.00    -0.248 NA
ATOM     58  C   UNL A   1      41.805  30.449  35.758  1.00  0.00     0.031 C 
ATOM     59  C   UNL A   1      44.610  26.832  31.765  1.00  0.00     0.029 A 
ATOM     60  C   UNL A   1      43.705  27.705  32.344  1.00  0.00     0.049 A 
ATOM     61  H   UNL A   1      41.930  28.512  31.533  1.00  0.00     0.167 HD
ATOM     62  C   UNL A   1      42.816  29.136  34.170  1.00  0.00     0.074 A 
ATOM     63  C   UNL A   1      42.868  29.699  35.504  1.00  0.00     0.031 C 
ATOM     64  C   UNL A   1      43.743  28.289  33.661  1.00  0.00     0.037 A 
BRANCH  51  65
ATOM     65  C   UNL A   1      42.615  26.397  27.887  1.00  0.00     0.064 A 
ATOM     66  C   UNL A   1      42.163  25.081  27.715  1.00  0.00     0.173 A 
ATOM     67  C   UNL A   1      43.444  26.939  26.891  1.00  0.00     0.173 A 
ATOM     68  F   UNL A   1      41.376  24.511  28.640  1.00  0.00    -0.203 F 
ATOM     69  C   UNL A   1      42.537  24.334  26.598  1.00  0.00     0.198 A 
ATOM     70  C   UNL A   1      43.795  26.199  25.765  1.00  0.00     0.198 A 
ATOM     71  F   UNL A   1      43.901  28.195  27.002  1.00  0.00    -0.203 F 
ATOM     72  F   UNL A   1      42.118  23.067  26.470  1.00  0.00    -0.200 F 
ATOM     73  C   UNL A   1      43.344  24.897  25.620  1.00  0.00     0.200 A 
ATOM     74  F   UNL A   1      44.564  26.750  24.815  1.00  0.00    -0.200 F 
ATOM     75  F   UNL A   1      43.690  24.182  24.540  1.00  0.00    -0.200 F 
ENDBRANCH  51  65
BRANCH  52  76
ATOM     76  C   UNL A   1      39.333  32.010  35.510  1.00  0.00     0.064 A 
ATOM     77  C   UNL A   1      38.486  31.456  36.478  1.00  0.00     0.173 A 
ATOM     78  C   UNL A   1      39.701  33.356  35.657  1.00  0.00     0.173 A 
ATOM     79  F   UNL A   1      38.088  30.180  36.371  1.00  0.00    -0.203 F 
ATOM     80  C   UNL A   1      38.012  32.222  37.542  1.00  0.00     0.198 A 
ATOM     81  C   UNL A   1      39.258  34.110  36.739  1.00  0.00     0.198 A 
ATOM     82  F   UNL A   1      40.515  33.933  34.761  1.00  0.00    -0.203 F 
ATOM     83  F   UNL A   1      37.167  31.682  38.429  1.00  0.00    -0.200 F 
ATOM     84  C   UNL A   1      38.406  33.545  37.676  1.00  0.00     0.200 A 
ATOM     85  F   UNL A   1      39.656  35.382  36.876  1.00  0.00    -0.200 F 
ATOM     86  F   UNL A   1      37.958  34.279  38.705  1.00  0.00    -0.200 F 
ENDBRANCH  52  76
BRANCH  64  87
ATOM     87  C   UNL A   1      44.918  27.973  34.537  1.00  0.00     0.064 A 
ATOM     88  C   UNL A   1      44.919  26.867  35.401  1.00  0.00     0.173 A 
ATOM     89  C   UNL A   1      46.055  28.793  34.513  1.00  0.00     0.173 A 
ATOM     90  F   UNL A   1      43.847  26.066  35.472  1.00  0.00    -0.203 F 
ATOM     91  C   UNL A   1      46.003  26.618  36.238  1.00  0.00     0.198 A 
ATOM     92  C   UNL A   1      47.150  28.522  35.329  1.00  0.00     0.198 A 
ATOM     93  F   UNL A   1      46.104  29.859  33.700  1.00  0.00    -0.203 F 
ATOM     94  F   UNL A   1      45.958  25.593  37.101  1.00  0.00    -0.200 F 
ATOM     95  C   UNL A   1      47.118  27.442  36.199  1.00  0.00     0.200 A 
ATOM     96  F   UNL A   1      48.230  29.314  35.282  1.00  0.00    -0.200 F 
ATOM     97  F   UNL A   1      48.158  27.203  37.008  1.00  0.00    -0.200 F 
ENDBRANCH  64  87
ENDBRANCH  38  39
ENDBRANCH  31  33
ENDBRANCH  30  31
ENDBRANCH  29  30
ENDBRANCH  28  29
ENDBRANCH   1  28
TORSDOF 16
ENDMDL
