MODEL 1
REMARK VINA RESULT:     -12.4      0.000      0.000
REMARK SMILES CC(C)CN(C)c1cc2c(cc1Cl)C=C(C(=O)OCCOC(=O)c1ccc(-c3c4nc(c(-c5c(F)c(F)c(F)c(F)c5F)c5ccc([nH]5)c(-c5c(F)c(F)c(F)c(F)c5F)c5nc(c(-c6c(F)c(F)c(F)c(F)c6F)c6ccc3[nH]6)C=C5)C=C4)cc1)[C@H](C(F)(F)F)O2
REMARK SMILES IDX 19 1 18 2 16 3 17 4 15 5 7 6 8 7 12 8 9 9 11 10 13 11 10 12
REMARK SMILES IDX 92 13 14 14 87 15 5 16 6 17 4 18 2 19 1 20 3 21 88 22 89 23
REMARK SMILES IDX 90 24 91 25 20 26 21 27 22 28 23 29 24 30 25 31 86 32 26 33
REMARK SMILES IDX 85 34 27 35 28 36 29 37 79 38 30 39 84 40 78 41 80 42 31 43
REMARK SMILES IDX 83 44 77 45 76 46 32 48 64 49 44 50 63 51 45 52 48 53 62 54
REMARK SMILES IDX 81 55 46 56 47 57 61 59 82 60 49 61 33 62 34 63 42 64 35 65
REMARK SMILES IDX 36 66 40 67 43 68 37 69 38 70 41 71 39 72 65 73 66 74 74 75
REMARK SMILES IDX 67 76 68 77 72 78 75 79 69 80 70 81 73 82 71 83 50 84 51 85
REMARK SMILES IDX 59 86 52 87 53 88 57 89 60 90 54 91 55 92 58 93 56 94
REMARK H PARENT 80 47 48 58
REMARK Flexibility Score: inf
ROOT
ATOM      1  C   UNL A   1      31.387  29.459  24.817  1.00  0.00     0.275 C 
ENDROOT
BRANCH   1   2
ATOM      2  O   UNL A   1      32.329  28.398  25.090  1.00  0.00    -0.459 OA
BRANCH   2   3
ATOM      3  C   UNL A   1      33.213  28.126  24.114  1.00  0.00     0.338 C 
ATOM      4  O   UNL A   1      33.859  28.967  23.502  1.00  0.00    -0.246 OA
BRANCH   3   5
ATOM      5  C   UNL A   1      33.404  26.670  23.912  1.00  0.00     0.087 C 
ATOM      6  C   UNL A   1      34.169  21.786  25.037  1.00  0.00     0.059 A 
ATOM      7  C   UNL A   1      34.075  22.523  23.835  1.00  0.00     0.074 A 
ATOM      8  C   UNL A   1      34.107  22.509  26.246  1.00  0.00     0.065 A 
ATOM      9  C   UNL A   1      33.900  23.913  23.840  1.00  0.00     0.130 A 
ATOM     10  C   UNL A   1      33.866  23.881  26.251  1.00  0.00     0.034 A 
ATOM     11  Cl  UNL A   1      34.404  21.782  27.789  1.00  0.00    -0.082 Cl
ATOM     12  C   UNL A   1      33.765  24.580  25.049  1.00  0.00     0.019 A 
ATOM     13  O   UNL A   1      33.914  24.562  22.637  1.00  0.00    -0.475 OA
ATOM     14  C   UNL A   1      33.553  26.006  25.068  1.00  0.00     0.027 C 
ATOM     15  C   UNL A   1      33.569  25.994  22.567  1.00  0.00     0.316 C 
BRANCH   6  16
ATOM     16  N   UNL A   1      34.360  20.399  25.020  1.00  0.00    -0.373 N 
ATOM     17  C   UNL A   1      35.750  19.959  25.001  1.00  0.00     0.143 C 
BRANCH  16  18
ATOM     18  C   UNL A   1      33.378  19.559  24.304  1.00  0.00     0.119 C 
BRANCH  18  19
ATOM     19  C   UNL A   1      33.655  18.048  24.462  1.00  0.00     0.002 C 
ATOM     20  C   UNL A   1      32.665  17.386  25.425  1.00  0.00     0.009 C 
ATOM     21  C   UNL A   1      33.606  17.320  23.116  1.00  0.00     0.009 C 
ENDBRANCH  18  19
ENDBRANCH  16  18
ENDBRANCH   6  16
BRANCH  15  22
ATOM     22  C   UNL A   1      32.424  26.105  21.540  1.00  0.00     0.430 C 
ATOM     23  F   UNL A   1      32.855  25.951  20.272  1.00  0.00    -0.167 F 
ATOM     24  F   UNL A   1      31.416  25.235  21.759  1.00  0.00    -0.167 F 
ATOM     25  F   UNL A   1      31.853  27.340  21.620  1.00  0.00    -0.167 F 
ENDBRANCH  15  22
ENDBRANCH   3   5
ENDBRANCH   2   3
ENDBRANCH   1   2
BRANCH   1  26
ATOM     26  C   UNL A   1      31.502  30.581  25.852  1.00  0.00     0.275 C 
BRANCH  26  27
ATOM     27  O   UNL A   1      32.632  30.386  26.728  1.00  0.00    -0.458 OA
BRANCH  27  28
ATOM     28  C   UNL A   1      33.225  31.521  27.166  1.00  0.00     0.338 C 
ATOM     29  O   UNL A   1      32.759  32.646  27.170  1.00  0.00    -0.246 OA
BRANCH  28  30
ATOM     30  C   UNL A   1      34.515  31.196  27.796  1.00  0.00     0.060 A 
ATOM     31  C   UNL A   1      35.433  32.179  28.160  1.00  0.00     0.016 A 
ATOM     32  C   UNL A   1      34.750  29.862  28.127  1.00  0.00     0.016 A 
ATOM     33  C   UNL A   1      36.605  31.805  28.836  1.00  0.00     0.010 A 
ATOM     34  C   UNL A   1      35.896  29.495  28.827  1.00  0.00     0.010 A 
ATOM     35  C   UNL A   1      36.847  30.460  29.181  1.00  0.00    -0.014 A 
BRANCH  35  36
ATOM     36  C   UNL A   1      38.068  30.052  29.930  1.00  0.00     0.031 A 
ATOM     37  C   UNL A   1      38.301  30.518  31.345  1.00  0.00     0.074 A 
ATOM     38  C   UNL A   1      39.010  29.308  29.317  1.00  0.00     0.049 A 
ATOM     39  N   UNL A   1      39.308  30.267  32.145  1.00  0.00    -0.248 NA
ATOM     40  C   UNL A   1      37.287  31.411  31.929  1.00  0.00     0.031 C 
ATOM     41  C   UNL A   1      38.963  28.870  27.922  1.00  0.00     0.029 A 
ATOM     42  N   UNL A   1      40.190  28.786  29.788  1.00  0.00    -0.354 N 
ATOM     43  C   UNL A   1      39.059  30.980  33.310  1.00  0.00     0.074 A 
ATOM     44  C   UNL A   1      37.831  31.716  33.099  1.00  0.00     0.031 C 
ATOM     45  C   UNL A   1      40.037  28.105  27.665  1.00  0.00     0.029 A 
ATOM     46  C   UNL A   1      40.860  28.016  28.869  1.00  0.00     0.049 A 
ATOM     47  H   UNL A   1      40.525  28.948  30.700  1.00  0.00     0.167 HD
ATOM     48  C   UNL A   1      39.769  30.998  34.464  1.00  0.00     0.037 A 
ATOM     49  C   UNL A   1      41.997  27.303  28.985  1.00  0.00     0.037 A 
ATOM     50  C   UNL A   1      40.960  30.224  34.699  1.00  0.00     0.049 A 
ATOM     51  C   UNL A   1      42.728  27.280  30.300  1.00  0.00     0.074 A 
ATOM     52  C   UNL A   1      41.698  30.111  35.866  1.00  0.00     0.029 A 
ATOM     53  N   UNL A   1      41.580  29.421  33.755  1.00  0.00    -0.354 N 
ATOM     54  N   UNL A   1      42.433  27.891  31.420  1.00  0.00    -0.248 NA
ATOM     55  C   UNL A   1      43.948  26.460  30.369  1.00  0.00     0.031 C 
ATOM     56  C   UNL A   1      42.777  29.257  35.621  1.00  0.00     0.029 A 
ATOM     57  C   UNL A   1      42.693  28.813  34.312  1.00  0.00     0.049 A 
ATOM     58  H   UNL A   1      41.275  29.302  32.826  1.00  0.00     0.167 HD
ATOM     59  C   UNL A   1      43.414  27.518  32.329  1.00  0.00     0.074 A 
ATOM     60  C   UNL A   1      44.304  26.611  31.637  1.00  0.00     0.031 C 
ATOM     61  C   UNL A   1      43.564  27.902  33.618  1.00  0.00     0.037 A 
BRANCH  48  62
ATOM     62  C   UNL A   1      39.260  31.845  35.593  1.00  0.00     0.064 A 
ATOM     63  C   UNL A   1      38.372  31.327  36.546  1.00  0.00     0.173 A 
ATOM     64  C   UNL A   1      39.734  33.153  35.780  1.00  0.00     0.173 A 
ATOM     65  F   UNL A   1      37.888  30.083  36.411  1.00  0.00    -0.203 F 
ATOM     66  C   UNL A   1      37.963  32.092  37.636  1.00  0.00     0.198 A 
ATOM     67  C   UNL A   1      39.344  33.906  36.885  1.00  0.00     0.198 A 
ATOM     68  F   UNL A   1      40.597  33.692  34.904  1.00  0.00    -0.203 F 
ATOM     69  F   UNL A   1      37.092  31.583  38.519  1.00  0.00    -0.200 F 
ATOM     70  C   UNL A   1      38.457  33.375  37.810  1.00  0.00     0.200 A 
ATOM     71  F   UNL A   1      39.834  35.140  37.061  1.00  0.00    -0.200 F 
ATOM     72  F   UNL A   1      38.079  34.102  38.870  1.00  0.00    -0.200 F 
ENDBRANCH  48  62
BRANCH  49  73
ATOM     73  C   UNL A   1      42.477  26.490  27.839  1.00  0.00     0.064 A 
ATOM     74  C   UNL A   1      41.993  25.189  27.637  1.00  0.00     0.173 A 
ATOM     75  C   UNL A   1      43.412  26.988  26.923  1.00  0.00     0.173 A 
ATOM     76  F   UNL A   1      41.112  24.662  28.500  1.00  0.00    -0.203 F 
ATOM     77  C   UNL A   1      42.438  24.413  26.570  1.00  0.00     0.198 A 
ATOM     78  C   UNL A   1      43.839  26.220  25.842  1.00  0.00     0.198 A 
ATOM     79  F   UNL A   1      43.903  28.228  27.072  1.00  0.00    -0.203 F 
ATOM     80  F   UNL A   1      41.986  23.160  26.422  1.00  0.00    -0.200 F 
ATOM     81  C   UNL A   1      43.355  24.931  25.670  1.00  0.00     0.200 A 
ATOM     82  F   UNL A   1      44.718  26.728  24.967  1.00  0.00    -0.200 F 
ATOM     83  F   UNL A   1      43.780  24.186  24.639  1.00  0.00    -0.200 F 
ENDBRANCH  49  73
BRANCH  61  84
ATOM     84  C   UNL A   1      44.722  27.333  34.383  1.00  0.00     0.064 A 
ATOM     85  C   UNL A   1      44.625  26.100  35.042  1.00  0.00     0.173 A 
ATOM     86  C   UNL A   1      45.961  27.990  34.390  1.00  0.00     0.173 A 
ATOM     87  F   UNL A   1      43.456  25.441  35.072  1.00  0.00    -0.203 F 
ATOM     88  C   UNL A   1      45.725  25.549  35.692  1.00  0.00     0.198 A 
ATOM     89  C   UNL A   1      47.066  27.426  35.022  1.00  0.00     0.198 A 
ATOM     90  F   UNL A   1      46.106  29.169  33.767  1.00  0.00    -0.203 F 
ATOM     91  F   UNL A   1      45.604  24.382  36.339  1.00  0.00    -0.200 F 
ATOM     92  C   UNL A   1      46.947  26.207  35.674  1.00  0.00     0.200 A 
ATOM     93  F   UNL A   1      48.248  28.056  34.993  1.00  0.00    -0.200 F 
ATOM     94  F   UNL A   1      48.008  25.668  36.288  1.00  0.00    -0.200 F 
ENDBRANCH  61  84
ENDBRANCH  35  36
ENDBRANCH  28  30
ENDBRANCH  27  28
ENDBRANCH  26  27
ENDBRANCH   1  26
TORSDOF 15
ENDMDL
MODEL 2
REMARK VINA RESULT:     -12.4      0.392      2.001
REMARK SMILES CC(C)CN(C)c1cc2c(cc1Cl)C=C(C(=O)OCCOC(=O)c1ccc(-c3c4nc(c(-c5c(F)c(F)c(F)c(F)c5F)c5ccc([nH]5)c(-c5c(F)c(F)c(F)c(F)c5F)c5nc(c(-c6c(F)c(F)c(F)c(F)c6F)c6ccc3[nH]6)C=C5)C=C4)cc1)[C@H](C(F)(F)F)O2
REMARK SMILES IDX 19 1 18 2 16 3 17 4 15 5 7 6 8 7 12 8 9 9 11 10 13 11 10 12
REMARK SMILES IDX 92 13 14 14 87 15 5 16 6 17 4 18 2 19 1 20 3 21 88 22 89 23
REMARK SMILES IDX 90 24 91 25 20 26 21 27 22 28 23 29 24 30 25 31 86 32 26 33
REMARK SMILES IDX 85 34 27 35 28 36 29 37 79 38 30 39 84 40 78 41 80 42 31 43
REMARK SMILES IDX 83 44 77 45 76 46 32 48 64 49 44 50 63 51 45 52 48 53 62 54
REMARK SMILES IDX 81 55 46 56 47 57 61 59 82 60 49 61 33 62 34 63 42 64 35 65
REMARK SMILES IDX 36 66 40 67 43 68 37 69 38 70 41 71 39 72 65 73 66 74 74 75
REMARK SMILES IDX 67 76 68 77 72 78 75 79 69 80 70 81 73 82 71 83 50 84 51 85
REMARK SMILES IDX 59 86 52 87 53 88 57 89 60 90 54 91 55 92 58 93 56 94
REMARK H PARENT 80 47 48 58
REMARK Flexibility Score: inf
ROOT
ATOM      1  C   UNL A   1      31.293  29.388  24.804  1.00  0.00     0.275 C 
ENDROOT
BRANCH   1   2
ATOM      2  O   UNL A   1      32.189  28.264  24.950  1.00  0.00    -0.459 OA
BRANCH   2   3
ATOM      3  C   UNL A   1      33.003  28.016  23.910  1.00  0.00     0.338 C 
ATOM      4  O   UNL A   1      33.535  28.876  23.219  1.00  0.00    -0.246 OA
BRANCH   3   5
ATOM      5  C   UNL A   1      33.276  26.569  23.736  1.00  0.00     0.087 C 
ATOM      6  C   UNL A   1      34.238  21.744  24.959  1.00  0.00     0.059 A 
ATOM      7  C   UNL A   1      34.158  22.461  23.744  1.00  0.00     0.074 A 
ATOM      8  C   UNL A   1      34.088  22.476  26.154  1.00  0.00     0.065 A 
ATOM      9  C   UNL A   1      33.913  23.841  23.722  1.00  0.00     0.130 A 
ATOM     10  C   UNL A   1      33.778  23.835  26.130  1.00  0.00     0.034 A 
ATOM     11  Cl  UNL A   1      34.356  21.784  27.718  1.00  0.00    -0.082 Cl
ATOM     12  C   UNL A   1      33.693  24.513  24.915  1.00  0.00     0.019 A 
ATOM     13  O   UNL A   1      33.946  24.476  22.513  1.00  0.00    -0.475 OA
ATOM     14  C   UNL A   1      33.408  25.927  24.907  1.00  0.00     0.027 C 
ATOM     15  C   UNL A   1      33.532  25.888  22.408  1.00  0.00     0.316 C 
BRANCH   6  16
ATOM     16  N   UNL A   1      34.499  20.368  24.968  1.00  0.00    -0.373 N 
ATOM     17  C   UNL A   1      35.909  19.999  25.001  1.00  0.00     0.143 C 
BRANCH  16  18
ATOM     18  C   UNL A   1      33.584  19.470  24.234  1.00  0.00     0.119 C 
BRANCH  18  19
ATOM     19  C   UNL A   1      33.763  17.987  24.623  1.00  0.00     0.002 C 
ATOM     20  C   UNL A   1      32.544  17.443  25.372  1.00  0.00     0.009 C 
ATOM     21  C   UNL A   1      34.029  17.108  23.396  1.00  0.00     0.009 C 
ENDBRANCH  18  19
ENDBRANCH  16  18
ENDBRANCH   6  16
BRANCH  15  22
ATOM     22  C   UNL A   1      32.427  25.928  21.333  1.00  0.00     0.430 C 
ATOM     23  F   UNL A   1      31.493  26.866  21.593  1.00  0.00    -0.167 F 
ATOM     24  F   UNL A   1      32.895  26.125  20.084  1.00  0.00    -0.167 F 
ATOM     25  F   UNL A   1      31.784  24.727  21.289  1.00  0.00    -0.167 F 
ENDBRANCH  15  22
ENDBRANCH   3   5
ENDBRANCH   2   3
ENDBRANCH   1   2
BRANCH   1  26
ATOM     26  C   UNL A   1      31.635  30.502  25.798  1.00  0.00     0.275 C 
BRANCH  26  27
ATOM     27  O   UNL A   1      32.952  30.328  26.362  1.00  0.00    -0.458 OA
BRANCH  27  28
ATOM     28  C   UNL A   1      33.411  31.374  27.088  1.00  0.00     0.338 C 
ATOM     29  O   UNL A   1      32.833  32.417  27.331  1.00  0.00    -0.246 OA
BRANCH  28  30
ATOM     30  C   UNL A   1      34.707  31.026  27.694  1.00  0.00     0.060 A 
ATOM     31  C   UNL A   1      35.674  31.988  27.983  1.00  0.00     0.016 A 
ATOM     32  C   UNL A   1      34.900  29.701  28.081  1.00  0.00     0.016 A 
ATOM     33  C   UNL A   1      36.851  31.599  28.640  1.00  0.00     0.010 A 
ATOM     34  C   UNL A   1      36.053  29.321  28.763  1.00  0.00     0.010 A 
ATOM     35  C   UNL A   1      37.051  30.262  29.042  1.00  0.00    -0.014 A 
BRANCH  35  36
ATOM     36  C   UNL A   1      38.279  29.841  29.772  1.00  0.00     0.031 A 
ATOM     37  C   UNL A   1      38.563  30.345  31.165  1.00  0.00     0.074 A 
ATOM     38  C   UNL A   1      39.181  29.048  29.161  1.00  0.00     0.049 A 
ATOM     39  N   UNL A   1      39.584  30.089  31.946  1.00  0.00    -0.248 NA
ATOM     40  C   UNL A   1      37.593  31.288  31.744  1.00  0.00     0.031 C 
ATOM     41  C   UNL A   1      39.084  28.566  27.784  1.00  0.00     0.029 A 
ATOM     42  N   UNL A   1      40.357  28.504  29.619  1.00  0.00    -0.354 N 
ATOM     43  C   UNL A   1      39.388  30.847  33.093  1.00  0.00     0.074 A 
ATOM     44  C   UNL A   1      38.178  31.615  32.889  1.00  0.00     0.031 C 
ATOM     45  C   UNL A   1      40.126  27.760  27.524  1.00  0.00     0.029 A 
ATOM     46  C   UNL A   1      40.977  27.684  28.709  1.00  0.00     0.049 A 
ATOM     47  H   UNL A   1      40.720  28.686  30.516  1.00  0.00     0.167 HD
ATOM     48  C   UNL A   1      40.128  30.880  34.228  1.00  0.00     0.037 A 
ATOM     49  C   UNL A   1      42.095  26.939  28.820  1.00  0.00     0.037 A 
ATOM     50  C   UNL A   1      41.301  30.077  34.458  1.00  0.00     0.049 A 
ATOM     51  C   UNL A   1      42.860  26.936  30.116  1.00  0.00     0.074 A 
ATOM     52  C   UNL A   1      42.065  29.979  35.608  1.00  0.00     0.029 A 
ATOM     53  N   UNL A   1      41.870  29.225  33.526  1.00  0.00    -0.354 N 
ATOM     54  N   UNL A   1      42.613  27.593  31.222  1.00  0.00    -0.248 NA
ATOM     55  C   UNL A   1      44.055  26.081  30.182  1.00  0.00     0.031 C 
ATOM     56  C   UNL A   1      43.111  29.084  35.365  1.00  0.00     0.029 A 
ATOM     57  C   UNL A   1      42.979  28.600  34.074  1.00  0.00     0.049 A 
ATOM     58  H   UNL A   1      41.537  29.085  32.609  1.00  0.00     0.167 HD
ATOM     59  C   UNL A   1      43.606  27.219  32.117  1.00  0.00     0.074 A 
ATOM     60  C   UNL A   1      44.449  26.262  31.434  1.00  0.00     0.031 C 
ATOM     61  C   UNL A   1      43.802  27.640  33.389  1.00  0.00     0.037 A 
BRANCH  48  62
ATOM     62  C   UNL A   1      39.676  31.780  35.340  1.00  0.00     0.064 A 
ATOM     63  C   UNL A   1      40.142  33.098  35.442  1.00  0.00     0.173 A 
ATOM     64  C   UNL A   1      38.697  31.356  36.253  1.00  0.00     0.173 A 
ATOM     65  F   UNL A   1      41.078  33.551  34.593  1.00  0.00    -0.203 F 
ATOM     66  C   UNL A   1      39.659  33.955  36.427  1.00  0.00     0.198 A 
ATOM     67  C   UNL A   1      38.198  32.224  37.221  1.00  0.00     0.198 A 
ATOM     68  F   UNL A   1      38.207  30.109  36.190  1.00  0.00    -0.203 F 
ATOM     69  F   UNL A   1      40.141  35.203  36.522  1.00  0.00    -0.200 F 
ATOM     70  C   UNL A   1      38.681  33.521  37.309  1.00  0.00     0.200 A 
ATOM     71  F   UNL A   1      37.241  31.810  38.063  1.00  0.00    -0.200 F 
ATOM     72  F   UNL A   1      38.204  34.354  38.244  1.00  0.00    -0.200 F 
ENDBRANCH  48  62
BRANCH  49  73
ATOM     73  C   UNL A   1      42.519  26.074  27.690  1.00  0.00     0.064 A 
ATOM     74  C   UNL A   1      43.486  26.520  26.777  1.00  0.00     0.173 A 
ATOM     75  C   UNL A   1      41.984  24.794  27.503  1.00  0.00     0.173 A 
ATOM     76  F   UNL A   1      44.011  27.747  26.905  1.00  0.00    -0.203 F 
ATOM     77  C   UNL A   1      43.890  25.721  25.710  1.00  0.00     0.198 A 
ATOM     78  C   UNL A   1      42.406  23.986  26.449  1.00  0.00     0.198 A 
ATOM     79  F   UNL A   1      41.059  24.321  28.351  1.00  0.00    -0.203 F 
ATOM     80  F   UNL A   1      44.789  26.187  24.831  1.00  0.00    -0.200 F 
ATOM     81  C   UNL A   1      43.355  24.453  25.550  1.00  0.00     0.200 A 
ATOM     82  F   UNL A   1      41.896  22.756  26.303  1.00  0.00    -0.200 F 
ATOM     83  F   UNL A   1      43.748  23.682  24.526  1.00  0.00    -0.200 F 
ENDBRANCH  49  73
BRANCH  61  84
ATOM     84  C   UNL A   1      44.962  27.060  34.143  1.00  0.00     0.064 A 
ATOM     85  C   UNL A   1      46.210  27.698  34.161  1.00  0.00     0.173 A 
ATOM     86  C   UNL A   1      44.801  25.901  34.915  1.00  0.00     0.173 A 
ATOM     87  F   UNL A   1      46.415  28.803  33.428  1.00  0.00    -0.203 F 
ATOM     88  C   UNL A   1      47.261  27.188  34.918  1.00  0.00     0.198 A 
ATOM     89  C   UNL A   1      45.847  25.406  35.689  1.00  0.00     0.198 A 
ATOM     90  F   UNL A   1      43.624  25.259  34.936  1.00  0.00    -0.203 F 
ATOM     91  F   UNL A   1      48.455  27.797  34.901  1.00  0.00    -0.200 F 
ATOM     92  C   UNL A   1      47.077  26.049  35.689  1.00  0.00     0.200 A 
ATOM     93  F   UNL A   1      45.664  24.313  36.442  1.00  0.00    -0.200 F 
ATOM     94  F   UNL A   1      48.086  25.568  36.428  1.00  0.00    -0.200 F 
ENDBRANCH  61  84
ENDBRANCH  35  36
ENDBRANCH  28  30
ENDBRANCH  27  28
ENDBRANCH  26  27
ENDBRANCH   1  26
TORSDOF 15
ENDMDL
MODEL 3
REMARK VINA RESULT:     -12.2      4.503      9.919
REMARK SMILES CC(C)CN(C)c1cc2c(cc1Cl)C=C(C(=O)OCCOC(=O)c1ccc(-c3c4nc(c(-c5c(F)c(F)c(F)c(F)c5F)c5ccc([nH]5)c(-c5c(F)c(F)c(F)c(F)c5F)c5nc(c(-c6c(F)c(F)c(F)c(F)c6F)c6ccc3[nH]6)C=C5)C=C4)cc1)[C@H](C(F)(F)F)O2
REMARK SMILES IDX 19 1 18 2 16 3 17 4 15 5 7 6 8 7 12 8 9 9 11 10 13 11 10 12
REMARK SMILES IDX 92 13 14 14 87 15 5 16 6 17 4 18 2 19 1 20 3 21 88 22 89 23
REMARK SMILES IDX 90 24 91 25 20 26 21 27 22 28 23 29 24 30 25 31 86 32 26 33
REMARK SMILES IDX 85 34 27 35 28 36 29 37 79 38 30 39 84 40 78 41 80 42 31 43
REMARK SMILES IDX 83 44 77 45 76 46 32 48 64 49 44 50 63 51 45 52 48 53 62 54
REMARK SMILES IDX 81 55 46 56 47 57 61 59 82 60 49 61 33 62 34 63 42 64 35 65
REMARK SMILES IDX 36 66 40 67 43 68 37 69 38 70 41 71 39 72 65 73 66 74 74 75
REMARK SMILES IDX 67 76 68 77 72 78 75 79 69 80 70 81 73 82 71 83 50 84 51 85
REMARK SMILES IDX 59 86 52 87 53 88 57 89 60 90 54 91 55 92 58 93 56 94
REMARK H PARENT 80 47 48 58
REMARK Flexibility Score: inf
ROOT
ATOM      1  C   UNL A   1      35.194  20.771  25.419  1.00  0.00     0.275 C 
ENDROOT
BRANCH   1   2
ATOM      2  O   UNL A   1      34.850  22.157  25.641  1.00  0.00    -0.459 OA
BRANCH   2   3
ATOM      3  C   UNL A   1      33.869  22.388  26.530  1.00  0.00     0.338 C 
ATOM      4  O   UNL A   1      33.683  21.739  27.551  1.00  0.00    -0.246 OA
BRANCH   3   5
ATOM      5  C   UNL A   1      33.072  23.593  26.193  1.00  0.00     0.087 C 
ATOM      6  C   UNL A   1      31.819  27.989  24.000  1.00  0.00     0.059 A 
ATOM      7  C   UNL A   1      31.236  27.180  25.002  1.00  0.00     0.074 A 
ATOM      8  C   UNL A   1      33.066  27.583  23.484  1.00  0.00     0.065 A 
ATOM      9  C   UNL A   1      31.857  26.005  25.447  1.00  0.00     0.130 A 
ATOM     10  C   UNL A   1      33.650  26.380  23.879  1.00  0.00     0.034 A 
ATOM     11  Cl  UNL A   1      33.998  28.563  22.404  1.00  0.00    -0.082 Cl
ATOM     12  C   UNL A   1      33.045  25.596  24.860  1.00  0.00     0.019 A 
ATOM     13  O   UNL A   1      31.277  25.331  26.484  1.00  0.00    -0.475 OA
ATOM     14  C   UNL A   1      33.680  24.373  25.286  1.00  0.00     0.027 C 
ATOM     15  C   UNL A   1      31.789  24.006  26.883  1.00  0.00     0.316 C 
BRANCH   6  16
ATOM     16  N   UNL A   1      31.197  29.169  23.574  1.00  0.00    -0.373 N 
ATOM     17  C   UNL A   1      30.907  30.138  24.625  1.00  0.00     0.143 C 
BRANCH  16  18
ATOM     18  C   UNL A   1      30.250  29.100  22.442  1.00  0.00     0.119 C 
BRANCH  18  19
ATOM     19  C   UNL A   1      28.962  29.915  22.690  1.00  0.00     0.002 C 
ATOM     20  C   UNL A   1      28.739  30.971  21.604  1.00  0.00     0.009 C 
ATOM     21  C   UNL A   1      27.728  29.012  22.770  1.00  0.00     0.009 C 
ENDBRANCH  18  19
ENDBRANCH  16  18
ENDBRANCH   6  16
BRANCH  15  22
ATOM     22  C   UNL A   1      30.581  23.049  26.828  1.00  0.00     0.430 C 
ATOM     23  F   UNL A   1      29.404  23.707  26.870  1.00  0.00    -0.167 F 
ATOM     24  F   UNL A   1      30.581  22.240  25.750  1.00  0.00    -0.167 F 
ATOM     25  F   UNL A   1      30.609  22.212  27.903  1.00  0.00    -0.167 F 
ENDBRANCH  15  22
ENDBRANCH   3   5
ENDBRANCH   2   3
ENDBRANCH   1   2
BRANCH   1  26
ATOM     26  C   UNL A   1      36.659  20.624  25.000  1.00  0.00     0.275 C 
BRANCH  26  27
ATOM     27  O   UNL A   1      37.459  21.735  25.458  1.00  0.00    -0.458 OA
BRANCH  27  28
ATOM     28  C   UNL A   1      38.655  21.401  25.998  1.00  0.00     0.338 C 
ATOM     29  O   UNL A   1      39.195  20.311  25.982  1.00  0.00    -0.246 OA
BRANCH  28  30
ATOM     30  C   UNL A   1      39.320  22.609  26.514  1.00  0.00     0.060 A 
ATOM     31  C   UNL A   1      40.468  22.545  27.301  1.00  0.00     0.016 A 
ATOM     32  C   UNL A   1      38.827  23.843  26.094  1.00  0.00     0.016 A 
ATOM     33  C   UNL A   1      41.101  23.737  27.687  1.00  0.00     0.010 A 
ATOM     34  C   UNL A   1      39.473  25.024  26.448  1.00  0.00     0.010 A 
ATOM     35  C   UNL A   1      40.613  24.989  27.260  1.00  0.00    -0.014 A 
BRANCH  35  36
ATOM     36  C   UNL A   1      41.294  26.261  27.631  1.00  0.00     0.031 A 
ATOM     37  C   UNL A   1      42.704  26.545  27.178  1.00  0.00     0.074 A 
ATOM     38  C   UNL A   1      40.668  27.144  28.433  1.00  0.00     0.049 A 
ATOM     39  N   UNL A   1      43.453  27.594  27.412  1.00  0.00    -0.248 NA
ATOM     40  C   UNL A   1      43.374  25.500  26.388  1.00  0.00     0.031 C 
ATOM     41  C   UNL A   1      39.344  26.955  29.025  1.00  0.00     0.029 A 
ATOM     42  N   UNL A   1      41.060  28.380  28.889  1.00  0.00    -0.354 N 
ATOM     43  C   UNL A   1      44.680  27.330  26.816  1.00  0.00     0.074 A 
ATOM     44  C   UNL A   1      44.596  25.999  26.253  1.00  0.00     0.031 C 
ATOM     45  C   UNL A   1      39.013  28.054  29.723  1.00  0.00     0.029 A 
ATOM     46  C   UNL A   1      40.108  29.017  29.646  1.00  0.00     0.049 A 
ATOM     47  H   UNL A   1      41.941  28.772  28.690  1.00  0.00     0.167 HD
ATOM     48  C   UNL A   1      45.768  28.131  26.718  1.00  0.00     0.037 A 
ATOM     49  C   UNL A   1      40.108  30.245  30.202  1.00  0.00     0.037 A 
ATOM     50  C   UNL A   1      45.837  29.476  27.227  1.00  0.00     0.049 A 
ATOM     51  C   UNL A   1      41.300  31.144  30.016  1.00  0.00     0.074 A 
ATOM     52  C   UNL A   1      46.866  30.394  27.099  1.00  0.00     0.029 A 
ATOM     53  N   UNL A   1      44.833  30.100  27.950  1.00  0.00    -0.354 N 
ATOM     54  N   UNL A   1      42.419  30.911  29.376  1.00  0.00    -0.248 NA
ATOM     55  C   UNL A   1      41.225  32.482  30.624  1.00  0.00     0.031 C 
ATOM     56  C   UNL A   1      46.494  31.566  27.764  1.00  0.00     0.029 A 
ATOM     57  C   UNL A   1      45.220  31.389  28.277  1.00  0.00     0.049 A 
ATOM     58  H   UNL A   1      43.973  29.688  28.196  1.00  0.00     0.167 HD
ATOM     59  C   UNL A   1      43.171  32.073  29.488  1.00  0.00     0.074 A 
ATOM     60  C   UNL A   1      42.374  33.019  30.239  1.00  0.00     0.031 C 
ATOM     61  C   UNL A   1      44.414  32.326  29.015  1.00  0.00     0.037 A 
BRANCH  48  62
ATOM     62  C   UNL A   1      46.970  27.603  25.992  1.00  0.00     0.064 A 
ATOM     63  C   UNL A   1      47.080  27.707  24.598  1.00  0.00     0.173 A 
ATOM     64  C   UNL A   1      48.062  27.075  26.699  1.00  0.00     0.173 A 
ATOM     65  F   UNL A   1      46.062  28.203  23.876  1.00  0.00    -0.203 F 
ATOM     66  C   UNL A   1      48.231  27.288  23.936  1.00  0.00     0.198 A 
ATOM     67  C   UNL A   1      49.222  26.681  26.036  1.00  0.00     0.198 A 
ATOM     68  F   UNL A   1      48.014  26.967  28.036  1.00  0.00    -0.203 F 
ATOM     69  F   UNL A   1      48.300  27.373  22.600  1.00  0.00    -0.200 F 
ATOM     70  C   UNL A   1      49.303  26.785  24.656  1.00  0.00     0.200 A 
ATOM     71  F   UNL A   1      50.265  26.211  26.733  1.00  0.00    -0.200 F 
ATOM     72  F   UNL A   1      50.417  26.401  24.018  1.00  0.00    -0.200 F 
ENDBRANCH  48  62
BRANCH  49  73
ATOM     73  C   UNL A   1      38.904  30.725  30.927  1.00  0.00     0.064 A 
ATOM     74  C   UNL A   1      38.803  30.570  32.317  1.00  0.00     0.173 A 
ATOM     75  C   UNL A   1      37.844  31.351  30.260  1.00  0.00     0.173 A 
ATOM     76  F   UNL A   1      39.784  29.958  32.995  1.00  0.00    -0.203 F 
ATOM     77  C   UNL A   1      37.678  31.011  33.010  1.00  0.00     0.198 A 
ATOM     78  C   UNL A   1      36.730  31.814  30.957  1.00  0.00     0.198 A 
ATOM     79  F   UNL A   1      37.896  31.526  28.932  1.00  0.00    -0.203 F 
ATOM     80  F   UNL A   1      37.591  30.817  34.334  1.00  0.00    -0.200 F 
ATOM     81  C   UNL A   1      36.646  31.638  32.331  1.00  0.00     0.200 A 
ATOM     82  F   UNL A   1      35.738  32.430  30.300  1.00  0.00    -0.200 F 
ATOM     83  F   UNL A   1      35.565  32.067  32.999  1.00  0.00    -0.200 F 
ENDBRANCH  49  73
BRANCH  61  84
ATOM     84  C   UNL A   1      44.994  33.684  29.274  1.00  0.00     0.064 A 
ATOM     85  C   UNL A   1      45.806  33.929  30.389  1.00  0.00     0.173 A 
ATOM     86  C   UNL A   1      44.799  34.728  28.357  1.00  0.00     0.173 A 
ATOM     87  F   UNL A   1      46.011  32.964  31.300  1.00  0.00    -0.203 F 
ATOM     88  C   UNL A   1      46.395  35.175  30.585  1.00  0.00     0.198 A 
ATOM     89  C   UNL A   1      45.408  35.966  28.544  1.00  0.00     0.198 A 
ATOM     90  F   UNL A   1      44.036  34.541  27.270  1.00  0.00    -0.203 F 
ATOM     91  F   UNL A   1      47.146  35.396  31.672  1.00  0.00    -0.200 F 
ATOM     92  C   UNL A   1      46.203  36.189  29.658  1.00  0.00     0.200 A 
ATOM     93  F   UNL A   1      45.232  36.941  27.641  1.00  0.00    -0.200 F 
ATOM     94  F   UNL A   1      46.783  37.383  29.841  1.00  0.00    -0.200 F 
ENDBRANCH  61  84
ENDBRANCH  35  36
ENDBRANCH  28  30
ENDBRANCH  27  28
ENDBRANCH  26  27
ENDBRANCH   1  26
TORSDOF 15
ENDMDL
