MODEL 1
REMARK VINA RESULT:     -12.8      0.000      0.000
REMARK SMILES CC(=O)Nc1cccc(NC(=O)N[C@H](C(=O)OCCOC(=O)c2ccc(-c3c4nc(c(-c5c(F)c(F)c(F)c(F)c5F)c5ccc([nH]5)c(-c5c(F)c(F)c(F)c(F)c5F)c5nc(c(-c6c(F)c(F)c(F)c(F)c6F)c6ccc3[nH]6)C=C5)C=C4)cc2)C(C)C)c1
REMARK SMILES IDX 18 1 17 2 15 3 16 4 14 5 13 6 10 7 11 8 12 10 9 12 5 13 6 14
REMARK SMILES IDX 89 15 7 16 8 17 4 18 1 19 2 20 3 21 86 23 87 24 88 25 19 26
REMARK SMILES IDX 20 27 21 28 22 29 23 30 24 31 85 32 25 33 84 34 26 35 27 36
REMARK SMILES IDX 28 37 78 38 29 39 83 40 77 41 79 42 30 43 82 44 76 45 75 46
REMARK SMILES IDX 31 48 63 49 43 50 62 51 44 52 47 53 61 54 80 55 45 56 46 57
REMARK SMILES IDX 60 59 81 60 48 61 32 62 33 63 41 64 34 65 35 66 39 67 42 68
REMARK SMILES IDX 36 69 37 70 40 71 38 72 64 73 65 74 73 75 66 76 67 77 71 78
REMARK SMILES IDX 74 79 68 80 69 81 72 82 70 83 49 84 50 85 58 86 51 87 52 88
REMARK SMILES IDX 56 89 59 90 53 91 54 92 57 93 55 94
REMARK H PARENT 10 9 13 11 4 22 79 47 47 58
REMARK Flexibility Score: inf
ROOT
ATOM      1  C   UNL A   1      31.865  28.246  27.513  1.00  0.00     0.274 C 
ENDROOT
BRANCH   1   2
ATOM      2  O   UNL A   1      32.501  27.153  26.797  1.00  0.00    -0.461 OA
BRANCH   2   3
ATOM      3  C   UNL A   1      31.602  26.356  26.174  1.00  0.00     0.329 C 
ATOM      4  O   UNL A   1      30.433  26.275  26.554  1.00  0.00    -0.250 OA
BRANCH   3   5
ATOM      5  C   UNL A   1      32.075  25.596  24.911  1.00  0.00     0.196 C 
BRANCH   5   6
ATOM      6  N   UNL A   1      32.669  26.270  23.713  1.00  0.00    -0.324 N 
ATOM      7  N   UNL A   1      32.149  28.593  23.207  1.00  0.00    -0.308 N 
ATOM      8  C   UNL A   1      32.989  27.597  23.633  1.00  0.00     0.319 C 
ATOM      9  H   UNL A   1      32.653  29.425  23.056  1.00  0.00     0.171 HD
ATOM     10  O   UNL A   1      34.189  27.889  23.714  1.00  0.00    -0.248 OA
ATOM     11  H   UNL A   1      32.843  25.713  22.920  1.00  0.00     0.166 HD
BRANCH   7  12
ATOM     12  C   UNL A   1      30.772  28.785  22.919  1.00  0.00     0.044 A 
ATOM     13  C   UNL A   1      29.037  30.144  21.860  1.00  0.00     0.043 A 
ATOM     14  C   UNL A   1      28.054  29.265  22.326  1.00  0.00     0.026 A 
ATOM     15  C   UNL A   1      30.390  29.888  22.152  1.00  0.00     0.052 A 
ATOM     16  C   UNL A   1      28.400  28.265  23.212  1.00  0.00     0.004 A 
ATOM     17  C   UNL A   1      29.737  28.121  23.580  1.00  0.00     0.026 A 
BRANCH  13  18
ATOM     18  N   UNL A   1      28.545  31.287  21.210  1.00  0.00    -0.326 N 
ATOM     19  C   UNL A   1      28.776  33.058  22.938  1.00  0.00     0.114 C 
ATOM     20  C   UNL A   1      28.265  32.550  21.625  1.00  0.00     0.221 C 
ATOM     21  O   UNL A   1      27.608  33.280  20.879  1.00  0.00    -0.275 OA
ATOM     22  H   UNL A   1      28.365  31.143  20.253  1.00  0.00     0.169 HD
ENDBRANCH  13  18
ENDBRANCH   7  12
ENDBRANCH   5   6
BRANCH   5  23
ATOM     23  C   UNL A   1      33.022  24.499  25.400  1.00  0.00     0.017 C 
ATOM     24  C   UNL A   1      34.527  24.797  25.507  1.00  0.00     0.010 C 
ATOM     25  C   UNL A   1      32.418  23.646  26.515  1.00  0.00     0.010 C 
ENDBRANCH   5  23
ENDBRANCH   3   5
ENDBRANCH   2   3
ENDBRANCH   1   2
BRANCH   1  26
ATOM     26  C   UNL A   1      31.804  29.596  26.762  1.00  0.00     0.275 C 
BRANCH  26  27
ATOM     27  O   UNL A   1      33.083  30.160  26.391  1.00  0.00    -0.458 OA
BRANCH  27  28
ATOM     28  C   UNL A   1      33.515  31.181  27.164  1.00  0.00     0.338 C 
ATOM     29  O   UNL A   1      32.839  32.122  27.577  1.00  0.00    -0.246 OA
BRANCH  28  30
ATOM     30  C   UNL A   1      34.909  30.979  27.604  1.00  0.00     0.060 A 
ATOM     31  C   UNL A   1      35.314  29.679  27.915  1.00  0.00     0.016 A 
ATOM     32  C   UNL A   1      35.762  32.041  27.870  1.00  0.00     0.016 A 
ATOM     33  C   UNL A   1      36.534  29.414  28.532  1.00  0.00     0.010 A 
ATOM     34  C   UNL A   1      37.000  31.785  28.475  1.00  0.00     0.010 A 
ATOM     35  C   UNL A   1      37.382  30.476  28.837  1.00  0.00    -0.014 A 
BRANCH  35  36
ATOM     36  C   UNL A   1      38.625  30.271  29.621  1.00  0.00     0.031 A 
ATOM     37  C   UNL A   1      39.671  29.339  29.083  1.00  0.00     0.074 A 
ATOM     38  C   UNL A   1      38.794  30.852  30.822  1.00  0.00     0.049 A 
ATOM     39  N   UNL A   1      40.664  28.755  29.699  1.00  0.00    -0.248 NA
ATOM     40  C   UNL A   1      39.567  29.009  27.652  1.00  0.00     0.031 C 
ATOM     41  C   UNL A   1      37.905  31.848  31.417  1.00  0.00     0.029 A 
ATOM     42  N   UNL A   1      39.759  30.646  31.778  1.00  0.00    -0.354 N 
ATOM     43  C   UNL A   1      41.271  27.945  28.748  1.00  0.00     0.074 A 
ATOM     44  C   UNL A   1      40.538  28.119  27.512  1.00  0.00     0.031 C 
ATOM     45  C   UNL A   1      38.340  32.134  32.656  1.00  0.00     0.029 A 
ATOM     46  C   UNL A   1      39.494  31.294  32.961  1.00  0.00     0.049 A 
ATOM     47  H   UNL A   1      40.558  30.091  31.631  1.00  0.00     0.167 HD
ATOM     48  C   UNL A   1      42.336  27.124  28.904  1.00  0.00     0.037 A 
ATOM     49  C   UNL A   1      40.079  31.171  34.169  1.00  0.00     0.037 A 
ATOM     50  C   UNL A   1      43.067  26.980  30.137  1.00  0.00     0.049 A 
ATOM     51  C   UNL A   1      41.214  30.196  34.342  1.00  0.00     0.074 A 
ATOM     52  C   UNL A   1      44.163  26.179  30.404  1.00  0.00     0.029 A 
ATOM     53  N   UNL A   1      42.772  27.660  31.310  1.00  0.00    -0.354 N 
ATOM     54  N   UNL A   1      41.764  29.397  33.460  1.00  0.00    -0.248 NA
ATOM     55  C   UNL A   1      41.806  30.098  35.686  1.00  0.00     0.031 C 
ATOM     56  C   UNL A   1      44.505  26.341  31.751  1.00  0.00     0.029 A 
ATOM     57  C   UNL A   1      43.657  27.286  32.307  1.00  0.00     0.049 A 
ATOM     58  H   UNL A   1      42.042  28.312  31.417  1.00  0.00     0.167 HD
ATOM     59  C   UNL A   1      42.786  28.734  34.126  1.00  0.00     0.074 A 
ATOM     60  C   UNL A   1      42.781  29.222  35.489  1.00  0.00     0.031 C 
ATOM     61  C   UNL A   1      43.653  27.806  33.652  1.00  0.00     0.037 A 
BRANCH  48  62
ATOM     62  C   UNL A   1      42.746  26.284  27.730  1.00  0.00     0.064 A 
ATOM     63  C   UNL A   1      42.166  25.034  27.472  1.00  0.00     0.173 A 
ATOM     64  C   UNL A   1      43.717  26.754  26.831  1.00  0.00     0.173 A 
ATOM     65  F   UNL A   1      41.245  24.531  28.307  1.00  0.00    -0.203 F 
ATOM     66  C   UNL A   1      42.562  24.273  26.374  1.00  0.00     0.198 A 
ATOM     67  C   UNL A   1      44.088  26.006  25.717  1.00  0.00     0.198 A 
ATOM     68  F   UNL A   1      44.300  27.946  27.028  1.00  0.00    -0.203 F 
ATOM     69  F   UNL A   1      42.030  23.060  26.174  1.00  0.00    -0.200 F 
ATOM     70  C   UNL A   1      43.517  24.762  25.494  1.00  0.00     0.200 A 
ATOM     71  F   UNL A   1      45.000  26.487  24.862  1.00  0.00    -0.200 F 
ATOM     72  F   UNL A   1      43.891  24.033  24.434  1.00  0.00    -0.200 F 
ENDBRANCH  48  62
BRANCH  49  73
ATOM     73  C   UNL A   1      39.576  31.964  35.321  1.00  0.00     0.064 A 
ATOM     74  C   UNL A   1      40.065  33.253  35.573  1.00  0.00     0.173 A 
ATOM     75  C   UNL A   1      38.607  31.451  36.198  1.00  0.00     0.173 A 
ATOM     76  F   UNL A   1      41.012  33.776  34.781  1.00  0.00    -0.203 F 
ATOM     77  C   UNL A   1      39.617  33.992  36.666  1.00  0.00     0.198 A 
ATOM     78  C   UNL A   1      38.138  32.203  37.273  1.00  0.00     0.198 A 
ATOM     79  F   UNL A   1      38.108  30.222  36.004  1.00  0.00    -0.203 F 
ATOM     80  F   UNL A   1      40.136  35.204  36.909  1.00  0.00    -0.200 F 
ATOM     81  C   UNL A   1      38.648  33.470  37.511  1.00  0.00     0.200 A 
ATOM     82  F   UNL A   1      37.193  31.701  38.078  1.00  0.00    -0.200 F 
ATOM     83  F   UNL A   1      38.214  34.185  38.558  1.00  0.00    -0.200 F 
ENDBRANCH  49  73
BRANCH  61  84
ATOM     84  C   UNL A   1      44.718  27.309  34.586  1.00  0.00     0.064 A 
ATOM     85  C   UNL A   1      45.935  27.986  34.751  1.00  0.00     0.173 A 
ATOM     86  C   UNL A   1      44.488  26.166  35.369  1.00  0.00     0.173 A 
ATOM     87  F   UNL A   1      46.207  29.073  34.015  1.00  0.00    -0.203 F 
ATOM     88  C   UNL A   1      46.890  27.526  35.653  1.00  0.00     0.198 A 
ATOM     89  C   UNL A   1      45.434  25.727  36.291  1.00  0.00     0.198 A 
ATOM     90  F   UNL A   1      43.337  25.488  35.253  1.00  0.00    -0.203 F 
ATOM     91  F   UNL A   1      48.063  28.164  35.767  1.00  0.00    -0.200 F 
ATOM     92  C   UNL A   1      46.636  26.404  36.428  1.00  0.00     0.200 A 
ATOM     93  F   UNL A   1      45.179  24.651  37.048  1.00  0.00    -0.200 F 
ATOM     94  F   UNL A   1      47.552  25.970  37.304  1.00  0.00    -0.200 F 
ENDBRANCH  61  84
ENDBRANCH  35  36
ENDBRANCH  28  30
ENDBRANCH  27  28
ENDBRANCH  26  27
ENDBRANCH   1  26
TORSDOF 15
ENDMDL
MODEL 2
REMARK VINA RESULT:     -12.8      1.979      4.325
REMARK SMILES CC(=O)Nc1cccc(NC(=O)N[C@H](C(=O)OCCOC(=O)c2ccc(-c3c4nc(c(-c5c(F)c(F)c(F)c(F)c5F)c5ccc([nH]5)c(-c5c(F)c(F)c(F)c(F)c5F)c5nc(c(-c6c(F)c(F)c(F)c(F)c6F)c6ccc3[nH]6)C=C5)C=C4)cc2)C(C)C)c1
REMARK SMILES IDX 18 1 17 2 15 3 16 4 14 5 13 6 10 7 11 8 12 10 9 12 5 13 6 14
REMARK SMILES IDX 89 15 7 16 8 17 4 18 1 19 2 20 3 21 86 23 87 24 88 25 19 26
REMARK SMILES IDX 20 27 21 28 22 29 23 30 24 31 85 32 25 33 84 34 26 35 27 36
REMARK SMILES IDX 28 37 78 38 29 39 83 40 77 41 79 42 30 43 82 44 76 45 75 46
REMARK SMILES IDX 31 48 63 49 43 50 62 51 44 52 47 53 61 54 80 55 45 56 46 57
REMARK SMILES IDX 60 59 81 60 48 61 32 62 33 63 41 64 34 65 35 66 39 67 42 68
REMARK SMILES IDX 36 69 37 70 40 71 38 72 64 73 65 74 73 75 66 76 67 77 71 78
REMARK SMILES IDX 74 79 68 80 69 81 72 82 70 83 49 84 50 85 58 86 51 87 52 88
REMARK SMILES IDX 56 89 59 90 53 91 54 92 57 93 55 94
REMARK H PARENT 10 9 13 11 4 22 79 47 47 58
REMARK Flexibility Score: inf
ROOT
ATOM      1  C   UNL A   1      31.459  29.081  25.310  1.00  0.00     0.274 C 
ENDROOT
BRANCH   1   2
ATOM      2  O   UNL A   1      32.389  28.008  25.621  1.00  0.00    -0.461 OA
BRANCH   2   3
ATOM      3  C   UNL A   1      31.815  27.032  26.364  1.00  0.00     0.329 C 
ATOM      4  O   UNL A   1      31.045  27.289  27.290  1.00  0.00    -0.250 OA
BRANCH   3   5
ATOM      5  C   UNL A   1      32.104  25.565  25.961  1.00  0.00     0.196 C 
BRANCH   5   6
ATOM      6  N   UNL A   1      31.036  24.534  25.771  1.00  0.00    -0.324 N 
ATOM      7  N   UNL A   1      31.304  22.284  26.660  1.00  0.00    -0.308 N 
ATOM      8  C   UNL A   1      30.739  23.533  26.655  1.00  0.00     0.319 C 
ATOM      9  H   UNL A   1      30.804  21.683  27.258  1.00  0.00     0.171 HD
ATOM     10  O   UNL A   1      29.720  23.676  27.341  1.00  0.00    -0.248 OA
ATOM     11  H   UNL A   1      30.504  24.580  24.944  1.00  0.00     0.166 HD
BRANCH   7  12
ATOM     12  C   UNL A   1      32.395  21.598  26.063  1.00  0.00     0.044 A 
ATOM     13  C   UNL A   1      34.815  21.341  25.829  1.00  0.00     0.043 A 
ATOM     14  C   UNL A   1      34.622  20.313  24.900  1.00  0.00     0.026 A 
ATOM     15  C   UNL A   1      33.697  21.966  26.410  1.00  0.00     0.052 A 
ATOM     16  C   UNL A   1      33.352  20.047  24.431  1.00  0.00     0.004 A 
ATOM     17  C   UNL A   1      32.278  20.777  24.939  1.00  0.00     0.026 A 
BRANCH  13  18
ATOM     18  N   UNL A   1      36.153  21.722  26.015  1.00  0.00    -0.326 N 
ATOM     19  C   UNL A   1      36.806  22.583  23.777  1.00  0.00     0.114 C 
ATOM     20  C   UNL A   1      37.132  22.139  25.170  1.00  0.00     0.221 C 
ATOM     21  O   UNL A   1      38.291  22.172  25.588  1.00  0.00    -0.275 OA
ATOM     22  H   UNL A   1      36.442  21.681  26.955  1.00  0.00     0.169 HD
ENDBRANCH  13  18
ENDBRANCH   7  12
ENDBRANCH   5   6
BRANCH   5  23
ATOM     23  C   UNL A   1      32.979  25.629  24.710  1.00  0.00     0.017 C 
ATOM     24  C   UNL A   1      34.444  25.165  24.791  1.00  0.00     0.010 C 
ATOM     25  C   UNL A   1      32.221  25.261  23.434  1.00  0.00     0.010 C 
ENDBRANCH   5  23
ENDBRANCH   3   5
ENDBRANCH   2   3
ENDBRANCH   1   2
BRANCH   1  26
ATOM     26  C   UNL A   1      31.760  30.444  25.975  1.00  0.00     0.275 C 
BRANCH  26  27
ATOM     27  O   UNL A   1      32.670  30.402  27.098  1.00  0.00    -0.458 OA
BRANCH  27  28
ATOM     28  C   UNL A   1      33.332  31.552  27.353  1.00  0.00     0.338 C 
ATOM     29  O   UNL A   1      32.852  32.684  27.366  1.00  0.00    -0.246 OA
BRANCH  28  30
ATOM     30  C   UNL A   1      34.725  31.297  27.771  1.00  0.00     0.060 A 
ATOM     31  C   UNL A   1      35.075  29.990  28.114  1.00  0.00     0.016 A 
ATOM     32  C   UNL A   1      35.632  32.325  27.985  1.00  0.00     0.016 A 
ATOM     33  C   UNL A   1      36.294  29.686  28.714  1.00  0.00     0.010 A 
ATOM     34  C   UNL A   1      36.870  32.029  28.573  1.00  0.00     0.010 A 
ATOM     35  C   UNL A   1      37.198  30.715  28.968  1.00  0.00    -0.014 A 
BRANCH  35  36
ATOM     36  C   UNL A   1      38.447  30.476  29.733  1.00  0.00     0.031 A 
ATOM     37  C   UNL A   1      39.464  29.526  29.171  1.00  0.00     0.074 A 
ATOM     38  C   UNL A   1      38.645  31.041  30.936  1.00  0.00     0.049 A 
ATOM     39  N   UNL A   1      40.453  28.914  29.768  1.00  0.00    -0.248 NA
ATOM     40  C   UNL A   1      39.333  29.212  27.739  1.00  0.00     0.031 C 
ATOM     41  C   UNL A   1      37.787  32.050  31.553  1.00  0.00     0.029 A 
ATOM     42  N   UNL A   1      39.618  30.805  31.877  1.00  0.00    -0.354 N 
ATOM     43  C   UNL A   1      41.028  28.100  28.801  1.00  0.00     0.074 A 
ATOM     44  C   UNL A   1      40.282  28.302  27.577  1.00  0.00     0.031 C 
ATOM     45  C   UNL A   1      38.245  32.315  32.788  1.00  0.00     0.029 A 
ATOM     46  C   UNL A   1      39.385  31.447  33.069  1.00  0.00     0.049 A 
ATOM     47  H   UNL A   1      40.403  30.234  31.713  1.00  0.00     0.167 HD
ATOM     48  C   UNL A   1      42.077  27.254  28.934  1.00  0.00     0.037 A 
ATOM     49  C   UNL A   1      39.983  31.300  34.268  1.00  0.00     0.037 A 
ATOM     50  C   UNL A   1      42.821  27.082  30.155  1.00  0.00     0.049 A 
ATOM     51  C   UNL A   1      41.099  30.298  34.416  1.00  0.00     0.074 A 
ATOM     52  C   UNL A   1      43.903  26.255  30.400  1.00  0.00     0.029 A 
ATOM     53  N   UNL A   1      42.558  27.757  31.339  1.00  0.00    -0.354 N 
ATOM     54  N   UNL A   1      41.618  29.496  33.519  1.00  0.00    -0.248 NA
ATOM     55  C   UNL A   1      41.706  30.175  35.750  1.00  0.00     0.031 C 
ATOM     56  C   UNL A   1      44.267  26.396  31.743  1.00  0.00     0.029 A 
ATOM     57  C   UNL A   1      43.448  27.355  32.320  1.00  0.00     0.049 A 
ATOM     58  H   UNL A   1      41.844  28.425  31.462  1.00  0.00     0.167 HD
ATOM     59  C   UNL A   1      42.635  28.804  34.164  1.00  0.00     0.074 A 
ATOM     60  C   UNL A   1      42.660  29.279  35.531  1.00  0.00     0.031 C 
ATOM     61  C   UNL A   1      43.474  27.862  33.669  1.00  0.00     0.037 A 
BRANCH  48  62
ATOM     62  C   UNL A   1      42.451  26.417  27.747  1.00  0.00     0.064 A 
ATOM     63  C   UNL A   1      41.812  25.202  27.463  1.00  0.00     0.173 A 
ATOM     64  C   UNL A   1      43.450  26.855  26.861  1.00  0.00     0.173 A 
ATOM     65  F   UNL A   1      40.862  24.731  28.284  1.00  0.00    -0.203 F 
ATOM     66  C   UNL A   1      42.177  24.443  26.352  1.00  0.00     0.198 A 
ATOM     67  C   UNL A   1      43.790  26.109  25.737  1.00  0.00     0.198 A 
ATOM     68  F   UNL A   1      44.090  28.012  27.084  1.00  0.00    -0.203 F 
ATOM     69  F   UNL A   1      41.586  23.261  26.127  1.00  0.00    -0.200 F 
ATOM     70  C   UNL A   1      43.160  24.900  25.487  1.00  0.00     0.200 A 
ATOM     71  F   UNL A   1      44.731  26.561  24.895  1.00  0.00    -0.200 F 
ATOM     72  F   UNL A   1      43.503  24.173  24.415  1.00  0.00    -0.200 F 
ENDBRANCH  48  62
BRANCH  49  73
ATOM     73  C   UNL A   1      39.514  32.092  35.434  1.00  0.00     0.064 A 
ATOM     74  C   UNL A   1      38.578  31.561  36.333  1.00  0.00     0.173 A 
ATOM     75  C   UNL A   1      39.979  33.395  35.672  1.00  0.00     0.173 A 
ATOM     76  F   UNL A   1      38.083  30.331  36.134  1.00  0.00    -0.203 F 
ATOM     77  C   UNL A   1      38.115  32.307  37.414  1.00  0.00     0.198 A 
ATOM     78  C   UNL A   1      39.537  34.129  36.770  1.00  0.00     0.198 A 
ATOM     79  F   UNL A   1      40.872  33.951  34.841  1.00  0.00    -0.203 F 
ATOM     80  F   UNL A   1      37.186  31.792  38.231  1.00  0.00    -0.200 F 
ATOM     81  C   UNL A   1      38.600  33.588  37.637  1.00  0.00     0.200 A 
ATOM     82  F   UNL A   1      40.018  35.360  36.988  1.00  0.00    -0.200 F 
ATOM     83  F   UNL A   1      38.157  34.302  38.681  1.00  0.00    -0.200 F 
ENDBRANCH  49  73
BRANCH  61  84
ATOM     84  C   UNL A   1      44.541  27.332  34.584  1.00  0.00     0.064 A 
ATOM     85  C   UNL A   1      45.768  27.990  34.750  1.00  0.00     0.173 A 
ATOM     86  C   UNL A   1      44.302  26.178  35.346  1.00  0.00     0.173 A 
ATOM     87  F   UNL A   1      46.048  29.088  34.034  1.00  0.00    -0.203 F 
ATOM     88  C   UNL A   1      46.725  27.499  35.635  1.00  0.00     0.198 A 
ATOM     89  C   UNL A   1      45.251  25.708  36.250  1.00  0.00     0.198 A 
ATOM     90  F   UNL A   1      43.142  25.517  35.227  1.00  0.00    -0.203 F 
ATOM     91  F   UNL A   1      47.907  28.120  35.750  1.00  0.00    -0.200 F 
ATOM     92  C   UNL A   1      46.463  26.366  36.390  1.00  0.00     0.200 A 
ATOM     93  F   UNL A   1      44.989  24.621  36.989  1.00  0.00    -0.200 F 
ATOM     94  F   UNL A   1      47.381  25.903  37.249  1.00  0.00    -0.200 F 
ENDBRANCH  61  84
ENDBRANCH  35  36
ENDBRANCH  28  30
ENDBRANCH  27  28
ENDBRANCH  26  27
ENDBRANCH   1  26
TORSDOF 15
ENDMDL
MODEL 3
REMARK VINA RESULT:     -12.6      1.764      4.421
REMARK SMILES CC(=O)Nc1cccc(NC(=O)N[C@H](C(=O)OCCOC(=O)c2ccc(-c3c4nc(c(-c5c(F)c(F)c(F)c(F)c5F)c5ccc([nH]5)c(-c5c(F)c(F)c(F)c(F)c5F)c5nc(c(-c6c(F)c(F)c(F)c(F)c6F)c6ccc3[nH]6)C=C5)C=C4)cc2)C(C)C)c1
REMARK SMILES IDX 18 1 17 2 15 3 16 4 14 5 13 6 10 7 11 8 12 10 9 12 5 13 6 14
REMARK SMILES IDX 89 15 7 16 8 17 4 18 1 19 2 20 3 21 86 23 87 24 88 25 19 26
REMARK SMILES IDX 20 27 21 28 22 29 23 30 24 31 85 32 25 33 84 34 26 35 27 36
REMARK SMILES IDX 28 37 78 38 29 39 83 40 77 41 79 42 30 43 82 44 76 45 75 46
REMARK SMILES IDX 31 48 63 49 43 50 62 51 44 52 47 53 61 54 80 55 45 56 46 57
REMARK SMILES IDX 60 59 81 60 48 61 32 62 33 63 41 64 34 65 35 66 39 67 42 68
REMARK SMILES IDX 36 69 37 70 40 71 38 72 64 73 65 74 73 75 66 76 67 77 71 78
REMARK SMILES IDX 74 79 68 80 69 81 72 82 70 83 49 84 50 85 58 86 51 87 52 88
REMARK SMILES IDX 56 89 59 90 53 91 54 92 57 93 55 94
REMARK H PARENT 10 9 13 11 4 22 79 47 47 58
REMARK Flexibility Score: inf
ROOT
ATOM      1  C   UNL A   1      31.294  29.479  24.604  1.00  0.00     0.274 C 
ENDROOT
BRANCH   1   2
ATOM      2  O   UNL A   1      31.271  28.575  23.467  1.00  0.00    -0.461 OA
BRANCH   2   3
ATOM      3  C   UNL A   1      30.665  27.401  23.758  1.00  0.00     0.329 C 
ATOM      4  O   UNL A   1      29.447  27.253  23.647  1.00  0.00    -0.250 OA
BRANCH   3   5
ATOM      5  C   UNL A   1      31.569  26.213  24.169  1.00  0.00     0.196 C 
BRANCH   5   6
ATOM      6  N   UNL A   1      33.040  26.162  23.901  1.00  0.00    -0.324 N 
ATOM      7  N   UNL A   1      34.164  24.036  23.520  1.00  0.00    -0.308 N 
ATOM      8  C   UNL A   1      33.667  25.243  23.103  1.00  0.00     0.319 C 
ATOM      9  H   UNL A   1      34.730  23.638  22.820  1.00  0.00     0.171 HD
ATOM     10  O   UNL A   1      34.027  25.628  21.984  1.00  0.00    -0.248 OA
ATOM     11  H   UNL A   1      33.603  26.844  24.334  1.00  0.00     0.166 HD
BRANCH   7  12
ATOM     12  C   UNL A   1      34.109  23.188  24.658  1.00  0.00     0.044 A 
ATOM     13  C   UNL A   1      33.369  21.078  25.646  1.00  0.00     0.043 A 
ATOM     14  C   UNL A   1      33.920  21.453  26.876  1.00  0.00     0.026 A 
ATOM     15  C   UNL A   1      33.480  21.946  24.545  1.00  0.00     0.052 A 
ATOM     16  C   UNL A   1      34.403  22.735  27.044  1.00  0.00     0.004 A 
ATOM     17  C   UNL A   1      34.379  23.612  25.961  1.00  0.00     0.026 A 
BRANCH  13  18
ATOM     18  N   UNL A   1      32.650  19.873  25.667  1.00  0.00    -0.326 N 
ATOM     19  C   UNL A   1      34.056  18.357  24.287  1.00  0.00     0.114 C 
ATOM     20  C   UNL A   1      32.787  18.692  25.010  1.00  0.00     0.221 C 
ATOM     21  O   UNL A   1      31.854  17.887  25.049  1.00  0.00    -0.275 OA
ATOM     22  H   UNL A   1      31.886  19.885  26.288  1.00  0.00     0.169 HD
ENDBRANCH  13  18
ENDBRANCH   7  12
ENDBRANCH   5   6
BRANCH   5  23
ATOM     23  C   UNL A   1      31.313  25.974  25.657  1.00  0.00     0.017 C 
ATOM     24  C   UNL A   1      30.596  24.688  26.102  1.00  0.00     0.010 C 
ATOM     25  C   UNL A   1      32.466  26.449  26.542  1.00  0.00     0.010 C 
ENDBRANCH   5  23
ENDBRANCH   3   5
ENDBRANCH   2   3
ENDBRANCH   1   2
BRANCH   1  26
ATOM     26  C   UNL A   1      32.673  29.679  25.276  1.00  0.00     0.275 C 
BRANCH  26  27
ATOM     27  O   UNL A   1      32.646  29.868  26.709  1.00  0.00    -0.458 OA
BRANCH  27  28
ATOM     28  C   UNL A   1      33.185  31.025  27.153  1.00  0.00     0.338 C 
ATOM     29  O   UNL A   1      32.596  32.093  27.311  1.00  0.00    -0.246 OA
BRANCH  28  30
ATOM     30  C   UNL A   1      34.585  30.843  27.583  1.00  0.00     0.060 A 
ATOM     31  C   UNL A   1      34.992  29.561  27.956  1.00  0.00     0.016 A 
ATOM     32  C   UNL A   1      35.443  31.916  27.780  1.00  0.00     0.016 A 
ATOM     33  C   UNL A   1      36.221  29.326  28.569  1.00  0.00     0.010 A 
ATOM     34  C   UNL A   1      36.689  31.690  28.380  1.00  0.00     0.010 A 
ATOM     35  C   UNL A   1      37.075  30.401  28.806  1.00  0.00    -0.014 A 
BRANCH  35  36
ATOM     36  C   UNL A   1      38.329  30.235  29.581  1.00  0.00     0.031 A 
ATOM     37  C   UNL A   1      39.397  29.331  29.039  1.00  0.00     0.074 A 
ATOM     38  C   UNL A   1      38.489  30.825  30.779  1.00  0.00     0.049 A 
ATOM     39  N   UNL A   1      40.412  28.778  29.651  1.00  0.00    -0.248 NA
ATOM     40  C   UNL A   1      39.293  28.993  27.610  1.00  0.00     0.031 C 
ATOM     41  C   UNL A   1      37.576  31.797  31.376  1.00  0.00     0.029 A 
ATOM     42  N   UNL A   1      39.466  30.651  31.729  1.00  0.00    -0.354 N 
ATOM     43  C   UNL A   1      41.034  27.983  28.698  1.00  0.00     0.074 A 
ATOM     44  C   UNL A   1      40.288  28.130  27.466  1.00  0.00     0.031 C 
ATOM     45  C   UNL A   1      38.011  32.101  32.611  1.00  0.00     0.029 A 
ATOM     46  C   UNL A   1      39.192  31.296  32.911  1.00  0.00     0.049 A 
ATOM     47  H   UNL A   1      40.280  30.119  31.578  1.00  0.00     0.167 HD
ATOM     48  C   UNL A   1      42.124  27.193  28.850  1.00  0.00     0.037 A 
ATOM     49  C   UNL A   1      39.788  31.194  34.116  1.00  0.00     0.037 A 
ATOM     50  C   UNL A   1      42.867  27.075  30.078  1.00  0.00     0.049 A 
ATOM     51  C   UNL A   1      40.952  30.253  34.284  1.00  0.00     0.074 A 
ATOM     52  C   UNL A   1      43.987  26.307  30.341  1.00  0.00     0.029 A 
ATOM     53  N   UNL A   1      42.561  27.751  31.250  1.00  0.00    -0.354 N 
ATOM     54  N   UNL A   1      41.518  29.467  33.401  1.00  0.00    -0.248 NA
ATOM     55  C   UNL A   1      41.555  30.178  35.624  1.00  0.00     0.031 C 
ATOM     56  C   UNL A   1      44.334  26.484  31.684  1.00  0.00     0.029 A 
ATOM     57  C   UNL A   1      43.463  27.407  32.243  1.00  0.00     0.049 A 
ATOM     58  H   UNL A   1      41.813  28.382  31.360  1.00  0.00     0.167 HD
ATOM     59  C   UNL A   1      42.564  28.836  34.062  1.00  0.00     0.074 A 
ATOM     60  C   UNL A   1      42.554  29.329  35.423  1.00  0.00     0.031 C 
ATOM     61  C   UNL A   1      43.453  27.931  33.586  1.00  0.00     0.037 A 
BRANCH  48  62
ATOM     62  C   UNL A   1      42.549  26.361  27.676  1.00  0.00     0.064 A 
ATOM     63  C   UNL A   1      43.539  26.788  26.780  1.00  0.00     0.173 A 
ATOM     64  C   UNL A   1      41.973  25.097  27.462  1.00  0.00     0.173 A 
ATOM     65  F   UNL A   1      44.111  27.993  26.931  1.00  0.00    -0.203 F 
ATOM     66  C   UNL A   1      43.918  25.996  25.699  1.00  0.00     0.198 A 
ATOM     67  C   UNL A   1      42.376  24.295  26.398  1.00  0.00     0.198 A 
ATOM     68  F   UNL A   1      41.025  24.638  28.291  1.00  0.00    -0.203 F 
ATOM     69  F   UNL A   1      44.831  26.446  24.828  1.00  0.00    -0.200 F 
ATOM     70  C   UNL A   1      43.341  24.748  25.513  1.00  0.00     0.200 A 
ATOM     71  F   UNL A   1      41.827  23.084  26.229  1.00  0.00    -0.200 F 
ATOM     72  F   UNL A   1      43.713  23.984  24.476  1.00  0.00    -0.200 F 
ENDBRANCH  48  62
BRANCH  49  73
ATOM     73  C   UNL A   1      39.270  31.977  35.268  1.00  0.00     0.064 A 
ATOM     74  C   UNL A   1      38.458  31.373  36.239  1.00  0.00     0.173 A 
ATOM     75  C   UNL A   1      39.565  33.340  35.422  1.00  0.00     0.173 A 
ATOM     76  F   UNL A   1      38.125  30.080  36.121  1.00  0.00    -0.203 F 
ATOM     77  C   UNL A   1      37.949  32.106  37.308  1.00  0.00     0.198 A 
ATOM     78  C   UNL A   1      39.079  34.065  36.508  1.00  0.00     0.198 A 
ATOM     79  F   UNL A   1      40.334  33.967  34.520  1.00  0.00    -0.203 F 
ATOM     80  F   UNL A   1      37.137  31.514  38.196  1.00  0.00    -0.200 F 
ATOM     81  C   UNL A   1      38.265  33.449  37.446  1.00  0.00     0.200 A 
ATOM     82  F   UNL A   1      39.398  35.358  36.644  1.00  0.00    -0.200 F 
ATOM     83  F   UNL A   1      37.779  34.152  38.479  1.00  0.00    -0.200 F 
ENDBRANCH  49  73
BRANCH  61  84
ATOM     84  C   UNL A   1      44.539  27.469  34.514  1.00  0.00     0.064 A 
ATOM     85  C   UNL A   1      45.741  28.176  34.660  1.00  0.00     0.173 A 
ATOM     86  C   UNL A   1      44.343  26.329  35.311  1.00  0.00     0.173 A 
ATOM     87  F   UNL A   1      45.981  29.261  33.911  1.00  0.00    -0.203 F 
ATOM     88  C   UNL A   1      46.716  27.747  35.558  1.00  0.00     0.198 A 
ATOM     89  C   UNL A   1      45.308  25.921  36.227  1.00  0.00     0.198 A 
ATOM     90  F   UNL A   1      43.208  25.623  35.213  1.00  0.00    -0.203 F 
ATOM     91  F   UNL A   1      47.874  28.414  35.653  1.00  0.00    -0.200 F 
ATOM     92  C   UNL A   1      46.495  26.628  36.346  1.00  0.00     0.200 A 
ATOM     93  F   UNL A   1      45.086  24.848  36.998  1.00  0.00    -0.200 F 
ATOM     94  F   UNL A   1      47.430  26.225  37.217  1.00  0.00    -0.200 F 
ENDBRANCH  61  84
ENDBRANCH  35  36
ENDBRANCH  28  30
ENDBRANCH  27  28
ENDBRANCH  26  27
ENDBRANCH   1  26
TORSDOF 15
ENDMDL
