MODEL 1
REMARK VINA RESULT:     -10.4      0.000      0.000
REMARK SMILES CS(=O)(=O)CCSCc1cc(F)cc(/C=C/C(=O)OCCOC(=O)c2ccc(-c3c4nc(c(-c5c(F)c(F)c(F)c(F)c5F)c5ccc([nH]5)c(-c5c(F)c(F)c(F)c(F)c5F)c5nc(c(-c6c(F)c(F)c(F)c(F)c6F)c6ccc3[nH]6)C=C5)C=C4)cc2)c1
REMARK SMILES IDX 17 1 18 2 16 3 15 4 14 5 9 6 10 7 88 8 11 9 12 10 13 11 8 12
REMARK SMILES IDX 7 13 6 14 5 15 2 16 1 17 3 18 4 19 19 20 20 21 21 22 22 23
REMARK SMILES IDX 23 24 24 25 25 26 26 27 87 28 27 29 86 30 28 31 29 32 30 33
REMARK SMILES IDX 80 34 31 35 85 36 79 37 81 38 32 39 84 40 78 41 77 42 33 44
REMARK SMILES IDX 65 45 45 46 64 47 46 48 49 49 63 50 82 51 47 52 48 53 62 55
REMARK SMILES IDX 83 56 50 57 34 58 35 59 43 60 36 61 37 62 41 63 44 64 38 65
REMARK SMILES IDX 39 66 42 67 40 68 66 69 67 70 75 71 68 72 69 73 73 74 76 75
REMARK SMILES IDX 70 76 71 77 74 78 72 79 51 80 52 81 60 82 53 83 54 84 58 85
REMARK SMILES IDX 61 86 55 87 56 88 59 89 57 90
REMARK H PARENT 81 43 49 54
REMARK Flexibility Score: inf
ROOT
ATOM      1  C   UNL A   1      33.975  34.458  30.806  1.00  0.00     0.330 C 
ATOM      2  O   UNL A   1      32.989  34.995  30.327  1.00  0.00    -0.247 OA
ENDROOT
BRANCH   1   3
ATOM      3  C   UNL A   1      34.651  33.341  30.118  1.00  0.00     0.094 C 
ATOM      4  C   UNL A   1      34.401  32.963  28.854  1.00  0.00     0.016 C 
BRANCH   4   5
ATOM      5  C   UNL A   1      34.940  31.734  28.251  1.00  0.00    -0.022 A 
ATOM      6  C   UNL A   1      34.524  29.599  27.076  1.00  0.00    -0.035 A 
ATOM      7  C   UNL A   1      35.892  29.344  27.169  1.00  0.00     0.043 A 
ATOM      8  C   UNL A   1      34.070  30.822  27.623  1.00  0.00     0.013 A 
ATOM      9  C   UNL A   1      36.751  30.220  27.821  1.00  0.00     0.124 A 
ATOM     10  F   UNL A   1      38.052  29.916  27.916  1.00  0.00    -0.207 F 
ATOM     11  C   UNL A   1      36.291  31.405  28.363  1.00  0.00     0.047 A 
BRANCH   6  12
ATOM     12  C   UNL A   1      33.538  28.748  26.308  1.00  0.00     0.105 C 
BRANCH  12  13
ATOM     13  S   UNL A   1      32.915  29.198  24.666  1.00  0.00    -0.156 SA
BRANCH  13  14
ATOM     14  C   UNL A   1      31.084  29.209  24.710  1.00  0.00     0.086 C 
BRANCH  14  15
ATOM     15  C   UNL A   1      30.288  30.069  23.743  1.00  0.00     0.147 C 
BRANCH  15  16
ATOM     16  S   UNL A   1      29.479  29.260  22.386  1.00  0.00     0.148 S 
ATOM     17  C   UNL A   1      27.812  28.979  22.923  1.00  0.00     0.158 C 
ATOM     18  O   UNL A   1      30.094  27.951  22.259  1.00  0.00    -0.229 OA
ATOM     19  O   UNL A   1      29.448  30.158  21.250  1.00  0.00    -0.229 OA
ENDBRANCH  15  16
ENDBRANCH  14  15
ENDBRANCH  13  14
ENDBRANCH  12  13
ENDBRANCH   6  12
ENDBRANCH   4   5
ENDBRANCH   1   3
BRANCH   1  20
ATOM     20  O   UNL A   1      34.629  34.831  31.930  1.00  0.00    -0.459 OA
BRANCH  20  21
ATOM     21  C   UNL A   1      34.252  34.144  33.136  1.00  0.00     0.275 C 
BRANCH  21  22
ATOM     22  C   UNL A   1      35.494  33.654  33.889  1.00  0.00     0.275 C 
BRANCH  22  23
ATOM     23  O   UNL A   1      36.133  32.550  33.217  1.00  0.00    -0.458 OA
BRANCH  23  24
ATOM     24  C   UNL A   1      37.212  32.032  33.850  1.00  0.00     0.338 C 
ATOM     25  O   UNL A   1      37.360  31.892  35.056  1.00  0.00    -0.246 OA
BRANCH  24  26
ATOM     26  C   UNL A   1      38.193  31.538  32.865  1.00  0.00     0.060 A 
ATOM     27  C   UNL A   1      39.300  30.830  33.340  1.00  0.00     0.016 A 
ATOM     28  C   UNL A   1      38.069  31.819  31.502  1.00  0.00     0.016 A 
ATOM     29  C   UNL A   1      40.288  30.397  32.456  1.00  0.00     0.010 A 
ATOM     30  C   UNL A   1      39.065  31.389  30.615  1.00  0.00     0.010 A 
ATOM     31  C   UNL A   1      40.185  30.682  31.087  1.00  0.00    -0.014 A 
BRANCH  31  32
ATOM     32  C   UNL A   1      41.265  30.260  30.159  1.00  0.00     0.031 A 
ATOM     33  C   UNL A   1      41.229  28.897  29.529  1.00  0.00     0.074 A 
ATOM     34  C   UNL A   1      42.261  31.114  29.859  1.00  0.00     0.049 A 
ATOM     35  N   UNL A   1      42.095  28.336  28.722  1.00  0.00    -0.248 NA
ATOM     36  C   UNL A   1      40.065  28.054  29.843  1.00  0.00     0.031 C 
ATOM     37  C   UNL A   1      42.384  32.476  30.374  1.00  0.00     0.029 A 
ATOM     38  N   UNL A   1      43.355  30.962  29.043  1.00  0.00    -0.354 N 
ATOM     39  C   UNL A   1      41.584  27.078  28.434  1.00  0.00     0.074 A 
ATOM     40  C   UNL A   1      40.345  26.945  29.171  1.00  0.00     0.031 C 
ATOM     41  C   UNL A   1      43.487  33.041  29.855  1.00  0.00     0.029 A 
ATOM     42  C   UNL A   1      44.169  32.068  29.004  1.00  0.00     0.049 A 
ATOM     43  H   UNL A   1      43.540  30.139  28.536  1.00  0.00     0.167 HD
ATOM     44  C   UNL A   1      42.099  26.126  27.620  1.00  0.00     0.037 A 
ATOM     45  C   UNL A   1      45.340  32.269  28.368  1.00  0.00     0.037 A 
ATOM     46  C   UNL A   1      43.326  26.262  26.878  1.00  0.00     0.049 A 
ATOM     47  C   UNL A   1      45.924  31.168  27.525  1.00  0.00     0.074 A 
ATOM     48  C   UNL A   1      43.920  25.350  26.024  1.00  0.00     0.029 A 
ATOM     49  N   UNL A   1      44.145  27.380  26.901  1.00  0.00    -0.354 N 
ATOM     50  N   UNL A   1      45.434  29.982  27.261  1.00  0.00    -0.248 NA
ATOM     51  C   UNL A   1      47.226  31.430  26.895  1.00  0.00     0.031 C 
ATOM     52  C   UNL A   1      45.121  25.898  25.563  1.00  0.00     0.029 A 
ATOM     53  C   UNL A   1      45.251  27.171  26.091  1.00  0.00     0.049 A 
ATOM     54  H   UNL A   1      43.968  28.200  27.416  1.00  0.00     0.167 HD
ATOM     55  C   UNL A   1      46.353  29.366  26.421  1.00  0.00     0.074 A 
ATOM     56  C   UNL A   1      47.425  30.313  26.208  1.00  0.00     0.031 C 
ATOM     57  C   UNL A   1      46.308  28.126  25.879  1.00  0.00     0.037 A 
BRANCH  44  58
ATOM     58  C   UNL A   1      41.347  24.836  27.482  1.00  0.00     0.064 A 
ATOM     59  C   UNL A   1      41.837  23.663  28.074  1.00  0.00     0.173 A 
ATOM     60  C   UNL A   1      40.195  24.743  26.688  1.00  0.00     0.173 A 
ATOM     61  F   UNL A   1      42.939  23.698  28.836  1.00  0.00    -0.203 F 
ATOM     62  C   UNL A   1      41.210  22.438  27.861  1.00  0.00     0.198 A 
ATOM     63  C   UNL A   1      39.558  23.520  26.495  1.00  0.00     0.198 A 
ATOM     64  F   UNL A   1      39.684  25.839  26.109  1.00  0.00    -0.203 F 
ATOM     65  F   UNL A   1      41.716  21.323  28.408  1.00  0.00    -0.200 F 
ATOM     66  C   UNL A   1      40.071  22.368  27.072  1.00  0.00     0.200 A 
ATOM     67  F   UNL A   1      38.447  23.456  25.749  1.00  0.00    -0.200 F 
ATOM     68  F   UNL A   1      39.467  21.188  26.869  1.00  0.00    -0.200 F 
ENDBRANCH  44  58
BRANCH  45  69
ATOM     69  C   UNL A   1      46.041  33.571  28.510  1.00  0.00     0.064 A 
ATOM     70  C   UNL A   1      45.724  34.662  27.686  1.00  0.00     0.173 A 
ATOM     71  C   UNL A   1      47.047  33.748  29.469  1.00  0.00     0.173 A 
ATOM     72  F   UNL A   1      44.764  34.545  26.757  1.00  0.00    -0.203 F 
ATOM     73  C   UNL A   1      46.399  35.874  27.805  1.00  0.00     0.198 A 
ATOM     74  C   UNL A   1      47.704  34.970  29.605  1.00  0.00     0.198 A 
ATOM     75  F   UNL A   1      47.367  32.744  30.298  1.00  0.00    -0.203 F 
ATOM     76  F   UNL A   1      46.096  36.892  26.988  1.00  0.00    -0.200 F 
ATOM     77  C   UNL A   1      47.386  36.029  28.768  1.00  0.00     0.200 A 
ATOM     78  F   UNL A   1      48.636  35.125  30.556  1.00  0.00    -0.200 F 
ATOM     79  F   UNL A   1      48.023  37.201  28.894  1.00  0.00    -0.200 F 
ENDBRANCH  45  69
BRANCH  57  80
ATOM     80  C   UNL A   1      47.437  27.715  24.980  1.00  0.00     0.064 A 
ATOM     81  C   UNL A   1      47.343  27.898  23.592  1.00  0.00     0.173 A 
ATOM     82  C   UNL A   1      48.574  27.067  25.483  1.00  0.00     0.173 A 
ATOM     83  F   UNL A   1      46.271  28.506  23.061  1.00  0.00    -0.203 F 
ATOM     84  C   UNL A   1      48.339  27.433  22.738  1.00  0.00     0.198 A 
ATOM     85  C   UNL A   1      49.581  26.625  24.628  1.00  0.00     0.198 A 
ATOM     86  F   UNL A   1      48.715  26.878  26.803  1.00  0.00    -0.203 F 
ATOM     87  F   UNL A   1      48.213  27.589  21.413  1.00  0.00    -0.200 F 
ATOM     88  C   UNL A   1      49.458  26.799  23.257  1.00  0.00     0.200 A 
ATOM     89  F   UNL A   1      50.671  26.030  25.131  1.00  0.00    -0.200 F 
ATOM     90  F   UNL A   1      50.419  26.356  22.435  1.00  0.00    -0.200 F 
ENDBRANCH  57  80
ENDBRANCH  31  32
ENDBRANCH  24  26
ENDBRANCH  23  24
ENDBRANCH  22  23
ENDBRANCH  21  22
ENDBRANCH  20  21
ENDBRANCH   1  20
TORSDOF 17
ENDMDL
MODEL 2
REMARK VINA RESULT:     -10.4      5.889     11.464
REMARK SMILES CS(=O)(=O)CCSCc1cc(F)cc(/C=C/C(=O)OCCOC(=O)c2ccc(-c3c4nc(c(-c5c(F)c(F)c(F)c(F)c5F)c5ccc([nH]5)c(-c5c(F)c(F)c(F)c(F)c5F)c5nc(c(-c6c(F)c(F)c(F)c(F)c6F)c6ccc3[nH]6)C=C5)C=C4)cc2)c1
REMARK SMILES IDX 17 1 18 2 16 3 15 4 14 5 9 6 10 7 88 8 11 9 12 10 13 11 8 12
REMARK SMILES IDX 7 13 6 14 5 15 2 16 1 17 3 18 4 19 19 20 20 21 21 22 22 23
REMARK SMILES IDX 23 24 24 25 25 26 26 27 87 28 27 29 86 30 28 31 29 32 30 33
REMARK SMILES IDX 80 34 31 35 85 36 79 37 81 38 32 39 84 40 78 41 77 42 33 44
REMARK SMILES IDX 65 45 45 46 64 47 46 48 49 49 63 50 82 51 47 52 48 53 62 55
REMARK SMILES IDX 83 56 50 57 34 58 35 59 43 60 36 61 37 62 41 63 44 64 38 65
REMARK SMILES IDX 39 66 42 67 40 68 66 69 67 70 75 71 68 72 69 73 73 74 76 75
REMARK SMILES IDX 70 76 71 77 74 78 72 79 51 80 52 81 60 82 53 83 54 84 58 85
REMARK SMILES IDX 61 86 55 87 56 88 59 89 57 90
REMARK H PARENT 81 43 49 54
REMARK Flexibility Score: inf
ROOT
ATOM      1  C   UNL A   1      40.473  21.437  26.558  1.00  0.00     0.330 C 
ATOM      2  O   UNL A   1      40.726  21.728  27.716  1.00  0.00    -0.247 OA
ENDROOT
BRANCH   1   3
ATOM      3  C   UNL A   1      39.099  21.097  26.135  1.00  0.00     0.094 C 
ATOM      4  C   UNL A   1      38.211  21.980  25.653  1.00  0.00     0.016 C 
BRANCH   4   5
ATOM      5  C   UNL A   1      36.794  21.663  25.420  1.00  0.00    -0.022 A 
ATOM      6  C   UNL A   1      34.424  22.358  25.552  1.00  0.00    -0.035 A 
ATOM      7  C   UNL A   1      34.083  21.089  25.085  1.00  0.00     0.043 A 
ATOM      8  C   UNL A   1      35.805  22.626  25.703  1.00  0.00     0.013 A 
ATOM      9  C   UNL A   1      35.050  20.121  24.841  1.00  0.00     0.124 A 
ATOM     10  F   UNL A   1      34.671  18.904  24.428  1.00  0.00    -0.207 F 
ATOM     11  C   UNL A   1      36.394  20.392  25.007  1.00  0.00     0.047 A 
BRANCH   6  12
ATOM     12  C   UNL A   1      33.447  23.494  25.753  1.00  0.00     0.105 C 
BRANCH  12  13
ATOM     13  S   UNL A   1      31.696  23.385  25.293  1.00  0.00    -0.156 SA
BRANCH  13  14
ATOM     14  C   UNL A   1      31.555  23.488  23.470  1.00  0.00     0.086 C 
BRANCH  14  15
ATOM     15  C   UNL A   1      31.690  24.821  22.754  1.00  0.00     0.147 C 
BRANCH  15  16
ATOM     16  S   UNL A   1      33.324  25.378  22.338  1.00  0.00     0.148 S 
ATOM     17  C   UNL A   1      33.675  26.707  23.460  1.00  0.00     0.158 C 
ATOM     18  O   UNL A   1      33.233  25.972  21.016  1.00  0.00    -0.229 OA
ATOM     19  O   UNL A   1      34.267  24.308  22.587  1.00  0.00    -0.229 OA
ENDBRANCH  15  16
ENDBRANCH  14  15
ENDBRANCH  13  14
ENDBRANCH  12  13
ENDBRANCH   6  12
ENDBRANCH   4   5
ENDBRANCH   1   3
BRANCH   1  20
ATOM     20  O   UNL A   1      41.332  21.465  25.513  1.00  0.00    -0.459 OA
BRANCH  20  21
ATOM     21  C   UNL A   1      42.630  20.894  25.749  1.00  0.00     0.275 C 
BRANCH  21  22
ATOM     22  C   UNL A   1      43.732  21.912  25.441  1.00  0.00     0.275 C 
BRANCH  22  23
ATOM     23  O   UNL A   1      43.198  23.144  24.916  1.00  0.00    -0.458 OA
BRANCH  23  24
ATOM     24  C   UNL A   1      43.955  24.245  25.136  1.00  0.00     0.338 C 
ATOM     25  O   UNL A   1      44.950  24.591  24.513  1.00  0.00    -0.246 OA
BRANCH  24  26
ATOM     26  C   UNL A   1      43.355  25.075  26.198  1.00  0.00     0.060 A 
ATOM     27  C   UNL A   1      43.831  26.378  26.362  1.00  0.00     0.016 A 
ATOM     28  C   UNL A   1      42.385  24.565  27.066  1.00  0.00     0.016 A 
ATOM     29  C   UNL A   1      43.341  27.180  27.393  1.00  0.00     0.010 A 
ATOM     30  C   UNL A   1      41.897  25.370  28.104  1.00  0.00     0.010 A 
ATOM     31  C   UNL A   1      42.377  26.679  28.279  1.00  0.00    -0.014 A 
BRANCH  31  32
ATOM     32  C   UNL A   1      41.896  27.523  29.403  1.00  0.00     0.031 A 
ATOM     33  C   UNL A   1      42.636  27.533  30.710  1.00  0.00     0.074 A 
ATOM     34  C   UNL A   1      40.812  28.303  29.238  1.00  0.00     0.049 A 
ATOM     35  N   UNL A   1      42.353  28.176  31.815  1.00  0.00    -0.248 NA
ATOM     36  C   UNL A   1      43.858  26.717  30.784  1.00  0.00     0.031 C 
ATOM     37  C   UNL A   1      40.033  28.410  28.006  1.00  0.00     0.029 A 
ATOM     38  N   UNL A   1      40.182  29.157  30.109  1.00  0.00    -0.354 N 
ATOM     39  C   UNL A   1      43.357  27.842  32.714  1.00  0.00     0.074 A 
ATOM     40  C   UNL A   1      44.244  26.921  32.036  1.00  0.00     0.031 C 
ATOM     41  C   UNL A   1      39.034  29.288  28.196  1.00  0.00     0.029 A 
ATOM     42  C   UNL A   1      39.078  29.775  29.573  1.00  0.00     0.049 A 
ATOM     43  H   UNL A   1      40.491  29.312  31.031  1.00  0.00     0.167 HD
ATOM     44  C   UNL A   1      43.527  28.276  33.987  1.00  0.00     0.037 A 
ATOM     45  C   UNL A   1      38.193  30.622  30.133  1.00  0.00     0.037 A 
ATOM     46  C   UNL A   1      42.651  29.202  34.657  1.00  0.00     0.049 A 
ATOM     47  C   UNL A   1      38.367  31.032  31.570  1.00  0.00     0.074 A 
ATOM     48  C   UNL A   1      42.750  29.701  35.945  1.00  0.00     0.029 A 
ATOM     49  N   UNL A   1      41.518  29.769  34.095  1.00  0.00    -0.354 N 
ATOM     50  N   UNL A   1      39.317  30.709  32.412  1.00  0.00    -0.248 NA
ATOM     51  C   UNL A   1      37.342  31.921  32.138  1.00  0.00     0.031 C 
ATOM     52  C   UNL A   1      41.654  30.536  36.177  1.00  0.00     0.029 A 
ATOM     53  C   UNL A   1      40.897  30.596  35.018  1.00  0.00     0.049 A 
ATOM     54  H   UNL A   1      41.200  29.607  33.177  1.00  0.00     0.167 HD
ATOM     55  C   UNL A   1      39.019  31.369  33.597  1.00  0.00     0.074 A 
ATOM     56  C   UNL A   1      37.806  32.121  33.365  1.00  0.00     0.031 C 
ATOM     57  C   UNL A   1      39.694  31.348  34.772  1.00  0.00     0.037 A 
BRANCH  44  58
ATOM     58  C   UNL A   1      44.703  27.754  34.756  1.00  0.00     0.064 A 
ATOM     59  C   UNL A   1      45.932  28.428  34.716  1.00  0.00     0.173 A 
ATOM     60  C   UNL A   1      44.639  26.539  35.453  1.00  0.00     0.173 A 
ATOM     61  F   UNL A   1      46.046  29.590  34.056  1.00  0.00    -0.203 F 
ATOM     62  C   UNL A   1      47.061  27.896  35.332  1.00  0.00     0.198 A 
ATOM     63  C   UNL A   1      45.766  26.020  36.087  1.00  0.00     0.198 A 
ATOM     64  F   UNL A   1      43.484  25.863  35.526  1.00  0.00    -0.203 F 
ATOM     65  F   UNL A   1      48.235  28.539  35.252  1.00  0.00    -0.200 F 
ATOM     66  C   UNL A   1      46.977  26.693  36.018  1.00  0.00     0.200 A 
ATOM     67  F   UNL A   1      45.679  24.868  36.765  1.00  0.00    -0.200 F 
ATOM     68  F   UNL A   1      48.064  26.181  36.612  1.00  0.00    -0.200 F 
ENDBRANCH  44  58
BRANCH  45  69
ATOM     69  C   UNL A   1      37.055  31.136  29.328  1.00  0.00     0.064 A 
ATOM     70  C   UNL A   1      37.035  32.458  28.858  1.00  0.00     0.173 A 
ATOM     71  C   UNL A   1      35.961  30.317  29.017  1.00  0.00     0.173 A 
ATOM     72  F   UNL A   1      38.060  33.281  29.124  1.00  0.00    -0.203 F 
ATOM     73  C   UNL A   1      35.956  32.945  28.124  1.00  0.00     0.198 A 
ATOM     74  C   UNL A   1      34.895  30.797  28.259  1.00  0.00     0.198 A 
ATOM     75  F   UNL A   1      35.948  29.038  29.420  1.00  0.00    -0.203 F 
ATOM     76  F   UNL A   1      35.950  34.219  27.710  1.00  0.00    -0.200 F 
ATOM     77  C   UNL A   1      34.889  32.113  27.821  1.00  0.00     0.200 A 
ATOM     78  F   UNL A   1      33.880  29.981  27.944  1.00  0.00    -0.200 F 
ATOM     79  F   UNL A   1      33.859  32.576  27.100  1.00  0.00    -0.200 F 
ENDBRANCH  45  69
BRANCH  57  80
ATOM     80  C   UNL A   1      39.157  32.178  35.900  1.00  0.00     0.064 A 
ATOM     81  C   UNL A   1      39.577  33.506  36.069  1.00  0.00     0.173 A 
ATOM     82  C   UNL A   1      38.291  31.636  36.861  1.00  0.00     0.173 A 
ATOM     83  F   UNL A   1      40.412  34.069  35.181  1.00  0.00    -0.203 F 
ATOM     84  C   UNL A   1      39.164  34.256  37.166  1.00  0.00     0.198 A 
ATOM     85  C   UNL A   1      37.859  32.397  37.945  1.00  0.00     0.198 A 
ATOM     86  F   UNL A   1      37.852  30.374  36.738  1.00  0.00    -0.203 F 
ATOM     87  F   UNL A   1      39.605  35.511  37.325  1.00  0.00    -0.200 F 
ATOM     88  C   UNL A   1      38.303  33.701  38.102  1.00  0.00     0.200 A 
ATOM     89  F   UNL A   1      37.012  31.866  38.837  1.00  0.00    -0.200 F 
ATOM     90  F   UNL A   1      37.901  34.425  39.155  1.00  0.00    -0.200 F 
ENDBRANCH  57  80
ENDBRANCH  31  32
ENDBRANCH  24  26
ENDBRANCH  23  24
ENDBRANCH  22  23
ENDBRANCH  21  22
ENDBRANCH  20  21
ENDBRANCH   1  20
TORSDOF 17
ENDMDL
MODEL 3
REMARK VINA RESULT:     -10.2      4.962      8.463
REMARK SMILES CS(=O)(=O)CCSCc1cc(F)cc(/C=C/C(=O)OCCOC(=O)c2ccc(-c3c4nc(c(-c5c(F)c(F)c(F)c(F)c5F)c5ccc([nH]5)c(-c5c(F)c(F)c(F)c(F)c5F)c5nc(c(-c6c(F)c(F)c(F)c(F)c6F)c6ccc3[nH]6)C=C5)C=C4)cc2)c1
REMARK SMILES IDX 17 1 18 2 16 3 15 4 14 5 9 6 10 7 88 8 11 9 12 10 13 11 8 12
REMARK SMILES IDX 7 13 6 14 5 15 2 16 1 17 3 18 4 19 19 20 20 21 21 22 22 23
REMARK SMILES IDX 23 24 24 25 25 26 26 27 87 28 27 29 86 30 28 31 29 32 30 33
REMARK SMILES IDX 80 34 31 35 85 36 79 37 81 38 32 39 84 40 78 41 77 42 33 44
REMARK SMILES IDX 65 45 45 46 64 47 46 48 49 49 63 50 82 51 47 52 48 53 62 55
REMARK SMILES IDX 83 56 50 57 34 58 35 59 43 60 36 61 37 62 41 63 44 64 38 65
REMARK SMILES IDX 39 66 42 67 40 68 66 69 67 70 75 71 68 72 69 73 73 74 76 75
REMARK SMILES IDX 70 76 71 77 74 78 72 79 51 80 52 81 60 82 53 83 54 84 58 85
REMARK SMILES IDX 61 86 55 87 56 88 59 89 57 90
REMARK H PARENT 81 43 49 54
REMARK Flexibility Score: inf
ROOT
ATOM      1  C   UNL A   1      31.718  29.864  25.386  1.00  0.00     0.330 C 
ATOM      2  O   UNL A   1      30.797  30.346  24.748  1.00  0.00    -0.247 OA
ENDROOT
BRANCH   1   3
ATOM      3  C   UNL A   1      32.125  28.456  25.201  1.00  0.00     0.094 C 
ATOM      4  C   UNL A   1      33.269  28.065  24.617  1.00  0.00     0.016 C 
BRANCH   4   5
ATOM      5  C   UNL A   1      33.567  26.668  24.269  1.00  0.00    -0.022 A 
ATOM      6  C   UNL A   1      34.672  24.534  24.855  1.00  0.00    -0.035 A 
ATOM      7  C   UNL A   1      34.243  24.037  23.625  1.00  0.00     0.043 A 
ATOM      8  C   UNL A   1      34.307  25.867  25.161  1.00  0.00     0.013 A 
ATOM      9  C   UNL A   1      33.546  24.833  22.723  1.00  0.00     0.124 A 
ATOM     10  F   UNL A   1      33.186  24.322  21.538  1.00  0.00    -0.207 F 
ATOM     11  C   UNL A   1      33.209  26.137  23.029  1.00  0.00     0.047 A 
BRANCH   6  12
ATOM     12  C   UNL A   1      35.351  23.713  25.927  1.00  0.00     0.105 C 
BRANCH  12  13
ATOM     13  S   UNL A   1      35.005  21.952  26.190  1.00  0.00    -0.156 SA
BRANCH  13  14
ATOM     14  C   UNL A   1      33.204  21.732  26.438  1.00  0.00     0.086 C 
BRANCH  14  15
ATOM     15  C   UNL A   1      32.441  22.608  27.417  1.00  0.00     0.147 C 
BRANCH  15  16
ATOM     16  S   UNL A   1      31.113  23.600  26.782  1.00  0.00     0.148 S 
ATOM     17  C   UNL A   1      30.988  23.187  25.061  1.00  0.00     0.158 C 
ATOM     18  O   UNL A   1      31.564  24.979  26.840  1.00  0.00    -0.229 OA
ATOM     19  O   UNL A   1      29.880  23.214  27.436  1.00  0.00    -0.229 OA
ENDBRANCH  15  16
ENDBRANCH  14  15
ENDBRANCH  13  14
ENDBRANCH  12  13
ENDBRANCH   6  12
ENDBRANCH   4   5
ENDBRANCH   1   3
BRANCH   1  20
ATOM     20  O   UNL A   1      32.532  30.517  26.247  1.00  0.00    -0.459 OA
BRANCH  20  21
ATOM     21  C   UNL A   1      31.904  31.510  27.076  1.00  0.00     0.275 C 
BRANCH  21  22
ATOM     22  C   UNL A   1      32.865  32.673  27.346  1.00  0.00     0.275 C 
BRANCH  22  23
ATOM     23  O   UNL A   1      32.181  33.826  27.877  1.00  0.00    -0.458 OA
BRANCH  23  24
ATOM     24  C   UNL A   1      32.972  34.736  28.493  1.00  0.00     0.338 C 
ATOM     25  O   UNL A   1      32.736  35.925  28.657  1.00  0.00    -0.246 OA
BRANCH  24  26
ATOM     26  C   UNL A   1      34.161  34.076  29.064  1.00  0.00     0.060 A 
ATOM     27  C   UNL A   1      33.968  33.147  30.091  1.00  0.00     0.016 A 
ATOM     28  C   UNL A   1      35.454  34.408  28.651  1.00  0.00     0.016 A 
ATOM     29  C   UNL A   1      35.064  32.544  30.707  1.00  0.00     0.010 A 
ATOM     30  C   UNL A   1      36.555  33.806  29.274  1.00  0.00     0.010 A 
ATOM     31  C   UNL A   1      36.368  32.876  30.311  1.00  0.00    -0.014 A 
BRANCH  31  32
ATOM     32  C   UNL A   1      37.530  32.265  31.005  1.00  0.00     0.031 A 
ATOM     33  C   UNL A   1      38.325  31.180  30.335  1.00  0.00     0.074 A 
ATOM     34  C   UNL A   1      37.890  32.708  32.224  1.00  0.00     0.049 A 
ATOM     35  N   UNL A   1      39.349  30.503  30.792  1.00  0.00    -0.248 NA
ATOM     36  C   UNL A   1      37.919  30.810  28.971  1.00  0.00     0.031 C 
ATOM     37  C   UNL A   1      37.223  33.780  32.959  1.00  0.00     0.029 A 
ATOM     38  N   UNL A   1      38.908  32.312  33.056  1.00  0.00    -0.354 N 
ATOM     39  C   UNL A   1      39.707  29.628  29.776  1.00  0.00     0.074 A 
ATOM     40  C   UNL A   1      38.778  29.841  28.687  1.00  0.00     0.031 C 
ATOM     41  C   UNL A   1      37.855  33.966  34.130  1.00  0.00     0.029 A 
ATOM     42  C   UNL A   1      38.946  32.999  34.245  1.00  0.00     0.049 A 
ATOM     43  H   UNL A   1      39.550  31.603  32.823  1.00  0.00     0.167 HD
ATOM     44  C   UNL A   1      40.728  28.737  29.753  1.00  0.00     0.037 A 
ATOM     45  C   UNL A   1      39.755  32.855  35.312  1.00  0.00     0.037 A 
ATOM     46  C   UNL A   1      41.659  28.535  30.832  1.00  0.00     0.049 A 
ATOM     47  C   UNL A   1      40.836  31.809  35.286  1.00  0.00     0.074 A 
ATOM     48  C   UNL A   1      42.727  27.656  30.893  1.00  0.00     0.029 A 
ATOM     49  N   UNL A   1      41.635  29.218  32.038  1.00  0.00    -0.354 N 
ATOM     50  N   UNL A   1      41.166  30.985  34.322  1.00  0.00    -0.248 NA
ATOM     51  C   UNL A   1      41.656  31.667  36.499  1.00  0.00     0.031 C 
ATOM     52  C   UNL A   1      43.324  27.777  32.151  1.00  0.00     0.029 A 
ATOM     53  C   UNL A   1      42.658  28.765  32.857  1.00  0.00     0.049 A 
ATOM     54  H   UNL A   1      40.988  29.920  32.278  1.00  0.00     0.167 HD
ATOM     55  C   UNL A   1      42.239  30.245  34.800  1.00  0.00     0.074 A 
ATOM     56  C   UNL A   1      42.516  30.724  36.137  1.00  0.00     0.031 C 
ATOM     57  C   UNL A   1      42.930  29.256  34.183  1.00  0.00     0.037 A 
BRANCH  44  58
ATOM     58  C   UNL A   1      40.899  27.897  28.523  1.00  0.00     0.064 A 
ATOM     59  C   UNL A   1      41.675  28.361  27.451  1.00  0.00     0.173 A 
ATOM     60  C   UNL A   1      40.220  26.681  28.368  1.00  0.00     0.173 A 
ATOM     61  F   UNL A   1      42.338  29.522  27.547  1.00  0.00    -0.203 F 
ATOM     62  C   UNL A   1      41.751  27.644  26.260  1.00  0.00     0.198 A 
ATOM     63  C   UNL A   1      40.316  25.955  27.183  1.00  0.00     0.198 A 
ATOM     64  F   UNL A   1      39.473  26.193  29.369  1.00  0.00    -0.203 F 
ATOM     65  F   UNL A   1      42.471  28.122  25.234  1.00  0.00    -0.200 F 
ATOM     66  C   UNL A   1      41.072  26.441  26.127  1.00  0.00     0.200 A 
ATOM     67  F   UNL A   1      39.675  24.784  27.063  1.00  0.00    -0.200 F 
ATOM     68  F   UNL A   1      41.147  25.751  24.981  1.00  0.00    -0.200 F 
ENDBRANCH  44  58
BRANCH  45  69
ATOM     69  C   UNL A   1      39.567  33.725  36.502  1.00  0.00     0.064 A 
ATOM     70  C   UNL A   1      40.187  34.981  36.590  1.00  0.00     0.173 A 
ATOM     71  C   UNL A   1      38.769  33.315  37.578  1.00  0.00     0.173 A 
ATOM     72  F   UNL A   1      40.957  35.422  35.583  1.00  0.00    -0.203 F 
ATOM     73  C   UNL A   1      40.029  35.784  37.716  1.00  0.00     0.198 A 
ATOM     74  C   UNL A   1      38.590  34.132  38.693  1.00  0.00     0.198 A 
ATOM     75  F   UNL A   1      38.134  32.135  37.529  1.00  0.00    -0.203 F 
ATOM     76  F   UNL A   1      40.654  36.967  37.786  1.00  0.00    -0.200 F 
ATOM     77  C   UNL A   1      39.227  35.361  38.765  1.00  0.00     0.200 A 
ATOM     78  F   UNL A   1      37.791  33.732  39.692  1.00  0.00    -0.200 F 
ATOM     79  F   UNL A   1      39.061  36.142  39.841  1.00  0.00    -0.200 F 
ENDBRANCH  45  69
BRANCH  57  80
ATOM     80  C   UNL A   1      44.071  28.632  34.929  1.00  0.00     0.064 A 
ATOM     81  C   UNL A   1      43.859  27.513  35.748  1.00  0.00     0.173 A 
ATOM     82  C   UNL A   1      45.357  29.190  34.899  1.00  0.00     0.173 A 
ATOM     83  F   UNL A   1      42.643  26.947  35.818  1.00  0.00    -0.203 F 
ATOM     84  C   UNL A   1      44.887  26.984  36.522  1.00  0.00     0.198 A 
ATOM     85  C   UNL A   1      46.392  28.643  35.656  1.00  0.00     0.198 A 
ATOM     86  F   UNL A   1      45.614  30.253  34.123  1.00  0.00    -0.203 F 
ATOM     87  F   UNL A   1      44.653  25.935  37.323  1.00  0.00    -0.200 F 
ATOM     88  C   UNL A   1      46.154  27.548  36.473  1.00  0.00     0.200 A 
ATOM     89  F   UNL A   1      47.619  29.176  35.592  1.00  0.00    -0.200 F 
ATOM     90  F   UNL A   1      47.145  27.035  37.215  1.00  0.00    -0.200 F 
ENDBRANCH  57  80
ENDBRANCH  31  32
ENDBRANCH  24  26
ENDBRANCH  23  24
ENDBRANCH  22  23
ENDBRANCH  21  22
ENDBRANCH  20  21
ENDBRANCH   1  20
TORSDOF 17
ENDMDL
