MODEL 1
REMARK VINA RESULT:     -11.4      0.000      0.000
REMARK SMILES CC[N@@H+]1CCO[C@@H](Cn2cc(C(=O)OCCOC(=O)c3ccc(-c4c5nc(c(-c6c(F)c(F)c(F)c(F)c6F)c6ccc([nH]6)c(-c6c(F)c(F)c(F)c(F)c6F)c6nc(c(-c7c(F)c(F)c(F)c(F)c7F)c7ccc4[nH]7)C=C6)C=C5)cc3)nn2)C1
REMARK SMILES IDX 15 1 14 2 12 3 13 4 11 5 9 6 10 7 84 8 83 9 8 10 7 11 3 12
REMARK SMILES IDX 4 13 85 14 5 16 6 17 2 18 1 19 16 20 17 21 18 22 19 23 20 24
REMARK SMILES IDX 21 25 82 26 22 27 81 28 23 29 24 30 25 31 75 32 26 33 80 34
REMARK SMILES IDX 74 35 76 36 27 37 79 38 73 39 72 40 28 42 60 43 40 44 59 45
REMARK SMILES IDX 41 46 44 47 58 48 77 49 42 50 43 51 57 53 78 54 45 55 29 56
REMARK SMILES IDX 30 57 38 58 31 59 32 60 36 61 39 62 33 63 34 64 37 65 35 66
REMARK SMILES IDX 61 67 62 68 70 69 63 70 64 71 68 72 71 73 65 74 66 75 69 76
REMARK SMILES IDX 67 77 46 78 47 79 55 80 48 81 49 82 53 83 56 84 50 85 51 86
REMARK SMILES IDX 54 87 52 88
REMARK H PARENT 3 15 76 41 44 52
REMARK Flexibility Score: inf
ROOT
ATOM      1  C   UNL A   1      41.857  20.015  26.689  1.00  0.00     0.275 C 
ENDROOT
BRANCH   1   2
ATOM      2  O   UNL A   1      42.357  19.673  25.385  1.00  0.00    -0.457 OA
BRANCH   2   3
ATOM      3  C   UNL A   1      43.587  19.052  25.373  1.00  0.00     0.360 C 
ATOM      4  O   UNL A   1      43.753  17.870  25.588  1.00  0.00    -0.244 OA
BRANCH   3   5
ATOM      5  C   UNL A   1      44.660  19.965  24.992  1.00  0.00     0.190 A 
ATOM      6  N   UNL A   1      45.863  21.649  24.365  1.00  0.00    -0.249 N 
ATOM      7  C   UNL A   1      44.574  21.200  24.384  1.00  0.00     0.147 A 
ATOM      8  N   UNL A   1      46.714  20.702  24.791  1.00  0.00    -0.066 NA
ATOM      9  N   UNL A   1      45.989  19.666  25.193  1.00  0.00    -0.123 NA
BRANCH   6  10
ATOM     10  C   UNL A   1      46.304  23.027  24.294  1.00  0.00     0.184 C 
BRANCH  10  11
ATOM     11  C   UNL A   1      45.640  23.881  25.380  1.00  0.00     0.194 C 
ATOM     12  N   UNL A   1      46.033  25.164  27.517  1.00  0.00    -0.331 N 
ATOM     13  C   UNL A   1      45.160  26.199  26.957  1.00  0.00     0.291 C 
ATOM     14  C   UNL A   1      46.648  24.363  26.453  1.00  0.00     0.296 C 
ATOM     15  H   UNL A   1      46.788  25.668  27.982  1.00  0.00     0.348 HD
ATOM     16  C   UNL A   1      44.272  25.758  25.776  1.00  0.00     0.222 C 
ATOM     17  O   UNL A   1      44.998  25.020  24.778  1.00  0.00    -0.365 OA
BRANCH  12  18
ATOM     18  C   UNL A   1      45.515  24.411  28.658  1.00  0.00     0.258 C 
ATOM     19  C   UNL A   1      45.109  25.167  29.917  1.00  0.00     0.071 C 
ENDBRANCH  12  18
ENDBRANCH  10  11
ENDBRANCH   6  10
ENDBRANCH   3   5
ENDBRANCH   2   3
ENDBRANCH   1   2
BRANCH   1  20
ATOM     20  C   UNL A   1      40.469  20.643  26.595  1.00  0.00     0.275 C 
BRANCH  20  21
ATOM     21  O   UNL A   1      40.386  21.814  27.406  1.00  0.00    -0.458 OA
BRANCH  21  22
ATOM     22  C   UNL A   1      39.699  22.845  26.864  1.00  0.00     0.338 C 
ATOM     23  O   UNL A   1      38.652  22.777  26.240  1.00  0.00    -0.246 OA
BRANCH  22  24
ATOM     24  C   UNL A   1      40.495  24.071  26.968  1.00  0.00     0.060 A 
ATOM     25  C   UNL A   1      41.400  24.156  28.032  1.00  0.00     0.016 A 
ATOM     26  C   UNL A   1      40.084  25.200  26.248  1.00  0.00     0.016 A 
ATOM     27  C   UNL A   1      41.710  25.404  28.528  1.00  0.00     0.010 A 
ATOM     28  C   UNL A   1      40.374  26.440  26.757  1.00  0.00     0.010 A 
ATOM     29  C   UNL A   1      41.103  26.517  27.943  1.00  0.00    -0.014 A 
BRANCH  29  30
ATOM     30  C   UNL A   1      41.182  27.788  28.629  1.00  0.00     0.031 A 
ATOM     31  C   UNL A   1      42.311  28.656  28.220  1.00  0.00     0.074 A 
ATOM     32  C   UNL A   1      40.178  28.182  29.436  1.00  0.00     0.049 A 
ATOM     33  N   UNL A   1      43.226  29.190  28.959  1.00  0.00    -0.248 NA
ATOM     34  C   UNL A   1      42.492  28.885  26.777  1.00  0.00     0.031 C 
ATOM     35  C   UNL A   1      38.871  27.542  29.637  1.00  0.00     0.029 A 
ATOM     36  N   UNL A   1      40.069  29.325  30.159  1.00  0.00    -0.354 N 
ATOM     37  C   UNL A   1      44.023  29.936  28.095  1.00  0.00     0.074 A 
ATOM     38  C   UNL A   1      43.612  29.603  26.757  1.00  0.00     0.031 C 
ATOM     39  C   UNL A   1      38.034  28.423  30.231  1.00  0.00     0.029 A 
ATOM     40  C   UNL A   1      38.777  29.629  30.556  1.00  0.00     0.049 A 
ATOM     41  H   UNL A   1      40.843  29.891  30.381  1.00  0.00     0.167 HD
ATOM     42  C   UNL A   1      44.837  30.928  28.541  1.00  0.00     0.037 A 
ATOM     43  C   UNL A   1      38.353  30.831  31.013  1.00  0.00     0.037 A 
ATOM     44  C   UNL A   1      45.096  30.809  29.950  1.00  0.00     0.049 A 
ATOM     45  C   UNL A   1      39.557  31.610  31.409  1.00  0.00     0.074 A 
ATOM     46  C   UNL A   1      45.724  29.862  30.734  1.00  0.00     0.029 A 
ATOM     47  N   UNL A   1      44.378  31.594  30.815  1.00  0.00    -0.354 N 
ATOM     48  N   UNL A   1      40.321  31.312  32.423  1.00  0.00    -0.248 NA
ATOM     49  C   UNL A   1      40.170  32.458  30.395  1.00  0.00     0.031 C 
ATOM     50  C   UNL A   1      44.973  29.828  31.945  1.00  0.00     0.029 A 
ATOM     51  C   UNL A   1      43.960  30.781  31.839  1.00  0.00     0.049 A 
ATOM     52  H   UNL A   1      44.196  32.557  30.720  1.00  0.00     0.167 HD
ATOM     53  C   UNL A   1      41.611  31.587  31.992  1.00  0.00     0.074 A 
ATOM     54  C   UNL A   1      41.449  32.365  30.768  1.00  0.00     0.031 C 
ATOM     55  C   UNL A   1      42.687  30.919  32.504  1.00  0.00     0.037 A 
BRANCH  42  56
ATOM     56  C   UNL A   1      45.147  32.178  27.763  1.00  0.00     0.064 A 
ATOM     57  C   UNL A   1      46.409  32.319  27.154  1.00  0.00     0.173 A 
ATOM     58  C   UNL A   1      44.364  33.352  27.830  1.00  0.00     0.173 A 
ATOM     59  F   UNL A   1      47.244  31.274  27.061  1.00  0.00    -0.203 F 
ATOM     60  C   UNL A   1      46.875  33.558  26.708  1.00  0.00     0.198 A 
ATOM     61  C   UNL A   1      44.809  34.573  27.329  1.00  0.00     0.198 A 
ATOM     62  F   UNL A   1      43.194  33.391  28.479  1.00  0.00    -0.203 F 
ATOM     63  F   UNL A   1      48.129  33.669  26.248  1.00  0.00    -0.200 F 
ATOM     64  C   UNL A   1      46.077  34.684  26.798  1.00  0.00     0.200 A 
ATOM     65  F   UNL A   1      44.028  35.655  27.442  1.00  0.00    -0.200 F 
ATOM     66  F   UNL A   1      46.543  35.882  26.424  1.00  0.00    -0.200 F 
ENDBRANCH  42  56
BRANCH  43  67
ATOM     67  C   UNL A   1      37.032  31.463  30.784  1.00  0.00     0.064 A 
ATOM     68  C   UNL A   1      36.158  31.728  31.849  1.00  0.00     0.173 A 
ATOM     69  C   UNL A   1      36.706  32.052  29.545  1.00  0.00     0.173 A 
ATOM     70  F   UNL A   1      36.423  31.248  33.072  1.00  0.00    -0.203 F 
ATOM     71  C   UNL A   1      35.032  32.543  31.686  1.00  0.00     0.198 A 
ATOM     72  C   UNL A   1      35.578  32.856  29.381  1.00  0.00     0.198 A 
ATOM     73  F   UNL A   1      37.526  31.936  28.490  1.00  0.00    -0.203 F 
ATOM     74  F   UNL A   1      34.249  32.820  32.738  1.00  0.00    -0.200 F 
ATOM     75  C   UNL A   1      34.747  33.111  30.454  1.00  0.00     0.200 A 
ATOM     76  F   UNL A   1      35.336  33.427  28.193  1.00  0.00    -0.200 F 
ATOM     77  F   UNL A   1      33.699  33.934  30.311  1.00  0.00    -0.200 F 
ENDBRANCH  43  67
BRANCH  55  78
ATOM     78  C   UNL A   1      42.460  30.041  33.702  1.00  0.00     0.064 A 
ATOM     79  C   UNL A   1      42.049  28.700  33.613  1.00  0.00     0.173 A 
ATOM     80  C   UNL A   1      42.839  30.516  34.963  1.00  0.00     0.173 A 
ATOM     81  F   UNL A   1      41.773  28.142  32.430  1.00  0.00    -0.203 F 
ATOM     82  C   UNL A   1      41.982  27.886  34.743  1.00  0.00     0.198 A 
ATOM     83  C   UNL A   1      42.808  29.692  36.084  1.00  0.00     0.198 A 
ATOM     84  F   UNL A   1      43.300  31.771  35.098  1.00  0.00    -0.203 F 
ATOM     85  F   UNL A   1      41.582  26.611  34.630  1.00  0.00    -0.200 F 
ATOM     86  C   UNL A   1      42.372  28.381  35.976  1.00  0.00     0.200 A 
ATOM     87  F   UNL A   1      43.234  30.157  37.267  1.00  0.00    -0.200 F 
ATOM     88  F   UNL A   1      42.355  27.585  37.055  1.00  0.00    -0.200 F 
ENDBRANCH  55  78
ENDBRANCH  29  30
ENDBRANCH  22  24
ENDBRANCH  21  22
ENDBRANCH  20  21
ENDBRANCH   1  20
TORSDOF 14
ENDMDL
MODEL 2
REMARK VINA RESULT:     -11.0      4.443     11.253
REMARK SMILES CC[N@@H+]1CCO[C@@H](Cn2cc(C(=O)OCCOC(=O)c3ccc(-c4c5nc(c(-c6c(F)c(F)c(F)c(F)c6F)c6ccc([nH]6)c(-c6c(F)c(F)c(F)c(F)c6F)c6nc(c(-c7c(F)c(F)c(F)c(F)c7F)c7ccc4[nH]7)C=C6)C=C5)cc3)nn2)C1
REMARK SMILES IDX 15 1 14 2 12 3 13 4 11 5 9 6 10 7 84 8 83 9 8 10 7 11 3 12
REMARK SMILES IDX 4 13 85 14 5 16 6 17 2 18 1 19 16 20 17 21 18 22 19 23 20 24
REMARK SMILES IDX 21 25 82 26 22 27 81 28 23 29 24 30 25 31 75 32 26 33 80 34
REMARK SMILES IDX 74 35 76 36 27 37 79 38 73 39 72 40 28 42 60 43 40 44 59 45
REMARK SMILES IDX 41 46 44 47 58 48 77 49 42 50 43 51 57 53 78 54 45 55 29 56
REMARK SMILES IDX 30 57 38 58 31 59 32 60 36 61 39 62 33 63 34 64 37 65 35 66
REMARK SMILES IDX 61 67 62 68 70 69 63 70 64 71 68 72 71 73 65 74 66 75 69 76
REMARK SMILES IDX 67 77 46 78 47 79 55 80 48 81 49 82 53 83 56 84 50 85 51 86
REMARK SMILES IDX 54 87 52 88
REMARK H PARENT 3 15 76 41 44 52
REMARK Flexibility Score: inf
ROOT
ATOM      1  C   UNL A   1      33.280  35.087  28.714  1.00  0.00     0.275 C 
ENDROOT
BRANCH   1   2
ATOM      2  O   UNL A   1      32.690  35.084  30.026  1.00  0.00    -0.457 OA
BRANCH   2   3
ATOM      3  C   UNL A   1      33.140  36.074  30.873  1.00  0.00     0.360 C 
ATOM      4  O   UNL A   1      32.900  37.253  30.728  1.00  0.00    -0.244 OA
BRANCH   3   5
ATOM      5  C   UNL A   1      33.874  35.531  32.012  1.00  0.00     0.190 A 
ATOM      6  N   UNL A   1      34.873  34.278  33.465  1.00  0.00    -0.249 N 
ATOM      7  C   UNL A   1      33.994  34.219  32.421  1.00  0.00     0.147 A 
ATOM      8  N   UNL A   1      35.163  35.549  33.785  1.00  0.00    -0.066 NA
ATOM      9  N   UNL A   1      34.568  36.330  32.892  1.00  0.00    -0.123 NA
BRANCH   6  10
ATOM     10  C   UNL A   1      35.715  33.207  33.956  1.00  0.00     0.184 C 
BRANCH  10  11
ATOM     11  C   UNL A   1      37.200  33.533  33.761  1.00  0.00     0.194 C 
ATOM     12  N   UNL A   1      39.531  32.568  33.709  1.00  0.00    -0.331 N 
ATOM     13  C   UNL A   1      39.766  33.419  32.539  1.00  0.00     0.291 C 
ATOM     14  C   UNL A   1      38.102  32.279  33.869  1.00  0.00     0.296 C 
ATOM     15  H   UNL A   1      39.991  31.682  33.498  1.00  0.00     0.348 HD
ATOM     16  C   UNL A   1      38.766  34.575  32.341  1.00  0.00     0.222 C 
ATOM     17  O   UNL A   1      37.397  34.157  32.478  1.00  0.00    -0.365 OA
BRANCH  12  18
ATOM     18  C   UNL A   1      40.248  32.918  34.934  1.00  0.00     0.258 C 
ATOM     19  C   UNL A   1      40.578  31.818  35.935  1.00  0.00     0.071 C 
ENDBRANCH  12  18
ENDBRANCH  10  11
ENDBRANCH   6  10
ENDBRANCH   3   5
ENDBRANCH   2   3
ENDBRANCH   1   2
BRANCH   1  20
ATOM     20  C   UNL A   1      33.588  33.666  28.249  1.00  0.00     0.275 C 
BRANCH  20  21
ATOM     21  O   UNL A   1      34.842  33.224  28.766  1.00  0.00    -0.458 OA
BRANCH  21  22
ATOM     22  C   UNL A   1      35.253  32.013  28.328  1.00  0.00     0.338 C 
ATOM     23  O   UNL A   1      34.776  31.368  27.408  1.00  0.00    -0.246 OA
BRANCH  22  24
ATOM     24  C   UNL A   1      36.259  31.477  29.249  1.00  0.00     0.060 A 
ATOM     25  C   UNL A   1      37.368  32.284  29.525  1.00  0.00     0.016 A 
ATOM     26  C   UNL A   1      36.253  30.103  29.522  1.00  0.00     0.016 A 
ATOM     27  C   UNL A   1      38.558  31.672  29.854  1.00  0.00     0.010 A 
ATOM     28  C   UNL A   1      37.443  29.492  29.827  1.00  0.00     0.010 A 
ATOM     29  C   UNL A   1      38.593  30.276  29.893  1.00  0.00    -0.014 A 
BRANCH  29  30
ATOM     30  C   UNL A   1      39.881  29.619  29.943  1.00  0.00     0.031 A 
ATOM     31  C   UNL A   1      40.473  29.493  31.295  1.00  0.00     0.074 A 
ATOM     32  C   UNL A   1      40.375  29.022  28.841  1.00  0.00     0.049 A 
ATOM     33  N   UNL A   1      41.634  29.883  31.706  1.00  0.00    -0.248 NA
ATOM     34  C   UNL A   1      39.615  28.933  32.353  1.00  0.00     0.031 C 
ATOM     35  C   UNL A   1      39.708  28.805  27.550  1.00  0.00     0.029 A 
ATOM     36  N   UNL A   1      41.551  28.363  28.688  1.00  0.00    -0.354 N 
ATOM     37  C   UNL A   1      41.711  29.498  33.041  1.00  0.00     0.074 A 
ATOM     38  C   UNL A   1      40.399  29.046  33.421  1.00  0.00     0.031 C 
ATOM     39  C   UNL A   1      40.394  27.873  26.849  1.00  0.00     0.029 A 
ATOM     40  C   UNL A   1      41.597  27.525  27.586  1.00  0.00     0.049 A 
ATOM     41  H   UNL A   1      42.307  28.470  29.309  1.00  0.00     0.167 HD
ATOM     42  C   UNL A   1      42.899  29.390  33.693  1.00  0.00     0.037 A 
ATOM     43  C   UNL A   1      42.510  26.547  27.373  1.00  0.00     0.037 A 
ATOM     44  C   UNL A   1      43.942  30.112  33.017  1.00  0.00     0.049 A 
ATOM     45  C   UNL A   1      43.662  26.806  28.279  1.00  0.00     0.074 A 
ATOM     46  C   UNL A   1      44.155  31.445  32.727  1.00  0.00     0.029 A 
ATOM     47  N   UNL A   1      44.807  29.412  32.215  1.00  0.00    -0.354 N 
ATOM     48  N   UNL A   1      44.476  27.818  28.156  1.00  0.00    -0.248 NA
ATOM     49  C   UNL A   1      43.630  26.188  29.598  1.00  0.00     0.031 C 
ATOM     50  C   UNL A   1      44.772  31.449  31.442  1.00  0.00     0.029 A 
ATOM     51  C   UNL A   1      44.931  30.121  31.046  1.00  0.00     0.049 A 
ATOM     52  H   UNL A   1      45.253  28.563  32.435  1.00  0.00     0.167 HD
ATOM     53  C   UNL A   1      44.751  28.215  29.458  1.00  0.00     0.074 A 
ATOM     54  C   UNL A   1      44.269  27.127  30.301  1.00  0.00     0.031 C 
ATOM     55  C   UNL A   1      45.080  29.509  29.748  1.00  0.00     0.037 A 
BRANCH  42  56
ATOM     56  C   UNL A   1      43.180  28.380  34.772  1.00  0.00     0.064 A 
ATOM     57  C   UNL A   1      43.614  28.821  36.036  1.00  0.00     0.173 A 
ATOM     58  C   UNL A   1      43.310  26.995  34.528  1.00  0.00     0.173 A 
ATOM     59  F   UNL A   1      43.559  30.120  36.364  1.00  0.00    -0.203 F 
ATOM     60  C   UNL A   1      44.197  27.948  36.958  1.00  0.00     0.198 A 
ATOM     61  C   UNL A   1      43.837  26.119  35.473  1.00  0.00     0.198 A 
ATOM     62  F   UNL A   1      43.042  26.454  33.333  1.00  0.00    -0.203 F 
ATOM     63  F   UNL A   1      44.708  28.432  38.099  1.00  0.00    -0.200 F 
ATOM     64  C   UNL A   1      44.311  26.599  36.676  1.00  0.00     0.200 A 
ATOM     65  F   UNL A   1      43.954  24.818  35.173  1.00  0.00    -0.200 F 
ATOM     66  F   UNL A   1      44.920  25.772  37.534  1.00  0.00    -0.200 F 
ENDBRANCH  42  56
BRANCH  43  67
ATOM     67  C   UNL A   1      42.285  25.236  26.721  1.00  0.00     0.064 A 
ATOM     68  C   UNL A   1      43.062  24.824  25.628  1.00  0.00     0.173 A 
ATOM     69  C   UNL A   1      41.474  24.250  27.319  1.00  0.00     0.173 A 
ATOM     70  F   UNL A   1      43.899  25.688  25.035  1.00  0.00    -0.203 F 
ATOM     71  C   UNL A   1      43.035  23.503  25.166  1.00  0.00     0.198 A 
ATOM     72  C   UNL A   1      41.441  22.936  26.852  1.00  0.00     0.198 A 
ATOM     73  F   UNL A   1      40.766  24.517  28.426  1.00  0.00    -0.203 F 
ATOM     74  F   UNL A   1      43.831  23.133  24.153  1.00  0.00    -0.200 F 
ATOM     75  C   UNL A   1      42.230  22.559  25.783  1.00  0.00     0.200 A 
ATOM     76  F   UNL A   1      40.684  22.026  27.482  1.00  0.00    -0.200 F 
ATOM     77  F   UNL A   1      42.244  21.282  25.376  1.00  0.00    -0.200 F 
ENDBRANCH  43  67
BRANCH  55  78
ATOM     78  C   UNL A   1      45.356  30.436  28.599  1.00  0.00     0.064 A 
ATOM     79  C   UNL A   1      44.365  31.218  27.980  1.00  0.00     0.173 A 
ATOM     80  C   UNL A   1      46.686  30.673  28.232  1.00  0.00     0.173 A 
ATOM     81  F   UNL A   1      43.084  31.128  28.353  1.00  0.00    -0.203 F 
ATOM     82  C   UNL A   1      44.690  32.164  27.009  1.00  0.00     0.198 A 
ATOM     83  C   UNL A   1      47.012  31.643  27.289  1.00  0.00     0.198 A 
ATOM     84  F   UNL A   1      47.679  29.999  28.835  1.00  0.00    -0.203 F 
ATOM     85  F   UNL A   1      43.724  32.893  26.431  1.00  0.00    -0.200 F 
ATOM     86  C   UNL A   1      46.015  32.382  26.672  1.00  0.00     0.200 A 
ATOM     87  F   UNL A   1      48.298  31.888  27.002  1.00  0.00    -0.200 F 
ATOM     88  F   UNL A   1      46.333  33.325  25.774  1.00  0.00    -0.200 F 
ENDBRANCH  55  78
ENDBRANCH  29  30
ENDBRANCH  22  24
ENDBRANCH  21  22
ENDBRANCH  20  21
ENDBRANCH   1  20
TORSDOF 14
ENDMDL
MODEL 3
REMARK VINA RESULT:     -10.9      1.127      1.867
REMARK SMILES CC[N@@H+]1CCO[C@@H](Cn2cc(C(=O)OCCOC(=O)c3ccc(-c4c5nc(c(-c6c(F)c(F)c(F)c(F)c6F)c6ccc([nH]6)c(-c6c(F)c(F)c(F)c(F)c6F)c6nc(c(-c7c(F)c(F)c(F)c(F)c7F)c7ccc4[nH]7)C=C6)C=C5)cc3)nn2)C1
REMARK SMILES IDX 15 1 14 2 12 3 13 4 11 5 9 6 10 7 84 8 83 9 8 10 7 11 3 12
REMARK SMILES IDX 4 13 85 14 5 16 6 17 2 18 1 19 16 20 17 21 18 22 19 23 20 24
REMARK SMILES IDX 21 25 82 26 22 27 81 28 23 29 24 30 25 31 75 32 26 33 80 34
REMARK SMILES IDX 74 35 76 36 27 37 79 38 73 39 72 40 28 42 60 43 40 44 59 45
REMARK SMILES IDX 41 46 44 47 58 48 77 49 42 50 43 51 57 53 78 54 45 55 29 56
REMARK SMILES IDX 30 57 38 58 31 59 32 60 36 61 39 62 33 63 34 64 37 65 35 66
REMARK SMILES IDX 61 67 62 68 70 69 63 70 64 71 68 72 71 73 65 74 66 75 69 76
REMARK SMILES IDX 67 77 46 78 47 79 55 80 48 81 49 82 53 83 56 84 50 85 51 86
REMARK SMILES IDX 54 87 52 88
REMARK H PARENT 3 15 76 41 44 52
REMARK Flexibility Score: inf
ROOT
ATOM      1  C   UNL A   1      41.792  19.537  26.067  1.00  0.00     0.275 C 
ENDROOT
BRANCH   1   2
ATOM      2  O   UNL A   1      43.110  20.062  26.305  1.00  0.00    -0.457 OA
BRANCH   2   3
ATOM      3  C   UNL A   1      43.857  20.309  25.173  1.00  0.00     0.360 C 
ATOM      4  O   UNL A   1      44.002  19.514  24.269  1.00  0.00    -0.244 OA
BRANCH   3   5
ATOM      5  C   UNL A   1      44.389  21.668  25.151  1.00  0.00     0.190 A 
ATOM      6  N   UNL A   1      44.687  23.806  25.025  1.00  0.00    -0.249 N 
ATOM      7  C   UNL A   1      43.783  22.830  24.719  1.00  0.00     0.147 A 
ATOM      8  N   UNL A   1      45.838  23.280  25.475  1.00  0.00    -0.066 NA
ATOM      9  N   UNL A   1      45.665  21.968  25.571  1.00  0.00    -0.123 NA
BRANCH   6  10
ATOM     10  C   UNL A   1      44.412  25.212  25.240  1.00  0.00     0.184 C 
BRANCH  10  11
ATOM     11  C   UNL A   1      45.658  25.954  25.735  1.00  0.00     0.194 C 
ATOM     12  N   UNL A   1      47.216  27.888  25.286  1.00  0.00    -0.331 N 
ATOM     13  C   UNL A   1      47.178  28.143  26.729  1.00  0.00     0.291 C 
ATOM     14  C   UNL A   1      46.012  27.173  24.847  1.00  0.00     0.296 C 
ATOM     15  H   UNL A   1      47.191  28.808  24.846  1.00  0.00     0.348 HD
ATOM     16  C   UNL A   1      46.668  26.979  27.601  1.00  0.00     0.222 C 
ATOM     17  O   UNL A   1      45.459  26.390  27.092  1.00  0.00    -0.365 OA
BRANCH  12  18
ATOM     18  C   UNL A   1      48.479  27.400  24.736  1.00  0.00     0.258 C 
ATOM     19  C   UNL A   1      49.527  26.834  25.686  1.00  0.00     0.071 C 
ENDBRANCH  12  18
ENDBRANCH  10  11
ENDBRANCH   6  10
ENDBRANCH   3   5
ENDBRANCH   2   3
ENDBRANCH   1   2
BRANCH   1  20
ATOM     20  C   UNL A   1      40.740  20.335  26.833  1.00  0.00     0.275 C 
BRANCH  20  21
ATOM     21  O   UNL A   1      41.180  21.674  27.053  1.00  0.00    -0.458 OA
BRANCH  21  22
ATOM     22  C   UNL A   1      40.250  22.631  26.836  1.00  0.00     0.338 C 
ATOM     23  O   UNL A   1      39.087  22.458  26.507  1.00  0.00    -0.246 OA
BRANCH  22  24
ATOM     24  C   UNL A   1      40.888  23.950  26.869  1.00  0.00     0.060 A 
ATOM     25  C   UNL A   1      41.947  24.124  27.769  1.00  0.00     0.016 A 
ATOM     26  C   UNL A   1      40.217  25.034  26.291  1.00  0.00     0.016 A 
ATOM     27  C   UNL A   1      42.177  25.386  28.271  1.00  0.00     0.010 A 
ATOM     28  C   UNL A   1      40.431  26.287  26.809  1.00  0.00     0.010 A 
ATOM     29  C   UNL A   1      41.340  26.425  27.857  1.00  0.00    -0.014 A 
BRANCH  29  30
ATOM     30  C   UNL A   1      41.374  27.673  28.587  1.00  0.00     0.031 A 
ATOM     31  C   UNL A   1      42.509  28.566  28.254  1.00  0.00     0.074 A 
ATOM     32  C   UNL A   1      40.333  28.029  29.363  1.00  0.00     0.049 A 
ATOM     33  N   UNL A   1      43.385  29.085  29.049  1.00  0.00    -0.248 NA
ATOM     34  C   UNL A   1      42.748  28.845  26.828  1.00  0.00     0.031 C 
ATOM     35  C   UNL A   1      39.026  27.368  29.487  1.00  0.00     0.029 A 
ATOM     36  N   UNL A   1      40.179  29.146  30.117  1.00  0.00    -0.354 N 
ATOM     37  C   UNL A   1      44.208  29.868  28.243  1.00  0.00     0.074 A 
ATOM     38  C   UNL A   1      43.858  29.575  26.880  1.00  0.00     0.031 C 
ATOM     39  C   UNL A   1      38.154  28.220  30.074  1.00  0.00     0.029 A 
ATOM     40  C   UNL A   1      38.868  29.423  30.469  1.00  0.00     0.049 A 
ATOM     41  H   UNL A   1      40.935  29.713  30.390  1.00  0.00     0.167 HD
ATOM     42  C   UNL A   1      44.991  30.854  28.756  1.00  0.00     0.037 A 
ATOM     43  C   UNL A   1      38.410  30.604  30.946  1.00  0.00     0.037 A 
ATOM     44  C   UNL A   1      45.192  30.691  30.170  1.00  0.00     0.049 A 
ATOM     45  C   UNL A   1      39.586  31.383  31.418  1.00  0.00     0.074 A 
ATOM     46  C   UNL A   1      45.798  29.726  30.949  1.00  0.00     0.029 A 
ATOM     47  N   UNL A   1      44.428  31.439  31.029  1.00  0.00    -0.354 N 
ATOM     48  N   UNL A   1      40.311  31.060  32.453  1.00  0.00    -0.248 NA
ATOM     49  C   UNL A   1      40.232  32.271  30.459  1.00  0.00     0.031 C 
ATOM     50  C   UNL A   1      44.997  29.644  32.125  1.00  0.00     0.029 A 
ATOM     51  C   UNL A   1      43.977  30.589  32.007  1.00  0.00     0.049 A 
ATOM     52  H   UNL A   1      44.239  32.403  30.958  1.00  0.00     0.167 HD
ATOM     53  C   UNL A   1      41.615  31.364  32.086  1.00  0.00     0.074 A 
ATOM     54  C   UNL A   1      41.494  32.180  30.883  1.00  0.00     0.031 C 
ATOM     55  C   UNL A   1      42.676  30.691  32.622  1.00  0.00     0.037 A 
BRANCH  42  56
ATOM     56  C   UNL A   1      45.318  32.132  28.033  1.00  0.00     0.064 A 
ATOM     57  C   UNL A   1      44.289  33.048  27.745  1.00  0.00     0.173 A 
ATOM     58  C   UNL A   1      46.544  32.358  27.367  1.00  0.00     0.173 A 
ATOM     59  F   UNL A   1      43.077  32.912  28.302  1.00  0.00    -0.203 F 
ATOM     60  C   UNL A   1      44.456  34.072  26.810  1.00  0.00     0.198 A 
ATOM     61  C   UNL A   1      46.725  33.417  26.480  1.00  0.00     0.198 A 
ATOM     62  F   UNL A   1      47.571  31.506  27.458  1.00  0.00    -0.203 F 
ATOM     63  F   UNL A   1      43.413  34.844  26.476  1.00  0.00    -0.200 F 
ATOM     64  C   UNL A   1      45.673  34.254  26.176  1.00  0.00     0.200 A 
ATOM     65  F   UNL A   1      47.905  33.565  25.864  1.00  0.00    -0.200 F 
ATOM     66  F   UNL A   1      45.818  35.199  25.238  1.00  0.00    -0.200 F 
ENDBRANCH  42  56
BRANCH  43  67
ATOM     67  C   UNL A   1      37.092  31.229  30.682  1.00  0.00     0.064 A 
ATOM     68  C   UNL A   1      36.222  31.564  31.731  1.00  0.00     0.173 A 
ATOM     69  C   UNL A   1      36.767  31.744  29.410  1.00  0.00     0.173 A 
ATOM     70  F   UNL A   1      36.487  31.157  32.980  1.00  0.00    -0.203 F 
ATOM     71  C   UNL A   1      35.100  32.374  31.521  1.00  0.00     0.198 A 
ATOM     72  C   UNL A   1      35.643  32.543  29.200  1.00  0.00     0.198 A 
ATOM     73  F   UNL A   1      37.583  31.559  28.362  1.00  0.00    -0.203 F 
ATOM     74  F   UNL A   1      34.321  32.718  32.556  1.00  0.00    -0.200 F 
ATOM     75  C   UNL A   1      34.816  32.867  30.257  1.00  0.00     0.200 A 
ATOM     76  F   UNL A   1      35.402  33.042  27.980  1.00  0.00    -0.200 F 
ATOM     77  F   UNL A   1      33.772  33.687  30.066  1.00  0.00    -0.200 F 
ENDBRANCH  43  67
BRANCH  55  78
ATOM     78  C   UNL A   1      42.410  29.772  33.780  1.00  0.00     0.064 A 
ATOM     79  C   UNL A   1      42.009  28.433  33.631  1.00  0.00     0.173 A 
ATOM     80  C   UNL A   1      42.740  30.205  35.070  1.00  0.00     0.173 A 
ATOM     81  F   UNL A   1      41.780  27.915  32.419  1.00  0.00    -0.203 F 
ATOM     82  C   UNL A   1      41.905  27.580  34.728  1.00  0.00     0.198 A 
ATOM     83  C   UNL A   1      42.672  29.342  36.160  1.00  0.00     0.198 A 
ATOM     84  F   UNL A   1      43.189  31.456  35.264  1.00  0.00    -0.203 F 
ATOM     85  F   UNL A   1      41.516  26.308  34.557  1.00  0.00    -0.200 F 
ATOM     86  C   UNL A   1      42.247  28.034  35.991  1.00  0.00     0.200 A 
ATOM     87  F   UNL A   1      43.052  29.769  37.372  1.00  0.00    -0.200 F 
ATOM     88  F   UNL A   1      42.195  27.201  37.041  1.00  0.00    -0.200 F 
ENDBRANCH  55  78
ENDBRANCH  29  30
ENDBRANCH  22  24
ENDBRANCH  21  22
ENDBRANCH  20  21
ENDBRANCH   1  20
TORSDOF 14
ENDMDL
