MODEL 1
REMARK VINA RESULT:     -12.3      0.000      0.000
REMARK SMILES CC1=C(C)C[C@@H](C(=O)OCCOC(=O)c2ccc(-c3c4nc(c(-c5c(F)c(F)c(F)c(F)c5F)c5ccc([nH]5)c(-c5c(F)c(F)c(F)c(F)c5F)c5nc(c(-c6c(F)c(F)c(F)c(F)c6F)c6ccc3[nH]6)C=C5)C=C4)cc2)[C@@H](C(=O)NCC[NH+]2CCOCC2)C1
REMARK SMILES IDX 10 1 9 2 7 3 8 4 6 5 1 6 2 7 3 8 90 9 4 10 5 11 78 12 79 13
REMARK SMILES IDX 80 14 81 15 82 17 83 18 84 19 85 20 89 21 86 23 88 24 87 25
REMARK SMILES IDX 11 26 12 27 13 28 14 29 15 30 16 31 77 32 17 33 76 34 18 35
REMARK SMILES IDX 19 36 20 37 70 38 21 39 75 40 69 41 71 42 22 43 74 44 68 45
REMARK SMILES IDX 67 46 23 48 55 49 35 50 54 51 36 52 39 53 53 54 72 55 37 56
REMARK SMILES IDX 38 57 52 59 73 60 40 61 24 62 25 63 33 64 26 65 27 66 31 67
REMARK SMILES IDX 34 68 28 69 29 70 32 71 30 72 56 73 57 74 65 75 58 76 59 77
REMARK SMILES IDX 63 78 66 79 60 80 61 81 64 82 62 83 41 84 42 85 50 86 43 87
REMARK SMILES IDX 44 88 48 89 51 90 45 91 46 92 49 93 47 94
REMARK H PARENT 81 16 84 22 71 47 39 58
REMARK Flexibility Score: inf
ROOT
ATOM      1  C   UNL A   1      31.698  28.565  27.351  1.00  0.00     0.274 C 
ENDROOT
BRANCH   1   2
ATOM      2  O   UNL A   1      31.027  27.510  26.636  1.00  0.00    -0.462 OA
BRANCH   2   3
ATOM      3  C   UNL A   1      31.792  26.564  26.069  1.00  0.00     0.310 C 
ATOM      4  O   UNL A   1      33.023  26.584  26.084  1.00  0.00    -0.252 OA
BRANCH   3   5
ATOM      5  C   UNL A   1      31.043  25.432  25.377  1.00  0.00     0.116 C 
ATOM      6  C   UNL A   1      32.278  22.103  22.767  1.00  0.00     0.039 C 
ATOM      7  C   UNL A   1      31.733  23.054  23.793  1.00  0.00    -0.074 C 
ATOM      8  C   UNL A   1      32.105  23.095  25.087  1.00  0.00    -0.073 C 
ATOM      9  C   UNL A   1      30.653  23.989  23.295  1.00  0.00     0.045 C 
ATOM     10  C   UNL A   1      33.046  22.140  25.770  1.00  0.00     0.039 C 
ATOM     11  C   UNL A   1      31.502  24.111  26.016  1.00  0.00     0.046 C 
ATOM     12  C   UNL A   1      30.748  25.419  23.856  1.00  0.00     0.097 C 
BRANCH  12  13
ATOM     13  C   UNL A   1      31.611  26.220  22.880  1.00  0.00     0.224 C 
ATOM     14  O   UNL A   1      32.521  25.727  22.214  1.00  0.00    -0.275 OA
ATOM     15  N   UNL A   1      31.271  27.523  22.606  1.00  0.00    -0.350 N 
ATOM     16  H   UNL A   1      31.904  27.996  22.018  1.00  0.00     0.163 HD
BRANCH  15  17
ATOM     17  C   UNL A   1      30.127  28.326  23.039  1.00  0.00     0.177 C 
BRANCH  17  18
ATOM     18  C   UNL A   1      29.762  29.504  22.106  1.00  0.00     0.283 C 
BRANCH  18  19
ATOM     19  N   UNL A   1      28.323  29.744  21.857  1.00  0.00    -0.330 N 
ATOM     20  C   UNL A   1      28.033  30.830  20.899  1.00  0.00     0.291 C 
ATOM     21  C   UNL A   1      27.627  30.088  23.125  1.00  0.00     0.291 C 
ATOM     22  H   UNL A   1      27.987  28.870  21.454  1.00  0.00     0.348 HD
ATOM     23  C   UNL A   1      28.357  32.232  21.433  1.00  0.00     0.221 C 
ATOM     24  C   UNL A   1      27.929  31.508  23.641  1.00  0.00     0.221 C 
ATOM     25  O   UNL A   1      27.652  32.506  22.651  1.00  0.00    -0.370 OA
ENDBRANCH  18  19
ENDBRANCH  17  18
ENDBRANCH  15  17
ENDBRANCH  12  13
ENDBRANCH   3   5
ENDBRANCH   2   3
ENDBRANCH   1   2
BRANCH   1  26
ATOM     26  C   UNL A   1      31.745  29.851  26.518  1.00  0.00     0.275 C 
BRANCH  26  27
ATOM     27  O   UNL A   1      33.095  30.299  26.268  1.00  0.00    -0.458 OA
BRANCH  27  28
ATOM     28  C   UNL A   1      33.506  31.338  27.023  1.00  0.00     0.338 C 
ATOM     29  O   UNL A   1      32.902  32.378  27.251  1.00  0.00    -0.246 OA
BRANCH  28  30
ATOM     30  C   UNL A   1      34.765  31.042  27.707  1.00  0.00     0.060 A 
ATOM     31  C   UNL A   1      34.954  29.731  28.160  1.00  0.00     0.016 A 
ATOM     32  C   UNL A   1      35.695  32.038  28.001  1.00  0.00     0.016 A 
ATOM     33  C   UNL A   1      36.070  29.405  28.911  1.00  0.00     0.010 A 
ATOM     34  C   UNL A   1      36.826  31.709  28.751  1.00  0.00     0.010 A 
ATOM     35  C   UNL A   1      37.014  30.393  29.211  1.00  0.00    -0.014 A 
BRANCH  35  36
ATOM     36  C   UNL A   1      38.197  30.025  30.013  1.00  0.00     0.031 A 
ATOM     37  C   UNL A   1      39.239  29.119  29.440  1.00  0.00     0.074 A 
ATOM     38  C   UNL A   1      38.345  30.564  31.236  1.00  0.00     0.049 A 
ATOM     39  N   UNL A   1      40.312  28.632  30.007  1.00  0.00    -0.248 NA
ATOM     40  C   UNL A   1      39.056  28.708  28.039  1.00  0.00     0.031 C 
ATOM     41  C   UNL A   1      37.419  31.517  31.852  1.00  0.00     0.029 A 
ATOM     42  N   UNL A   1      39.329  30.398  32.173  1.00  0.00    -0.354 N 
ATOM     43  C   UNL A   1      40.923  27.845  29.042  1.00  0.00     0.074 A 
ATOM     44  C   UNL A   1      40.100  27.912  27.853  1.00  0.00     0.031 C 
ATOM     45  C   UNL A   1      37.886  31.859  33.062  1.00  0.00     0.029 A 
ATOM     46  C   UNL A   1      39.111  31.112  33.325  1.00  0.00     0.049 A 
ATOM     47  H   UNL A   1      40.117  29.824  32.033  1.00  0.00     0.167 HD
ATOM     48  C   UNL A   1      42.069  27.131  29.148  1.00  0.00     0.037 A 
ATOM     49  C   UNL A   1      39.811  31.133  34.473  1.00  0.00     0.037 A 
ATOM     50  C   UNL A   1      42.876  27.077  30.340  1.00  0.00     0.049 A 
ATOM     51  C   UNL A   1      41.041  30.277  34.587  1.00  0.00     0.074 A 
ATOM     52  C   UNL A   1      44.039  26.363  30.566  1.00  0.00     0.029 A 
ATOM     53  N   UNL A   1      42.601  27.773  31.509  1.00  0.00    -0.354 N 
ATOM     54  N   UNL A   1      41.590  29.498  33.687  1.00  0.00    -0.248 NA
ATOM     55  C   UNL A   1      41.741  30.294  35.878  1.00  0.00     0.031 C 
ATOM     56  C   UNL A   1      44.451  26.602  31.882  1.00  0.00     0.029 A 
ATOM     57  C   UNL A   1      43.564  27.496  32.463  1.00  0.00     0.049 A 
ATOM     58  H   UNL A   1      41.833  28.376  31.639  1.00  0.00     0.167 HD
ATOM     59  C   UNL A   1      42.704  28.939  34.295  1.00  0.00     0.074 A 
ATOM     60  C   UNL A   1      42.763  29.485  35.638  1.00  0.00     0.031 C 
ATOM     61  C   UNL A   1      43.597  28.053  33.792  1.00  0.00     0.037 A 
BRANCH  48  62
ATOM     62  C   UNL A   1      42.493  26.323  27.960  1.00  0.00     0.064 A 
ATOM     63  C   UNL A   1      42.005  25.028  27.737  1.00  0.00     0.173 A 
ATOM     64  C   UNL A   1      43.382  26.862  27.018  1.00  0.00     0.173 A 
ATOM     65  F   UNL A   1      41.168  24.461  28.619  1.00  0.00    -0.203 F 
ATOM     66  C   UNL A   1      42.403  24.296  26.620  1.00  0.00     0.198 A 
ATOM     67  C   UNL A   1      43.761  26.136  25.892  1.00  0.00     0.198 A 
ATOM     68  F   UNL A   1      43.879  28.096  27.188  1.00  0.00    -0.203 F 
ATOM     69  F   UNL A   1      41.952  23.046  26.446  1.00  0.00    -0.200 F 
ATOM     70  C   UNL A   1      43.274  24.853  25.697  1.00  0.00     0.200 A 
ATOM     71  F   UNL A   1      44.599  26.677  24.998  1.00  0.00    -0.200 F 
ATOM     72  F   UNL A   1      43.654  24.148  24.622  1.00  0.00    -0.200 F 
ENDBRANCH  48  62
BRANCH  49  73
ATOM     73  C   UNL A   1      39.346  31.976  35.602  1.00  0.00     0.064 A 
ATOM     74  C   UNL A   1      38.444  31.477  36.550  1.00  0.00     0.173 A 
ATOM     75  C   UNL A   1      39.811  33.289  35.768  1.00  0.00     0.173 A 
ATOM     76  F   UNL A   1      37.955  30.235  36.420  1.00  0.00    -0.203 F 
ATOM     77  C   UNL A   1      38.021  32.261  37.621  1.00  0.00     0.198 A 
ATOM     78  C   UNL A   1      39.408  34.064  36.852  1.00  0.00     0.198 A 
ATOM     79  F   UNL A   1      40.676  33.812  34.885  1.00  0.00    -0.203 F 
ATOM     80  F   UNL A   1      37.134  31.771  38.499  1.00  0.00    -0.200 F 
ATOM     81  C   UNL A   1      38.509  33.551  37.776  1.00  0.00     0.200 A 
ATOM     82  F   UNL A   1      39.890  35.304  37.004  1.00  0.00    -0.200 F 
ATOM     83  F   UNL A   1      38.110  34.301  38.812  1.00  0.00    -0.200 F 
ENDBRANCH  49  73
BRANCH  61  84
ATOM     84  C   UNL A   1      44.719  27.637  34.692  1.00  0.00     0.064 A 
ATOM     85  C   UNL A   1      44.613  26.509  35.518  1.00  0.00     0.173 A 
ATOM     86  C   UNL A   1      45.922  28.357  34.707  1.00  0.00     0.173 A 
ATOM     87  F   UNL A   1      43.475  25.801  35.549  1.00  0.00    -0.203 F 
ATOM     88  C   UNL A   1      45.667  26.127  36.342  1.00  0.00     0.198 A 
ATOM     89  C   UNL A   1      46.983  27.960  35.514  1.00  0.00     0.198 A 
ATOM     90  F   UNL A   1      46.070  29.442  33.930  1.00  0.00    -0.203 F 
ATOM     91  F   UNL A   1      45.533  25.069  37.154  1.00  0.00    -0.200 F 
ATOM     92  C   UNL A   1      46.852  26.849  36.336  1.00  0.00     0.200 A 
ATOM     93  F   UNL A   1      48.129  28.654  35.502  1.00  0.00    -0.200 F 
ATOM     94  F   UNL A   1      47.868  26.479  37.128  1.00  0.00    -0.200 F 
ENDBRANCH  61  84
ENDBRANCH  35  36
ENDBRANCH  28  30
ENDBRANCH  27  28
ENDBRANCH  26  27
ENDBRANCH   1  26
TORSDOF 15
ENDMDL
MODEL 2
REMARK VINA RESULT:     -12.2      0.867      1.828
REMARK SMILES CC1=C(C)C[C@@H](C(=O)OCCOC(=O)c2ccc(-c3c4nc(c(-c5c(F)c(F)c(F)c(F)c5F)c5ccc([nH]5)c(-c5c(F)c(F)c(F)c(F)c5F)c5nc(c(-c6c(F)c(F)c(F)c(F)c6F)c6ccc3[nH]6)C=C5)C=C4)cc2)[C@@H](C(=O)NCC[NH+]2CCOCC2)C1
REMARK SMILES IDX 10 1 9 2 7 3 8 4 6 5 1 6 2 7 3 8 90 9 4 10 5 11 78 12 79 13
REMARK SMILES IDX 80 14 81 15 82 17 83 18 84 19 85 20 89 21 86 23 88 24 87 25
REMARK SMILES IDX 11 26 12 27 13 28 14 29 15 30 16 31 77 32 17 33 76 34 18 35
REMARK SMILES IDX 19 36 20 37 70 38 21 39 75 40 69 41 71 42 22 43 74 44 68 45
REMARK SMILES IDX 67 46 23 48 55 49 35 50 54 51 36 52 39 53 53 54 72 55 37 56
REMARK SMILES IDX 38 57 52 59 73 60 40 61 24 62 25 63 33 64 26 65 27 66 31 67
REMARK SMILES IDX 34 68 28 69 29 70 32 71 30 72 56 73 57 74 65 75 58 76 59 77
REMARK SMILES IDX 63 78 66 79 60 80 61 81 64 82 62 83 41 84 42 85 50 86 43 87
REMARK SMILES IDX 44 88 48 89 51 90 45 91 46 92 49 93 47 94
REMARK H PARENT 81 16 84 22 71 47 39 58
REMARK Flexibility Score: inf
ROOT
ATOM      1  C   UNL A   1      31.793  29.004  26.683  1.00  0.00     0.274 C 
ENDROOT
BRANCH   1   2
ATOM      2  O   UNL A   1      33.087  28.425  26.433  1.00  0.00    -0.462 OA
BRANCH   2   3
ATOM      3  C   UNL A   1      33.298  27.878  25.225  1.00  0.00     0.310 C 
ATOM      4  O   UNL A   1      33.840  28.474  24.294  1.00  0.00    -0.252 OA
BRANCH   3   5
ATOM      5  C   UNL A   1      32.813  26.445  25.053  1.00  0.00     0.116 C 
ATOM      6  C   UNL A   1      34.325  22.960  22.819  1.00  0.00     0.039 C 
ATOM      7  C   UNL A   1      33.797  23.984  23.782  1.00  0.00    -0.074 C 
ATOM      8  C   UNL A   1      34.474  24.479  24.836  1.00  0.00    -0.073 C 
ATOM      9  C   UNL A   1      32.373  24.429  23.532  1.00  0.00     0.045 C 
ATOM     10  C   UNL A   1      35.831  24.030  25.308  1.00  0.00     0.039 C 
ATOM     11  C   UNL A   1      33.847  25.520  25.718  1.00  0.00     0.046 C 
ATOM     12  C   UNL A   1      32.132  25.933  23.758  1.00  0.00     0.097 C 
BRANCH  12  13
ATOM     13  C   UNL A   1      32.372  26.625  22.416  1.00  0.00     0.224 C 
ATOM     14  O   UNL A   1      33.221  26.259  21.603  1.00  0.00    -0.275 OA
ATOM     15  N   UNL A   1      31.507  27.614  22.014  1.00  0.00    -0.350 N 
ATOM     16  H   UNL A   1      31.756  28.058  21.170  1.00  0.00     0.163 HD
BRANCH  15  17
ATOM     17  C   UNL A   1      30.278  28.119  22.625  1.00  0.00     0.177 C 
BRANCH  17  18
ATOM     18  C   UNL A   1      29.841  29.526  22.157  1.00  0.00     0.283 C 
BRANCH  18  19
ATOM     19  N   UNL A   1      28.399  29.729  21.891  1.00  0.00    -0.330 N 
ATOM     20  C   UNL A   1      28.094  30.802  20.923  1.00  0.00     0.291 C 
ATOM     21  C   UNL A   1      27.680  30.063  23.148  1.00  0.00     0.291 C 
ATOM     22  H   UNL A   1      28.090  28.844  21.489  1.00  0.00     0.348 HD
ATOM     23  C   UNL A   1      28.377  32.214  21.451  1.00  0.00     0.221 C 
ATOM     24  C   UNL A   1      27.941  31.493  23.659  1.00  0.00     0.221 C 
ATOM     25  O   UNL A   1      27.652  32.478  22.659  1.00  0.00    -0.370 OA
ENDBRANCH  18  19
ENDBRANCH  17  18
ENDBRANCH  15  17
ENDBRANCH  12  13
ENDBRANCH   3   5
ENDBRANCH   2   3
ENDBRANCH   1   2
BRANCH   1  26
ATOM     26  C   UNL A   1      31.843  30.532  26.576  1.00  0.00     0.275 C 
BRANCH  26  27
ATOM     27  O   UNL A   1      33.184  31.029  26.373  1.00  0.00    -0.458 OA
BRANCH  27  28
ATOM     28  C   UNL A   1      33.596  31.953  27.264  1.00  0.00     0.338 C 
ATOM     29  O   UNL A   1      33.001  32.960  27.622  1.00  0.00    -0.246 OA
BRANCH  28  30
ATOM     30  C   UNL A   1      34.845  31.554  27.915  1.00  0.00     0.060 A 
ATOM     31  C   UNL A   1      34.886  30.280  28.493  1.00  0.00     0.016 A 
ATOM     32  C   UNL A   1      35.914  32.436  28.059  1.00  0.00     0.016 A 
ATOM     33  C   UNL A   1      35.993  29.878  29.220  1.00  0.00     0.010 A 
ATOM     34  C   UNL A   1      37.036  32.029  28.785  1.00  0.00     0.010 A 
ATOM     35  C   UNL A   1      37.075  30.751  29.370  1.00  0.00    -0.014 A 
BRANCH  35  36
ATOM     36  C   UNL A   1      38.246  30.302  30.150  1.00  0.00     0.031 A 
ATOM     37  C   UNL A   1      39.245  29.374  29.536  1.00  0.00     0.074 A 
ATOM     38  C   UNL A   1      38.423  30.788  31.391  1.00  0.00     0.049 A 
ATOM     39  N   UNL A   1      40.299  28.821  30.077  1.00  0.00    -0.248 NA
ATOM     40  C   UNL A   1      39.037  29.025  28.122  1.00  0.00     0.031 C 
ATOM     41  C   UNL A   1      37.542  31.756  32.048  1.00  0.00     0.029 A 
ATOM     42  N   UNL A   1      39.405  30.545  32.314  1.00  0.00    -0.354 N 
ATOM     43  C   UNL A   1      40.870  28.046  29.079  1.00  0.00     0.074 A 
ATOM     44  C   UNL A   1      40.045  28.193  27.899  1.00  0.00     0.031 C 
ATOM     45  C   UNL A   1      38.031  32.032  33.267  1.00  0.00     0.029 A 
ATOM     46  C   UNL A   1      39.224  31.224  33.493  1.00  0.00     0.049 A 
ATOM     47  H   UNL A   1      40.166  29.944  32.147  1.00  0.00     0.167 HD
ATOM     48  C   UNL A   1      41.985  27.280  29.151  1.00  0.00     0.037 A 
ATOM     49  C   UNL A   1      39.930  31.172  34.636  1.00  0.00     0.037 A 
ATOM     50  C   UNL A   1      42.796  27.147  30.333  1.00  0.00     0.049 A 
ATOM     51  C   UNL A   1      41.123  30.261  34.710  1.00  0.00     0.074 A 
ATOM     52  C   UNL A   1      43.928  26.376  30.524  1.00  0.00     0.029 A 
ATOM     53  N   UNL A   1      42.557  27.809  31.529  1.00  0.00    -0.354 N 
ATOM     54  N   UNL A   1      41.633  29.493  33.778  1.00  0.00    -0.248 NA
ATOM     55  C   UNL A   1      41.830  30.200  35.995  1.00  0.00     0.031 C 
ATOM     56  C   UNL A   1      44.357  26.548  31.846  1.00  0.00     0.029 A 
ATOM     57  C   UNL A   1      43.513  27.456  32.466  1.00  0.00     0.049 A 
ATOM     58  H   UNL A   1      41.816  28.439  31.688  1.00  0.00     0.167 HD
ATOM     59  C   UNL A   1      42.725  28.865  34.357  1.00  0.00     0.074 A 
ATOM     60  C   UNL A   1      42.814  29.356  35.718  1.00  0.00     0.031 C 
ATOM     61  C   UNL A   1      43.577  27.961  33.814  1.00  0.00     0.037 A 
BRANCH  48  62
ATOM     62  C   UNL A   1      42.368  26.500  27.930  1.00  0.00     0.064 A 
ATOM     63  C   UNL A   1      43.308  26.985  27.010  1.00  0.00     0.173 A 
ATOM     64  C   UNL A   1      41.804  25.238  27.690  1.00  0.00     0.173 A 
ATOM     65  F   UNL A   1      43.861  28.196  27.185  1.00  0.00    -0.203 F 
ATOM     66  C   UNL A   1      43.659  26.241  25.886  1.00  0.00     0.198 A 
ATOM     67  C   UNL A   1      42.173  24.488  26.577  1.00  0.00     0.198 A 
ATOM     68  F   UNL A   1      40.898  24.731  28.539  1.00  0.00    -0.203 F 
ATOM     69  F   UNL A   1      44.532  26.741  25.001  1.00  0.00    -0.200 F 
ATOM     70  C   UNL A   1      43.097  24.992  25.674  1.00  0.00     0.200 A 
ATOM     71  F   UNL A   1      41.632  23.279  26.376  1.00  0.00    -0.200 F 
ATOM     72  F   UNL A   1      43.437  24.277  24.593  1.00  0.00    -0.200 F 
ENDBRANCH  48  62
BRANCH  49  73
ATOM     73  C   UNL A   1      39.508  31.991  35.800  1.00  0.00     0.064 A 
ATOM     74  C   UNL A   1      38.469  31.569  36.639  1.00  0.00     0.173 A 
ATOM     75  C   UNL A   1      40.148  33.201  36.107  1.00  0.00     0.173 A 
ATOM     76  F   UNL A   1      37.813  30.431  36.371  1.00  0.00    -0.203 F 
ATOM     77  C   UNL A   1      38.085  32.328  37.742  1.00  0.00     0.198 A 
ATOM     78  C   UNL A   1      39.780  33.946  37.223  1.00  0.00     0.198 A 
ATOM     79  F   UNL A   1      41.148  33.647  35.332  1.00  0.00    -0.203 F 
ATOM     80  F   UNL A   1      37.068  31.917  38.513  1.00  0.00    -0.200 F 
ATOM     81  C   UNL A   1      38.745  33.512  38.038  1.00  0.00     0.200 A 
ATOM     82  F   UNL A   1      40.428  35.082  37.513  1.00  0.00    -0.200 F 
ATOM     83  F   UNL A   1      38.381  34.235  39.106  1.00  0.00    -0.200 F 
ENDBRANCH  49  73
BRANCH  61  84
ATOM     84  C   UNL A   1      44.685  27.464  34.691  1.00  0.00     0.064 A 
ATOM     85  C   UNL A   1      45.897  28.160  34.800  1.00  0.00     0.173 A 
ATOM     86  C   UNL A   1      44.521  26.298  35.451  1.00  0.00     0.173 A 
ATOM     87  F   UNL A   1      46.104  29.271  34.078  1.00  0.00    -0.203 F 
ATOM     88  C   UNL A   1      46.914  27.694  35.626  1.00  0.00     0.198 A 
ATOM     89  C   UNL A   1      45.531  25.846  36.294  1.00  0.00     0.198 A 
ATOM     90  F   UNL A   1      43.376  25.601  35.381  1.00  0.00    -0.203 F 
ATOM     91  F   UNL A   1      48.081  28.351  35.687  1.00  0.00    -0.200 F 
ATOM     92  C   UNL A   1      46.729  26.541  36.376  1.00  0.00     0.200 A 
ATOM     93  F   UNL A   1      45.348  24.737  37.023  1.00  0.00    -0.200 F 
ATOM     94  F   UNL A   1      47.710  26.094  37.174  1.00  0.00    -0.200 F 
ENDBRANCH  61  84
ENDBRANCH  35  36
ENDBRANCH  28  30
ENDBRANCH  27  28
ENDBRANCH  26  27
ENDBRANCH   1  26
TORSDOF 15
ENDMDL
MODEL 3
REMARK VINA RESULT:     -12.2      4.870     10.389
REMARK SMILES CC1=C(C)C[C@@H](C(=O)OCCOC(=O)c2ccc(-c3c4nc(c(-c5c(F)c(F)c(F)c(F)c5F)c5ccc([nH]5)c(-c5c(F)c(F)c(F)c(F)c5F)c5nc(c(-c6c(F)c(F)c(F)c(F)c6F)c6ccc3[nH]6)C=C5)C=C4)cc2)[C@@H](C(=O)NCC[NH+]2CCOCC2)C1
REMARK SMILES IDX 10 1 9 2 7 3 8 4 6 5 1 6 2 7 3 8 90 9 4 10 5 11 78 12 79 13
REMARK SMILES IDX 80 14 81 15 82 17 83 18 84 19 85 20 89 21 86 23 88 24 87 25
REMARK SMILES IDX 11 26 12 27 13 28 14 29 15 30 16 31 77 32 17 33 76 34 18 35
REMARK SMILES IDX 19 36 20 37 70 38 21 39 75 40 69 41 71 42 22 43 74 44 68 45
REMARK SMILES IDX 67 46 23 48 55 49 35 50 54 51 36 52 39 53 53 54 72 55 37 56
REMARK SMILES IDX 38 57 52 59 73 60 40 61 24 62 25 63 33 64 26 65 27 66 31 67
REMARK SMILES IDX 34 68 28 69 29 70 32 71 30 72 56 73 57 74 65 75 58 76 59 77
REMARK SMILES IDX 63 78 66 79 60 80 61 81 64 82 62 83 41 84 42 85 50 86 43 87
REMARK SMILES IDX 44 88 48 89 51 90 45 91 46 92 49 93 47 94
REMARK H PARENT 81 16 84 22 71 47 39 58
REMARK Flexibility Score: inf
ROOT
ATOM      1  C   UNL A   1      36.634  22.210  23.859  1.00  0.00     0.274 C 
ENDROOT
BRANCH   1   2
ATOM      2  O   UNL A   1      35.242  22.253  24.227  1.00  0.00    -0.462 OA
BRANCH   2   3
ATOM      3  C   UNL A   1      34.689  23.462  24.414  1.00  0.00     0.310 C 
ATOM      4  O   UNL A   1      35.147  24.309  25.180  1.00  0.00    -0.252 OA
BRANCH   3   5
ATOM      5  C   UNL A   1      33.423  23.742  23.614  1.00  0.00     0.116 C 
ATOM      6  C   UNL A   1      29.754  26.048  24.419  1.00  0.00     0.039 C 
ATOM      7  C   UNL A   1      31.012  25.395  23.922  1.00  0.00    -0.074 C 
ATOM      8  C   UNL A   1      32.201  26.012  23.781  1.00  0.00    -0.073 C 
ATOM      9  C   UNL A   1      30.869  23.944  23.519  1.00  0.00     0.045 C 
ATOM     10  C   UNL A   1      32.470  27.478  23.990  1.00  0.00     0.039 C 
ATOM     11  C   UNL A   1      33.398  25.246  23.294  1.00  0.00     0.046 C 
ATOM     12  C   UNL A   1      32.065  23.059  23.914  1.00  0.00     0.097 C 
BRANCH  12  13
ATOM     13  C   UNL A   1      31.756  22.495  25.303  1.00  0.00     0.224 C 
ATOM     14  O   UNL A   1      31.154  23.122  26.173  1.00  0.00    -0.275 OA
ATOM     15  N   UNL A   1      32.024  21.172  25.558  1.00  0.00    -0.350 N 
ATOM     16  H   UNL A   1      31.858  20.892  26.487  1.00  0.00     0.163 HD
BRANCH  15  17
ATOM     17  C   UNL A   1      32.511  20.107  24.681  1.00  0.00     0.177 C 
BRANCH  17  18
ATOM     18  C   UNL A   1      32.781  18.753  25.379  1.00  0.00     0.283 C 
BRANCH  18  19
ATOM     19  N   UNL A   1      32.237  17.541  24.729  1.00  0.00    -0.330 N 
ATOM     20  C   UNL A   1      32.533  16.276  25.431  1.00  0.00     0.291 C 
ATOM     21  C   UNL A   1      32.773  17.406  23.349  1.00  0.00     0.291 C 
ATOM     22  H   UNL A   1      31.226  17.679  24.741  1.00  0.00     0.348 HD
ATOM     23  C   UNL A   1      34.009  15.862  25.370  1.00  0.00     0.221 C 
ATOM     24  C   UNL A   1      34.247  16.958  23.290  1.00  0.00     0.221 C 
ATOM     25  O   UNL A   1      34.465  15.743  24.016  1.00  0.00    -0.370 OA
ENDBRANCH  18  19
ENDBRANCH  17  18
ENDBRANCH  15  17
ENDBRANCH  12  13
ENDBRANCH   3   5
ENDBRANCH   2   3
ENDBRANCH   1   2
BRANCH   1  26
ATOM     26  C   UNL A   1      37.388  21.157  24.680  1.00  0.00     0.275 C 
BRANCH  26  27
ATOM     27  O   UNL A   1      37.803  21.655  25.971  1.00  0.00    -0.458 OA
BRANCH  27  28
ATOM     28  C   UNL A   1      39.098  21.442  26.280  1.00  0.00     0.338 C 
ATOM     29  O   UNL A   1      39.740  20.411  26.130  1.00  0.00    -0.246 OA
BRANCH  28  30
ATOM     30  C   UNL A   1      39.757  22.674  26.716  1.00  0.00     0.060 A 
ATOM     31  C   UNL A   1      39.346  23.867  26.112  1.00  0.00     0.016 A 
ATOM     32  C   UNL A   1      40.826  22.659  27.610  1.00  0.00     0.016 A 
ATOM     33  C   UNL A   1      40.000  25.055  26.394  1.00  0.00     0.010 A 
ATOM     34  C   UNL A   1      41.482  23.858  27.902  1.00  0.00     0.010 A 
ATOM     35  C   UNL A   1      41.072  25.056  27.292  1.00  0.00    -0.014 A 
BRANCH  35  36
ATOM     36  C   UNL A   1      41.756  26.333  27.579  1.00  0.00     0.031 A 
ATOM     37  C   UNL A   1      41.067  27.389  28.383  1.00  0.00     0.074 A 
ATOM     38  C   UNL A   1      43.021  26.501  27.155  1.00  0.00     0.049 A 
ATOM     39  N   UNL A   1      41.474  28.594  28.685  1.00  0.00    -0.248 NA
ATOM     40  C   UNL A   1      39.744  27.043  28.926  1.00  0.00     0.031 C 
ATOM     41  C   UNL A   1      43.803  25.499  26.428  1.00  0.00     0.029 A 
ATOM     42  N   UNL A   1      43.873  27.565  27.283  1.00  0.00    -0.354 N 
ATOM     43  C   UNL A   1      40.455  29.157  29.438  1.00  0.00     0.074 A 
ATOM     44  C   UNL A   1      39.404  28.167  29.543  1.00  0.00     0.031 C 
ATOM     45  C   UNL A   1      45.026  25.994  26.183  1.00  0.00     0.029 A 
ATOM     46  C   UNL A   1      45.093  27.361  26.689  1.00  0.00     0.049 A 
ATOM     47  H   UNL A   1      43.634  28.394  27.757  1.00  0.00     0.167 HD
ATOM     48  C   UNL A   1      40.407  30.395  29.987  1.00  0.00     0.037 A 
ATOM     49  C   UNL A   1      46.134  28.200  26.545  1.00  0.00     0.037 A 
ATOM     50  C   UNL A   1      41.463  31.367  29.873  1.00  0.00     0.049 A 
ATOM     51  C   UNL A   1      46.027  29.590  27.105  1.00  0.00     0.074 A 
ATOM     52  C   UNL A   1      41.507  32.659  30.366  1.00  0.00     0.029 A 
ATOM     53  N   UNL A   1      42.668  31.147  29.220  1.00  0.00    -0.354 N 
ATOM     54  N   UNL A   1      45.042  30.135  27.777  1.00  0.00    -0.248 NA
ATOM     55  C   UNL A   1      47.169  30.484  26.877  1.00  0.00     0.031 C 
ATOM     56  C   UNL A   1      42.726  33.232  29.983  1.00  0.00     0.029 A 
ATOM     57  C   UNL A   1      43.457  32.283  29.285  1.00  0.00     0.049 A 
ATOM     58  H   UNL A   1      42.924  30.306  28.776  1.00  0.00     0.167 HD
ATOM     59  C   UNL A   1      45.446  31.430  28.062  1.00  0.00     0.074 A 
ATOM     60  C   UNL A   1      46.776  31.584  27.505  1.00  0.00     0.031 C 
ATOM     61  C   UNL A   1      44.777  32.407  28.721  1.00  0.00     0.037 A 
BRANCH  48  62
ATOM     62  C   UNL A   1      39.160  30.776  30.725  1.00  0.00     0.064 A 
ATOM     63  C   UNL A   1      38.071  31.371  30.073  1.00  0.00     0.173 A 
ATOM     64  C   UNL A   1      39.044  30.520  32.099  1.00  0.00     0.173 A 
ATOM     65  F   UNL A   1      38.142  31.655  28.763  1.00  0.00    -0.203 F 
ATOM     66  C   UNL A   1      36.916  31.709  30.774  1.00  0.00     0.198 A 
ATOM     67  C   UNL A   1      37.880  30.840  32.792  1.00  0.00     0.198 A 
ATOM     68  F   UNL A   1      40.059  29.954  32.769  1.00  0.00    -0.203 F 
ATOM     69  F   UNL A   1      35.901  32.312  30.138  1.00  0.00    -0.200 F 
ATOM     70  C   UNL A   1      36.819  31.438  32.130  1.00  0.00     0.200 A 
ATOM     71  F   UNL A   1      37.785  30.572  34.102  1.00  0.00    -0.200 F 
ATOM     72  F   UNL A   1      35.705  31.762  32.802  1.00  0.00    -0.200 F 
ENDBRANCH  48  62
BRANCH  49  73
ATOM     73  C   UNL A   1      47.349  27.746  25.824  1.00  0.00     0.064 A 
ATOM     74  C   UNL A   1      48.472  27.284  26.522  1.00  0.00     0.173 A 
ATOM     75  C   UNL A   1      47.404  27.745  24.422  1.00  0.00     0.173 A 
ATOM     76  F   UNL A   1      48.474  27.288  27.863  1.00  0.00    -0.203 F 
ATOM     77  C   UNL A   1      49.605  26.840  25.846  1.00  0.00     0.198 A 
ATOM     78  C   UNL A   1      48.527  27.277  23.746  1.00  0.00     0.198 A 
ATOM     79  F   UNL A   1      46.353  28.178  23.709  1.00  0.00    -0.203 F 
ATOM     80  F   UNL A   1      50.678  26.430  26.537  1.00  0.00    -0.200 F 
ATOM     81  C   UNL A   1      49.630  26.829  24.458  1.00  0.00     0.200 A 
ATOM     82  F   UNL A   1      48.542  27.258  22.407  1.00  0.00    -0.200 F 
ATOM     83  F   UNL A   1      50.717  26.392  23.809  1.00  0.00    -0.200 F 
ENDBRANCH  49  73
BRANCH  61  84
ATOM     84  C   UNL A   1      45.485  33.717  28.890  1.00  0.00     0.064 A 
ATOM     85  C   UNL A   1      45.342  34.749  27.952  1.00  0.00     0.173 A 
ATOM     86  C   UNL A   1      46.288  33.950  30.014  1.00  0.00     0.173 A 
ATOM     87  F   UNL A   1      44.597  34.564  26.853  1.00  0.00    -0.203 F 
ATOM     88  C   UNL A   1      45.996  35.965  28.126  1.00  0.00     0.198 A 
ATOM     89  C   UNL A   1      46.923  35.174  30.197  1.00  0.00     0.198 A 
ATOM     90  F   UNL A   1      46.451  32.991  30.940  1.00  0.00    -0.203 F 
ATOM     91  F   UNL A   1      45.879  36.926  27.199  1.00  0.00    -0.200 F 
ATOM     92  C   UNL A   1      46.781  36.178  29.250  1.00  0.00     0.200 A 
ATOM     93  F   UNL A   1      47.675  35.382  31.287  1.00  0.00    -0.200 F 
ATOM     94  F   UNL A   1      47.409  37.351  29.417  1.00  0.00    -0.200 F 
ENDBRANCH  61  84
ENDBRANCH  35  36
ENDBRANCH  28  30
ENDBRANCH  27  28
ENDBRANCH  26  27
ENDBRANCH   1  26
TORSDOF 15
ENDMDL
