MODEL 1
REMARK VINA RESULT:     -12.0      0.000      0.000
REMARK SMILES CC(C)(C[N@H+]1C[C@@H]2C[NH2+]C[C@H]2C1(C)C)C(=O)OCCOC(=O)c1ccc(-c2c3nc(c(-c4c(F)c(F)c(F)c(F)c4F)c4ccc([nH]4)c(-c4c(F)c(F)c(F)c(F)c4F)c4nc(c(-c5c(F)c(F)c(F)c(F)c5F)c5ccc2[nH]5)C=C4)C=C3)cc1
REMARK SMILES IDX 18 1 17 2 15 3 16 4 2 5 1 6 3 7 4 8 5 9 6 10 12 11 7 13
REMARK SMILES IDX 11 14 13 15 14 16 8 17 10 18 9 19 19 22 20 23 21 24 22 25
REMARK SMILES IDX 23 26 24 27 85 28 25 29 84 30 26 31 27 32 28 33 78 34 29 35
REMARK SMILES IDX 83 36 77 37 79 38 30 39 82 40 76 41 75 42 31 44 63 45 43 46
REMARK SMILES IDX 62 47 44 48 47 49 61 50 80 51 45 52 46 53 60 55 81 56 48 57
REMARK SMILES IDX 32 58 33 59 41 60 34 61 35 62 39 63 42 64 36 65 37 66 40 67
REMARK SMILES IDX 38 68 64 69 65 70 73 71 66 72 67 73 71 74 74 75 68 76 69 77
REMARK SMILES IDX 72 78 70 79 49 80 50 81 58 82 51 83 52 84 56 85 59 86 53 87
REMARK SMILES IDX 54 88 57 89 55 90
REMARK H PARENT 5 12 9 20 9 21 79 43 47 54
REMARK Flexibility Score: inf
ROOT
ATOM      1  C   UNL A   1      31.146  29.209  24.656  1.00  0.00     0.274 C 
ENDROOT
BRANCH   1   2
ATOM      2  O   UNL A   1      31.186  27.828  24.238  1.00  0.00    -0.461 OA
BRANCH   2   3
ATOM      3  C   UNL A   1      31.484  27.605  22.929  1.00  0.00     0.317 C 
ATOM      4  O   UNL A   1      30.681  27.750  22.012  1.00  0.00    -0.251 OA
BRANCH   3   5
ATOM      5  C   UNL A   1      32.891  27.035  22.711  1.00  0.00     0.111 C 
ATOM      6  C   UNL A   1      33.865  28.156  22.309  1.00  0.00     0.029 C 
ATOM      7  C   UNL A   1      32.712  26.101  21.489  1.00  0.00     0.029 C 
BRANCH   5   8
ATOM      8  C   UNL A   1      33.447  26.175  23.887  1.00  0.00     0.280 C 
BRANCH   8   9
ATOM      9  N   UNL A   1      33.354  24.699  23.846  1.00  0.00    -0.329 N 
ATOM     10  C   UNL A   1      34.670  23.998  23.830  1.00  0.00     0.272 C 
ATOM     11  C   UNL A   1      32.559  24.114  25.009  1.00  0.00     0.101 C 
ATOM     12  H   UNL A   1      32.875  24.536  22.961  1.00  0.00     0.348 HD
ATOM     13  C   UNL A   1      34.885  23.691  25.279  1.00  0.00     0.114 C 
ATOM     14  C   UNL A   1      33.538  23.123  25.645  1.00  0.00     0.119 C 
ATOM     15  C   UNL A   1      31.980  25.091  26.049  1.00  0.00     0.079 C 
ATOM     16  C   UNL A   1      31.375  23.348  24.388  1.00  0.00     0.079 C 
ATOM     17  C   UNL A   1      35.785  22.616  25.824  1.00  0.00     0.270 C 
ATOM     18  C   UNL A   1      33.769  22.873  27.116  1.00  0.00     0.271 C 
ATOM     19  N   UNL A   1      35.152  22.322  27.143  1.00  0.00    -0.345 N 
ATOM     20  H   UNL A   1      35.687  22.761  27.892  1.00  0.00     0.346 HD
ATOM     21  H   UNL A   1      35.132  21.315  27.312  1.00  0.00     0.346 HD
ENDBRANCH   8   9
ENDBRANCH   5   8
ENDBRANCH   3   5
ENDBRANCH   2   3
ENDBRANCH   1   2
BRANCH   1  22
ATOM     22  C   UNL A   1      31.763  29.380  26.042  1.00  0.00     0.275 C 
BRANCH  22  23
ATOM     23  O   UNL A   1      32.960  30.166  25.930  1.00  0.00    -0.458 OA
BRANCH  23  24
ATOM     24  C   UNL A   1      33.146  31.098  26.886  1.00  0.00     0.338 C 
ATOM     25  O   UNL A   1      32.373  31.998  27.191  1.00  0.00    -0.246 OA
BRANCH  24  26
ATOM     26  C   UNL A   1      34.434  30.876  27.579  1.00  0.00     0.060 A 
ATOM     27  C   UNL A   1      35.278  31.937  27.918  1.00  0.00     0.016 A 
ATOM     28  C   UNL A   1      34.838  29.565  27.844  1.00  0.00     0.016 A 
ATOM     29  C   UNL A   1      36.524  31.696  28.493  1.00  0.00     0.010 A 
ATOM     30  C   UNL A   1      36.051  29.327  28.493  1.00  0.00     0.010 A 
ATOM     31  C   UNL A   1      36.904  30.391  28.827  1.00  0.00    -0.014 A 
BRANCH  31  32
ATOM     32  C   UNL A   1      38.147  30.134  29.596  1.00  0.00     0.031 A 
ATOM     33  C   UNL A   1      39.217  29.237  29.046  1.00  0.00     0.074 A 
ATOM     34  C   UNL A   1      38.277  30.664  30.827  1.00  0.00     0.049 A 
ATOM     35  N   UNL A   1      40.253  28.717  29.656  1.00  0.00    -0.248 NA
ATOM     36  C   UNL A   1      39.103  28.866  27.628  1.00  0.00     0.031 C 
ATOM     37  C   UNL A   1      37.318  31.569  31.464  1.00  0.00     0.029 A 
ATOM     38  N   UNL A   1      39.262  30.508  31.770  1.00  0.00    -0.354 N 
ATOM     39  C   UNL A   1      40.888  27.923  28.712  1.00  0.00     0.074 A 
ATOM     40  C   UNL A   1      40.126  28.033  27.485  1.00  0.00     0.031 C 
ATOM     41  C   UNL A   1      37.768  31.903  32.682  1.00  0.00     0.029 A 
ATOM     42  C   UNL A   1      39.002  31.173  32.943  1.00  0.00     0.049 A 
ATOM     43  H   UNL A   1      40.074  29.973  31.620  1.00  0.00     0.167 HD
ATOM     44  C   UNL A   1      42.002  27.169  28.866  1.00  0.00     0.037 A 
ATOM     45  C   UNL A   1      39.655  31.159  34.120  1.00  0.00     0.037 A 
ATOM     46  C   UNL A   1      42.772  27.093  30.082  1.00  0.00     0.049 A 
ATOM     47  C   UNL A   1      40.868  30.291  34.272  1.00  0.00     0.074 A 
ATOM     48  C   UNL A   1      43.927  26.372  30.330  1.00  0.00     0.029 A 
ATOM     49  N   UNL A   1      42.465  27.770  31.254  1.00  0.00    -0.354 N 
ATOM     50  N   UNL A   1      41.435  29.506  33.390  1.00  0.00    -0.248 NA
ATOM     51  C   UNL A   1      41.517  30.289  35.589  1.00  0.00     0.031 C 
ATOM     52  C   UNL A   1      44.303  26.589  31.661  1.00  0.00     0.029 A 
ATOM     53  C   UNL A   1      43.403  27.474  32.231  1.00  0.00     0.049 A 
ATOM     54  H   UNL A   1      41.696  28.372  31.373  1.00  0.00     0.167 HD
ATOM     55  C   UNL A   1      42.508  28.916  34.041  1.00  0.00     0.074 A 
ATOM     56  C   UNL A   1      42.526  29.452  35.388  1.00  0.00     0.031 C 
ATOM     57  C   UNL A   1      43.395  28.009  33.567  1.00  0.00     0.037 A 
BRANCH  44  58
ATOM     58  C   UNL A   1      42.449  26.337  27.701  1.00  0.00     0.064 A 
ATOM     59  C   UNL A   1      43.439  26.779  26.813  1.00  0.00     0.173 A 
ATOM     60  C   UNL A   1      41.919  25.051  27.508  1.00  0.00     0.173 A 
ATOM     61  F   UNL A   1      43.967  28.005  26.948  1.00  0.00    -0.203 F 
ATOM     62  C   UNL A   1      43.876  25.969  25.767  1.00  0.00     0.198 A 
ATOM     63  C   UNL A   1      42.371  24.237  26.474  1.00  0.00     0.198 A 
ATOM     64  F   UNL A   1      40.970  24.580  28.331  1.00  0.00    -0.203 F 
ATOM     65  F   UNL A   1      44.804  26.421  24.913  1.00  0.00    -0.200 F 
ATOM     66  C   UNL A   1      43.347  24.697  25.603  1.00  0.00     0.200 A 
ATOM     67  F   UNL A   1      41.866  23.004  26.323  1.00  0.00    -0.200 F 
ATOM     68  F   UNL A   1      43.777  23.915  24.603  1.00  0.00    -0.200 F 
ENDBRANCH  44  58
BRANCH  45  69
ATOM     69  C   UNL A   1      39.140  31.973  35.248  1.00  0.00     0.064 A 
ATOM     70  C   UNL A   1      38.405  31.381  36.283  1.00  0.00     0.173 A 
ATOM     71  C   UNL A   1      39.410  33.346  35.338  1.00  0.00     0.173 A 
ATOM     72  F   UNL A   1      38.103  30.076  36.226  1.00  0.00    -0.203 F 
ATOM     73  C   UNL A   1      37.962  32.132  37.368  1.00  0.00     0.198 A 
ATOM     74  C   UNL A   1      38.990  34.091  36.437  1.00  0.00     0.198 A 
ATOM     75  F   UNL A   1      40.112  33.958  34.372  1.00  0.00    -0.203 F 
ATOM     76  F   UNL A   1      37.241  31.547  38.335  1.00  0.00    -0.200 F 
ATOM     77  C   UNL A   1      38.264  33.483  37.451  1.00  0.00     0.200 A 
ATOM     78  F   UNL A   1      39.297  35.393  36.519  1.00  0.00    -0.200 F 
ATOM     79  F   UNL A   1      37.853  34.201  38.504  1.00  0.00    -0.200 F 
ENDBRANCH  45  69
BRANCH  57  80
ATOM     80  C   UNL A   1      44.461  27.552  34.514  1.00  0.00     0.064 A 
ATOM     81  C   UNL A   1      45.666  28.257  34.652  1.00  0.00     0.173 A 
ATOM     82  C   UNL A   1      44.274  26.404  35.296  1.00  0.00     0.173 A 
ATOM     83  F   UNL A   1      45.896  29.350  33.910  1.00  0.00    -0.203 F 
ATOM     84  C   UNL A   1      46.655  27.815  35.525  1.00  0.00     0.198 A 
ATOM     85  C   UNL A   1      45.257  25.976  36.184  1.00  0.00     0.198 A 
ATOM     86  F   UNL A   1      43.138  25.696  35.199  1.00  0.00    -0.203 F 
ATOM     87  F   UNL A   1      47.816  28.478  35.611  1.00  0.00    -0.200 F 
ATOM     88  C   UNL A   1      46.448  26.678  36.293  1.00  0.00     0.200 A 
ATOM     89  F   UNL A   1      45.055  24.880  36.928  1.00  0.00    -0.200 F 
ATOM     90  F   UNL A   1      47.404  26.251  37.130  1.00  0.00    -0.200 F 
ENDBRANCH  57  80
ENDBRANCH  31  32
ENDBRANCH  24  26
ENDBRANCH  23  24
ENDBRANCH  22  23
ENDBRANCH   1  22
TORSDOF 13
ENDMDL
MODEL 2
REMARK VINA RESULT:     -12.0      0.845      1.682
REMARK SMILES CC(C)(C[N@H+]1C[C@@H]2C[NH2+]C[C@H]2C1(C)C)C(=O)OCCOC(=O)c1ccc(-c2c3nc(c(-c4c(F)c(F)c(F)c(F)c4F)c4ccc([nH]4)c(-c4c(F)c(F)c(F)c(F)c4F)c4nc(c(-c5c(F)c(F)c(F)c(F)c5F)c5ccc2[nH]5)C=C4)C=C3)cc1
REMARK SMILES IDX 18 1 17 2 15 3 16 4 2 5 1 6 3 7 4 8 5 9 6 10 12 11 7 13
REMARK SMILES IDX 11 14 13 15 14 16 8 17 10 18 9 19 19 22 20 23 21 24 22 25
REMARK SMILES IDX 23 26 24 27 85 28 25 29 84 30 26 31 27 32 28 33 78 34 29 35
REMARK SMILES IDX 83 36 77 37 79 38 30 39 82 40 76 41 75 42 31 44 63 45 43 46
REMARK SMILES IDX 62 47 44 48 47 49 61 50 80 51 45 52 46 53 60 55 81 56 48 57
REMARK SMILES IDX 32 58 33 59 41 60 34 61 35 62 39 63 42 64 36 65 37 66 40 67
REMARK SMILES IDX 38 68 64 69 65 70 73 71 66 72 67 73 71 74 74 75 68 76 69 77
REMARK SMILES IDX 72 78 70 79 49 80 50 81 58 82 51 83 52 84 56 85 59 86 53 87
REMARK SMILES IDX 54 88 57 89 55 90
REMARK H PARENT 5 12 9 20 9 21 79 43 47 54
REMARK Flexibility Score: inf
ROOT
ATOM      1  C   UNL A   1      31.352  29.471  24.652  1.00  0.00     0.274 C 
ENDROOT
BRANCH   1   2
ATOM      2  O   UNL A   1      31.066  28.083  24.926  1.00  0.00    -0.461 OA
BRANCH   2   3
ATOM      3  C   UNL A   1      31.898  27.172  24.350  1.00  0.00     0.317 C 
ATOM      4  O   UNL A   1      33.111  27.330  24.240  1.00  0.00    -0.251 OA
BRANCH   3   5
ATOM      5  C   UNL A   1      31.163  25.974  23.737  1.00  0.00     0.111 C 
ATOM      6  C   UNL A   1      31.392  25.927  22.216  1.00  0.00     0.029 C 
ATOM      7  C   UNL A   1      29.671  26.310  23.981  1.00  0.00     0.029 C 
BRANCH   5   8
ATOM      8  C   UNL A   1      31.456  24.600  24.413  1.00  0.00     0.280 C 
BRANCH   8   9
ATOM      9  N   UNL A   1      32.848  24.187  24.698  1.00  0.00    -0.329 N 
ATOM     10  C   UNL A   1      33.166  24.046  26.148  1.00  0.00     0.272 C 
ATOM     11  C   UNL A   1      33.230  22.867  24.034  1.00  0.00     0.101 C 
ATOM     12  H   UNL A   1      33.388  24.958  24.309  1.00  0.00     0.348 HD
ATOM     13  C   UNL A   1      32.952  22.583  26.380  1.00  0.00     0.114 C 
ATOM     14  C   UNL A   1      33.701  22.003  25.208  1.00  0.00     0.119 C 
ATOM     15  C   UNL A   1      32.162  22.150  23.189  1.00  0.00     0.079 C 
ATOM     16  C   UNL A   1      34.423  23.175  23.106  1.00  0.00     0.079 C 
ATOM     17  C   UNL A   1      33.546  21.776  27.502  1.00  0.00     0.270 C 
ATOM     18  C   UNL A   1      33.423  20.538  25.440  1.00  0.00     0.271 C 
ATOM     19  N   UNL A   1      33.573  20.404  26.916  1.00  0.00    -0.345 N 
ATOM     20  H   UNL A   1      32.806  19.848  27.294  1.00  0.00     0.346 HD
ATOM     21  H   UNL A   1      34.451  19.936  27.145  1.00  0.00     0.346 HD
ENDBRANCH   8   9
ENDBRANCH   5   8
ENDBRANCH   3   5
ENDBRANCH   2   3
ENDBRANCH   1   2
BRANCH   1  22
ATOM     22  C   UNL A   1      31.530  30.260  25.947  1.00  0.00     0.275 C 
BRANCH  22  23
ATOM     23  O   UNL A   1      32.930  30.494  26.166  1.00  0.00    -0.458 OA
BRANCH  23  24
ATOM     24  C   UNL A   1      33.236  31.500  27.010  1.00  0.00     0.338 C 
ATOM     25  O   UNL A   1      32.560  32.497  27.235  1.00  0.00    -0.246 OA
BRANCH  24  26
ATOM     26  C   UNL A   1      34.522  31.230  27.689  1.00  0.00     0.060 A 
ATOM     27  C   UNL A   1      35.450  32.245  27.935  1.00  0.00     0.016 A 
ATOM     28  C   UNL A   1      34.835  29.914  28.037  1.00  0.00     0.016 A 
ATOM     29  C   UNL A   1      36.690  31.952  28.498  1.00  0.00     0.010 A 
ATOM     30  C   UNL A   1      36.045  29.630  28.675  1.00  0.00     0.010 A 
ATOM     31  C   UNL A   1      36.981  30.649  28.915  1.00  0.00    -0.014 A 
BRANCH  31  32
ATOM     32  C   UNL A   1      38.222  30.352  29.673  1.00  0.00     0.031 A 
ATOM     33  C   UNL A   1      39.278  29.456  29.096  1.00  0.00     0.074 A 
ATOM     34  C   UNL A   1      38.363  30.847  30.918  1.00  0.00     0.049 A 
ATOM     35  N   UNL A   1      40.307  28.904  29.689  1.00  0.00    -0.248 NA
ATOM     36  C   UNL A   1      39.156  29.125  27.669  1.00  0.00     0.031 C 
ATOM     37  C   UNL A   1      37.418  31.748  31.582  1.00  0.00     0.029 A 
ATOM     38  N   UNL A   1      39.347  30.651  31.853  1.00  0.00    -0.354 N 
ATOM     39  C   UNL A   1      40.929  28.127  28.722  1.00  0.00     0.074 A 
ATOM     40  C   UNL A   1      40.166  28.281  27.500  1.00  0.00     0.031 C 
ATOM     41  C   UNL A   1      37.876  32.041  32.807  1.00  0.00     0.029 A 
ATOM     42  C   UNL A   1      39.100  31.287  33.045  1.00  0.00     0.049 A 
ATOM     43  H   UNL A   1      40.152  30.108  31.687  1.00  0.00     0.167 HD
ATOM     44  C   UNL A   1      42.033  27.353  28.852  1.00  0.00     0.037 A 
ATOM     45  C   UNL A   1      39.755  31.231  34.219  1.00  0.00     0.037 A 
ATOM     46  C   UNL A   1      42.804  27.232  30.064  1.00  0.00     0.049 A 
ATOM     47  C   UNL A   1      40.956  30.342  34.344  1.00  0.00     0.074 A 
ATOM     48  C   UNL A   1      43.949  26.488  30.289  1.00  0.00     0.029 A 
ATOM     49  N   UNL A   1      42.510  27.882  31.254  1.00  0.00    -0.354 N 
ATOM     50  N   UNL A   1      41.509  29.573  33.440  1.00  0.00    -0.248 NA
ATOM     51  C   UNL A   1      41.607  30.294  35.660  1.00  0.00     0.031 C 
ATOM     52  C   UNL A   1      44.331  26.664  31.624  1.00  0.00     0.029 A 
ATOM     53  C   UNL A   1      43.445  27.546  32.220  1.00  0.00     0.049 A 
ATOM     54  H   UNL A   1      41.750  28.492  31.392  1.00  0.00     0.167 HD
ATOM     55  C   UNL A   1      42.575  28.951  34.072  1.00  0.00     0.074 A 
ATOM     56  C   UNL A   1      42.603  29.449  35.433  1.00  0.00     0.031 C 
ATOM     57  C   UNL A   1      43.448  28.043  33.571  1.00  0.00     0.037 A 
BRANCH  44  58
ATOM     58  C   UNL A   1      42.464  26.547  27.664  1.00  0.00     0.064 A 
ATOM     59  C   UNL A   1      43.436  27.013  26.768  1.00  0.00     0.173 A 
ATOM     60  C   UNL A   1      41.940  25.262  27.454  1.00  0.00     0.173 A 
ATOM     61  F   UNL A   1      43.959  28.239  26.918  1.00  0.00    -0.203 F 
ATOM     62  C   UNL A   1      43.860  26.226  25.699  1.00  0.00     0.198 A 
ATOM     63  C   UNL A   1      42.380  24.470  26.398  1.00  0.00     0.198 A 
ATOM     64  F   UNL A   1      41.008  24.768  28.285  1.00  0.00    -0.203 F 
ATOM     65  F   UNL A   1      44.771  26.702  24.838  1.00  0.00    -0.200 F 
ATOM     66  C   UNL A   1      43.337  24.954  25.519  1.00  0.00     0.200 A 
ATOM     67  F   UNL A   1      41.880  23.237  26.231  1.00  0.00    -0.200 F 
ATOM     68  F   UNL A   1      43.755  24.194  24.497  1.00  0.00    -0.200 F 
ENDBRANCH  44  58
BRANCH  45  69
ATOM     69  C   UNL A   1      39.255  32.021  35.371  1.00  0.00     0.064 A 
ATOM     70  C   UNL A   1      38.435  31.433  36.342  1.00  0.00     0.173 A 
ATOM     71  C   UNL A   1      39.622  33.363  35.548  1.00  0.00     0.173 A 
ATOM     72  F   UNL A   1      38.039  30.160  36.200  1.00  0.00    -0.203 F 
ATOM     73  C   UNL A   1      38.003  32.158  37.450  1.00  0.00     0.198 A 
ATOM     74  C   UNL A   1      39.212  34.079  36.670  1.00  0.00     0.198 A 
ATOM     75  F   UNL A   1      40.408  33.970  34.646  1.00  0.00    -0.203 F 
ATOM     76  F   UNL A   1      37.200  31.580  38.354  1.00  0.00    -0.200 F 
ATOM     77  C   UNL A   1      38.401  33.475  37.619  1.00  0.00     0.200 A 
ATOM     78  F   UNL A   1      39.611  35.347  36.837  1.00  0.00    -0.200 F 
ATOM     79  F   UNL A   1      38.000  34.166  38.695  1.00  0.00    -0.200 F 
ENDBRANCH  45  69
BRANCH  57  80
ATOM     80  C   UNL A   1      44.509  27.546  34.503  1.00  0.00     0.064 A 
ATOM     81  C   UNL A   1      44.325  26.383  35.265  1.00  0.00     0.173 A 
ATOM     82  C   UNL A   1      45.725  28.233  34.628  1.00  0.00     0.173 A 
ATOM     83  F   UNL A   1      43.170  25.705  35.191  1.00  0.00    -0.203 F 
ATOM     84  C   UNL A   1      45.312  25.938  36.138  1.00  0.00     0.198 A 
ATOM     85  C   UNL A   1      46.720  27.773  35.487  1.00  0.00     0.198 A 
ATOM     86  F   UNL A   1      45.947  29.350  33.919  1.00  0.00    -0.203 F 
ATOM     87  F   UNL A   1      45.101  24.850  36.889  1.00  0.00    -0.200 F 
ATOM     88  C   UNL A   1      46.510  26.631  36.245  1.00  0.00     0.200 A 
ATOM     89  F   UNL A   1      47.878  28.441  35.586  1.00  0.00    -0.200 F 
ATOM     90  F   UNL A   1      47.459  26.204  37.089  1.00  0.00    -0.200 F 
ENDBRANCH  57  80
ENDBRANCH  31  32
ENDBRANCH  24  26
ENDBRANCH  23  24
ENDBRANCH  22  23
ENDBRANCH   1  22
TORSDOF 13
ENDMDL
MODEL 3
REMARK VINA RESULT:     -12.0      0.830      1.965
REMARK SMILES CC(C)(C[N@H+]1C[C@@H]2C[NH2+]C[C@H]2C1(C)C)C(=O)OCCOC(=O)c1ccc(-c2c3nc(c(-c4c(F)c(F)c(F)c(F)c4F)c4ccc([nH]4)c(-c4c(F)c(F)c(F)c(F)c4F)c4nc(c(-c5c(F)c(F)c(F)c(F)c5F)c5ccc2[nH]5)C=C4)C=C3)cc1
REMARK SMILES IDX 18 1 17 2 15 3 16 4 2 5 1 6 3 7 4 8 5 9 6 10 12 11 7 13
REMARK SMILES IDX 11 14 13 15 14 16 8 17 10 18 9 19 19 22 20 23 21 24 22 25
REMARK SMILES IDX 23 26 24 27 85 28 25 29 84 30 26 31 27 32 28 33 78 34 29 35
REMARK SMILES IDX 83 36 77 37 79 38 30 39 82 40 76 41 75 42 31 44 63 45 43 46
REMARK SMILES IDX 62 47 44 48 47 49 61 50 80 51 45 52 46 53 60 55 81 56 48 57
REMARK SMILES IDX 32 58 33 59 41 60 34 61 35 62 39 63 42 64 36 65 37 66 40 67
REMARK SMILES IDX 38 68 64 69 65 70 73 71 66 72 67 73 71 74 74 75 68 76 69 77
REMARK SMILES IDX 72 78 70 79 49 80 50 81 58 82 51 83 52 84 56 85 59 86 53 87
REMARK SMILES IDX 54 88 57 89 55 90
REMARK H PARENT 5 12 9 20 9 21 79 43 47 54
REMARK Flexibility Score: inf
ROOT
ATOM      1  C   UNL A   1      31.561  28.436  25.821  1.00  0.00     0.274 C 
ENDROOT
BRANCH   1   2
ATOM      2  O   UNL A   1      30.756  27.863  24.768  1.00  0.00    -0.461 OA
BRANCH   2   3
ATOM      3  C   UNL A   1      30.734  26.504  24.700  1.00  0.00     0.317 C 
ATOM      4  O   UNL A   1      30.401  25.779  25.633  1.00  0.00    -0.251 OA
BRANCH   3   5
ATOM      5  C   UNL A   1      31.281  25.949  23.379  1.00  0.00     0.111 C 
ATOM      6  C   UNL A   1      31.022  26.944  22.234  1.00  0.00     0.029 C 
ATOM      7  C   UNL A   1      30.404  24.698  23.128  1.00  0.00     0.029 C 
BRANCH   5   8
ATOM      8  C   UNL A   1      32.769  25.485  23.421  1.00  0.00     0.280 C 
BRANCH   8   9
ATOM      9  N   UNL A   1      33.130  24.181  24.020  1.00  0.00    -0.329 N 
ATOM     10  C   UNL A   1      33.980  23.317  23.152  1.00  0.00     0.272 C 
ATOM     11  C   UNL A   1      33.858  24.314  25.355  1.00  0.00     0.101 C 
ATOM     12  H   UNL A   1      32.220  23.740  24.146  1.00  0.00     0.348 HD
ATOM     13  C   UNL A   1      35.359  23.636  23.638  1.00  0.00     0.114 C 
ATOM     14  C   UNL A   1      35.158  23.537  25.128  1.00  0.00     0.119 C 
ATOM     15  C   UNL A   1      34.126  25.732  25.891  1.00  0.00     0.079 C 
ATOM     16  C   UNL A   1      32.993  23.582  26.399  1.00  0.00     0.079 C 
ATOM     17  C   UNL A   1      36.572  22.761  23.473  1.00  0.00     0.270 C 
ATOM     18  C   UNL A   1      36.546  23.914  25.587  1.00  0.00     0.271 C 
ATOM     19  N   UNL A   1      37.420  23.188  24.624  1.00  0.00    -0.345 N 
ATOM     20  H   UNL A   1      38.165  23.805  24.298  1.00  0.00     0.346 HD
ATOM     21  H   UNL A   1      37.849  22.377  25.071  1.00  0.00     0.346 HD
ENDBRANCH   8   9
ENDBRANCH   5   8
ENDBRANCH   3   5
ENDBRANCH   2   3
ENDBRANCH   1   2
BRANCH   1  22
ATOM     22  C   UNL A   1      31.779  29.929  25.594  1.00  0.00     0.275 C 
BRANCH  22  23
ATOM     23  O   UNL A   1      33.139  30.260  25.916  1.00  0.00    -0.458 OA
BRANCH  23  24
ATOM     24  C   UNL A   1      33.310  31.151  26.913  1.00  0.00     0.338 C 
ATOM     25  O   UNL A   1      32.523  32.027  27.254  1.00  0.00    -0.246 OA
BRANCH  24  26
ATOM     26  C   UNL A   1      34.597  30.914  27.602  1.00  0.00     0.060 A 
ATOM     27  C   UNL A   1      35.453  31.966  27.940  1.00  0.00     0.016 A 
ATOM     28  C   UNL A   1      34.988  29.599  27.863  1.00  0.00     0.016 A 
ATOM     29  C   UNL A   1      36.698  31.712  28.511  1.00  0.00     0.010 A 
ATOM     30  C   UNL A   1      36.201  29.347  28.508  1.00  0.00     0.010 A 
ATOM     31  C   UNL A   1      37.065  30.402  28.841  1.00  0.00    -0.014 A 
BRANCH  31  32
ATOM     32  C   UNL A   1      38.308  30.131  29.606  1.00  0.00     0.031 A 
ATOM     33  C   UNL A   1      39.369  29.227  29.050  1.00  0.00     0.074 A 
ATOM     34  C   UNL A   1      38.446  30.655  30.839  1.00  0.00     0.049 A 
ATOM     35  N   UNL A   1      40.401  28.695  29.655  1.00  0.00    -0.248 NA
ATOM     36  C   UNL A   1      39.248  28.861  27.631  1.00  0.00     0.031 C 
ATOM     37  C   UNL A   1      37.497  31.566  31.482  1.00  0.00     0.029 A 
ATOM     38  N   UNL A   1      39.432  30.487  31.778  1.00  0.00    -0.354 N 
ATOM     39  C   UNL A   1      41.027  27.898  28.707  1.00  0.00     0.074 A 
ATOM     40  C   UNL A   1      40.263  28.020  27.482  1.00  0.00     0.031 C 
ATOM     41  C   UNL A   1      37.953  31.891  32.700  1.00  0.00     0.029 A 
ATOM     42  C   UNL A   1      39.181  31.149  32.955  1.00  0.00     0.049 A 
ATOM     43  H   UNL A   1      40.239  29.945  31.624  1.00  0.00     0.167 HD
ATOM     44  C   UNL A   1      42.135  27.133  28.855  1.00  0.00     0.037 A 
ATOM     45  C   UNL A   1      39.837  31.125  34.130  1.00  0.00     0.037 A 
ATOM     46  C   UNL A   1      42.907  27.046  30.069  1.00  0.00     0.049 A 
ATOM     47  C   UNL A   1      41.043  30.245  34.275  1.00  0.00     0.074 A 
ATOM     48  C   UNL A   1      44.056  26.314  30.311  1.00  0.00     0.029 A 
ATOM     49  N   UNL A   1      42.609  27.722  31.243  1.00  0.00    -0.354 N 
ATOM     50  N   UNL A   1      41.600  29.458  33.389  1.00  0.00    -0.248 NA
ATOM     51  C   UNL A   1      41.695  30.232  35.591  1.00  0.00     0.031 C 
ATOM     52  C   UNL A   1      44.437  26.522  31.641  1.00  0.00     0.029 A 
ATOM     53  C   UNL A   1      43.546  27.413  32.217  1.00  0.00     0.049 A 
ATOM     54  H   UNL A   1      41.846  28.330  31.367  1.00  0.00     0.167 HD
ATOM     55  C   UNL A   1      42.669  28.857  34.035  1.00  0.00     0.074 A 
ATOM     56  C   UNL A   1      42.695  29.387  35.384  1.00  0.00     0.031 C 
ATOM     57  C   UNL A   1      43.547  27.943  33.555  1.00  0.00     0.037 A 
BRANCH  44  58
ATOM     58  C   UNL A   1      42.570  26.302  27.685  1.00  0.00     0.064 A 
ATOM     59  C   UNL A   1      43.547  26.748  26.785  1.00  0.00     0.173 A 
ATOM     60  C   UNL A   1      42.044  25.014  27.500  1.00  0.00     0.173 A 
ATOM     61  F   UNL A   1      44.071  27.977  26.911  1.00  0.00    -0.203 F 
ATOM     62  C   UNL A   1      43.975  25.939  25.734  1.00  0.00     0.198 A 
ATOM     63  C   UNL A   1      42.488  24.200  26.463  1.00  0.00     0.198 A 
ATOM     64  F   UNL A   1      41.108  24.539  28.336  1.00  0.00    -0.203 F 
ATOM     65  F   UNL A   1      44.890  26.394  24.868  1.00  0.00    -0.200 F 
ATOM     66  C   UNL A   1      43.451  24.664  25.578  1.00  0.00     0.200 A 
ATOM     67  F   UNL A   1      41.988  22.964  26.320  1.00  0.00    -0.200 F 
ATOM     68  F   UNL A   1      43.872  23.882  24.574  1.00  0.00    -0.200 F 
ENDBRANCH  44  58
BRANCH  45  69
ATOM     69  C   UNL A   1      39.332  31.939  35.262  1.00  0.00     0.064 A 
ATOM     70  C   UNL A   1      39.638  33.302  35.358  1.00  0.00     0.173 A 
ATOM     71  C   UNL A   1      38.499  31.383  36.244  1.00  0.00     0.173 A 
ATOM     72  F   UNL A   1      40.450  33.869  34.455  1.00  0.00    -0.203 F 
ATOM     73  C   UNL A   1      39.126  34.081  36.393  1.00  0.00     0.198 A 
ATOM     74  C   UNL A   1      37.966  32.168  37.263  1.00  0.00     0.198 A 
ATOM     75  F   UNL A   1      38.176  30.082  36.194  1.00  0.00    -0.203 F 
ATOM     76  F   UNL A   1      39.452  35.378  36.476  1.00  0.00    -0.200 F 
ATOM     77  C   UNL A   1      38.282  33.517  37.337  1.00  0.00     0.200 A 
ATOM     78  F   UNL A   1      37.139  31.622  38.165  1.00  0.00    -0.200 F 
ATOM     79  F   UNL A   1      37.775  34.271  38.322  1.00  0.00    -0.200 F 
ENDBRANCH  45  69
BRANCH  57  80
ATOM     80  C   UNL A   1      44.612  27.473  34.498  1.00  0.00     0.064 A 
ATOM     81  C   UNL A   1      44.429  26.335  35.297  1.00  0.00     0.173 A 
ATOM     82  C   UNL A   1      45.828  28.162  34.598  1.00  0.00     0.173 A 
ATOM     83  F   UNL A   1      43.273  25.656  35.248  1.00  0.00    -0.203 F 
ATOM     84  C   UNL A   1      45.419  25.916  36.179  1.00  0.00     0.198 A 
ATOM     85  C   UNL A   1      46.826  27.728  35.466  1.00  0.00     0.198 A 
ATOM     86  F   UNL A   1      46.049  29.256  33.853  1.00  0.00    -0.203 F 
ATOM     87  F   UNL A   1      45.209  24.852  36.965  1.00  0.00    -0.200 F 
ATOM     88  C   UNL A   1      46.618  26.610  36.260  1.00  0.00     0.200 A 
ATOM     89  F   UNL A   1      47.985  28.397  35.540  1.00  0.00    -0.200 F 
ATOM     90  F   UNL A   1      47.569  26.208  37.114  1.00  0.00    -0.200 F 
ENDBRANCH  57  80
ENDBRANCH  31  32
ENDBRANCH  24  26
ENDBRANCH  23  24
ENDBRANCH  22  23
ENDBRANCH   1  22
TORSDOF 13
ENDMDL
