MODEL 1
REMARK VINA RESULT:     -12.5      0.000      0.000
REMARK SMILES CC(=O)OCC1=C(C(=O)OCCOC(=O)c2ccc(-c3c4nc(c(-c5c(F)c(F)c(F)c(F)c5F)c5ccc([nH]5)c(-c5c(F)c(F)c(F)c(F)c5F)c5nc(c(-c6c(F)c(F)c(F)c(F)c6F)c6ccc3[nH]6)C=C5)C=C4)cc2)N2C(=O)[C@H](NC(=O)C3CCCCC3)[C@@H]2SC1
REMARK SMILES IDX 11 1 10 2 8 3 9 4 7 5 6 6 94 7 79 8 93 9 80 10 92 11 81 12
REMARK SMILES IDX 82 13 5 14 4 15 2 16 1 17 3 18 83 19 84 20 85 22 86 23 87 24
REMARK SMILES IDX 91 25 88 26 90 27 89 28 12 29 13 30 14 31 15 32 16 33 17 34
REMARK SMILES IDX 78 35 18 36 77 37 19 38 20 39 21 40 71 41 22 42 76 43 70 44
REMARK SMILES IDX 72 45 23 46 75 47 69 48 68 49 24 51 56 52 36 53 55 54 37 55
REMARK SMILES IDX 40 56 54 57 73 58 38 59 39 60 53 62 74 63 41 64 25 65 26 66
REMARK SMILES IDX 34 67 27 68 28 69 32 70 35 71 29 72 30 73 33 74 31 75 57 76
REMARK SMILES IDX 58 77 66 78 59 79 60 80 64 81 67 82 61 83 62 84 65 85 63 86
REMARK SMILES IDX 42 87 43 88 51 89 44 90 45 91 49 92 52 93 46 94 47 95 50 96
REMARK SMILES IDX 48 97
REMARK H PARENT 83 21 72 50 40 61
REMARK Flexibility Score: inf
ROOT
ATOM      1  C   UNL A   1      31.560  28.058  27.323  1.00  0.00     0.275 C 
ENDROOT
BRANCH   1   2
ATOM      2  O   UNL A   1      32.202  27.100  26.449  1.00  0.00    -0.457 OA
BRANCH   2   3
ATOM      3  C   UNL A   1      31.428  26.098  25.948  1.00  0.00     0.355 C 
ATOM      4  O   UNL A   1      30.271  25.897  26.275  1.00  0.00    -0.244 OA
BRANCH   3   5
ATOM      5  C   UNL A   1      32.123  25.416  24.783  1.00  0.00     0.134 C 
ATOM      6  C   UNL A   1      32.233  25.955  23.537  1.00  0.00     0.008 C 
ATOM      7  C   UNL A   1      32.823  25.194  22.350  1.00  0.00     0.108 C 
ATOM      8  N   UNL A   1      32.630  24.168  25.010  1.00  0.00    -0.289 N 
ATOM      9  S   UNL A   1      33.969  23.848  22.801  1.00  0.00    -0.129 SA
ATOM     10  C   UNL A   1      33.101  23.425  26.035  1.00  0.00     0.253 C 
ATOM     11  C   UNL A   1      32.797  23.167  23.977  1.00  0.00     0.181 C 
ATOM     12  O   UNL A   1      33.272  23.608  27.214  1.00  0.00    -0.272 OA
ATOM     13  C   UNL A   1      33.280  22.211  25.090  1.00  0.00     0.205 C 
BRANCH   6  14
ATOM     14  C   UNL A   1      31.819  27.391  23.244  1.00  0.00     0.267 C 
BRANCH  14  15
ATOM     15  O   UNL A   1      30.617  27.467  22.462  1.00  0.00    -0.461 OA
BRANCH  15  16
ATOM     16  C   UNL A   1      29.506  27.912  23.113  1.00  0.00     0.302 C 
ATOM     17  C   UNL A   1      29.557  29.404  23.242  1.00  0.00     0.139 C 
ATOM     18  O   UNL A   1      28.615  27.206  23.560  1.00  0.00    -0.253 OA
ENDBRANCH  15  16
ENDBRANCH  14  15
ENDBRANCH   6  14
BRANCH  13  19
ATOM     19  N   UNL A   1      34.613  21.597  25.029  1.00  0.00    -0.342 N 
ATOM     20  C   UNL A   1      35.012  20.301  24.921  1.00  0.00     0.223 C 
ATOM     21  H   UNL A   1      35.354  22.242  25.074  1.00  0.00     0.164 HD
ATOM     22  O   UNL A   1      36.221  20.101  25.096  1.00  0.00    -0.275 OA
BRANCH  20  23
ATOM     23  C   UNL A   1      34.101  19.100  24.597  1.00  0.00     0.078 C 
ATOM     24  C   UNL A   1      34.959  17.877  24.218  1.00  0.00     0.013 C 
ATOM     25  C   UNL A   1      32.996  18.686  25.567  1.00  0.00     0.013 C 
ATOM     26  C   UNL A   1      34.111  16.701  23.720  1.00  0.00     0.001 C 
ATOM     27  C   UNL A   1      32.130  17.557  25.012  1.00  0.00     0.001 C 
ATOM     28  C   UNL A   1      32.996  16.342  24.695  1.00  0.00     0.000 C 
ENDBRANCH  20  23
ENDBRANCH  13  19
ENDBRANCH   3   5
ENDBRANCH   2   3
ENDBRANCH   1   2
BRANCH   1  29
ATOM     29  C   UNL A   1      31.708  29.486  26.786  1.00  0.00     0.275 C 
BRANCH  29  30
ATOM     30  O   UNL A   1      33.086  29.813  26.529  1.00  0.00    -0.458 OA
BRANCH  30  31
ATOM     31  C   UNL A   1      33.500  30.989  27.047  1.00  0.00     0.338 C 
ATOM     32  O   UNL A   1      32.849  32.010  27.199  1.00  0.00    -0.246 OA
BRANCH  31  33
ATOM     33  C   UNL A   1      34.844  30.826  27.616  1.00  0.00     0.060 A 
ATOM     34  C   UNL A   1      35.224  29.523  27.920  1.00  0.00     0.016 A 
ATOM     35  C   UNL A   1      35.676  31.893  27.942  1.00  0.00     0.016 A 
ATOM     36  C   UNL A   1      36.406  29.271  28.599  1.00  0.00     0.010 A 
ATOM     37  C   UNL A   1      36.889  31.635  28.599  1.00  0.00     0.010 A 
ATOM     38  C   UNL A   1      37.252  30.322  28.959  1.00  0.00    -0.014 A 
BRANCH  38  39
ATOM     39  C   UNL A   1      38.463  30.039  29.774  1.00  0.00     0.031 A 
ATOM     40  C   UNL A   1      39.537  29.142  29.220  1.00  0.00     0.074 A 
ATOM     41  C   UNL A   1      38.649  30.631  30.971  1.00  0.00     0.049 A 
ATOM     42  N   UNL A   1      40.592  28.640  29.812  1.00  0.00    -0.248 NA
ATOM     43  C   UNL A   1      39.413  28.772  27.802  1.00  0.00     0.031 C 
ATOM     44  C   UNL A   1      37.757  31.620  31.578  1.00  0.00     0.029 A 
ATOM     45  N   UNL A   1      39.660  30.487  31.892  1.00  0.00    -0.354 N 
ATOM     46  C   UNL A   1      41.230  27.863  28.854  1.00  0.00     0.074 A 
ATOM     47  C   UNL A   1      40.442  27.954  27.644  1.00  0.00     0.031 C 
ATOM     48  C   UNL A   1      38.256  31.991  32.767  1.00  0.00     0.029 A 
ATOM     49  C   UNL A   1      39.451  31.204  33.046  1.00  0.00     0.049 A 
ATOM     50  H   UNL A   1      40.454  29.925  31.740  1.00  0.00     0.167 HD
ATOM     51  C   UNL A   1      42.367  27.137  28.979  1.00  0.00     0.037 A 
ATOM     52  C   UNL A   1      40.112  31.182  34.220  1.00  0.00     0.037 A 
ATOM     53  C   UNL A   1      43.159  27.073  30.180  1.00  0.00     0.049 A 
ATOM     54  C   UNL A   1      41.300  30.269  34.376  1.00  0.00     0.074 A 
ATOM     55  C   UNL A   1      44.317  26.351  30.413  1.00  0.00     0.029 A 
ATOM     56  N   UNL A   1      42.873  27.758  31.352  1.00  0.00    -0.354 N 
ATOM     57  N   UNL A   1      41.864  29.484  33.493  1.00  0.00    -0.248 NA
ATOM     58  C   UNL A   1      41.937  30.233  35.701  1.00  0.00     0.031 C 
ATOM     59  C   UNL A   1      44.695  26.547  31.745  1.00  0.00     0.029 A 
ATOM     60  C   UNL A   1      43.818  27.452  32.321  1.00  0.00     0.049 A 
ATOM     61  H   UNL A   1      42.113  28.370  31.478  1.00  0.00     0.167 HD
ATOM     62  C   UNL A   1      42.940  28.891  34.139  1.00  0.00     0.074 A 
ATOM     63  C   UNL A   1      42.956  29.414  35.489  1.00  0.00     0.031 C 
ATOM     64  C   UNL A   1      43.836  27.995  33.656  1.00  0.00     0.037 A 
BRANCH  51  65
ATOM     65  C   UNL A   1      42.790  26.300  27.805  1.00  0.00     0.064 A 
ATOM     66  C   UNL A   1      42.328  24.990  27.613  1.00  0.00     0.173 A 
ATOM     67  C   UNL A   1      43.661  26.834  26.841  1.00  0.00     0.173 A 
ATOM     68  F   UNL A   1      41.508  24.424  28.512  1.00  0.00    -0.203 F 
ATOM     69  C   UNL A   1      42.747  24.235  26.518  1.00  0.00     0.198 A 
ATOM     70  C   UNL A   1      44.049  26.090  25.730  1.00  0.00     0.198 A 
ATOM     71  F   UNL A   1      44.131  28.084  26.973  1.00  0.00    -0.203 F 
ATOM     72  F   UNL A   1      42.339  22.966  26.387  1.00  0.00    -0.200 F 
ATOM     73  C   UNL A   1      43.600  24.789  25.575  1.00  0.00     0.200 A 
ATOM     74  F   UNL A   1      44.862  26.633  24.813  1.00  0.00    -0.200 F 
ATOM     75  F   UNL A   1      43.998  24.062  24.521  1.00  0.00    -0.200 F 
ENDBRANCH  51  65
BRANCH  52  76
ATOM     76  C   UNL A   1      39.628  32.002  35.366  1.00  0.00     0.064 A 
ATOM     77  C   UNL A   1      38.678  31.501  36.267  1.00  0.00     0.173 A 
ATOM     78  C   UNL A   1      40.077  33.317  35.560  1.00  0.00     0.173 A 
ATOM     79  F   UNL A   1      38.191  30.261  36.106  1.00  0.00    -0.203 F 
ATOM     80  C   UNL A   1      38.181  32.291  37.302  1.00  0.00     0.198 A 
ATOM     81  C   UNL A   1      39.608  34.093  36.618  1.00  0.00     0.198 A 
ATOM     82  F   UNL A   1      40.978  33.852  34.722  1.00  0.00    -0.203 F 
ATOM     83  F   UNL A   1      37.225  31.810  38.109  1.00  0.00    -0.200 F 
ATOM     84  C   UNL A   1      38.651  33.584  37.481  1.00  0.00     0.200 A 
ATOM     85  F   UNL A   1      40.074  35.337  36.791  1.00  0.00    -0.200 F 
ATOM     86  F   UNL A   1      38.170  34.343  38.475  1.00  0.00    -0.200 F 
ENDBRANCH  52  76
BRANCH  64  87
ATOM     87  C   UNL A   1      44.955  27.570  34.566  1.00  0.00     0.064 A 
ATOM     88  C   UNL A   1      44.863  26.434  35.383  1.00  0.00     0.173 A 
ATOM     89  C   UNL A   1      46.161  28.292  34.582  1.00  0.00     0.173 A 
ATOM     90  F   UNL A   1      43.729  25.717  35.417  1.00  0.00    -0.203 F 
ATOM     91  C   UNL A   1      45.923  26.052  36.201  1.00  0.00     0.198 A 
ATOM     92  C   UNL A   1      47.231  27.885  35.373  1.00  0.00     0.198 A 
ATOM     93  F   UNL A   1      46.307  29.382  33.814  1.00  0.00    -0.203 F 
ATOM     94  F   UNL A   1      45.793  24.992  37.011  1.00  0.00    -0.200 F 
ATOM     95  C   UNL A   1      47.109  26.770  36.188  1.00  0.00     0.200 A 
ATOM     96  F   UNL A   1      48.383  28.570  35.343  1.00  0.00    -0.200 F 
ATOM     97  F   UNL A   1      48.133  26.393  36.966  1.00  0.00    -0.200 F 
ENDBRANCH  64  87
ENDBRANCH  38  39
ENDBRANCH  31  33
ENDBRANCH  30  31
ENDBRANCH  29  30
ENDBRANCH   1  29
TORSDOF 16
ENDMDL
MODEL 2
REMARK VINA RESULT:     -12.3      4.135      9.976
REMARK SMILES CC(=O)OCC1=C(C(=O)OCCOC(=O)c2ccc(-c3c4nc(c(-c5c(F)c(F)c(F)c(F)c5F)c5ccc([nH]5)c(-c5c(F)c(F)c(F)c(F)c5F)c5nc(c(-c6c(F)c(F)c(F)c(F)c6F)c6ccc3[nH]6)C=C5)C=C4)cc2)N2C(=O)[C@H](NC(=O)C3CCCCC3)[C@@H]2SC1
REMARK SMILES IDX 11 1 10 2 8 3 9 4 7 5 6 6 94 7 79 8 93 9 80 10 92 11 81 12
REMARK SMILES IDX 82 13 5 14 4 15 2 16 1 17 3 18 83 19 84 20 85 22 86 23 87 24
REMARK SMILES IDX 91 25 88 26 90 27 89 28 12 29 13 30 14 31 15 32 16 33 17 34
REMARK SMILES IDX 78 35 18 36 77 37 19 38 20 39 21 40 71 41 22 42 76 43 70 44
REMARK SMILES IDX 72 45 23 46 75 47 69 48 68 49 24 51 56 52 36 53 55 54 37 55
REMARK SMILES IDX 40 56 54 57 73 58 38 59 39 60 53 62 74 63 41 64 25 65 26 66
REMARK SMILES IDX 34 67 27 68 28 69 32 70 35 71 29 72 30 73 33 74 31 75 57 76
REMARK SMILES IDX 58 77 66 78 59 79 60 80 64 81 67 82 61 83 62 84 65 85 63 86
REMARK SMILES IDX 42 87 43 88 51 89 44 90 45 91 49 92 52 93 46 94 47 95 50 96
REMARK SMILES IDX 48 97
REMARK H PARENT 83 21 72 50 40 61
REMARK Flexibility Score: inf
ROOT
ATOM      1  C   UNL A   1      36.050  20.594  25.036  1.00  0.00     0.275 C 
ENDROOT
BRANCH   1   2
ATOM      2  O   UNL A   1      35.445  21.443  26.040  1.00  0.00    -0.457 OA
BRANCH   2   3
ATOM      3  C   UNL A   1      34.123  21.248  26.306  1.00  0.00     0.355 C 
ATOM      4  O   UNL A   1      33.665  21.095  27.426  1.00  0.00    -0.244 OA
BRANCH   3   5
ATOM      5  C   UNL A   1      33.287  21.468  25.058  1.00  0.00     0.134 C 
ATOM      6  C   UNL A   1      32.911  20.476  24.205  1.00  0.00     0.008 C 
ATOM      7  C   UNL A   1      32.181  20.740  22.889  1.00  0.00     0.108 C 
ATOM      8  N   UNL A   1      32.933  22.756  24.770  1.00  0.00    -0.289 N 
ATOM      9  S   UNL A   1      31.248  22.308  22.838  1.00  0.00    -0.129 SA
ATOM     10  C   UNL A   1      32.717  23.925  25.410  1.00  0.00     0.253 C 
ATOM     11  C   UNL A   1      32.664  23.236  23.432  1.00  0.00     0.181 C 
ATOM     12  O   UNL A   1      32.747  24.288  26.559  1.00  0.00    -0.272 OA
ATOM     13  C   UNL A   1      32.470  24.636  24.057  1.00  0.00     0.205 C 
BRANCH   6  14
ATOM     14  C   UNL A   1      33.147  19.007  24.529  1.00  0.00     0.267 C 
BRANCH  14  15
ATOM     15  O   UNL A   1      33.237  18.191  23.350  1.00  0.00    -0.461 OA
BRANCH  15  16
ATOM     16  C   UNL A   1      34.060  17.108  23.432  1.00  0.00     0.302 C 
ATOM     17  C   UNL A   1      34.920  17.216  24.655  1.00  0.00     0.139 C 
ATOM     18  O   UNL A   1      34.119  16.199  22.618  1.00  0.00    -0.253 OA
ENDBRANCH  15  16
ENDBRANCH  14  15
ENDBRANCH   6  14
BRANCH  13  19
ATOM     19  N   UNL A   1      31.203  25.361  23.898  1.00  0.00    -0.342 N 
ATOM     20  C   UNL A   1      30.726  26.496  24.478  1.00  0.00     0.223 C 
ATOM     21  H   UNL A   1      30.584  24.951  23.252  1.00  0.00     0.164 HD
ATOM     22  O   UNL A   1      29.529  26.736  24.272  1.00  0.00    -0.275 OA
BRANCH  20  23
ATOM     23  C   UNL A   1      31.543  27.480  25.339  1.00  0.00     0.078 C 
ATOM     24  C   UNL A   1      31.383  28.913  24.791  1.00  0.00     0.013 C 
ATOM     25  C   UNL A   1      31.397  27.481  26.859  1.00  0.00     0.013 C 
ATOM     26  C   UNL A   1      32.305  29.913  25.498  1.00  0.00     0.001 C 
ATOM     27  C   UNL A   1      32.374  28.439  27.536  1.00  0.00     0.001 C 
ATOM     28  C   UNL A   1      32.160  29.857  27.014  1.00  0.00     0.000 C 
ENDBRANCH  20  23
ENDBRANCH  13  19
ENDBRANCH   3   5
ENDBRANCH   2   3
ENDBRANCH   1   2
BRANCH   1  29
ATOM     29  C   UNL A   1      37.524  20.952  24.822  1.00  0.00     0.275 C 
BRANCH  29  30
ATOM     30  O   UNL A   1      38.015  21.813  25.866  1.00  0.00    -0.458 OA
BRANCH  30  31
ATOM     31  C   UNL A   1      39.243  21.502  26.333  1.00  0.00     0.338 C 
ATOM     32  O   UNL A   1      39.855  20.456  26.192  1.00  0.00    -0.246 OA
BRANCH  31  33
ATOM     33  C   UNL A   1      39.871  22.707  26.892  1.00  0.00     0.060 A 
ATOM     34  C   UNL A   1      39.424  23.921  26.384  1.00  0.00     0.016 A 
ATOM     35  C   UNL A   1      40.923  22.672  27.803  1.00  0.00     0.016 A 
ATOM     36  C   UNL A   1      40.052  25.107  26.730  1.00  0.00     0.010 A 
ATOM     37  C   UNL A   1      41.537  23.877  28.180  1.00  0.00     0.010 A 
ATOM     38  C   UNL A   1      41.125  25.104  27.623  1.00  0.00    -0.014 A 
BRANCH  38  39
ATOM     39  C   UNL A   1      41.848  26.374  27.902  1.00  0.00     0.031 A 
ATOM     40  C   UNL A   1      41.176  27.447  28.717  1.00  0.00     0.074 A 
ATOM     41  C   UNL A   1      43.122  26.550  27.500  1.00  0.00     0.049 A 
ATOM     42  N   UNL A   1      41.554  28.678  28.947  1.00  0.00    -0.248 NA
ATOM     43  C   UNL A   1      39.913  27.075  29.372  1.00  0.00     0.031 C 
ATOM     44  C   UNL A   1      43.944  25.552  26.814  1.00  0.00     0.029 A 
ATOM     45  N   UNL A   1      43.953  27.640  27.616  1.00  0.00    -0.354 N 
ATOM     46  C   UNL A   1      40.558  29.240  29.735  1.00  0.00     0.074 A 
ATOM     47  C   UNL A   1      39.555  28.217  29.939  1.00  0.00     0.031 C 
ATOM     48  C   UNL A   1      45.155  26.072  26.569  1.00  0.00     0.029 A 
ATOM     49  C   UNL A   1      45.168  27.466  26.997  1.00  0.00     0.049 A 
ATOM     50  H   UNL A   1      43.702  28.463  28.094  1.00  0.00     0.167 HD
ATOM     51  C   UNL A   1      40.487  30.496  30.236  1.00  0.00     0.037 A 
ATOM     52  C   UNL A   1      46.156  28.348  26.747  1.00  0.00     0.037 A 
ATOM     53  C   UNL A   1      41.503  31.500  30.050  1.00  0.00     0.049 A 
ATOM     54  C   UNL A   1      45.998  29.774  27.204  1.00  0.00     0.074 A 
ATOM     55  C   UNL A   1      41.517  32.809  30.502  1.00  0.00     0.029 A 
ATOM     56  N   UNL A   1      42.688  31.307  29.354  1.00  0.00    -0.354 N 
ATOM     57  N   UNL A   1      45.026  30.323  27.890  1.00  0.00    -0.248 NA
ATOM     58  C   UNL A   1      47.074  30.708  26.840  1.00  0.00     0.031 C 
ATOM     59  C   UNL A   1      42.678  33.425  30.023  1.00  0.00     0.029 A 
ATOM     60  C   UNL A   1      43.426  32.481  29.339  1.00  0.00     0.049 A 
ATOM     61  H   UNL A   1      42.964  30.461  28.932  1.00  0.00     0.167 HD
ATOM     62  C   UNL A   1      45.388  31.651  28.073  1.00  0.00     0.074 A 
ATOM     63  C   UNL A   1      46.675  31.825  27.431  1.00  0.00     0.031 C 
ATOM     64  C   UNL A   1      44.716  32.637  28.716  1.00  0.00     0.037 A 
BRANCH  51  65
ATOM     65  C   UNL A   1      39.240  30.880  30.982  1.00  0.00     0.064 A 
ATOM     66  C   UNL A   1      39.122  30.732  32.371  1.00  0.00     0.173 A 
ATOM     67  C   UNL A   1      38.149  31.428  30.288  1.00  0.00     0.173 A 
ATOM     68  F   UNL A   1      40.128  30.197  33.082  1.00  0.00    -0.203 F 
ATOM     69  C   UNL A   1      37.949  31.088  33.033  1.00  0.00     0.198 A 
ATOM     70  C   UNL A   1      36.992  31.816  30.957  1.00  0.00     0.198 A 
ATOM     71  F   UNL A   1      38.209  31.595  28.958  1.00  0.00    -0.203 F 
ATOM     72  F   UNL A   1      37.838  30.883  34.353  1.00  0.00    -0.200 F 
ATOM     73  C   UNL A   1      36.889  31.637  32.327  1.00  0.00     0.200 A 
ATOM     74  F   UNL A   1      35.975  32.359  30.273  1.00  0.00    -0.200 F 
ATOM     75  F   UNL A   1      35.763  31.983  32.966  1.00  0.00    -0.200 F 
ENDBRANCH  51  65
BRANCH  52  76
ATOM     76  C   UNL A   1      47.354  27.927  25.969  1.00  0.00     0.064 A 
ATOM     77  C   UNL A   1      48.576  27.664  26.604  1.00  0.00     0.173 A 
ATOM     78  C   UNL A   1      47.311  27.815  24.571  1.00  0.00     0.173 A 
ATOM     79  F   UNL A   1      48.679  27.789  27.935  1.00  0.00    -0.203 F 
ATOM     80  C   UNL A   1      49.712  27.329  25.868  1.00  0.00     0.198 A 
ATOM     81  C   UNL A   1      48.437  27.443  23.840  1.00  0.00     0.198 A 
ATOM     82  F   UNL A   1      46.171  28.065  23.910  1.00  0.00    -0.203 F 
ATOM     83  F   UNL A   1      50.883  27.148  26.494  1.00  0.00    -0.200 F 
ATOM     84  C   UNL A   1      49.640  27.212  24.488  1.00  0.00     0.200 A 
ATOM     85  F   UNL A   1      48.359  27.322  22.508  1.00  0.00    -0.200 F 
ATOM     86  F   UNL A   1      50.734  26.893  23.782  1.00  0.00    -0.200 F 
ENDBRANCH  52  76
BRANCH  64  87
ATOM     87  C   UNL A   1      45.384  33.979  28.823  1.00  0.00     0.064 A 
ATOM     88  C   UNL A   1      46.263  34.294  29.870  1.00  0.00     0.173 A 
ATOM     89  C   UNL A   1      45.175  34.951  27.830  1.00  0.00     0.173 A 
ATOM     90  F   UNL A   1      46.488  33.408  30.853  1.00  0.00    -0.203 F 
ATOM     91  C   UNL A   1      46.885  35.538  29.934  1.00  0.00     0.198 A 
ATOM     92  C   UNL A   1      45.828  36.179  27.877  1.00  0.00     0.198 A 
ATOM     93  F   UNL A   1      44.351  34.700  26.802  1.00  0.00    -0.203 F 
ATOM     94  F   UNL A   1      47.681  35.834  30.971  1.00  0.00    -0.200 F 
ATOM     95  C   UNL A   1      46.676  36.475  28.933  1.00  0.00     0.200 A 
ATOM     96  F   UNL A   1      45.639  37.074  26.898  1.00  0.00    -0.200 F 
ATOM     97  F   UNL A   1      47.286  37.667  28.989  1.00  0.00    -0.200 F 
ENDBRANCH  64  87
ENDBRANCH  38  39
ENDBRANCH  31  33
ENDBRANCH  30  31
ENDBRANCH  29  30
ENDBRANCH   1  29
TORSDOF 16
ENDMDL
MODEL 3
REMARK VINA RESULT:     -12.1      1.468      2.440
REMARK SMILES CC(=O)OCC1=C(C(=O)OCCOC(=O)c2ccc(-c3c4nc(c(-c5c(F)c(F)c(F)c(F)c5F)c5ccc([nH]5)c(-c5c(F)c(F)c(F)c(F)c5F)c5nc(c(-c6c(F)c(F)c(F)c(F)c6F)c6ccc3[nH]6)C=C5)C=C4)cc2)N2C(=O)[C@H](NC(=O)C3CCCCC3)[C@@H]2SC1
REMARK SMILES IDX 11 1 10 2 8 3 9 4 7 5 6 6 94 7 79 8 93 9 80 10 92 11 81 12
REMARK SMILES IDX 82 13 5 14 4 15 2 16 1 17 3 18 83 19 84 20 85 22 86 23 87 24
REMARK SMILES IDX 91 25 88 26 90 27 89 28 12 29 13 30 14 31 15 32 16 33 17 34
REMARK SMILES IDX 78 35 18 36 77 37 19 38 20 39 21 40 71 41 22 42 76 43 70 44
REMARK SMILES IDX 72 45 23 46 75 47 69 48 68 49 24 51 56 52 36 53 55 54 37 55
REMARK SMILES IDX 40 56 54 57 73 58 38 59 39 60 53 62 74 63 41 64 25 65 26 66
REMARK SMILES IDX 34 67 27 68 28 69 32 70 35 71 29 72 30 73 33 74 31 75 57 76
REMARK SMILES IDX 58 77 66 78 59 79 60 80 64 81 67 82 61 83 62 84 65 85 63 86
REMARK SMILES IDX 42 87 43 88 51 89 44 90 45 91 49 92 52 93 46 94 47 95 50 96
REMARK SMILES IDX 48 97
REMARK H PARENT 83 21 72 50 40 61
REMARK Flexibility Score: inf
ROOT
ATOM      1  C   UNL A   1      31.045  31.129  25.674  1.00  0.00     0.275 C 
ENDROOT
BRANCH   1   2
ATOM      2  O   UNL A   1      31.962  30.043  25.405  1.00  0.00    -0.457 OA
BRANCH   2   3
ATOM      3  C   UNL A   1      31.593  28.799  25.820  1.00  0.00     0.355 C 
ATOM      4  O   UNL A   1      31.145  28.551  26.927  1.00  0.00    -0.244 OA
BRANCH   3   5
ATOM      5  C   UNL A   1      31.607  27.820  24.659  1.00  0.00     0.134 C 
ATOM      6  C   UNL A   1      30.765  27.890  23.591  1.00  0.00     0.008 C 
ATOM      7  C   UNL A   1      30.712  26.820  22.501  1.00  0.00     0.108 C 
ATOM      8  N   UNL A   1      32.501  26.791  24.729  1.00  0.00    -0.289 N 
ATOM      9  S   UNL A   1      32.242  25.842  22.320  1.00  0.00    -0.129 SA
ATOM     10  C   UNL A   1      33.698  26.511  25.290  1.00  0.00     0.253 C 
ATOM     11  C   UNL A   1      32.308  25.511  24.082  1.00  0.00     0.181 C 
ATOM     12  O   UNL A   1      34.482  27.117  25.976  1.00  0.00    -0.272 OA
ATOM     13  C   UNL A   1      33.632  25.065  24.740  1.00  0.00     0.205 C 
BRANCH   6  14
ATOM     14  C   UNL A   1      29.840  29.080  23.374  1.00  0.00     0.267 C 
BRANCH  14  15
ATOM     15  O   UNL A   1      29.432  29.216  22.003  1.00  0.00    -0.461 OA
BRANCH  15  16
ATOM     16  C   UNL A   1      28.422  30.098  21.763  1.00  0.00     0.302 C 
ATOM     17  C   UNL A   1      27.964  30.707  23.054  1.00  0.00     0.139 C 
ATOM     18  O   UNL A   1      27.933  30.336  20.669  1.00  0.00    -0.253 OA
ENDBRANCH  15  16
ENDBRANCH  14  15
ENDBRANCH   6  14
BRANCH  13  19
ATOM     19  N   UNL A   1      34.762  24.604  23.922  1.00  0.00    -0.342 N 
ATOM     20  C   UNL A   1      35.161  23.360  23.541  1.00  0.00     0.223 C 
ATOM     21  H   UNL A   1      35.336  25.329  23.586  1.00  0.00     0.164 HD
ATOM     22  O   UNL A   1      36.277  23.299  23.010  1.00  0.00    -0.275 OA
BRANCH  20  23
ATOM     23  C   UNL A   1      34.347  22.062  23.707  1.00  0.00     0.078 C 
ATOM     24  C   UNL A   1      34.474  21.544  25.154  1.00  0.00     0.013 C 
ATOM     25  C   UNL A   1      32.889  22.002  23.256  1.00  0.00     0.013 C 
ATOM     26  C   UNL A   1      33.828  20.166  25.339  1.00  0.00     0.001 C 
ATOM     27  C   UNL A   1      32.296  20.601  23.392  1.00  0.00     0.001 C 
ATOM     28  C   UNL A   1      32.388  20.135  24.842  1.00  0.00     0.000 C 
ENDBRANCH  20  23
ENDBRANCH  13  19
ENDBRANCH   3   5
ENDBRANCH   2   3
ENDBRANCH   1   2
BRANCH   1  29
ATOM     29  C   UNL A   1      31.522  31.977  26.858  1.00  0.00     0.275 C 
BRANCH  29  30
ATOM     30  O   UNL A   1      32.893  31.691  27.195  1.00  0.00    -0.458 OA
BRANCH  30  31
ATOM     31  C   UNL A   1      33.611  32.753  27.614  1.00  0.00     0.338 C 
ATOM     32  O   UNL A   1      33.241  33.910  27.727  1.00  0.00    -0.246 OA
BRANCH  31  33
ATOM     33  C   UNL A   1      34.905  32.292  28.135  1.00  0.00     0.060 A 
ATOM     34  C   UNL A   1      34.917  31.024  28.706  1.00  0.00     0.016 A 
ATOM     35  C   UNL A   1      36.049  33.084  28.164  1.00  0.00     0.016 A 
ATOM     36  C   UNL A   1      36.044  30.553  29.361  1.00  0.00     0.010 A 
ATOM     37  C   UNL A   1      37.202  32.593  28.797  1.00  0.00     0.010 A 
ATOM     38  C   UNL A   1      37.200  31.334  29.428  1.00  0.00    -0.014 A 
BRANCH  38  39
ATOM     39  C   UNL A   1      38.363  30.852  30.220  1.00  0.00     0.031 A 
ATOM     40  C   UNL A   1      39.335  29.886  29.599  1.00  0.00     0.074 A 
ATOM     41  C   UNL A   1      38.600  31.323  31.461  1.00  0.00     0.049 A 
ATOM     42  N   UNL A   1      40.320  29.224  30.151  1.00  0.00    -0.248 NA
ATOM     43  C   UNL A   1      39.187  29.647  28.156  1.00  0.00     0.031 C 
ATOM     44  C   UNL A   1      37.817  32.354  32.143  1.00  0.00     0.029 A 
ATOM     45  N   UNL A   1      39.577  30.993  32.371  1.00  0.00    -0.354 N 
ATOM     46  C   UNL A   1      40.879  28.458  29.135  1.00  0.00     0.074 A 
ATOM     47  C   UNL A   1      40.120  28.733  27.934  1.00  0.00     0.031 C 
ATOM     48  C   UNL A   1      38.341  32.571  33.359  1.00  0.00     0.029 A 
ATOM     49  C   UNL A   1      39.437  31.634  33.578  1.00  0.00     0.049 A 
ATOM     50  H   UNL A   1      40.305  30.359  32.176  1.00  0.00     0.167 HD
ATOM     51  C   UNL A   1      41.925  27.601  29.205  1.00  0.00     0.037 A 
ATOM     52  C   UNL A   1      40.078  31.445  34.748  1.00  0.00     0.037 A 
ATOM     53  C   UNL A   1      42.691  27.353  30.399  1.00  0.00     0.049 A 
ATOM     54  C   UNL A   1      41.153  30.395  34.833  1.00  0.00     0.074 A 
ATOM     55  C   UNL A   1      43.758  26.489  30.576  1.00  0.00     0.029 A 
ATOM     56  N   UNL A   1      42.470  27.970  31.622  1.00  0.00    -0.354 N 
ATOM     57  N   UNL A   1      41.636  29.623  33.891  1.00  0.00    -0.248 NA
ATOM     58  C   UNL A   1      41.767  30.182  36.153  1.00  0.00     0.031 C 
ATOM     59  C   UNL A   1      44.140  26.535  31.921  1.00  0.00     0.029 A 
ATOM     60  C   UNL A   1      43.363  27.484  32.565  1.00  0.00     0.049 A 
ATOM     61  H   UNL A   1      41.782  28.652  31.794  1.00  0.00     0.167 HD
ATOM     62  C   UNL A   1      42.632  28.864  34.491  1.00  0.00     0.074 A 
ATOM     63  C   UNL A   1      42.690  29.273  35.878  1.00  0.00     0.031 C 
ATOM     64  C   UNL A   1      43.427  27.913  33.939  1.00  0.00     0.037 A 
BRANCH  51  65
ATOM     65  C   UNL A   1      42.266  26.817  27.968  1.00  0.00     0.064 A 
ATOM     66  C   UNL A   1      41.671  25.581  27.677  1.00  0.00     0.173 A 
ATOM     67  C   UNL A   1      43.192  27.330  27.046  1.00  0.00     0.173 A 
ATOM     68  F   UNL A   1      40.792  25.036  28.532  1.00  0.00    -0.203 F 
ATOM     69  C   UNL A   1      42.015  24.874  26.527  1.00  0.00     0.198 A 
ATOM     70  C   UNL A   1      43.507  26.639  25.880  1.00  0.00     0.198 A 
ATOM     71  F   UNL A   1      43.789  28.511  27.273  1.00  0.00    -0.203 F 
ATOM     72  F   UNL A   1      41.478  23.667  26.299  1.00  0.00    -0.200 F 
ATOM     73  C   UNL A   1      42.926  25.406  25.627  1.00  0.00     0.200 A 
ATOM     74  F   UNL A   1      44.377  27.163  25.006  1.00  0.00    -0.200 F 
ATOM     75  F   UNL A   1      43.252  24.726  24.518  1.00  0.00    -0.200 F 
ENDBRANCH  51  65
BRANCH  52  76
ATOM     76  C   UNL A   1      39.675  32.221  35.954  1.00  0.00     0.064 A 
ATOM     77  C   UNL A   1      40.347  33.395  36.320  1.00  0.00     0.173 A 
ATOM     78  C   UNL A   1      38.633  31.783  36.785  1.00  0.00     0.173 A 
ATOM     79  F   UNL A   1      41.373  33.838  35.578  1.00  0.00    -0.203 F 
ATOM     80  C   UNL A   1      40.008  34.086  37.483  1.00  0.00     0.198 A 
ATOM     81  C   UNL A   1      38.270  32.495  37.926  1.00  0.00     0.198 A 
ATOM     82  F   UNL A   1      37.961  30.660  36.490  1.00  0.00    -0.203 F 
ATOM     83  F   UNL A   1      40.711  35.168  37.844  1.00  0.00    -0.200 F 
ATOM     84  C   UNL A   1      38.965  33.640  38.281  1.00  0.00     0.200 A 
ATOM     85  F   UNL A   1      37.255  32.064  38.688  1.00  0.00    -0.200 F 
ATOM     86  F   UNL A   1      38.643  34.304  39.399  1.00  0.00    -0.200 F 
ENDBRANCH  52  76
BRANCH  64  87
ATOM     87  C   UNL A   1      44.480  27.295  34.815  1.00  0.00     0.064 A 
ATOM     88  C   UNL A   1      45.738  27.887  35.003  1.00  0.00     0.173 A 
ATOM     89  C   UNL A   1      44.204  26.110  35.518  1.00  0.00     0.173 A 
ATOM     90  F   UNL A   1      46.059  29.012  34.345  1.00  0.00    -0.203 F 
ATOM     91  C   UNL A   1      46.688  27.303  35.837  1.00  0.00     0.198 A 
ATOM     92  C   UNL A   1      45.142  25.549  36.379  1.00  0.00     0.198 A 
ATOM     93  F   UNL A   1      43.014  25.506  35.383  1.00  0.00    -0.203 F 
ATOM     94  F   UNL A   1      47.901  27.860  35.960  1.00  0.00    -0.200 F 
ATOM     95  C   UNL A   1      46.387  26.142  36.532  1.00  0.00     0.200 A 
ATOM     96  F   UNL A   1      44.840  24.438  37.065  1.00  0.00    -0.200 F 
ATOM     97  F   UNL A   1      47.297  25.589  37.345  1.00  0.00    -0.200 F 
ENDBRANCH  64  87
ENDBRANCH  38  39
ENDBRANCH  31  33
ENDBRANCH  30  31
ENDBRANCH  29  30
ENDBRANCH   1  29
TORSDOF 16
ENDMDL
