MODEL 1
REMARK VINA RESULT:     -11.7      0.000      0.000
REMARK SMILES C#CC[N@H+](CC(=O)OCCOC(=O)c1ccc(-c2c3nc(c(-c4c(F)c(F)c(F)c(F)c4F)c4ccc([nH]4)c(-c4c(F)c(F)c(F)c(F)c4F)c4nc(c(-c5c(F)c(F)c(F)c(F)c5F)c5ccc2[nH]5)C=C4)C=C3)cc1)Cc1cccc2ccccc12
REMARK SMILES IDX 9 1 8 2 6 3 7 4 5 5 4 6 3 8 2 9 1 10 77 11 78 12 79 13 87 14
REMARK SMILES IDX 80 15 82 16 86 17 81 18 83 19 85 20 84 21 10 22 11 23 12 24
REMARK SMILES IDX 13 25 14 26 15 27 76 28 16 29 75 30 17 31 18 32 19 33 69 34
REMARK SMILES IDX 20 35 74 36 68 37 70 38 21 39 73 40 67 41 66 42 22 44 54 45
REMARK SMILES IDX 34 46 53 47 35 48 38 49 52 50 71 51 36 52 37 53 51 55 72 56
REMARK SMILES IDX 39 57 23 58 24 59 32 60 25 61 26 62 30 63 33 64 27 65 28 66
REMARK SMILES IDX 31 67 29 68 55 69 56 70 64 71 57 72 58 73 62 74 65 75 59 76
REMARK SMILES IDX 60 77 63 78 61 79 40 80 41 81 49 82 42 83 43 84 47 85 50 86
REMARK SMILES IDX 44 87 45 88 48 89 46 90
REMARK H PARENT 4 7 70 43 38 54
REMARK Flexibility Score: inf
ROOT
ATOM      1  C   UNL A   1      31.730  29.919  25.510  1.00  0.00     0.274 C 
ENDROOT
BRANCH   1   2
ATOM      2  O   UNL A   1      33.053  29.682  24.996  1.00  0.00    -0.458 OA
BRANCH   2   3
ATOM      3  C   UNL A   1      33.506  28.406  24.977  1.00  0.00     0.361 C 
ATOM      4  O   UNL A   1      33.913  27.799  25.964  1.00  0.00    -0.245 OA
BRANCH   3   5
ATOM      5  C   UNL A   1      33.449  27.754  23.591  1.00  0.00     0.387 C 
BRANCH   5   6
ATOM      6  N   UNL A   1      32.904  26.388  23.601  1.00  0.00    -0.312 N 
ATOM      7  H   UNL A   1      33.240  25.972  24.470  1.00  0.00     0.349 HD
BRANCH   6   8
ATOM      8  C   UNL A   1      31.482  26.392  23.724  1.00  0.00     0.354 C 
BRANCH   8   9
ATOM      9  C   UNL A   1      30.699  25.965  24.954  1.00  0.00    -0.047 C 
ATOM     10  C   UNL A   1      30.026  25.599  26.009  1.00  0.00     0.010 C 
ENDBRANCH   8   9
ENDBRANCH   6   8
BRANCH   6  11
ATOM     11  C   UNL A   1      33.535  25.382  22.789  1.00  0.00     0.300 C 
BRANCH  11  12
ATOM     12  C   UNL A   1      33.529  23.937  23.292  1.00  0.00     0.014 A 
ATOM     13  C   UNL A   1      32.448  23.185  22.771  1.00  0.00     0.010 A 
ATOM     14  C   UNL A   1      34.501  23.264  24.121  1.00  0.00    -0.010 A 
ATOM     15  C   UNL A   1      32.316  21.828  23.019  1.00  0.00     0.001 A 
ATOM     16  C   UNL A   1      34.318  21.881  24.391  1.00  0.00    -0.018 A 
ATOM     17  C   UNL A   1      35.672  23.824  24.696  1.00  0.00     0.009 A 
ATOM     18  C   UNL A   1      33.242  21.186  23.829  1.00  0.00     0.009 A 
ATOM     19  C   UNL A   1      35.226  21.172  25.203  1.00  0.00     0.009 A 
ATOM     20  C   UNL A   1      36.574  23.118  25.498  1.00  0.00     0.001 A 
ATOM     21  C   UNL A   1      36.344  21.785  25.761  1.00  0.00     0.001 A 
ENDBRANCH  11  12
ENDBRANCH   6  11
ENDBRANCH   5   6
ENDBRANCH   3   5
ENDBRANCH   2   3
ENDBRANCH   1   2
BRANCH   1  22
ATOM     22  C   UNL A   1      31.787  31.086  26.488  1.00  0.00     0.275 C 
BRANCH  22  23
ATOM     23  O   UNL A   1      32.867  30.836  27.407  1.00  0.00    -0.458 OA
BRANCH  23  24
ATOM     24  C   UNL A   1      33.600  31.918  27.734  1.00  0.00     0.338 C 
ATOM     25  O   UNL A   1      33.242  33.085  27.763  1.00  0.00    -0.246 OA
BRANCH  24  26
ATOM     26  C   UNL A   1      34.987  31.529  27.999  1.00  0.00     0.060 A 
ATOM     27  C   UNL A   1      36.002  32.476  28.152  1.00  0.00     0.016 A 
ATOM     28  C   UNL A   1      35.270  30.168  28.071  1.00  0.00     0.016 A 
ATOM     29  C   UNL A   1      37.310  32.075  28.378  1.00  0.00     0.010 A 
ATOM     30  C   UNL A   1      36.552  29.763  28.418  1.00  0.00     0.010 A 
ATOM     31  C   UNL A   1      37.558  30.722  28.619  1.00  0.00    -0.014 A 
BRANCH  31  32
ATOM     32  C   UNL A   1      38.764  30.333  29.369  1.00  0.00     0.031 A 
ATOM     33  C   UNL A   1      39.705  29.316  28.826  1.00  0.00     0.074 A 
ATOM     34  C   UNL A   1      38.886  30.844  30.609  1.00  0.00     0.049 A 
ATOM     35  N   UNL A   1      40.668  28.686  29.440  1.00  0.00    -0.248 NA
ATOM     36  C   UNL A   1      39.534  28.946  27.413  1.00  0.00     0.031 C 
ATOM     37  C   UNL A   1      37.991  31.848  31.201  1.00  0.00     0.029 A 
ATOM     38  N   UNL A   1      39.780  30.576  31.610  1.00  0.00    -0.354 N 
ATOM     39  C   UNL A   1      41.210  27.825  28.499  1.00  0.00     0.074 A 
ATOM     40  C   UNL A   1      40.464  28.010  27.271  1.00  0.00     0.031 C 
ATOM     41  C   UNL A   1      38.376  32.107  32.455  1.00  0.00     0.029 A 
ATOM     42  C   UNL A   1      39.487  31.229  32.784  1.00  0.00     0.049 A 
ATOM     43  H   UNL A   1      40.554  29.978  31.501  1.00  0.00     0.167 HD
ATOM     44  C   UNL A   1      42.234  26.958  28.672  1.00  0.00     0.037 A 
ATOM     45  C   UNL A   1      40.015  31.086  34.009  1.00  0.00     0.037 A 
ATOM     46  C   UNL A   1      42.936  26.803  29.921  1.00  0.00     0.049 A 
ATOM     47  C   UNL A   1      41.104  30.075  34.182  1.00  0.00     0.074 A 
ATOM     48  C   UNL A   1      44.009  25.983  30.216  1.00  0.00     0.029 A 
ATOM     49  N   UNL A   1      42.615  27.481  31.093  1.00  0.00    -0.354 N 
ATOM     50  N   UNL A   1      41.632  29.277  33.285  1.00  0.00    -0.248 NA
ATOM     51  C   UNL A   1      41.662  29.930  35.529  1.00  0.00     0.031 C 
ATOM     52  C   UNL A   1      44.306  26.130  31.576  1.00  0.00     0.029 A 
ATOM     53  C   UNL A   1      43.450  27.075  32.121  1.00  0.00     0.049 A 
ATOM     54  H   UNL A   1      41.900  28.152  31.178  1.00  0.00     0.167 HD
ATOM     55  C   UNL A   1      42.590  28.536  33.954  1.00  0.00     0.074 A 
ATOM     56  C   UNL A   1      42.586  29.001  35.330  1.00  0.00     0.031 C 
ATOM     57  C   UNL A   1      43.398  27.556  33.480  1.00  0.00     0.037 A 
BRANCH  44  58
ATOM     58  C   UNL A   1      42.624  26.097  27.507  1.00  0.00     0.064 A 
ATOM     59  C   UNL A   1      41.999  24.867  27.255  1.00  0.00     0.173 A 
ATOM     60  C   UNL A   1      43.624  26.519  26.617  1.00  0.00     0.173 A 
ATOM     61  F   UNL A   1      41.048  24.410  28.083  1.00  0.00    -0.203 F 
ATOM     62  C   UNL A   1      42.376  24.081  26.167  1.00  0.00     0.198 A 
ATOM     63  C   UNL A   1      43.981  25.741  25.518  1.00  0.00     0.198 A 
ATOM     64  F   UNL A   1      44.255  27.687  26.813  1.00  0.00    -0.203 F 
ATOM     65  F   UNL A   1      41.795  22.890  25.970  1.00  0.00    -0.200 F 
ATOM     66  C   UNL A   1      43.362  24.521  25.298  1.00  0.00     0.200 A 
ATOM     67  F   UNL A   1      44.930  26.173  24.675  1.00  0.00    -0.200 F 
ATOM     68  F   UNL A   1      43.721  23.765  24.251  1.00  0.00    -0.200 F 
ENDBRANCH  44  58
BRANCH  45  69
ATOM     69  C   UNL A   1      39.486  31.889  35.141  1.00  0.00     0.064 A 
ATOM     70  C   UNL A   1      39.865  33.227  35.308  1.00  0.00     0.173 A 
ATOM     71  C   UNL A   1      38.553  31.357  36.045  1.00  0.00     0.173 A 
ATOM     72  F   UNL A   1      40.761  33.777  34.474  1.00  0.00    -0.203 F 
ATOM     73  C   UNL A   1      39.341  33.999  36.342  1.00  0.00     0.198 A 
ATOM     74  C   UNL A   1      38.007  32.138  37.061  1.00  0.00     0.198 A 
ATOM     75  F   UNL A   1      38.144  30.086  35.919  1.00  0.00    -0.203 F 
ATOM     76  F   UNL A   1      39.745  35.266  36.499  1.00  0.00    -0.200 F 
ATOM     77  C   UNL A   1      38.407  33.457  37.213  1.00  0.00     0.200 A 
ATOM     78  F   UNL A   1      37.088  31.617  37.885  1.00  0.00    -0.200 F 
ATOM     79  F   UNL A   1      37.894  34.204  38.200  1.00  0.00    -0.200 F 
ENDBRANCH  45  69
BRANCH  57  80
ATOM     80  C   UNL A   1      44.338  26.938  34.468  1.00  0.00     0.064 A 
ATOM     81  C   UNL A   1      43.998  25.768  35.162  1.00  0.00     0.173 A 
ATOM     82  C   UNL A   1      45.598  27.506  34.699  1.00  0.00     0.173 A 
ATOM     83  F   UNL A   1      42.791  25.207  34.989  1.00  0.00    -0.203 F 
ATOM     84  C   UNL A   1      44.883  25.197  36.068  1.00  0.00     0.198 A 
ATOM     85  C   UNL A   1      46.493  26.915  35.585  1.00  0.00     0.198 A 
ATOM     86  F   UNL A   1      45.965  28.626  34.057  1.00  0.00    -0.203 F 
ATOM     87  F   UNL A   1      44.523  24.105  36.757  1.00  0.00    -0.200 F 
ATOM     88  C   UNL A   1      46.132  25.765  36.273  1.00  0.00     0.200 A 
ATOM     89  F   UNL A   1      47.702  27.459  35.774  1.00  0.00    -0.200 F 
ATOM     90  F   UNL A   1      46.987  25.209  37.141  1.00  0.00    -0.200 F 
ENDBRANCH  57  80
ENDBRANCH  31  32
ENDBRANCH  24  26
ENDBRANCH  23  24
ENDBRANCH  22  23
ENDBRANCH   1  22
TORSDOF 16
ENDMDL
MODEL 2
REMARK VINA RESULT:     -11.7      0.867      2.099
REMARK SMILES C#CC[N@H+](CC(=O)OCCOC(=O)c1ccc(-c2c3nc(c(-c4c(F)c(F)c(F)c(F)c4F)c4ccc([nH]4)c(-c4c(F)c(F)c(F)c(F)c4F)c4nc(c(-c5c(F)c(F)c(F)c(F)c5F)c5ccc2[nH]5)C=C4)C=C3)cc1)Cc1cccc2ccccc12
REMARK SMILES IDX 9 1 8 2 6 3 7 4 5 5 4 6 3 8 2 9 1 10 77 11 78 12 79 13 87 14
REMARK SMILES IDX 80 15 82 16 86 17 81 18 83 19 85 20 84 21 10 22 11 23 12 24
REMARK SMILES IDX 13 25 14 26 15 27 76 28 16 29 75 30 17 31 18 32 19 33 69 34
REMARK SMILES IDX 20 35 74 36 68 37 70 38 21 39 73 40 67 41 66 42 22 44 54 45
REMARK SMILES IDX 34 46 53 47 35 48 38 49 52 50 71 51 36 52 37 53 51 55 72 56
REMARK SMILES IDX 39 57 23 58 24 59 32 60 25 61 26 62 30 63 33 64 27 65 28 66
REMARK SMILES IDX 31 67 29 68 55 69 56 70 64 71 57 72 58 73 62 74 65 75 59 76
REMARK SMILES IDX 60 77 63 78 61 79 40 80 41 81 49 82 42 83 43 84 47 85 50 86
REMARK SMILES IDX 44 87 45 88 48 89 46 90
REMARK H PARENT 4 7 70 43 38 54
REMARK Flexibility Score: inf
ROOT
ATOM      1  C   UNL A   1      32.660  29.280  25.366  1.00  0.00     0.274 C 
ENDROOT
BRANCH   1   2
ATOM      2  O   UNL A   1      31.537  28.484  24.947  1.00  0.00    -0.458 OA
BRANCH   2   3
ATOM      3  C   UNL A   1      31.686  27.707  23.849  1.00  0.00     0.361 C 
ATOM      4  O   UNL A   1      32.356  28.014  22.866  1.00  0.00    -0.245 OA
BRANCH   3   5
ATOM      5  C   UNL A   1      30.950  26.366  23.940  1.00  0.00     0.387 C 
BRANCH   5   6
ATOM      6  N   UNL A   1      31.835  25.220  24.193  1.00  0.00    -0.312 N 
ATOM      7  H   UNL A   1      31.346  24.652  24.886  1.00  0.00     0.349 HD
BRANCH   6   8
ATOM      8  C   UNL A   1      31.947  24.381  23.045  1.00  0.00     0.354 C 
BRANCH   8   9
ATOM      9  C   UNL A   1      32.058  22.865  23.063  1.00  0.00    -0.047 C 
ATOM     10  C   UNL A   1      32.153  21.565  23.079  1.00  0.00     0.010 C 
ENDBRANCH   8   9
ENDBRANCH   6   8
BRANCH   6  11
ATOM     11  C   UNL A   1      32.982  25.402  25.044  1.00  0.00     0.300 C 
BRANCH  11  12
ATOM     12  C   UNL A   1      33.650  24.157  25.633  1.00  0.00     0.014 A 
ATOM     13  C   UNL A   1      32.969  23.664  26.773  1.00  0.00     0.010 A 
ATOM     14  C   UNL A   1      34.781  23.414  25.130  1.00  0.00    -0.010 A 
ATOM     15  C   UNL A   1      33.349  22.486  27.397  1.00  0.00     0.001 A 
ATOM     16  C   UNL A   1      35.171  22.232  25.813  1.00  0.00    -0.018 A 
ATOM     17  C   UNL A   1      35.560  23.713  23.982  1.00  0.00     0.009 A 
ATOM     18  C   UNL A   1      34.446  21.782  26.921  1.00  0.00     0.009 A 
ATOM     19  C   UNL A   1      36.275  21.471  25.377  1.00  0.00     0.009 A 
ATOM     20  C   UNL A   1      36.651  22.955  23.548  1.00  0.00     0.001 A 
ATOM     21  C   UNL A   1      37.017  21.831  24.257  1.00  0.00     0.001 A 
ENDBRANCH  11  12
ENDBRANCH   6  11
ENDBRANCH   5   6
ENDBRANCH   3   5
ENDBRANCH   2   3
ENDBRANCH   1   2
BRANCH   1  22
ATOM     22  C   UNL A   1      32.142  30.519  26.086  1.00  0.00     0.275 C 
BRANCH  22  23
ATOM     23  O   UNL A   1      32.753  30.555  27.389  1.00  0.00    -0.458 OA
BRANCH  23  24
ATOM     24  C   UNL A   1      33.454  31.674  27.660  1.00  0.00     0.338 C 
ATOM     25  O   UNL A   1      33.061  32.830  27.632  1.00  0.00    -0.246 OA
BRANCH  24  26
ATOM     26  C   UNL A   1      34.853  31.341  27.937  1.00  0.00     0.060 A 
ATOM     27  C   UNL A   1      35.832  32.327  28.082  1.00  0.00     0.016 A 
ATOM     28  C   UNL A   1      35.186  29.992  28.029  1.00  0.00     0.016 A 
ATOM     29  C   UNL A   1      37.152  31.977  28.320  1.00  0.00     0.010 A 
ATOM     30  C   UNL A   1      36.480  29.640  28.388  1.00  0.00     0.010 A 
ATOM     31  C   UNL A   1      37.449  30.638  28.580  1.00  0.00    -0.014 A 
BRANCH  31  32
ATOM     32  C   UNL A   1      38.664  30.304  29.342  1.00  0.00     0.031 A 
ATOM     33  C   UNL A   1      39.644  29.315  28.819  1.00  0.00     0.074 A 
ATOM     34  C   UNL A   1      38.762  30.838  30.575  1.00  0.00     0.049 A 
ATOM     35  N   UNL A   1      40.627  28.729  29.447  1.00  0.00    -0.248 NA
ATOM     36  C   UNL A   1      39.495  28.918  27.411  1.00  0.00     0.031 C 
ATOM     37  C   UNL A   1      37.827  31.817  31.148  1.00  0.00     0.029 A 
ATOM     38  N   UNL A   1      39.659  30.617  31.584  1.00  0.00    -0.354 N 
ATOM     39  C   UNL A   1      41.205  27.875  28.521  1.00  0.00     0.074 A 
ATOM     40  C   UNL A   1      40.459  28.014  27.287  1.00  0.00     0.031 C 
ATOM     41  C   UNL A   1      38.196  32.108  32.400  1.00  0.00     0.029 A 
ATOM     42  C   UNL A   1      39.336  31.276  32.747  1.00  0.00     0.049 A 
ATOM     43  H   UNL A   1      40.455  30.046  31.488  1.00  0.00     0.167 HD
ATOM     44  C   UNL A   1      42.259  27.048  28.712  1.00  0.00     0.037 A 
ATOM     45  C   UNL A   1      39.862  31.171  33.977  1.00  0.00     0.037 A 
ATOM     46  C   UNL A   1      42.959  26.938  29.966  1.00  0.00     0.049 A 
ATOM     47  C   UNL A   1      40.987  30.203  34.170  1.00  0.00     0.074 A 
ATOM     48  C   UNL A   1      44.060  26.162  30.279  1.00  0.00     0.029 A 
ATOM     49  N   UNL A   1      42.608  27.621  31.127  1.00  0.00    -0.354 N 
ATOM     50  N   UNL A   1      41.549  29.411  33.287  1.00  0.00    -0.248 NA
ATOM     51  C   UNL A   1      41.542  30.098  35.521  1.00  0.00     0.031 C 
ATOM     52  C   UNL A   1      44.344  26.339  31.638  1.00  0.00     0.029 A 
ATOM     53  C   UNL A   1      43.451  27.261  32.165  1.00  0.00     0.049 A 
ATOM     54  H   UNL A   1      41.868  28.267  31.198  1.00  0.00     0.167 HD
ATOM     55  C   UNL A   1      42.529  28.717  33.972  1.00  0.00     0.074 A 
ATOM     56  C   UNL A   1      42.502  29.200  35.340  1.00  0.00     0.031 C 
ATOM     57  C   UNL A   1      43.375  27.760  33.516  1.00  0.00     0.037 A 
BRANCH  44  58
ATOM     58  C   UNL A   1      42.685  26.186  27.562  1.00  0.00     0.064 A 
ATOM     59  C   UNL A   1      42.095  24.937  27.314  1.00  0.00     0.173 A 
ATOM     60  C   UNL A   1      43.688  26.622  26.682  1.00  0.00     0.173 A 
ATOM     61  F   UNL A   1      41.143  24.466  28.134  1.00  0.00    -0.203 F 
ATOM     62  C   UNL A   1      42.506  24.150  26.240  1.00  0.00     0.198 A 
ATOM     63  C   UNL A   1      44.079  25.843  25.596  1.00  0.00     0.198 A 
ATOM     64  F   UNL A   1      44.287  27.807  26.873  1.00  0.00    -0.203 F 
ATOM     65  F   UNL A   1      41.957  22.943  26.048  1.00  0.00    -0.200 F 
ATOM     66  C   UNL A   1      43.493  24.605  25.380  1.00  0.00     0.200 A 
ATOM     67  F   UNL A   1      45.029  26.288  24.761  1.00  0.00    -0.200 F 
ATOM     68  F   UNL A   1      43.885  23.847  24.347  1.00  0.00    -0.200 F 
ENDBRANCH  44  58
BRANCH  45  69
ATOM     69  C   UNL A   1      39.299  31.971  35.093  1.00  0.00     0.064 A 
ATOM     70  C   UNL A   1      38.482  31.374  36.061  1.00  0.00     0.173 A 
ATOM     71  C   UNL A   1      39.607  33.332  35.249  1.00  0.00     0.173 A 
ATOM     72  F   UNL A   1      38.153  30.078  35.950  1.00  0.00    -0.203 F 
ATOM     73  C   UNL A   1      37.984  32.109  37.134  1.00  0.00     0.198 A 
ATOM     74  C   UNL A   1      39.132  34.059  36.338  1.00  0.00     0.198 A 
ATOM     75  F   UNL A   1      40.399  33.949  34.359  1.00  0.00    -0.203 F 
ATOM     76  F   UNL A   1      37.178  31.520  38.028  1.00  0.00    -0.200 F 
ATOM     77  C   UNL A   1      38.315  33.448  37.276  1.00  0.00     0.200 A 
ATOM     78  F   UNL A   1      39.474  35.347  36.484  1.00  0.00    -0.200 F 
ATOM     79  F   UNL A   1      37.846  34.151  38.317  1.00  0.00    -0.200 F 
ENDBRANCH  45  69
BRANCH  57  80
ATOM     80  C   UNL A   1      44.332  27.191  34.517  1.00  0.00     0.064 A 
ATOM     81  C   UNL A   1      45.555  27.819  34.792  1.00  0.00     0.173 A 
ATOM     82  C   UNL A   1      44.008  26.026  35.225  1.00  0.00     0.173 A 
ATOM     83  F   UNL A   1      45.915  28.922  34.118  1.00  0.00    -0.203 F 
ATOM     84  C   UNL A   1      46.431  27.288  35.732  1.00  0.00     0.198 A 
ATOM     85  C   UNL A   1      44.873  25.514  36.185  1.00  0.00     0.198 A 
ATOM     86  F   UNL A   1      42.849  25.392  34.992  1.00  0.00    -0.203 F 
ATOM     87  F   UNL A   1      47.615  27.875  35.949  1.00  0.00    -0.200 F 
ATOM     88  C   UNL A   1      46.087  26.141  36.434  1.00  0.00     0.200 A 
ATOM     89  F   UNL A   1      44.536  24.413  36.869  1.00  0.00    -0.200 F 
ATOM     90  F   UNL A   1      46.928  25.635  37.345  1.00  0.00    -0.200 F 
ENDBRANCH  57  80
ENDBRANCH  31  32
ENDBRANCH  24  26
ENDBRANCH  23  24
ENDBRANCH  22  23
ENDBRANCH   1  22
TORSDOF 16
ENDMDL
MODEL 3
REMARK VINA RESULT:     -11.4      4.299      9.859
REMARK SMILES C#CC[N@H+](CC(=O)OCCOC(=O)c1ccc(-c2c3nc(c(-c4c(F)c(F)c(F)c(F)c4F)c4ccc([nH]4)c(-c4c(F)c(F)c(F)c(F)c4F)c4nc(c(-c5c(F)c(F)c(F)c(F)c5F)c5ccc2[nH]5)C=C4)C=C3)cc1)Cc1cccc2ccccc12
REMARK SMILES IDX 9 1 8 2 6 3 7 4 5 5 4 6 3 8 2 9 1 10 77 11 78 12 79 13 87 14
REMARK SMILES IDX 80 15 82 16 86 17 81 18 83 19 85 20 84 21 10 22 11 23 12 24
REMARK SMILES IDX 13 25 14 26 15 27 76 28 16 29 75 30 17 31 18 32 19 33 69 34
REMARK SMILES IDX 20 35 74 36 68 37 70 38 21 39 73 40 67 41 66 42 22 44 54 45
REMARK SMILES IDX 34 46 53 47 35 48 38 49 52 50 71 51 36 52 37 53 51 55 72 56
REMARK SMILES IDX 39 57 23 58 24 59 32 60 25 61 26 62 30 63 33 64 27 65 28 66
REMARK SMILES IDX 31 67 29 68 55 69 56 70 64 71 57 72 58 73 62 74 65 75 59 76
REMARK SMILES IDX 60 77 63 78 61 79 40 80 41 81 49 82 42 83 43 84 47 85 50 86
REMARK SMILES IDX 44 87 45 88 48 89 46 90
REMARK H PARENT 4 7 70 43 38 54
REMARK Flexibility Score: inf
ROOT
ATOM      1  C   UNL A   1      35.811  22.009  25.328  1.00  0.00     0.274 C 
ENDROOT
BRANCH   1   2
ATOM      2  O   UNL A   1      34.861  21.387  26.211  1.00  0.00    -0.458 OA
BRANCH   2   3
ATOM      3  C   UNL A   1      34.023  22.190  26.908  1.00  0.00     0.361 C 
ATOM      4  O   UNL A   1      34.307  22.733  27.972  1.00  0.00    -0.245 OA
BRANCH   3   5
ATOM      5  C   UNL A   1      32.662  22.391  26.234  1.00  0.00     0.387 C 
BRANCH   5   6
ATOM      6  N   UNL A   1      32.523  23.688  25.554  1.00  0.00    -0.312 N 
ATOM      7  H   UNL A   1      33.401  24.177  25.729  1.00  0.00     0.349 HD
BRANCH   6   8
ATOM      8  C   UNL A   1      32.467  23.533  24.137  1.00  0.00     0.354 C 
BRANCH   8   9
ATOM      9  C   UNL A   1      32.925  24.561  23.114  1.00  0.00    -0.047 C 
ATOM     10  C   UNL A   1      33.317  25.442  22.238  1.00  0.00     0.010 C 
ENDBRANCH   8   9
ENDBRANCH   6   8
BRANCH   6  11
ATOM     11  C   UNL A   1      31.738  24.720  26.179  1.00  0.00     0.300 C 
BRANCH  11  12
ATOM     12  C   UNL A   1      31.941  26.164  25.714  1.00  0.00     0.014 A 
ATOM     13  C   UNL A   1      33.185  26.698  26.129  1.00  0.00     0.010 A 
ATOM     14  C   UNL A   1      31.094  26.969  24.866  1.00  0.00    -0.010 A 
ATOM     15  C   UNL A   1      33.611  27.955  25.727  1.00  0.00     0.001 A 
ATOM     16  C   UNL A   1      31.538  28.268  24.502  1.00  0.00    -0.018 A 
ATOM     17  C   UNL A   1      29.841  26.600  24.309  1.00  0.00     0.009 A 
ATOM     18  C   UNL A   1      32.788  28.733  24.925  1.00  0.00     0.009 A 
ATOM     19  C   UNL A   1      30.750  29.105  23.687  1.00  0.00     0.009 A 
ATOM     20  C   UNL A   1      29.063  27.430  23.497  1.00  0.00     0.001 A 
ATOM     21  C   UNL A   1      29.516  28.695  23.192  1.00  0.00     0.001 A 
ENDBRANCH  11  12
ENDBRANCH   6  11
ENDBRANCH   5   6
ENDBRANCH   3   5
ENDBRANCH   2   3
ENDBRANCH   1   2
BRANCH   1  22
ATOM     22  C   UNL A   1      37.010  21.082  25.166  1.00  0.00     0.275 C 
BRANCH  22  23
ATOM     23  O   UNL A   1      38.188  21.903  25.068  1.00  0.00    -0.458 OA
BRANCH  23  24
ATOM     24  C   UNL A   1      39.196  21.556  25.892  1.00  0.00     0.338 C 
ATOM     25  O   UNL A   1      39.687  20.448  26.052  1.00  0.00    -0.246 OA
BRANCH  24  26
ATOM     26  C   UNL A   1      39.623  22.710  26.687  1.00  0.00     0.060 A 
ATOM     27  C   UNL A   1      40.652  22.619  27.627  1.00  0.00     0.016 A 
ATOM     28  C   UNL A   1      38.945  23.910  26.490  1.00  0.00     0.016 A 
ATOM     29  C   UNL A   1      41.015  23.725  28.380  1.00  0.00     0.010 A 
ATOM     30  C   UNL A   1      39.385  25.049  27.152  1.00  0.00     0.010 A 
ATOM     31  C   UNL A   1      40.452  24.962  28.060  1.00  0.00    -0.014 A 
BRANCH  31  32
ATOM     32  C   UNL A   1      41.166  26.196  28.431  1.00  0.00     0.031 A 
ATOM     33  C   UNL A   1      40.453  27.317  29.101  1.00  0.00     0.074 A 
ATOM     34  C   UNL A   1      42.443  26.296  28.012  1.00  0.00     0.049 A 
ATOM     35  N   UNL A   1      40.852  28.546  29.279  1.00  0.00    -0.248 NA
ATOM     36  C   UNL A   1      39.111  27.026  29.626  1.00  0.00     0.031 C 
ATOM     37  C   UNL A   1      43.199  25.227  27.346  1.00  0.00     0.029 A 
ATOM     38  N   UNL A   1      43.323  27.342  28.048  1.00  0.00    -0.354 N 
ATOM     39  C   UNL A   1      39.804  29.189  29.919  1.00  0.00     0.074 A 
ATOM     40  C   UNL A   1      38.747  28.214  30.093  1.00  0.00     0.031 C 
ATOM     41  C   UNL A   1      44.421  25.671  27.034  1.00  0.00     0.029 A 
ATOM     42  C   UNL A   1      44.505  27.075  27.399  1.00  0.00     0.049 A 
ATOM     43  H   UNL A   1      43.131  28.199  28.493  1.00  0.00     0.167 HD
ATOM     44  C   UNL A   1      39.749  30.484  30.308  1.00  0.00     0.037 A 
ATOM     45  C   UNL A   1      45.519  27.893  27.074  1.00  0.00     0.037 A 
ATOM     46  C   UNL A   1      40.826  31.418  30.099  1.00  0.00     0.049 A 
ATOM     47  C   UNL A   1      45.401  29.333  27.464  1.00  0.00     0.074 A 
ATOM     48  C   UNL A   1      40.906  32.746  30.473  1.00  0.00     0.029 A 
ATOM     49  N   UNL A   1      42.013  31.116  29.438  1.00  0.00    -0.354 N 
ATOM     50  N   UNL A   1      44.418  29.935  28.090  1.00  0.00    -0.248 NA
ATOM     51  C   UNL A   1      46.515  30.209  27.094  1.00  0.00     0.031 C 
ATOM     52  C   UNL A   1      42.118  33.259  29.998  1.00  0.00     0.029 A 
ATOM     53  C   UNL A   1      42.818  32.240  29.367  1.00  0.00     0.049 A 
ATOM     54  H   UNL A   1      42.246  30.231  29.075  1.00  0.00     0.167 HD
ATOM     55  C   UNL A   1      44.795  31.262  28.197  1.00  0.00     0.074 A 
ATOM     56  C   UNL A   1      46.110  31.370  27.592  1.00  0.00     0.031 C 
ATOM     57  C   UNL A   1      44.115  32.302  28.741  1.00  0.00     0.037 A 
BRANCH  44  58
ATOM     58  C   UNL A   1      38.485  30.964  30.955  1.00  0.00     0.064 A 
ATOM     59  C   UNL A   1      38.349  31.038  32.349  1.00  0.00     0.173 A 
ATOM     60  C   UNL A   1      37.398  31.377  30.169  1.00  0.00     0.173 A 
ATOM     61  F   UNL A   1      39.352  30.642  33.147  1.00  0.00    -0.203 F 
ATOM     62  C   UNL A   1      37.165  31.488  32.932  1.00  0.00     0.198 A 
ATOM     63  C   UNL A   1      36.225  31.847  30.754  1.00  0.00     0.198 A 
ATOM     64  F   UNL A   1      37.474  31.325  28.830  1.00  0.00    -0.203 F 
ATOM     65  F   UNL A   1      37.043  31.510  34.266  1.00  0.00    -0.200 F 
ATOM     66  C   UNL A   1      36.107  31.896  32.134  1.00  0.00     0.200 A 
ATOM     67  F   UNL A   1      35.207  32.248  29.981  1.00  0.00    -0.200 F 
ATOM     68  F   UNL A   1      34.970  32.330  32.697  1.00  0.00    -0.200 F 
ENDBRANCH  44  58
BRANCH  45  69
ATOM     69  C   UNL A   1      46.683  27.364  26.320  1.00  0.00     0.064 A 
ATOM     70  C   UNL A   1      46.767  27.518  24.932  1.00  0.00     0.173 A 
ATOM     71  C   UNL A   1      47.759  26.742  26.974  1.00  0.00     0.173 A 
ATOM     72  F   UNL A   1      45.760  28.098  24.262  1.00  0.00    -0.203 F 
ATOM     73  C   UNL A   1      47.876  27.062  24.223  1.00  0.00     0.198 A 
ATOM     74  C   UNL A   1      48.880  26.312  26.269  1.00  0.00     0.198 A 
ATOM     75  F   UNL A   1      47.737  26.584  28.306  1.00  0.00    -0.203 F 
ATOM     76  F   UNL A   1      47.916  27.194  22.890  1.00  0.00    -0.200 F 
ATOM     77  C   UNL A   1      48.934  26.466  24.892  1.00  0.00     0.200 A 
ATOM     78  F   UNL A   1      49.911  25.759  26.923  1.00  0.00    -0.200 F 
ATOM     79  F   UNL A   1      50.007  26.039  24.210  1.00  0.00    -0.200 F 
ENDBRANCH  45  69
BRANCH  57  80
ATOM     80  C   UNL A   1      44.800  33.633  28.700  1.00  0.00     0.064 A 
ATOM     81  C   UNL A   1      45.683  34.028  29.715  1.00  0.00     0.173 A 
ATOM     82  C   UNL A   1      44.592  34.505  27.623  1.00  0.00     0.173 A 
ATOM     83  F   UNL A   1      45.890  33.234  30.777  1.00  0.00    -0.203 F 
ATOM     84  C   UNL A   1      46.321  35.261  29.661  1.00  0.00     0.198 A 
ATOM     85  C   UNL A   1      45.255  35.725  27.557  1.00  0.00     0.198 A 
ATOM     86  F   UNL A   1      43.755  34.167  26.630  1.00  0.00    -0.203 F 
ATOM     87  F   UNL A   1      47.126  35.642  30.663  1.00  0.00    -0.200 F 
ATOM     88  C   UNL A   1      46.114  36.106  28.579  1.00  0.00     0.200 A 
ATOM     89  F   UNL A   1      45.062  36.535  26.508  1.00  0.00    -0.200 F 
ATOM     90  F   UNL A   1      46.737  37.290  28.524  1.00  0.00    -0.200 F 
ENDBRANCH  57  80
ENDBRANCH  31  32
ENDBRANCH  24  26
ENDBRANCH  23  24
ENDBRANCH  22  23
ENDBRANCH   1  22
TORSDOF 16
ENDMDL
