MODEL 1
REMARK VINA RESULT:     -10.4      0.000      0.000
REMARK SMILES O=C(OCCOC(=O)c1c(C2CC2)nn(-c2ccc(Cl)c(F)c2)c1Cl)c1ccc(-c2c3nc(c(-c4c(F)c(F)c(F)c(F)c4F)c4ccc([nH]4)c(-c4c(F)c(F)c(F)c(F)c4F)c4nc(c(-c5c(F)c(F)c(F)c(F)c5F)c5ccc2[nH]5)C=C4)C=C3)cc1
REMARK SMILES IDX 4 1 3 2 2 3 1 4 26 5 27 6 88 7 28 8 87 9 29 10 30 11 31 12
REMARK SMILES IDX 81 13 32 14 86 15 80 16 82 17 33 18 85 19 79 20 78 21 34 23
REMARK SMILES IDX 66 24 46 25 65 26 47 27 50 28 64 29 83 30 48 31 49 32 63 34
REMARK SMILES IDX 84 35 51 36 35 37 36 38 44 39 37 40 38 41 42 42 45 43 39 44
REMARK SMILES IDX 40 45 43 46 41 47 67 48 68 49 76 50 69 51 70 52 74 53 77 54
REMARK SMILES IDX 71 55 72 56 75 57 73 58 52 59 53 60 61 61 54 62 55 63 59 64
REMARK SMILES IDX 62 65 56 66 57 67 60 68 58 69 5 70 6 71 7 72 8 73 9 74 10 75
REMARK SMILES IDX 24 76 14 77 15 78 25 79 11 80 12 81 13 82 16 83 17 84 23 85
REMARK SMILES IDX 18 86 21 87 19 88 22 89 20 90
REMARK H PARENT 82 22 50 33
REMARK Flexibility Score: inf
ROOT
ATOM      1  C   UNL A   1      42.312  21.037  26.629  1.00  0.00     0.275 C 
ENDROOT
BRANCH   1   2
ATOM      2  O   UNL A   1      41.701  21.963  27.538  1.00  0.00    -0.458 OA
BRANCH   2   3
ATOM      3  C   UNL A   1      40.488  22.456  27.221  1.00  0.00     0.338 C 
ATOM      4  O   UNL A   1      39.598  21.892  26.611  1.00  0.00    -0.246 OA
BRANCH   3   5
ATOM      5  C   UNL A   1      40.555  23.913  27.461  1.00  0.00     0.060 A 
ATOM      6  C   UNL A   1      39.641  24.805  26.893  1.00  0.00     0.016 A 
ATOM      7  C   UNL A   1      41.494  24.362  28.389  1.00  0.00     0.016 A 
ATOM      8  C   UNL A   1      39.689  26.151  27.237  1.00  0.00     0.010 A 
ATOM      9  C   UNL A   1      41.524  25.703  28.751  1.00  0.00     0.010 A 
ATOM     10  C   UNL A   1      40.646  26.602  28.153  1.00  0.00    -0.014 A 
BRANCH  10  11
ATOM     11  C   UNL A   1      40.739  28.027  28.434  1.00  0.00     0.031 A 
ATOM     12  C   UNL A   1      41.925  28.780  27.949  1.00  0.00     0.074 A 
ATOM     13  C   UNL A   1      39.768  28.720  29.059  1.00  0.00     0.049 A 
ATOM     14  N   UNL A   1      42.874  29.301  28.658  1.00  0.00    -0.248 NA
ATOM     15  C   UNL A   1      42.056  29.005  26.505  1.00  0.00     0.031 C 
ATOM     16  C   UNL A   1      38.386  28.329  29.341  1.00  0.00     0.029 A 
ATOM     17  N   UNL A   1      39.846  29.989  29.551  1.00  0.00    -0.354 N 
ATOM     18  C   UNL A   1      43.668  30.032  27.777  1.00  0.00     0.074 A 
ATOM     19  C   UNL A   1      43.151  29.770  26.454  1.00  0.00     0.031 C 
ATOM     20  C   UNL A   1      37.711  29.397  29.823  1.00  0.00     0.029 A 
ATOM     21  C   UNL A   1      38.651  30.485  30.033  1.00  0.00     0.049 A 
ATOM     22  H   UNL A   1      40.684  30.509  29.561  1.00  0.00     0.167 HD
ATOM     23  C   UNL A   1      44.623  30.904  28.210  1.00  0.00     0.037 A 
ATOM     24  C   UNL A   1      38.446  31.708  30.571  1.00  0.00     0.037 A 
ATOM     25  C   UNL A   1      44.953  30.701  29.594  1.00  0.00     0.049 A 
ATOM     26  C   UNL A   1      39.751  32.222  31.051  1.00  0.00     0.074 A 
ATOM     27  C   UNL A   1      45.478  29.650  30.320  1.00  0.00     0.029 A 
ATOM     28  N   UNL A   1      44.451  31.569  30.531  1.00  0.00    -0.354 N 
ATOM     29  N   UNL A   1      40.405  31.737  32.069  1.00  0.00    -0.248 NA
ATOM     30  C   UNL A   1      40.518  33.095  30.177  1.00  0.00     0.031 C 
ATOM     31  C   UNL A   1      44.819  29.704  31.586  1.00  0.00     0.029 A 
ATOM     32  C   UNL A   1      43.951  30.797  31.550  1.00  0.00     0.049 A 
ATOM     33  H   UNL A   1      44.450  32.552  30.482  1.00  0.00     0.167 HD
ATOM     34  C   UNL A   1      41.742  31.910  31.747  1.00  0.00     0.074 A 
ATOM     35  C   UNL A   1      41.746  32.864  30.646  1.00  0.00     0.031 C 
ATOM     36  C   UNL A   1      42.701  31.062  32.224  1.00  0.00     0.037 A 
BRANCH  23  37
ATOM     37  C   UNL A   1      45.129  32.089  27.436  1.00  0.00     0.064 A 
ATOM     38  C   UNL A   1      46.465  32.129  26.989  1.00  0.00     0.173 A 
ATOM     39  C   UNL A   1      44.412  33.299  27.330  1.00  0.00     0.173 A 
ATOM     40  F   UNL A   1      47.249  31.044  27.086  1.00  0.00    -0.203 F 
ATOM     41  C   UNL A   1      47.045  33.299  26.492  1.00  0.00     0.198 A 
ATOM     42  C   UNL A   1      44.980  34.454  26.790  1.00  0.00     0.198 A 
ATOM     43  F   UNL A   1      43.176  33.422  27.831  1.00  0.00    -0.203 F 
ATOM     44  F   UNL A   1      48.344  33.312  26.161  1.00  0.00    -0.200 F 
ATOM     45  C   UNL A   1      46.301  34.461  26.390  1.00  0.00     0.200 A 
ATOM     46  F   UNL A   1      44.251  35.576  26.718  1.00  0.00    -0.200 F 
ATOM     47  F   UNL A   1      46.865  35.592  25.948  1.00  0.00    -0.200 F 
ENDBRANCH  23  37
BRANCH  24  48
ATOM     48  C   UNL A   1      37.227  32.536  30.526  1.00  0.00     0.064 A 
ATOM     49  C   UNL A   1      36.891  33.281  29.388  1.00  0.00     0.173 A 
ATOM     50  C   UNL A   1      36.230  32.396  31.510  1.00  0.00     0.173 A 
ATOM     51  F   UNL A   1      37.772  33.423  28.387  1.00  0.00    -0.203 F 
ATOM     52  C   UNL A   1      35.618  33.838  29.232  1.00  0.00     0.198 A 
ATOM     53  C   UNL A   1      34.963  32.957  31.356  1.00  0.00     0.198 A 
ATOM     54  F   UNL A   1      36.438  31.634  32.594  1.00  0.00    -0.203 F 
ATOM     55  F   UNL A   1      35.311  34.494  28.104  1.00  0.00    -0.200 F 
ATOM     56  C   UNL A   1      34.653  33.667  30.211  1.00  0.00     0.200 A 
ATOM     57  F   UNL A   1      34.028  32.754  32.295  1.00  0.00    -0.200 F 
ATOM     58  F   UNL A   1      33.416  34.148  30.033  1.00  0.00    -0.200 F 
ENDBRANCH  24  48
BRANCH  36  59
ATOM     59  C   UNL A   1      42.314  30.130  33.340  1.00  0.00     0.064 A 
ATOM     60  C   UNL A   1      41.728  28.869  33.133  1.00  0.00     0.173 A 
ATOM     61  C   UNL A   1      42.664  30.466  34.655  1.00  0.00     0.173 A 
ATOM     62  F   UNL A   1      41.469  28.426  31.896  1.00  0.00    -0.203 F 
ATOM     63  C   UNL A   1      41.452  28.014  34.197  1.00  0.00     0.198 A 
ATOM     64  C   UNL A   1      42.423  29.593  35.714  1.00  0.00     0.198 A 
ATOM     65  F   UNL A   1      43.286  31.629  34.911  1.00  0.00    -0.203 F 
ATOM     66  F   UNL A   1      40.875  26.824  33.970  1.00  0.00    -0.200 F 
ATOM     67  C   UNL A   1      41.805  28.373  35.487  1.00  0.00     0.200 A 
ATOM     68  F   UNL A   1      42.815  29.921  36.954  1.00  0.00    -0.200 F 
ATOM     69  F   UNL A   1      41.576  27.533  36.506  1.00  0.00    -0.200 F 
ENDBRANCH  36  59
ENDBRANCH  10  11
ENDBRANCH   3   5
ENDBRANCH   2   3
ENDBRANCH   1   2
BRANCH   1  70
ATOM     70  C   UNL A   1      43.432  21.604  25.742  1.00  0.00     0.275 C 
BRANCH  70  71
ATOM     71  O   UNL A   1      43.758  22.951  26.140  1.00  0.00    -0.458 OA
BRANCH  71  72
ATOM     72  C   UNL A   1      45.047  23.201  26.536  1.00  0.00     0.343 C 
ATOM     73  O   UNL A   1      46.000  22.487  26.272  1.00  0.00    -0.246 OA
BRANCH  72  74
ATOM     74  C   UNL A   1      45.123  24.359  27.408  1.00  0.00     0.121 A 
ATOM     75  C   UNL A   1      45.576  25.707  27.268  1.00  0.00     0.082 A 
ATOM     76  C   UNL A   1      44.889  24.264  28.769  1.00  0.00     0.147 A 
ATOM     77  N   UNL A   1      45.395  26.411  28.401  1.00  0.00    -0.170 NA
ATOM     78  N   UNL A   1      45.153  25.478  29.344  1.00  0.00    -0.221 N 
ATOM     79  Cl  UNL A   1      44.385  22.936  29.734  1.00  0.00    -0.061 Cl
BRANCH  75  80
ATOM     80  C   UNL A   1      46.300  26.469  26.154  1.00  0.00     0.041 C 
ATOM     81  C   UNL A   1      45.589  27.133  25.003  1.00  0.00     0.011 C 
ATOM     82  C   UNL A   1      46.346  27.961  25.980  1.00  0.00     0.011 C 
ENDBRANCH  75  80
BRANCH  78  83
ATOM     83  C   UNL A   1      45.318  25.816  30.709  1.00  0.00     0.069 A 
ATOM     84  C   UNL A   1      44.185  26.012  31.510  1.00  0.00     0.030 A 
ATOM     85  C   UNL A   1      46.601  26.006  31.237  1.00  0.00     0.069 A 
ATOM     86  C   UNL A   1      44.343  26.324  32.864  1.00  0.00     0.026 A 
ATOM     87  C   UNL A   1      46.741  26.358  32.576  1.00  0.00     0.143 A 
ATOM     88  C   UNL A   1      45.623  26.499  33.396  1.00  0.00     0.076 A 
ATOM     89  F   UNL A   1      47.975  26.571  33.055  1.00  0.00    -0.205 F 
ATOM     90  Cl  UNL A   1      45.801  26.893  35.061  1.00  0.00    -0.081 Cl
ENDBRANCH  78  83
ENDBRANCH  72  74
ENDBRANCH  71  72
ENDBRANCH  70  71
ENDBRANCH   1  70
TORSDOF 13
ENDMDL
MODEL 2
REMARK VINA RESULT:     -10.3      4.338      7.071
REMARK SMILES O=C(OCCOC(=O)c1c(C2CC2)nn(-c2ccc(Cl)c(F)c2)c1Cl)c1ccc(-c2c3nc(c(-c4c(F)c(F)c(F)c(F)c4F)c4ccc([nH]4)c(-c4c(F)c(F)c(F)c(F)c4F)c4nc(c(-c5c(F)c(F)c(F)c(F)c5F)c5ccc2[nH]5)C=C4)C=C3)cc1
REMARK SMILES IDX 4 1 3 2 2 3 1 4 26 5 27 6 88 7 28 8 87 9 29 10 30 11 31 12
REMARK SMILES IDX 81 13 32 14 86 15 80 16 82 17 33 18 85 19 79 20 78 21 34 23
REMARK SMILES IDX 66 24 46 25 65 26 47 27 50 28 64 29 83 30 48 31 49 32 63 34
REMARK SMILES IDX 84 35 51 36 35 37 36 38 44 39 37 40 38 41 42 42 45 43 39 44
REMARK SMILES IDX 40 45 43 46 41 47 67 48 68 49 76 50 69 51 70 52 74 53 77 54
REMARK SMILES IDX 71 55 72 56 75 57 73 58 52 59 53 60 61 61 54 62 55 63 59 64
REMARK SMILES IDX 62 65 56 66 57 67 60 68 58 69 5 70 6 71 7 72 8 73 9 74 10 75
REMARK SMILES IDX 24 76 14 77 15 78 25 79 11 80 12 81 13 82 16 83 17 84 23 85
REMARK SMILES IDX 18 86 21 87 19 88 22 89 20 90
REMARK H PARENT 82 22 50 33
REMARK Flexibility Score: inf
ROOT
ATOM      1  C   UNL A   1      39.344  21.362  26.119  1.00  0.00     0.275 C 
ENDROOT
BRANCH   1   2
ATOM      2  O   UNL A   1      39.726  22.011  27.340  1.00  0.00    -0.458 OA
BRANCH   2   3
ATOM      3  C   UNL A   1      40.995  22.451  27.454  1.00  0.00     0.338 C 
ATOM      4  O   UNL A   1      41.997  21.780  27.613  1.00  0.00    -0.246 OA
BRANCH   3   5
ATOM      5  C   UNL A   1      40.910  23.909  27.679  1.00  0.00     0.060 A 
ATOM      6  C   UNL A   1      39.791  24.658  27.301  1.00  0.00     0.016 A 
ATOM      7  C   UNL A   1      41.941  24.502  28.406  1.00  0.00     0.016 A 
ATOM      8  C   UNL A   1      39.723  26.007  27.631  1.00  0.00     0.010 A 
ATOM      9  C   UNL A   1      41.859  25.845  28.757  1.00  0.00     0.010 A 
ATOM     10  C   UNL A   1      40.769  26.603  28.344  1.00  0.00    -0.014 A 
BRANCH  10  11
ATOM     11  C   UNL A   1      40.721  28.035  28.603  1.00  0.00     0.031 A 
ATOM     12  C   UNL A   1      41.833  28.892  28.116  1.00  0.00     0.074 A 
ATOM     13  C   UNL A   1      39.682  28.640  29.209  1.00  0.00     0.049 A 
ATOM     14  N   UNL A   1      42.720  29.513  28.823  1.00  0.00    -0.248 NA
ATOM     15  C   UNL A   1      41.955  29.108  26.669  1.00  0.00     0.031 C 
ATOM     16  C   UNL A   1      38.342  28.120  29.487  1.00  0.00     0.029 A 
ATOM     17  N   UNL A   1      39.633  29.918  29.682  1.00  0.00    -0.354 N 
ATOM     18  C   UNL A   1      43.448  30.304  27.937  1.00  0.00     0.074 A 
ATOM     19  C   UNL A   1      42.972  29.974  26.614  1.00  0.00     0.031 C 
ATOM     20  C   UNL A   1      37.562  29.125  29.948  1.00  0.00     0.029 A 
ATOM     21  C   UNL A   1      38.390  30.302  30.148  1.00  0.00     0.049 A 
ATOM     22  H   UNL A   1      40.416  30.516  29.690  1.00  0.00     0.167 HD
ATOM     23  C   UNL A   1      44.310  31.271  28.364  1.00  0.00     0.037 A 
ATOM     24  C   UNL A   1      38.064  31.507  30.665  1.00  0.00     0.037 A 
ATOM     25  C   UNL A   1      44.646  31.121  29.753  1.00  0.00     0.049 A 
ATOM     26  C   UNL A   1      39.308  32.153  31.147  1.00  0.00     0.074 A 
ATOM     27  C   UNL A   1      45.263  30.136  30.500  1.00  0.00     0.029 A 
ATOM     28  N   UNL A   1      44.054  31.950  30.673  1.00  0.00    -0.354 N 
ATOM     29  N   UNL A   1      39.997  31.749  32.177  1.00  0.00    -0.248 NA
ATOM     30  C   UNL A   1      39.995  33.083  30.265  1.00  0.00     0.031 C 
ATOM     31  C   UNL A   1      44.591  30.146  31.759  1.00  0.00     0.029 A 
ATOM     32  C   UNL A   1      43.621  31.148  31.699  1.00  0.00     0.049 A 
ATOM     33  H   UNL A   1      43.958  32.928  30.609  1.00  0.00     0.167 HD
ATOM     34  C   UNL A   1      41.314  32.045  31.863  1.00  0.00     0.074 A 
ATOM     35  C   UNL A   1      41.235  32.978  30.747  1.00  0.00     0.031 C 
ATOM     36  C   UNL A   1      42.346  31.301  32.360  1.00  0.00     0.037 A 
BRANCH  23  37
ATOM     37  C   UNL A   1      44.707  32.488  27.575  1.00  0.00     0.064 A 
ATOM     38  C   UNL A   1      45.956  32.539  26.925  1.00  0.00     0.173 A 
ATOM     39  C   UNL A   1      44.000  33.707  27.640  1.00  0.00     0.173 A 
ATOM     40  F   UNL A   1      46.729  31.445  26.847  1.00  0.00    -0.203 F 
ATOM     41  C   UNL A   1      46.468  33.727  26.399  1.00  0.00     0.198 A 
ATOM     42  C   UNL A   1      44.494  34.882  27.071  1.00  0.00     0.198 A 
ATOM     43  F   UNL A   1      42.861  33.815  28.335  1.00  0.00    -0.203 F 
ATOM     44  F   UNL A   1      47.699  33.746  25.867  1.00  0.00    -0.200 F 
ATOM     45  C   UNL A   1      45.735  34.898  26.468  1.00  0.00     0.200 A 
ATOM     46  F   UNL A   1      43.780  36.012  27.168  1.00  0.00    -0.200 F 
ATOM     47  F   UNL A   1      46.239  36.045  25.996  1.00  0.00    -0.200 F 
ENDBRANCH  23  37
BRANCH  24  48
ATOM     48  C   UNL A   1      36.770  32.212  30.598  1.00  0.00     0.064 A 
ATOM     49  C   UNL A   1      35.900  32.249  31.696  1.00  0.00     0.173 A 
ATOM     50  C   UNL A   1      36.488  33.090  29.534  1.00  0.00     0.173 A 
ATOM     51  F   UNL A   1      36.128  31.475  32.766  1.00  0.00    -0.203 F 
ATOM     52  C   UNL A   1      34.818  33.133  31.737  1.00  0.00     0.198 A 
ATOM     53  C   UNL A   1      35.405  33.966  29.574  1.00  0.00     0.198 A 
ATOM     54  F   UNL A   1      37.311  33.176  28.479  1.00  0.00    -0.203 F 
ATOM     55  F   UNL A   1      34.041  33.185  32.828  1.00  0.00    -0.200 F 
ATOM     56  C   UNL A   1      34.578  33.997  30.681  1.00  0.00     0.200 A 
ATOM     57  F   UNL A   1      35.204  34.821  28.561  1.00  0.00    -0.200 F 
ATOM     58  F   UNL A   1      33.578  34.886  30.748  1.00  0.00    -0.200 F 
ENDBRANCH  24  48
BRANCH  36  59
ATOM     59  C   UNL A   1      42.040  30.353  33.488  1.00  0.00     0.064 A 
ATOM     60  C   UNL A   1      41.625  29.023  33.295  1.00  0.00     0.173 A 
ATOM     61  C   UNL A   1      42.300  30.759  34.803  1.00  0.00     0.173 A 
ATOM     62  F   UNL A   1      41.467  28.524  32.063  1.00  0.00    -0.203 F 
ATOM     63  C   UNL A   1      41.422  28.164  34.372  1.00  0.00     0.198 A 
ATOM     64  C   UNL A   1      42.135  29.886  35.877  1.00  0.00     0.198 A 
ATOM     65  F   UNL A   1      42.763  31.996  35.048  1.00  0.00    -0.203 F 
ATOM     66  F   UNL A   1      41.007  26.906  34.159  1.00  0.00    -0.200 F 
ATOM     67  C   UNL A   1      41.682  28.593  35.663  1.00  0.00     0.200 A 
ATOM     68  F   UNL A   1      42.439  30.288  37.119  1.00  0.00    -0.200 F 
ATOM     69  F   UNL A   1      41.526  27.754  36.696  1.00  0.00    -0.200 F 
ENDBRANCH  36  59
ENDBRANCH  10  11
ENDBRANCH   3   5
ENDBRANCH   2   3
ENDBRANCH   1   2
BRANCH   1  70
ATOM     70  C   UNL A   1      38.183  22.008  25.347  1.00  0.00     0.275 C 
BRANCH  70  71
ATOM     71  O   UNL A   1      36.920  21.650  25.943  1.00  0.00    -0.458 OA
BRANCH  71  72
ATOM     72  C   UNL A   1      36.137  20.743  25.276  1.00  0.00     0.343 C 
ATOM     73  O   UNL A   1      36.571  19.809  24.621  1.00  0.00    -0.246 OA
BRANCH  72  74
ATOM     74  C   UNL A   1      34.730  21.094  25.348  1.00  0.00     0.121 A 
ATOM     75  C   UNL A   1      33.500  20.369  25.312  1.00  0.00     0.082 A 
ATOM     76  C   UNL A   1      34.303  22.409  25.279  1.00  0.00     0.147 A 
ATOM     77  N   UNL A   1      32.439  21.186  25.454  1.00  0.00    -0.170 NA
ATOM     78  N   UNL A   1      32.934  22.423  25.247  1.00  0.00    -0.221 N 
ATOM     79  Cl  UNL A   1      35.189  23.877  25.207  1.00  0.00    -0.061 Cl
BRANCH  75  80
ATOM     80  C   UNL A   1      33.144  18.902  25.053  1.00  0.00     0.041 C 
ATOM     81  C   UNL A   1      32.652  18.389  23.724  1.00  0.00     0.011 C 
ATOM     82  C   UNL A   1      33.956  17.915  24.262  1.00  0.00     0.011 C 
ENDBRANCH  75  80
BRANCH  78  83
ATOM     83  C   UNL A   1      32.047  23.476  24.917  1.00  0.00     0.069 A 
ATOM     84  C   UNL A   1      31.428  23.484  23.660  1.00  0.00     0.030 A 
ATOM     85  C   UNL A   1      31.835  24.526  25.819  1.00  0.00     0.069 A 
ATOM     86  C   UNL A   1      30.534  24.510  23.338  1.00  0.00     0.026 A 
ATOM     87  C   UNL A   1      30.977  25.562  25.467  1.00  0.00     0.143 A 
ATOM     88  C   UNL A   1      30.311  25.551  24.243  1.00  0.00     0.076 A 
ATOM     89  F   UNL A   1      30.813  26.577  26.328  1.00  0.00    -0.205 F 
ATOM     90  Cl  UNL A   1      29.216  26.812  23.829  1.00  0.00    -0.081 Cl
ENDBRANCH  78  83
ENDBRANCH  72  74
ENDBRANCH  71  72
ENDBRANCH  70  71
ENDBRANCH   1  70
TORSDOF 13
ENDMDL
MODEL 3
REMARK VINA RESULT:      -9.9      4.326     10.136
REMARK SMILES O=C(OCCOC(=O)c1c(C2CC2)nn(-c2ccc(Cl)c(F)c2)c1Cl)c1ccc(-c2c3nc(c(-c4c(F)c(F)c(F)c(F)c4F)c4ccc([nH]4)c(-c4c(F)c(F)c(F)c(F)c4F)c4nc(c(-c5c(F)c(F)c(F)c(F)c5F)c5ccc2[nH]5)C=C4)C=C3)cc1
REMARK SMILES IDX 4 1 3 2 2 3 1 4 26 5 27 6 88 7 28 8 87 9 29 10 30 11 31 12
REMARK SMILES IDX 81 13 32 14 86 15 80 16 82 17 33 18 85 19 79 20 78 21 34 23
REMARK SMILES IDX 66 24 46 25 65 26 47 27 50 28 64 29 83 30 48 31 49 32 63 34
REMARK SMILES IDX 84 35 51 36 35 37 36 38 44 39 37 40 38 41 42 42 45 43 39 44
REMARK SMILES IDX 40 45 43 46 41 47 67 48 68 49 76 50 69 51 70 52 74 53 77 54
REMARK SMILES IDX 71 55 72 56 75 57 73 58 52 59 53 60 61 61 54 62 55 63 59 64
REMARK SMILES IDX 62 65 56 66 57 67 60 68 58 69 5 70 6 71 7 72 8 73 9 74 10 75
REMARK SMILES IDX 24 76 14 77 15 78 25 79 11 80 12 81 13 82 16 83 17 84 23 85
REMARK SMILES IDX 18 86 21 87 19 88 22 89 20 90
REMARK H PARENT 82 22 50 33
REMARK Flexibility Score: inf
ROOT
ATOM      1  C   UNL A   1      34.657  33.599  30.814  1.00  0.00     0.275 C 
ENDROOT
BRANCH   1   2
ATOM      2  O   UNL A   1      34.743  32.427  29.991  1.00  0.00    -0.458 OA
BRANCH   2   3
ATOM      3  C   UNL A   1      35.594  32.449  28.945  1.00  0.00     0.338 C 
ATOM      4  O   UNL A   1      35.419  32.975  27.862  1.00  0.00    -0.246 OA
BRANCH   3   5
ATOM      5  C   UNL A   1      36.637  31.443  29.237  1.00  0.00     0.060 A 
ATOM      6  C   UNL A   1      36.324  30.136  29.623  1.00  0.00     0.016 A 
ATOM      7  C   UNL A   1      37.959  31.805  28.987  1.00  0.00     0.016 A 
ATOM      8  C   UNL A   1      37.343  29.204  29.783  1.00  0.00     0.010 A 
ATOM      9  C   UNL A   1      38.974  30.866  29.123  1.00  0.00     0.010 A 
ATOM     10  C   UNL A   1      38.672  29.577  29.551  1.00  0.00    -0.014 A 
BRANCH  10  11
ATOM     11  C   UNL A   1      39.732  28.613  29.809  1.00  0.00     0.031 A 
ATOM     12  C   UNL A   1      40.232  28.449  31.198  1.00  0.00     0.074 A 
ATOM     13  C   UNL A   1      40.244  27.809  28.858  1.00  0.00     0.049 A 
ATOM     14  N   UNL A   1      41.391  28.781  31.665  1.00  0.00    -0.248 NA
ATOM     15  C   UNL A   1      39.346  27.812  32.179  1.00  0.00     0.031 C 
ATOM     16  C   UNL A   1      39.733  27.518  27.517  1.00  0.00     0.029 A 
ATOM     17  N   UNL A   1      41.364  27.037  28.946  1.00  0.00    -0.354 N 
ATOM     18  C   UNL A   1      41.448  28.291  32.968  1.00  0.00     0.074 A 
ATOM     19  C   UNL A   1      40.139  27.751  33.253  1.00  0.00     0.031 C 
ATOM     20  C   UNL A   1      40.462  26.518  26.971  1.00  0.00     0.029 A 
ATOM     21  C   UNL A   1      41.578  26.221  27.853  1.00  0.00     0.049 A 
ATOM     22  H   UNL A   1      41.969  27.059  29.724  1.00  0.00     0.167 HD
ATOM     23  C   UNL A   1      42.609  28.251  33.682  1.00  0.00     0.037 A 
ATOM     24  C   UNL A   1      42.605  25.359  27.682  1.00  0.00     0.037 A 
ATOM     25  C   UNL A   1      43.628  29.083  33.102  1.00  0.00     0.049 A 
ATOM     26  C   UNL A   1      43.720  25.793  28.556  1.00  0.00     0.074 A 
ATOM     27  C   UNL A   1      43.744  30.436  32.846  1.00  0.00     0.029 A 
ATOM     28  N   UNL A   1      44.638  28.494  32.385  1.00  0.00    -0.354 N 
ATOM     29  N   UNL A   1      44.423  26.875  28.372  1.00  0.00    -0.248 NA
ATOM     30  C   UNL A   1      43.852  25.181  29.869  1.00  0.00     0.031 C 
ATOM     31  C   UNL A   1      44.472  30.522  31.621  1.00  0.00     0.029 A 
ATOM     32  C   UNL A   1      44.764  29.216  31.224  1.00  0.00     0.049 A 
ATOM     33  H   UNL A   1      45.167  27.707  32.649  1.00  0.00     0.167 HD
ATOM     34  C   UNL A   1      44.763  27.300  29.647  1.00  0.00     0.074 A 
ATOM     35  C   UNL A   1      44.503  26.155  30.509  1.00  0.00     0.031 C 
ATOM     36  C   UNL A   1      44.967  28.622  29.922  1.00  0.00     0.037 A 
BRANCH  23  37
ATOM     37  C   UNL A   1      42.902  27.300  34.808  1.00  0.00     0.064 A 
ATOM     38  C   UNL A   1      43.228  27.791  36.088  1.00  0.00     0.173 A 
ATOM     39  C   UNL A   1      43.114  25.920  34.609  1.00  0.00     0.173 A 
ATOM     40  F   UNL A   1      43.105  29.097  36.369  1.00  0.00    -0.203 F 
ATOM     41  C   UNL A   1      43.747  26.964  37.087  1.00  0.00     0.198 A 
ATOM     42  C   UNL A   1      43.589  25.088  35.625  1.00  0.00     0.198 A 
ATOM     43  F   UNL A   1      42.958  25.357  33.404  1.00  0.00    -0.203 F 
ATOM     44  F   UNL A   1      44.124  27.492  38.261  1.00  0.00    -0.200 F 
ATOM     45  C   UNL A   1      43.924  25.612  36.857  1.00  0.00     0.200 A 
ATOM     46  F   UNL A   1      43.775  23.784  35.376  1.00  0.00    -0.200 F 
ATOM     47  F   UNL A   1      44.455  24.825  37.801  1.00  0.00    -0.200 F 
ENDBRANCH  23  37
BRANCH  24  48
ATOM     48  C   UNL A   1      42.613  24.078  26.950  1.00  0.00     0.064 A 
ATOM     49  C   UNL A   1      43.189  23.967  25.677  1.00  0.00     0.173 A 
ATOM     50  C   UNL A   1      42.290  22.876  27.608  1.00  0.00     0.173 A 
ATOM     51  F   UNL A   1      43.564  25.065  25.006  1.00  0.00    -0.203 F 
ATOM     52  C   UNL A   1      43.448  22.720  25.102  1.00  0.00     0.198 A 
ATOM     53  C   UNL A   1      42.543  21.633  27.031  1.00  0.00     0.198 A 
ATOM     54  F   UNL A   1      41.808  22.887  28.860  1.00  0.00    -0.203 F 
ATOM     55  F   UNL A   1      44.055  22.649  23.909  1.00  0.00    -0.200 F 
ATOM     56  C   UNL A   1      43.135  21.555  25.783  1.00  0.00     0.200 A 
ATOM     57  F   UNL A   1      42.267  20.514  27.715  1.00  0.00    -0.200 F 
ATOM     58  F   UNL A   1      43.439  20.361  25.258  1.00  0.00    -0.200 F 
ENDBRANCH  24  48
BRANCH  36  59
ATOM     59  C   UNL A   1      45.114  29.562  28.757  1.00  0.00     0.064 A 
ATOM     60  C   UNL A   1      44.025  30.152  28.092  1.00  0.00     0.173 A 
ATOM     61  C   UNL A   1      46.398  29.980  28.382  1.00  0.00     0.173 A 
ATOM     62  F   UNL A   1      42.766  29.894  28.469  1.00  0.00    -0.203 F 
ATOM     63  C   UNL A   1      44.215  31.071  27.062  1.00  0.00     0.198 A 
ATOM     64  C   UNL A   1      46.586  30.928  27.377  1.00  0.00     0.198 A 
ATOM     65  F   UNL A   1      47.477  29.502  29.023  1.00  0.00    -0.203 F 
ATOM     66  F   UNL A   1      43.157  31.604  26.433  1.00  0.00    -0.200 F 
ATOM     67  C   UNL A   1      45.495  31.463  26.709  1.00  0.00     0.200 A 
ATOM     68  F   UNL A   1      47.823  31.346  27.075  1.00  0.00    -0.200 F 
ATOM     69  F   UNL A   1      45.678  32.377  25.745  1.00  0.00    -0.200 F 
ENDBRANCH  36  59
ENDBRANCH  10  11
ENDBRANCH   3   5
ENDBRANCH   2   3
ENDBRANCH   1   2
BRANCH   1  70
ATOM     70  C   UNL A   1      34.556  33.352  32.327  1.00  0.00     0.275 C 
BRANCH  70  71
ATOM     71  O   UNL A   1      35.558  32.406  32.752  1.00  0.00    -0.458 OA
BRANCH  71  72
ATOM     72  C   UNL A   1      36.522  32.849  33.621  1.00  0.00     0.343 C 
ATOM     73  O   UNL A   1      36.302  33.549  34.596  1.00  0.00    -0.246 OA
BRANCH  72  74
ATOM     74  C   UNL A   1      37.854  32.481  33.176  1.00  0.00     0.121 A 
ATOM     75  C   UNL A   1      38.834  31.526  33.587  1.00  0.00     0.082 A 
ATOM     76  C   UNL A   1      38.547  33.238  32.247  1.00  0.00     0.147 A 
ATOM     77  N   UNL A   1      39.925  31.565  32.800  1.00  0.00    -0.170 NA
ATOM     78  N   UNL A   1      39.809  32.722  32.118  1.00  0.00    -0.221 N 
ATOM     79  Cl  UNL A   1      38.077  34.622  31.347  1.00  0.00    -0.061 Cl
BRANCH  75  80
ATOM     80  C   UNL A   1      38.938  30.561  34.772  1.00  0.00     0.041 C 
ATOM     81  C   UNL A   1      39.921  30.734  35.901  1.00  0.00     0.011 C 
ATOM     82  C   UNL A   1      38.461  30.817  36.174  1.00  0.00     0.011 C 
ENDBRANCH  75  80
BRANCH  78  83
ATOM     83  C   UNL A   1      40.958  33.284  31.508  1.00  0.00     0.069 A 
ATOM     84  C   UNL A   1      41.508  32.664  30.379  1.00  0.00     0.030 A 
ATOM     85  C   UNL A   1      41.568  34.415  32.064  1.00  0.00     0.069 A 
ATOM     86  C   UNL A   1      42.629  33.226  29.760  1.00  0.00     0.026 A 
ATOM     87  C   UNL A   1      42.707  34.938  31.462  1.00  0.00     0.143 A 
ATOM     88  C   UNL A   1      43.229  34.364  30.305  1.00  0.00     0.076 A 
ATOM     89  F   UNL A   1      43.298  36.001  32.028  1.00  0.00    -0.205 F 
ATOM     90  Cl  UNL A   1      44.613  35.039  29.538  1.00  0.00    -0.081 Cl
ENDBRANCH  78  83
ENDBRANCH  72  74
ENDBRANCH  71  72
ENDBRANCH  70  71
ENDBRANCH   1  70
TORSDOF 13
ENDMDL
