MODEL 1
REMARK VINA RESULT:     -13.8      0.000      0.000
REMARK SMILES O=C(Cn1c(-c2nc(-c3ccc(C(F)(F)F)cc3)no2)cc2ccccc21)OCCOC(=O)c1ccc(-c2c3nc(c(-c4c(F)c(F)c(F)c(F)c4F)c4ccc([nH]4)c(-c4c(F)c(F)c(F)c(F)c4F)c4nc(c(-c5c(F)c(F)c(F)c(F)c5F)c5ccc2[nH]5)C=C4)C=C3)cc1
REMARK SMILES IDX 29 1 28 2 2 3 1 4 3 5 4 6 5 7 27 8 21 9 22 10 26 11 23 12
REMARK SMILES IDX 25 13 24 14 6 15 7 16 20 17 8 18 19 19 9 20 10 21 18 22
REMARK SMILES IDX 11 23 17 24 12 25 13 26 14 27 15 28 16 29 30 30 31 31 32 32
REMARK SMILES IDX 33 33 34 34 35 35 96 36 36 37 95 38 37 39 38 40 39 41 89 42
REMARK SMILES IDX 40 43 94 44 88 45 90 46 41 47 93 48 87 49 86 50 42 52 74 53
REMARK SMILES IDX 54 54 73 55 55 56 58 57 72 58 91 59 56 60 57 61 71 63 92 64
REMARK SMILES IDX 59 65 43 66 44 67 52 68 45 69 46 70 50 71 53 72 47 73 48 74
REMARK SMILES IDX 51 75 49 76 75 77 76 78 84 79 77 80 78 81 82 82 85 83 79 84
REMARK SMILES IDX 80 85 83 86 81 87 60 88 61 89 69 90 62 91 63 92 67 93 70 94
REMARK SMILES IDX 64 95 65 96 68 97 66 98
REMARK H PARENT 90 51 58 62
REMARK Flexibility Score: inf
ROOT
ATOM      1  C   UNL A   1      36.216  21.411  24.729  1.00  0.00     0.274 C 
ENDROOT
BRANCH   1   2
ATOM      2  O   UNL A   1      35.396  21.268  25.906  1.00  0.00    -0.461 OA
BRANCH   2   3
ATOM      3  C   UNL A   1      34.268  22.030  26.056  1.00  0.00     0.326 C 
ATOM      4  O   UNL A   1      34.354  23.196  26.435  1.00  0.00    -0.250 OA
BRANCH   3   5
ATOM      5  C   UNL A   1      32.956  21.292  25.986  1.00  0.00     0.245 C 
BRANCH   5   6
ATOM      6  N   UNL A   1      32.609  20.659  24.718  1.00  0.00    -0.325 N 
ATOM      7  C   UNL A   1      32.195  21.297  23.567  1.00  0.00     0.109 A 
ATOM      8  C   UNL A   1      32.990  19.355  24.410  1.00  0.00     0.049 A 
ATOM      9  C   UNL A   1      32.077  20.326  22.587  1.00  0.00     0.042 A 
ATOM     10  C   UNL A   1      32.594  19.106  23.098  1.00  0.00     0.000 A 
ATOM     11  C   UNL A   1      33.680  18.382  25.155  1.00  0.00     0.027 A 
ATOM     12  C   UNL A   1      32.834  17.829  22.546  1.00  0.00     0.010 A 
ATOM     13  C   UNL A   1      33.923  17.130  24.590  1.00  0.00     0.002 A 
ATOM     14  C   UNL A   1      33.491  16.850  23.303  1.00  0.00     0.001 A 
BRANCH   7  15
ATOM     15  C   UNL A   1      32.129  22.713  23.383  1.00  0.00     0.274 A 
ATOM     16  N   UNL A   1      31.069  23.489  23.510  1.00  0.00    -0.185 NA
ATOM     17  O   UNL A   1      33.266  23.432  23.122  1.00  0.00    -0.332 OA
ATOM     18  C   UNL A   1      31.568  24.748  23.214  1.00  0.00     0.202 A 
ATOM     19  N   UNL A   1      32.900  24.763  23.037  1.00  0.00    -0.057 NA
BRANCH  18  20
ATOM     20  C   UNL A   1      30.776  25.975  23.144  1.00  0.00     0.023 A 
ATOM     21  C   UNL A   1      29.495  26.000  23.727  1.00  0.00     0.013 A 
ATOM     22  C   UNL A   1      31.228  27.126  22.487  1.00  0.00     0.013 A 
ATOM     23  C   UNL A   1      28.683  27.134  23.650  1.00  0.00     0.014 A 
ATOM     24  C   UNL A   1      30.407  28.266  22.402  1.00  0.00     0.014 A 
ATOM     25  C   UNL A   1      29.126  28.280  22.979  1.00  0.00     0.056 A 
BRANCH  25  26
ATOM     26  C   UNL A   1      28.215  29.483  22.890  1.00  0.00     0.416 C 
ATOM     27  F   UNL A   1      28.754  30.584  23.484  1.00  0.00    -0.166 F 
ATOM     28  F   UNL A   1      27.956  29.847  21.602  1.00  0.00    -0.166 F 
ATOM     29  F   UNL A   1      27.001  29.298  23.477  1.00  0.00    -0.166 F 
ENDBRANCH  25  26
ENDBRANCH  18  20
ENDBRANCH   7  15
ENDBRANCH   5   6
ENDBRANCH   3   5
ENDBRANCH   2   3
ENDBRANCH   1   2
BRANCH   1  30
ATOM     30  C   UNL A   1      37.716  21.213  24.974  1.00  0.00     0.275 C 
BRANCH  30  31
ATOM     31  O   UNL A   1      38.213  22.235  25.845  1.00  0.00    -0.458 OA
BRANCH  31  32
ATOM     32  C   UNL A   1      39.447  21.983  26.351  1.00  0.00     0.338 C 
ATOM     33  O   UNL A   1      40.137  20.994  26.170  1.00  0.00    -0.246 OA
BRANCH  32  34
ATOM     34  C   UNL A   1      39.961  23.267  26.855  1.00  0.00     0.060 A 
ATOM     35  C   UNL A   1      41.089  23.339  27.669  1.00  0.00     0.016 A 
ATOM     36  C   UNL A   1      39.158  24.393  26.637  1.00  0.00     0.016 A 
ATOM     37  C   UNL A   1      41.356  24.536  28.323  1.00  0.00     0.010 A 
ATOM     38  C   UNL A   1      39.419  25.578  27.313  1.00  0.00     0.010 A 
ATOM     39  C   UNL A   1      40.487  25.644  28.207  1.00  0.00    -0.014 A 
BRANCH  39  40
ATOM     40  C   UNL A   1      40.858  26.895  28.898  1.00  0.00     0.031 A 
ATOM     41  C   UNL A   1      42.105  27.510  28.345  1.00  0.00     0.074 A 
ATOM     42  C   UNL A   1      40.119  27.554  29.823  1.00  0.00     0.049 A 
ATOM     43  N   UNL A   1      43.191  27.838  28.968  1.00  0.00    -0.248 NA
ATOM     44  C   UNL A   1      42.195  27.632  26.877  1.00  0.00     0.031 C 
ATOM     45  C   UNL A   1      38.771  27.235  30.301  1.00  0.00     0.029 A 
ATOM     46  N   UNL A   1      40.387  28.735  30.469  1.00  0.00    -0.354 N 
ATOM     47  C   UNL A   1      44.041  28.358  27.993  1.00  0.00     0.074 A 
ATOM     48  C   UNL A   1      43.443  28.065  26.718  1.00  0.00     0.031 C 
ATOM     49  C   UNL A   1      38.254  28.307  30.945  1.00  0.00     0.029 A 
ATOM     50  C   UNL A   1      39.269  29.342  31.043  1.00  0.00     0.049 A 
ATOM     51  H   UNL A   1      41.290  29.121  30.524  1.00  0.00     0.167 HD
ATOM     52  C   UNL A   1      45.072  29.188  28.300  1.00  0.00     0.037 A 
ATOM     53  C   UNL A   1      39.166  30.621  31.498  1.00  0.00     0.037 A 
ATOM     54  C   UNL A   1      45.473  29.067  29.672  1.00  0.00     0.049 A 
ATOM     55  C   UNL A   1      40.537  31.132  31.718  1.00  0.00     0.074 A 
ATOM     56  C   UNL A   1      46.003  28.057  30.448  1.00  0.00     0.029 A 
ATOM     57  N   UNL A   1      45.055  30.030  30.553  1.00  0.00    -0.354 N 
ATOM     58  N   UNL A   1      41.332  30.729  32.666  1.00  0.00    -0.248 NA
ATOM     59  C   UNL A   1      41.175  31.831  30.614  1.00  0.00     0.031 C 
ATOM     60  C   UNL A   1      45.445  28.251  31.745  1.00  0.00     0.029 A 
ATOM     61  C   UNL A   1      44.644  29.391  31.691  1.00  0.00     0.049 A 
ATOM     62  H   UNL A   1      45.051  31.001  30.396  1.00  0.00     0.167 HD
ATOM     63  C   UNL A   1      42.585  30.715  32.078  1.00  0.00     0.074 A 
ATOM     64  C   UNL A   1      42.443  31.489  30.848  1.00  0.00     0.031 C 
ATOM     65  C   UNL A   1      43.543  29.845  32.504  1.00  0.00     0.037 A 
BRANCH  52  66
ATOM     66  C   UNL A   1      45.467  30.362  27.437  1.00  0.00     0.064 A 
ATOM     67  C   UNL A   1      46.829  30.622  27.194  1.00  0.00     0.173 A 
ATOM     68  C   UNL A   1      44.575  31.400  27.089  1.00  0.00     0.173 A 
ATOM     69  F   UNL A   1      47.766  29.721  27.524  1.00  0.00    -0.203 F 
ATOM     70  C   UNL A   1      47.263  31.852  26.692  1.00  0.00     0.198 A 
ATOM     71  C   UNL A   1      45.007  32.603  26.536  1.00  0.00     0.198 A 
ATOM     72  F   UNL A   1      43.268  31.342  27.375  1.00  0.00    -0.203 F 
ATOM     73  F   UNL A   1      48.576  32.101  26.589  1.00  0.00    -0.200 F 
ATOM     74  C   UNL A   1      46.353  32.841  26.364  1.00  0.00     0.200 A 
ATOM     75  F   UNL A   1      44.109  33.556  26.250  1.00  0.00    -0.200 F 
ATOM     76  F   UNL A   1      46.771  34.038  25.934  1.00  0.00    -0.200 F 
ENDBRANCH  52  66
BRANCH  53  77
ATOM     77  C   UNL A   1      38.011  31.561  31.440  1.00  0.00     0.064 A 
ATOM     78  C   UNL A   1      37.475  31.977  30.205  1.00  0.00     0.173 A 
ATOM     79  C   UNL A   1      37.213  31.809  32.573  1.00  0.00     0.173 A 
ATOM     80  F   UNL A   1      38.141  31.742  29.064  1.00  0.00    -0.203 F 
ATOM     81  C   UNL A   1      36.206  32.563  30.107  1.00  0.00     0.198 A 
ATOM     82  C   UNL A   1      35.951  32.401  32.475  1.00  0.00     0.198 A 
ATOM     83  F   UNL A   1      37.593  31.387  33.787  1.00  0.00    -0.203 F 
ATOM     84  F   UNL A   1      35.699  32.869  28.905  1.00  0.00    -0.200 F 
ATOM     85  C   UNL A   1      35.440  32.760  31.242  1.00  0.00     0.200 A 
ATOM     86  F   UNL A   1      35.202  32.552  33.577  1.00  0.00    -0.200 F 
ATOM     87  F   UNL A   1      34.195  33.251  31.144  1.00  0.00    -0.200 F 
ENDBRANCH  53  77
BRANCH  65  88
ATOM     88  C   UNL A   1      43.315  29.124  33.803  1.00  0.00     0.064 A 
ATOM     89  C   UNL A   1      43.677  29.632  35.063  1.00  0.00     0.173 A 
ATOM     90  C   UNL A   1      42.567  27.939  33.772  1.00  0.00     0.173 A 
ATOM     91  F   UNL A   1      44.318  30.802  35.179  1.00  0.00    -0.203 F 
ATOM     92  C   UNL A   1      43.329  28.961  36.236  1.00  0.00     0.198 A 
ATOM     93  C   UNL A   1      42.187  27.295  34.945  1.00  0.00     0.198 A 
ATOM     94  F   UNL A   1      42.156  27.434  32.598  1.00  0.00    -0.203 F 
ATOM     95  F   UNL A   1      43.694  29.454  37.429  1.00  0.00    -0.200 F 
ATOM     96  C   UNL A   1      42.573  27.801  36.175  1.00  0.00     0.200 A 
ATOM     97  F   UNL A   1      41.416  26.200  34.882  1.00  0.00    -0.200 F 
ATOM     98  F   UNL A   1      42.193  27.183  37.303  1.00  0.00    -0.200 F 
ENDBRANCH  65  88
ENDBRANCH  39  40
ENDBRANCH  32  34
ENDBRANCH  31  32
ENDBRANCH  30  31
ENDBRANCH   1  30
TORSDOF 15
ENDMDL
MODEL 2
REMARK VINA RESULT:     -13.7      3.813      9.148
REMARK SMILES O=C(Cn1c(-c2nc(-c3ccc(C(F)(F)F)cc3)no2)cc2ccccc21)OCCOC(=O)c1ccc(-c2c3nc(c(-c4c(F)c(F)c(F)c(F)c4F)c4ccc([nH]4)c(-c4c(F)c(F)c(F)c(F)c4F)c4nc(c(-c5c(F)c(F)c(F)c(F)c5F)c5ccc2[nH]5)C=C4)C=C3)cc1
REMARK SMILES IDX 29 1 28 2 2 3 1 4 3 5 4 6 5 7 27 8 21 9 22 10 26 11 23 12
REMARK SMILES IDX 25 13 24 14 6 15 7 16 20 17 8 18 19 19 9 20 10 21 18 22
REMARK SMILES IDX 11 23 17 24 12 25 13 26 14 27 15 28 16 29 30 30 31 31 32 32
REMARK SMILES IDX 33 33 34 34 35 35 96 36 36 37 95 38 37 39 38 40 39 41 89 42
REMARK SMILES IDX 40 43 94 44 88 45 90 46 41 47 93 48 87 49 86 50 42 52 74 53
REMARK SMILES IDX 54 54 73 55 55 56 58 57 72 58 91 59 56 60 57 61 71 63 92 64
REMARK SMILES IDX 59 65 43 66 44 67 52 68 45 69 46 70 50 71 53 72 47 73 48 74
REMARK SMILES IDX 51 75 49 76 75 77 76 78 84 79 77 80 78 81 82 82 85 83 79 84
REMARK SMILES IDX 80 85 83 86 81 87 60 88 61 89 69 90 62 91 63 92 67 93 70 94
REMARK SMILES IDX 64 95 65 96 68 97 66 98
REMARK H PARENT 90 51 58 62
REMARK Flexibility Score: inf
ROOT
ATOM      1  C   UNL A   1      32.046  29.987  26.243  1.00  0.00     0.274 C 
ENDROOT
BRANCH   1   2
ATOM      2  O   UNL A   1      32.735  29.509  25.070  1.00  0.00    -0.461 OA
BRANCH   2   3
ATOM      3  C   UNL A   1      32.735  28.174  24.767  1.00  0.00     0.326 C 
ATOM      4  O   UNL A   1      33.382  27.384  25.451  1.00  0.00    -0.250 OA
BRANCH   3   5
ATOM      5  C   UNL A   1      32.131  27.795  23.440  1.00  0.00     0.245 C 
BRANCH   5   6
ATOM      6  N   UNL A   1      30.694  27.549  23.403  1.00  0.00    -0.325 N 
ATOM      7  C   UNL A   1      30.044  26.402  23.809  1.00  0.00     0.109 A 
ATOM      8  C   UNL A   1      29.766  28.582  23.276  1.00  0.00     0.049 A 
ATOM      9  C   UNL A   1      28.686  26.643  23.695  1.00  0.00     0.042 A 
ATOM     10  C   UNL A   1      28.498  28.016  23.381  1.00  0.00     0.000 A 
ATOM     11  C   UNL A   1      29.929  29.969  23.114  1.00  0.00     0.027 A 
ATOM     12  C   UNL A   1      27.367  28.851  23.252  1.00  0.00     0.010 A 
ATOM     13  C   UNL A   1      28.802  30.783  23.003  1.00  0.00     0.002 A 
ATOM     14  C   UNL A   1      27.533  30.229  23.056  1.00  0.00     0.001 A 
BRANCH   7  15
ATOM     15  C   UNL A   1      30.665  25.277  24.437  1.00  0.00     0.274 A 
ATOM     16  N   UNL A   1      31.181  24.214  23.848  1.00  0.00    -0.185 NA
ATOM     17  O   UNL A   1      30.859  25.261  25.793  1.00  0.00    -0.332 OA
ATOM     18  C   UNL A   1      31.631  23.455  24.918  1.00  0.00     0.202 A 
ATOM     19  N   UNL A   1      31.511  24.081  26.101  1.00  0.00    -0.057 NA
BRANCH  18  20
ATOM     20  C   UNL A   1      32.232  22.126  24.816  1.00  0.00     0.023 A 
ATOM     21  C   UNL A   1      32.128  21.416  23.605  1.00  0.00     0.013 A 
ATOM     22  C   UNL A   1      32.884  21.511  25.891  1.00  0.00     0.013 A 
ATOM     23  C   UNL A   1      32.648  20.127  23.470  1.00  0.00     0.014 A 
ATOM     24  C   UNL A   1      33.401  20.208  25.759  1.00  0.00     0.014 A 
ATOM     25  C   UNL A   1      33.286  19.503  24.549  1.00  0.00     0.056 A 
BRANCH  25  26
ATOM     26  C   UNL A   1      33.815  18.097  24.381  1.00  0.00     0.416 C 
ATOM     27  F   UNL A   1      35.176  18.063  24.314  1.00  0.00    -0.166 F 
ATOM     28  F   UNL A   1      33.477  17.284  25.421  1.00  0.00    -0.166 F 
ATOM     29  F   UNL A   1      33.371  17.472  23.257  1.00  0.00    -0.166 F 
ENDBRANCH  25  26
ENDBRANCH  18  20
ENDBRANCH   7  15
ENDBRANCH   5   6
ENDBRANCH   3   5
ENDBRANCH   2   3
ENDBRANCH   1   2
BRANCH   1  30
ATOM     30  C   UNL A   1      32.814  31.046  27.041  1.00  0.00     0.275 C 
BRANCH  30  31
ATOM     31  O   UNL A   1      33.974  30.465  27.646  1.00  0.00    -0.458 OA
BRANCH  31  32
ATOM     32  C   UNL A   1      34.747  31.347  28.331  1.00  0.00     0.338 C 
ATOM     33  O   UNL A   1      34.376  32.212  29.106  1.00  0.00    -0.246 OA
BRANCH  32  34
ATOM     34  C   UNL A   1      36.124  30.837  28.259  1.00  0.00     0.060 A 
ATOM     35  C   UNL A   1      36.407  29.537  27.844  1.00  0.00     0.016 A 
ATOM     36  C   UNL A   1      37.124  31.651  28.805  1.00  0.00     0.016 A 
ATOM     37  C   UNL A   1      37.688  29.039  28.057  1.00  0.00     0.010 A 
ATOM     38  C   UNL A   1      38.394  31.137  29.036  1.00  0.00     0.010 A 
ATOM     39  C   UNL A   1      38.672  29.809  28.717  1.00  0.00    -0.014 A 
BRANCH  39  40
ATOM     40  C   UNL A   1      40.021  29.229  28.871  1.00  0.00     0.031 A 
ATOM     41  C   UNL A   1      40.412  29.052  30.304  1.00  0.00     0.074 A 
ATOM     42  C   UNL A   1      40.807  28.743  27.880  1.00  0.00     0.049 A 
ATOM     43  N   UNL A   1      41.456  29.503  30.922  1.00  0.00    -0.248 NA
ATOM     44  C   UNL A   1      39.422  28.411  31.191  1.00  0.00     0.031 C 
ATOM     45  C   UNL A   1      40.490  28.608  26.456  1.00  0.00     0.029 A 
ATOM     46  N   UNL A   1      42.047  28.159  27.961  1.00  0.00    -0.354 N 
ATOM     47  C   UNL A   1      41.334  29.064  32.238  1.00  0.00     0.074 A 
ATOM     48  C   UNL A   1      40.003  28.537  32.382  1.00  0.00     0.031 C 
ATOM     49  C   UNL A   1      41.380  27.771  25.872  1.00  0.00     0.029 A 
ATOM     50  C   UNL A   1      42.403  27.411  26.838  1.00  0.00     0.049 A 
ATOM     51  H   UNL A   1      42.635  28.259  28.744  1.00  0.00     0.167 HD
ATOM     52  C   UNL A   1      42.404  28.959  33.070  1.00  0.00     0.037 A 
ATOM     53  C   UNL A   1      43.419  26.511  26.734  1.00  0.00     0.037 A 
ATOM     54  C   UNL A   1      43.504  29.775  32.638  1.00  0.00     0.049 A 
ATOM     55  C   UNL A   1      44.371  26.777  27.835  1.00  0.00     0.074 A 
ATOM     56  C   UNL A   1      43.710  31.130  32.478  1.00  0.00     0.029 A 
ATOM     57  N   UNL A   1      44.544  29.163  31.990  1.00  0.00    -0.354 N 
ATOM     58  N   UNL A   1      45.141  27.823  27.908  1.00  0.00    -0.248 NA
ATOM     59  C   UNL A   1      44.175  26.050  29.078  1.00  0.00     0.031 C 
ATOM     60  C   UNL A   1      44.577  31.245  31.354  1.00  0.00     0.029 A 
ATOM     61  C   UNL A   1      44.882  29.954  30.925  1.00  0.00     0.049 A 
ATOM     62  H   UNL A   1      44.969  28.312  32.242  1.00  0.00     0.167 HD
ATOM     63  C   UNL A   1      45.156  28.144  29.254  1.00  0.00     0.074 A 
ATOM     64  C   UNL A   1      44.623  26.969  29.936  1.00  0.00     0.031 C 
ATOM     65  C   UNL A   1      45.337  29.432  29.660  1.00  0.00     0.037 A 
BRANCH  52  66
ATOM     66  C   UNL A   1      42.564  27.838  34.066  1.00  0.00     0.064 A 
ATOM     67  C   UNL A   1      43.099  26.604  33.648  1.00  0.00     0.173 A 
ATOM     68  C   UNL A   1      41.942  27.835  35.334  1.00  0.00     0.173 A 
ATOM     69  F   UNL A   1      43.676  26.484  32.443  1.00  0.00    -0.203 F 
ATOM     70  C   UNL A   1      42.969  25.447  34.422  1.00  0.00     0.198 A 
ATOM     71  C   UNL A   1      41.865  26.693  36.126  1.00  0.00     0.198 A 
ATOM     72  F   UNL A   1      41.285  28.901  35.806  1.00  0.00    -0.203 F 
ATOM     73  F   UNL A   1      43.387  24.271  33.932  1.00  0.00    -0.200 F 
ATOM     74  C   UNL A   1      42.352  25.492  35.659  1.00  0.00     0.200 A 
ATOM     75  F   UNL A   1      41.240  26.754  37.311  1.00  0.00    -0.200 F 
ATOM     76  F   UNL A   1      42.180  24.375  36.376  1.00  0.00    -0.200 F 
ENDBRANCH  52  66
BRANCH  53  77
ATOM     77  C   UNL A   1      43.479  25.227  25.980  1.00  0.00     0.064 A 
ATOM     78  C   UNL A   1      44.570  24.930  25.138  1.00  0.00     0.173 A 
ATOM     79  C   UNL A   1      42.647  24.142  26.315  1.00  0.00     0.173 A 
ATOM     80  F   UNL A   1      45.446  25.888  24.800  1.00  0.00    -0.203 F 
ATOM     81  C   UNL A   1      44.833  23.626  24.698  1.00  0.00     0.198 A 
ATOM     82  C   UNL A   1      42.906  22.844  25.869  1.00  0.00     0.198 A 
ATOM     83  F   UNL A   1      41.626  24.298  27.169  1.00  0.00    -0.203 F 
ATOM     84  F   UNL A   1      45.928  23.372  23.966  1.00  0.00    -0.200 F 
ATOM     85  C   UNL A   1      44.008  22.582  25.077  1.00  0.00     0.200 A 
ATOM     86  F   UNL A   1      42.121  21.834  26.274  1.00  0.00    -0.200 F 
ATOM     87  F   UNL A   1      44.299  21.322  24.720  1.00  0.00    -0.200 F 
ENDBRANCH  53  77
BRANCH  65  88
ATOM     88  C   UNL A   1      45.815  30.431  28.646  1.00  0.00     0.064 A 
ATOM     89  C   UNL A   1      44.973  31.119  27.755  1.00  0.00     0.173 A 
ATOM     90  C   UNL A   1      47.164  30.811  28.685  1.00  0.00     0.173 A 
ATOM     91  F   UNL A   1      43.657  30.874  27.719  1.00  0.00    -0.203 F 
ATOM     92  C   UNL A   1      45.471  32.120  26.920  1.00  0.00     0.198 A 
ATOM     93  C   UNL A   1      47.650  31.837  27.880  1.00  0.00     0.198 A 
ATOM     94  F   UNL A   1      48.004  30.219  29.549  1.00  0.00    -0.203 F 
ATOM     95  F   UNL A   1      44.655  32.756  26.066  1.00  0.00    -0.200 F 
ATOM     96  C   UNL A   1      46.806  32.485  26.994  1.00  0.00     0.200 A 
ATOM     97  F   UNL A   1      48.930  32.218  27.990  1.00  0.00    -0.200 F 
ATOM     98  F   UNL A   1      47.276  33.482  26.229  1.00  0.00    -0.200 F 
ENDBRANCH  65  88
ENDBRANCH  39  40
ENDBRANCH  32  34
ENDBRANCH  31  32
ENDBRANCH  30  31
ENDBRANCH   1  30
TORSDOF 15
ENDMDL
MODEL 3
REMARK VINA RESULT:     -13.4      2.970      4.204
REMARK SMILES O=C(Cn1c(-c2nc(-c3ccc(C(F)(F)F)cc3)no2)cc2ccccc21)OCCOC(=O)c1ccc(-c2c3nc(c(-c4c(F)c(F)c(F)c(F)c4F)c4ccc([nH]4)c(-c4c(F)c(F)c(F)c(F)c4F)c4nc(c(-c5c(F)c(F)c(F)c(F)c5F)c5ccc2[nH]5)C=C4)C=C3)cc1
REMARK SMILES IDX 29 1 28 2 2 3 1 4 3 5 4 6 5 7 27 8 21 9 22 10 26 11 23 12
REMARK SMILES IDX 25 13 24 14 6 15 7 16 20 17 8 18 19 19 9 20 10 21 18 22
REMARK SMILES IDX 11 23 17 24 12 25 13 26 14 27 15 28 16 29 30 30 31 31 32 32
REMARK SMILES IDX 33 33 34 34 35 35 96 36 36 37 95 38 37 39 38 40 39 41 89 42
REMARK SMILES IDX 40 43 94 44 88 45 90 46 41 47 93 48 87 49 86 50 42 52 74 53
REMARK SMILES IDX 54 54 73 55 55 56 58 57 72 58 91 59 56 60 57 61 71 63 92 64
REMARK SMILES IDX 59 65 43 66 44 67 52 68 45 69 46 70 50 71 53 72 47 73 48 74
REMARK SMILES IDX 51 75 49 76 75 77 76 78 84 79 77 80 78 81 82 82 85 83 79 84
REMARK SMILES IDX 80 85 83 86 81 87 60 88 61 89 69 90 62 91 63 92 67 93 70 94
REMARK SMILES IDX 64 95 65 96 68 97 66 98
REMARK H PARENT 90 51 58 62
REMARK Flexibility Score: inf
ROOT
ATOM      1  C   UNL A   1      38.670  21.931  26.152  1.00  0.00     0.274 C 
ENDROOT
BRANCH   1   2
ATOM      2  O   UNL A   1      37.315  22.393  25.980  1.00  0.00    -0.461 OA
BRANCH   2   3
ATOM      3  C   UNL A   1      36.451  21.705  25.171  1.00  0.00     0.326 C 
ATOM      4  O   UNL A   1      36.601  21.716  23.951  1.00  0.00    -0.250 OA
BRANCH   3   5
ATOM      5  C   UNL A   1      35.203  21.177  25.831  1.00  0.00     0.245 C 
BRANCH   5   6
ATOM      6  N   UNL A   1      34.116  20.741  24.961  1.00  0.00    -0.325 N 
ATOM      7  C   UNL A   1      33.270  21.552  24.233  1.00  0.00     0.109 A 
ATOM      8  C   UNL A   1      34.024  19.435  24.484  1.00  0.00     0.049 A 
ATOM      9  C   UNL A   1      32.465  20.720  23.474  1.00  0.00     0.042 A 
ATOM     10  C   UNL A   1      32.943  19.389  23.607  1.00  0.00     0.000 A 
ATOM     11  C   UNL A   1      34.816  18.297  24.718  1.00  0.00     0.027 A 
ATOM     12  C   UNL A   1      32.608  18.157  23.004  1.00  0.00     0.010 A 
ATOM     13  C   UNL A   1      34.481  17.090  24.105  1.00  0.00     0.002 A 
ATOM     14  C   UNL A   1      33.379  17.016  23.267  1.00  0.00     0.001 A 
BRANCH   7  15
ATOM     15  C   UNL A   1      33.375  22.974  24.125  1.00  0.00     0.274 A 
ATOM     16  N   UNL A   1      33.146  23.867  25.070  1.00  0.00    -0.185 NA
ATOM     17  O   UNL A   1      33.837  23.550  22.971  1.00  0.00    -0.332 OA
ATOM     18  C   UNL A   1      33.388  25.070  24.424  1.00  0.00     0.202 A 
ATOM     19  N   UNL A   1      33.866  24.917  23.178  1.00  0.00    -0.057 NA
BRANCH  18  20
ATOM     20  C   UNL A   1      33.209  26.397  25.014  1.00  0.00     0.023 A 
ATOM     21  C   UNL A   1      32.597  26.509  26.276  1.00  0.00     0.013 A 
ATOM     22  C   UNL A   1      33.594  27.570  24.356  1.00  0.00     0.013 A 
ATOM     23  C   UNL A   1      32.365  27.755  26.863  1.00  0.00     0.014 A 
ATOM     24  C   UNL A   1      33.353  28.827  24.943  1.00  0.00     0.014 A 
ATOM     25  C   UNL A   1      32.734  28.932  26.200  1.00  0.00     0.056 A 
BRANCH  25  26
ATOM     26  C   UNL A   1      32.446  30.267  26.849  1.00  0.00     0.416 C 
ATOM     27  F   UNL A   1      31.305  30.243  27.594  1.00  0.00    -0.166 F 
ATOM     28  F   UNL A   1      33.436  30.657  27.702  1.00  0.00    -0.166 F 
ATOM     29  F   UNL A   1      32.292  31.288  25.963  1.00  0.00    -0.166 F 
ENDBRANCH  25  26
ENDBRANCH  18  20
ENDBRANCH   7  15
ENDBRANCH   5   6
ENDBRANCH   3   5
ENDBRANCH   2   3
ENDBRANCH   1   2
BRANCH   1  30
ATOM     30  C   UNL A   1      39.715  23.049  26.231  1.00  0.00     0.275 C 
BRANCH  30  31
ATOM     31  O   UNL A   1      39.439  23.907  27.343  1.00  0.00    -0.458 OA
BRANCH  31  32
ATOM     32  C   UNL A   1      40.513  24.159  28.133  1.00  0.00     0.338 C 
ATOM     33  O   UNL A   1      41.480  23.441  28.322  1.00  0.00    -0.246 OA
BRANCH  32  34
ATOM     34  C   UNL A   1      40.482  25.599  28.431  1.00  0.00     0.060 A 
ATOM     35  C   UNL A   1      41.449  26.205  29.232  1.00  0.00     0.016 A 
ATOM     36  C   UNL A   1      39.337  26.298  28.032  1.00  0.00     0.016 A 
ATOM     37  C   UNL A   1      41.212  27.496  29.690  1.00  0.00     0.010 A 
ATOM     38  C   UNL A   1      39.098  27.580  28.515  1.00  0.00     0.010 A 
ATOM     39  C   UNL A   1      40.005  28.168  29.394  1.00  0.00    -0.014 A 
BRANCH  39  40
ATOM     40  C   UNL A   1      39.842  29.553  29.881  1.00  0.00     0.031 A 
ATOM     41  C   UNL A   1      41.077  30.377  29.698  1.00  0.00     0.074 A 
ATOM     42  C   UNL A   1      38.691  30.126  30.309  1.00  0.00     0.049 A 
ATOM     43  N   UNL A   1      41.747  31.042  30.585  1.00  0.00    -0.248 NA
ATOM     44  C   UNL A   1      41.727  30.321  28.374  1.00  0.00     0.031 C 
ATOM     45  C   UNL A   1      37.344  29.551  30.323  1.00  0.00     0.029 A 
ATOM     46  N   UNL A   1      38.466  31.412  30.733  1.00  0.00    -0.354 N 
ATOM     47  C   UNL A   1      42.811  31.620  29.896  1.00  0.00     0.074 A 
ATOM     48  C   UNL A   1      42.837  31.022  28.588  1.00  0.00     0.031 C 
ATOM     49  C   UNL A   1      36.432  30.539  30.485  1.00  0.00     0.029 A 
ATOM     50  C   UNL A   1      37.125  31.796  30.716  1.00  0.00     0.049 A 
ATOM     51  H   UNL A   1      39.189  32.012  31.027  1.00  0.00     0.167 HD
ATOM     52  C   UNL A   1      43.470  32.712  30.366  1.00  0.00     0.037 A 
ATOM     53  C   UNL A   1      36.625  33.059  30.812  1.00  0.00     0.037 A 
ATOM     54  C   UNL A   1      43.300  32.877  31.782  1.00  0.00     0.049 A 
ATOM     55  C   UNL A   1      37.681  33.916  31.396  1.00  0.00     0.074 A 
ATOM     56  C   UNL A   1      43.641  32.140  32.898  1.00  0.00     0.029 A 
ATOM     57  N   UNL A   1      42.403  33.815  32.218  1.00  0.00    -0.354 N 
ATOM     58  N   UNL A   1      38.085  33.850  32.631  1.00  0.00    -0.248 NA
ATOM     59  C   UNL A   1      38.575  34.597  30.474  1.00  0.00     0.031 C 
ATOM     60  C   UNL A   1      42.585  32.361  33.828  1.00  0.00     0.029 A 
ATOM     61  C   UNL A   1      41.687  33.251  33.240  1.00  0.00     0.049 A 
ATOM     62  H   UNL A   1      42.292  34.726  31.862  1.00  0.00     0.167 HD
ATOM     63  C   UNL A   1      39.450  34.068  32.556  1.00  0.00     0.074 A 
ATOM     64  C   UNL A   1      39.681  34.612  31.221  1.00  0.00     0.031 C 
ATOM     65  C   UNL A   1      40.292  33.524  33.479  1.00  0.00     0.037 A 
BRANCH  52  66
ATOM     66  C   UNL A   1      43.966  33.821  29.471  1.00  0.00     0.064 A 
ATOM     67  C   UNL A   1      43.043  34.588  28.735  1.00  0.00     0.173 A 
ATOM     68  C   UNL A   1      45.318  33.960  29.089  1.00  0.00     0.173 A 
ATOM     69  F   UNL A   1      41.728  34.501  28.988  1.00  0.00    -0.203 F 
ATOM     70  C   UNL A   1      43.444  35.390  27.663  1.00  0.00     0.198 A 
ATOM     71  C   UNL A   1      45.720  34.804  28.056  1.00  0.00     0.198 A 
ATOM     72  F   UNL A   1      46.289  33.204  29.616  1.00  0.00    -0.203 F 
ATOM     73  F   UNL A   1      42.520  36.009  26.915  1.00  0.00    -0.200 F 
ATOM     74  C   UNL A   1      44.780  35.497  27.323  1.00  0.00     0.200 A 
ATOM     75  F   UNL A   1      47.018  34.872  27.729  1.00  0.00    -0.200 F 
ATOM     76  F   UNL A   1      45.160  36.221  26.264  1.00  0.00    -0.200 F 
ENDBRANCH  52  66
BRANCH  53  77
ATOM     77  C   UNL A   1      35.446  33.670  30.136  1.00  0.00     0.064 A 
ATOM     78  C   UNL A   1      34.383  34.216  30.883  1.00  0.00     0.173 A 
ATOM     79  C   UNL A   1      35.485  34.021  28.773  1.00  0.00     0.173 A 
ATOM     80  F   UNL A   1      34.288  33.975  32.200  1.00  0.00    -0.203 F 
ATOM     81  C   UNL A   1      33.449  35.090  30.313  1.00  0.00     0.198 A 
ATOM     82  C   UNL A   1      34.548  34.887  28.204  1.00  0.00     0.198 A 
ATOM     83  F   UNL A   1      36.495  33.619  27.989  1.00  0.00    -0.203 F 
ATOM     84  F   UNL A   1      32.502  35.652  31.077  1.00  0.00    -0.200 F 
ATOM     85  C   UNL A   1      33.542  35.436  28.976  1.00  0.00     0.200 A 
ATOM     86  F   UNL A   1      34.671  35.245  26.917  1.00  0.00    -0.200 F 
ATOM     87  F   UNL A   1      32.695  36.330  28.446  1.00  0.00    -0.200 F 
ENDBRANCH  53  77
BRANCH  65  88
ATOM     88  C   UNL A   1      39.692  32.949  34.730  1.00  0.00     0.064 A 
ATOM     89  C   UNL A   1      39.461  33.683  35.907  1.00  0.00     0.173 A 
ATOM     90  C   UNL A   1      39.198  31.639  34.677  1.00  0.00     0.173 A 
ATOM     91  F   UNL A   1      39.828  34.968  36.003  1.00  0.00    -0.203 F 
ATOM     92  C   UNL A   1      38.793  33.114  36.991  1.00  0.00     0.198 A 
ATOM     93  C   UNL A   1      38.495  31.088  35.744  1.00  0.00     0.198 A 
ATOM     94  F   UNL A   1      39.349  30.908  33.561  1.00  0.00    -0.203 F 
ATOM     95  F   UNL A   1      38.594  33.826  38.111  1.00  0.00    -0.200 F 
ATOM     96  C   UNL A   1      38.299  31.822  36.902  1.00  0.00     0.200 A 
ATOM     97  F   UNL A   1      37.979  29.856  35.636  1.00  0.00    -0.200 F 
ATOM     98  F   UNL A   1      37.611  31.291  37.924  1.00  0.00    -0.200 F 
ENDBRANCH  65  88
ENDBRANCH  39  40
ENDBRANCH  32  34
ENDBRANCH  31  32
ENDBRANCH  30  31
ENDBRANCH   1  30
TORSDOF 15
ENDMDL
