MODEL 1
REMARK VINA RESULT:     -11.3      0.000      0.000
REMARK SMILES CCCN1C(=O)/C(=C\c2ccc(OC)c(OC)c2C(=O)OCCOC(=O)c2ccc(-c3c4nc(c(-c5c(F)c(F)c(F)c(F)c5F)c5ccc([nH]5)c(-c5c(F)c(F)c(F)c(F)c5F)c5nc(c(-c6c(F)c(F)c(F)c(F)c6F)c6ccc3[nH]6)C=C5)C=C4)cc2)S/C1=[NH+]\c1nccs1
REMARK SMILES IDX 22 1 21 2 19 3 20 4 18 5 9 6 10 7 11 8 15 9 12 10 8 11 4 12
REMARK SMILES IDX 5 13 91 14 6 15 7 16 90 17 92 18 3 20 2 21 1 22 93 23 94 24
REMARK SMILES IDX 97 25 95 26 96 27 16 28 17 29 13 30 14 31 23 32 24 33 25 34
REMARK SMILES IDX 26 35 27 36 28 37 89 38 29 39 88 40 30 41 31 42 32 43 82 44
REMARK SMILES IDX 33 45 87 46 81 47 83 48 34 49 86 50 80 51 79 52 35 54 67 55
REMARK SMILES IDX 47 56 66 57 48 58 51 59 65 60 84 61 49 62 50 63 64 65 85 66
REMARK SMILES IDX 52 67 36 68 37 69 45 70 38 71 39 72 43 73 46 74 40 75 41 76
REMARK SMILES IDX 44 77 42 78 68 79 69 80 77 81 70 82 71 83 75 84 78 85 72 86
REMARK SMILES IDX 73 87 76 88 74 89 53 90 54 91 62 92 55 93 56 94 60 95 63 96
REMARK SMILES IDX 57 97 58 98 61 99 59 100
REMARK H PARENT 92 19 83 53 51 64
REMARK Flexibility Score: inf
ROOT
ATOM      1  C   UNL A   1      47.892  21.697  36.594  1.00  0.00     0.275 C 
ENDROOT
BRANCH   1   2
ATOM      2  O   UNL A   1      47.321  20.511  37.190  1.00  0.00    -0.458 OA
BRANCH   2   3
ATOM      3  C   UNL A   1      46.987  20.612  38.500  1.00  0.00     0.342 C 
ATOM      4  O   UNL A   1      46.018  21.216  38.922  1.00  0.00    -0.246 OA
BRANCH   3   5
ATOM      5  C   UNL A   1      48.016  19.992  39.374  1.00  0.00     0.113 A 
ATOM      6  C   UNL A   1      47.726  18.692  39.891  1.00  0.00    -0.006 A 
ATOM      7  C   UNL A   1      48.619  18.067  40.764  1.00  0.00     0.013 A 
ATOM      8  C   UNL A   1      49.829  18.677  41.062  1.00  0.00     0.051 A 
ATOM      9  C   UNL A   1      49.261  20.605  39.650  1.00  0.00     0.175 A 
ATOM     10  C   UNL A   1      50.156  19.919  40.508  1.00  0.00     0.161 A 
BRANCH   6  11
ATOM     11  C   UNL A   1      46.521  17.928  39.521  1.00  0.00     0.032 C 
ATOM     12  N   UNL A   1      44.432  17.929  42.402  1.00  0.00    -0.219 N 
ATOM     13  C   UNL A   1      45.156  18.688  41.509  1.00  0.00     0.321 C 
ATOM     14  C   UNL A   1      43.811  16.821  41.857  1.00  0.00     0.271 C 
ATOM     15  O   UNL A   1      45.477  19.861  41.623  1.00  0.00    -0.250 OA
ATOM     16  C   UNL A   1      45.415  17.893  40.279  1.00  0.00     0.100 C 
ATOM     17  S   UNL A   1      44.199  16.695  40.138  1.00  0.00    -0.012 SA
ATOM     18  N   UNL A   1      43.035  16.054  42.549  1.00  0.00    -0.228 N 
ATOM     19  H   UNL A   1      42.898  16.204  43.512  1.00  0.00     0.268 HD
BRANCH  12  20
ATOM     20  C   UNL A   1      44.126  18.422  43.747  1.00  0.00     0.206 C 
BRANCH  20  21
ATOM     21  C   UNL A   1      44.349  19.920  44.007  1.00  0.00     0.035 C 
ATOM     22  C   UNL A   1      44.935  20.262  45.372  1.00  0.00     0.007 C 
ENDBRANCH  20  21
ENDBRANCH  12  20
BRANCH  18  23
ATOM     23  C   UNL A   1      42.415  15.037  41.904  1.00  0.00     0.319 A 
ATOM     24  N   UNL A   1      41.778  15.083  40.751  1.00  0.00    -0.101 NA
ATOM     25  S   UNL A   1      42.460  13.468  42.635  1.00  0.00    -0.070 S 
ATOM     26  C   UNL A   1      41.239  13.846  40.453  1.00  0.00     0.219 A 
ATOM     27  C   UNL A   1      41.501  12.848  41.363  1.00  0.00     0.110 A 
ENDBRANCH  18  23
ENDBRANCH   6  11
BRANCH   9  28
ATOM     28  O   UNL A   1      49.727  21.823  39.244  1.00  0.00    -0.492 OA
ATOM     29  C   UNL A   1      49.280  23.050  39.788  1.00  0.00     0.278 C 
ENDBRANCH   9  28
BRANCH  10  30
ATOM     30  O   UNL A   1      51.445  20.305  40.802  1.00  0.00    -0.493 OA
ATOM     31  C   UNL A   1      51.734  20.529  42.176  1.00  0.00     0.278 C 
ENDBRANCH  10  30
ENDBRANCH   3   5
ENDBRANCH   2   3
ENDBRANCH   1   2
BRANCH   1  32
ATOM     32  C   UNL A   1      46.814  22.531  35.905  1.00  0.00     0.275 C 
BRANCH  32  33
ATOM     33  O   UNL A   1      46.671  23.814  36.537  1.00  0.00    -0.458 OA
BRANCH  33  34
ATOM     34  C   UNL A   1      47.247  24.835  35.856  1.00  0.00     0.338 C 
ATOM     35  O   UNL A   1      48.433  24.981  35.601  1.00  0.00    -0.246 OA
BRANCH  34  36
ATOM     36  C   UNL A   1      46.204  25.724  35.322  1.00  0.00     0.060 A 
ATOM     37  C   UNL A   1      44.875  25.326  35.485  1.00  0.00     0.016 A 
ATOM     38  C   UNL A   1      46.513  26.907  34.644  1.00  0.00     0.016 A 
ATOM     39  C   UNL A   1      43.849  26.119  34.984  1.00  0.00     0.010 A 
ATOM     40  C   UNL A   1      45.482  27.686  34.110  1.00  0.00     0.010 A 
ATOM     41  C   UNL A   1      44.146  27.288  34.275  1.00  0.00    -0.014 A 
BRANCH  41  42
ATOM     42  C   UNL A   1      43.039  27.978  33.582  1.00  0.00     0.031 A 
ATOM     43  C   UNL A   1      42.797  27.661  32.136  1.00  0.00     0.074 A 
ATOM     44  C   UNL A   1      42.204  28.784  34.257  1.00  0.00     0.049 A 
ATOM     45  N   UNL A   1      41.860  28.096  31.336  1.00  0.00    -0.248 NA
ATOM     46  C   UNL A   1      43.729  26.705  31.517  1.00  0.00     0.031 C 
ATOM     47  C   UNL A   1      42.295  29.088  35.682  1.00  0.00     0.029 A 
ATOM     48  N   UNL A   1      41.103  29.485  33.832  1.00  0.00    -0.354 N 
ATOM     49  C   UNL A   1      42.083  27.460  30.122  1.00  0.00     0.074 A 
ATOM     50  C   UNL A   1      43.250  26.622  30.286  1.00  0.00     0.031 C 
ATOM     51  C   UNL A   1      41.293  29.918  36.017  1.00  0.00     0.029 A 
ATOM     52  C   UNL A   1      40.513  30.232  34.822  1.00  0.00     0.049 A 
ATOM     53  H   UNL A   1      40.768  29.455  32.907  1.00  0.00     0.167 HD
ATOM     54  C   UNL A   1      41.378  27.574  28.973  1.00  0.00     0.037 A 
ATOM     55  C   UNL A   1      39.476  31.090  34.755  1.00  0.00     0.037 A 
ATOM     56  C   UNL A   1      40.243  28.443  28.809  1.00  0.00     0.049 A 
ATOM     57  C   UNL A   1      38.775  31.282  33.434  1.00  0.00     0.074 A 
ATOM     58  C   UNL A   1      39.486  28.671  27.675  1.00  0.00     0.029 A 
ATOM     59  N   UNL A   1      39.716  29.243  29.813  1.00  0.00    -0.354 N 
ATOM     60  N   UNL A   1      38.992  30.686  32.286  1.00  0.00    -0.248 NA
ATOM     61  C   UNL A   1      37.688  32.271  33.397  1.00  0.00     0.031 C 
ATOM     62  C   UNL A   1      38.535  29.652  27.978  1.00  0.00     0.029 A 
ATOM     63  C   UNL A   1      38.663  29.993  29.316  1.00  0.00     0.049 A 
ATOM     64  H   UNL A   1      40.043  29.275  30.741  1.00  0.00     0.167 HD
ATOM     65  C   UNL A   1      38.061  31.209  31.398  1.00  0.00     0.074 A 
ATOM     66  C   UNL A   1      37.263  32.160  32.146  1.00  0.00     0.031 C 
ATOM     67  C   UNL A   1      37.882  30.932  30.083  1.00  0.00     0.037 A 
BRANCH  54  68
ATOM     68  C   UNL A   1      41.870  26.790  27.795  1.00  0.00     0.064 A 
ATOM     69  C   UNL A   1      41.446  25.475  27.551  1.00  0.00     0.173 A 
ATOM     70  C   UNL A   1      42.804  27.354  26.913  1.00  0.00     0.173 A 
ATOM     71  F   UNL A   1      40.573  24.882  28.380  1.00  0.00    -0.203 F 
ATOM     72  C   UNL A   1      41.963  24.743  26.484  1.00  0.00     0.198 A 
ATOM     73  C   UNL A   1      43.298  26.629  25.833  1.00  0.00     0.198 A 
ATOM     74  F   UNL A   1      43.244  28.606  27.107  1.00  0.00    -0.203 F 
ATOM     75  F   UNL A   1      41.589  23.469  26.304  1.00  0.00    -0.200 F 
ATOM     76  C   UNL A   1      42.886  25.321  25.625  1.00  0.00     0.200 A 
ATOM     77  F   UNL A   1      44.186  27.191  25.002  1.00  0.00    -0.200 F 
ATOM     78  F   UNL A   1      43.390  24.614  24.605  1.00  0.00    -0.200 F 
ENDBRANCH  54  68
BRANCH  55  79
ATOM     79  C   UNL A   1      39.062  31.856  35.961  1.00  0.00     0.064 A 
ATOM     80  C   UNL A   1      38.184  31.314  36.909  1.00  0.00     0.173 A 
ATOM     81  C   UNL A   1      39.522  33.165  36.177  1.00  0.00     0.173 A 
ATOM     82  F   UNL A   1      37.693  30.078  36.737  1.00  0.00    -0.203 F 
ATOM     83  C   UNL A   1      37.769  32.055  38.015  1.00  0.00     0.198 A 
ATOM     84  C   UNL A   1      39.131  33.894  37.297  1.00  0.00     0.198 A 
ATOM     85  F   UNL A   1      40.358  33.736  35.297  1.00  0.00    -0.203 F 
ATOM     86  F   UNL A   1      36.890  31.530  38.879  1.00  0.00    -0.200 F 
ATOM     87  C   UNL A   1      38.249  33.342  38.211  1.00  0.00     0.200 A 
ATOM     88  F   UNL A   1      39.605  35.133  37.487  1.00  0.00    -0.200 F 
ATOM     89  F   UNL A   1      37.850  34.054  39.275  1.00  0.00    -0.200 F 
ENDBRANCH  55  79
BRANCH  67  90
ATOM     90  C   UNL A   1      36.772  31.649  29.371  1.00  0.00     0.064 A 
ATOM     91  C   UNL A   1      35.608  30.980  28.962  1.00  0.00     0.173 A 
ATOM     92  C   UNL A   1      36.849  33.031  29.149  1.00  0.00     0.173 A 
ATOM     93  F   UNL A   1      35.492  29.656  29.140  1.00  0.00    -0.203 F 
ATOM     94  C   UNL A   1      34.571  31.669  28.338  1.00  0.00     0.198 A 
ATOM     95  C   UNL A   1      35.798  33.721  28.551  1.00  0.00     0.198 A 
ATOM     96  F   UNL A   1      37.937  33.718  29.528  1.00  0.00    -0.203 F 
ATOM     97  F   UNL A   1      33.486  31.004  27.919  1.00  0.00    -0.200 F 
ATOM     98  C   UNL A   1      34.662  33.039  28.142  1.00  0.00     0.200 A 
ATOM     99  F   UNL A   1      35.882  35.047  28.376  1.00  0.00    -0.200 F 
ATOM    100  F   UNL A   1      33.658  33.701  27.552  1.00  0.00    -0.200 F 
ENDBRANCH  67  90
ENDBRANCH  41  42
ENDBRANCH  34  36
ENDBRANCH  33  34
ENDBRANCH  32  33
ENDBRANCH   1  32
TORSDOF 17
ENDMDL
MODEL 2
REMARK VINA RESULT:     -11.1      0.620      7.035
REMARK SMILES CCCN1C(=O)/C(=C\c2ccc(OC)c(OC)c2C(=O)OCCOC(=O)c2ccc(-c3c4nc(c(-c5c(F)c(F)c(F)c(F)c5F)c5ccc([nH]5)c(-c5c(F)c(F)c(F)c(F)c5F)c5nc(c(-c6c(F)c(F)c(F)c(F)c6F)c6ccc3[nH]6)C=C5)C=C4)cc2)S/C1=[NH+]\c1nccs1
REMARK SMILES IDX 22 1 21 2 19 3 20 4 18 5 9 6 10 7 11 8 15 9 12 10 8 11 4 12
REMARK SMILES IDX 5 13 91 14 6 15 7 16 90 17 92 18 3 20 2 21 1 22 93 23 94 24
REMARK SMILES IDX 97 25 95 26 96 27 16 28 17 29 13 30 14 31 23 32 24 33 25 34
REMARK SMILES IDX 26 35 27 36 28 37 89 38 29 39 88 40 30 41 31 42 32 43 82 44
REMARK SMILES IDX 33 45 87 46 81 47 83 48 34 49 86 50 80 51 79 52 35 54 67 55
REMARK SMILES IDX 47 56 66 57 48 58 51 59 65 60 84 61 49 62 50 63 64 65 85 66
REMARK SMILES IDX 52 67 36 68 37 69 45 70 38 71 39 72 43 73 46 74 40 75 41 76
REMARK SMILES IDX 44 77 42 78 68 79 69 80 77 81 70 82 71 83 75 84 78 85 72 86
REMARK SMILES IDX 73 87 76 88 74 89 53 90 54 91 62 92 55 93 56 94 60 95 63 96
REMARK SMILES IDX 57 97 58 98 61 99 59 100
REMARK H PARENT 92 19 83 53 51 64
REMARK Flexibility Score: inf
ROOT
ATOM      1  C   UNL A   1      47.398  22.026  36.853  1.00  0.00     0.275 C 
ENDROOT
BRANCH   1   2
ATOM      2  O   UNL A   1      46.903  20.778  37.387  1.00  0.00    -0.458 OA
BRANCH   2   3
ATOM      3  C   UNL A   1      46.735  20.738  38.732  1.00  0.00     0.342 C 
ATOM      4  O   UNL A   1      45.842  21.306  39.334  1.00  0.00    -0.246 OA
BRANCH   3   5
ATOM      5  C   UNL A   1      47.846  20.011  39.399  1.00  0.00     0.113 A 
ATOM      6  C   UNL A   1      47.579  18.671  39.818  1.00  0.00    -0.006 A 
ATOM      7  C   UNL A   1      48.554  17.941  40.501  1.00  0.00     0.013 A 
ATOM      8  C   UNL A   1      49.812  18.492  40.698  1.00  0.00     0.051 A 
ATOM      9  C   UNL A   1      49.135  20.565  39.570  1.00  0.00     0.175 A 
ATOM     10  C   UNL A   1      50.108  19.777  40.232  1.00  0.00     0.161 A 
BRANCH   6  11
ATOM     11  C   UNL A   1      46.311  17.974  39.534  1.00  0.00     0.032 C 
ATOM     12  N   UNL A   1      44.628  17.684  42.656  1.00  0.00    -0.219 N 
ATOM     13  C   UNL A   1      45.250  18.527  41.761  1.00  0.00     0.321 C 
ATOM     14  C   UNL A   1      43.905  16.655  42.082  1.00  0.00     0.271 C 
ATOM     15  O   UNL A   1      45.620  19.674  41.959  1.00  0.00    -0.250 OA
ATOM     16  C   UNL A   1      45.317  17.872  40.428  1.00  0.00     0.100 C 
ATOM     17  S   UNL A   1      44.055  16.718  40.323  1.00  0.00    -0.012 SA
ATOM     18  N   UNL A   1      43.204  15.828  42.784  1.00  0.00    -0.228 N 
ATOM     19  H   UNL A   1      43.202  15.870  43.768  1.00  0.00     0.268 HD
BRANCH  12  20
ATOM     20  C   UNL A   1      44.521  18.026  44.075  1.00  0.00     0.206 C 
BRANCH  20  21
ATOM     21  C   UNL A   1      44.217  19.493  44.418  1.00  0.00     0.035 C 
ATOM     22  C   UNL A   1      44.782  19.980  45.747  1.00  0.00     0.007 C 
ENDBRANCH  20  21
ENDBRANCH  12  20
BRANCH  18  23
ATOM     23  C   UNL A   1      42.471  14.901  42.123  1.00  0.00     0.319 A 
ATOM     24  N   UNL A   1      41.634  15.099  41.124  1.00  0.00    -0.101 NA
ATOM     25  S   UNL A   1      42.641  13.244  42.597  1.00  0.00    -0.070 S 
ATOM     26  C   UNL A   1      41.042  13.906  40.753  1.00  0.00     0.219 A 
ATOM     27  C   UNL A   1      41.462  12.793  41.444  1.00  0.00     0.110 A 
ENDBRANCH  18  23
ENDBRANCH   6  11
BRANCH   9  28
ATOM     28  O   UNL A   1      49.587  21.809  39.229  1.00  0.00    -0.492 OA
ATOM     29  C   UNL A   1      49.350  22.966  40.009  1.00  0.00     0.278 C 
ENDBRANCH   9  28
BRANCH  10  30
ATOM     30  O   UNL A   1      51.436  20.104  40.392  1.00  0.00    -0.493 OA
ATOM     31  C   UNL A   1      51.902  20.193  41.732  1.00  0.00     0.278 C 
ENDBRANCH  10  30
ENDBRANCH   3   5
ENDBRANCH   2   3
ENDBRANCH   1   2
BRANCH   1  32
ATOM     32  C   UNL A   1      46.263  22.839  36.234  1.00  0.00     0.275 C 
BRANCH  32  33
ATOM     33  O   UNL A   1      45.922  23.963  37.063  1.00  0.00    -0.458 OA
BRANCH  33  34
ATOM     34  C   UNL A   1      46.494  25.130  36.678  1.00  0.00     0.338 C 
ATOM     35  O   UNL A   1      47.673  25.438  36.752  1.00  0.00    -0.246 OA
BRANCH  34  36
ATOM     36  C   UNL A   1      45.492  25.973  36.008  1.00  0.00     0.060 A 
ATOM     37  C   UNL A   1      44.156  25.578  36.096  1.00  0.00     0.016 A 
ATOM     38  C   UNL A   1      45.849  27.110  35.277  1.00  0.00     0.016 A 
ATOM     39  C   UNL A   1      43.169  26.327  35.467  1.00  0.00     0.010 A 
ATOM     40  C   UNL A   1      44.859  27.845  34.615  1.00  0.00     0.010 A 
ATOM     41  C   UNL A   1      43.516  27.448  34.705  1.00  0.00    -0.014 A 
BRANCH  41  42
ATOM     42  C   UNL A   1      42.463  28.081  33.885  1.00  0.00     0.031 A 
ATOM     43  C   UNL A   1      41.554  29.077  34.540  1.00  0.00     0.074 A 
ATOM     44  C   UNL A   1      42.393  27.853  32.563  1.00  0.00     0.049 A 
ATOM     45  N   UNL A   1      40.597  29.798  34.017  1.00  0.00    -0.248 NA
ATOM     46  C   UNL A   1      41.770  29.305  35.977  1.00  0.00     0.031 C 
ATOM     47  C   UNL A   1      43.285  26.974  31.812  1.00  0.00     0.029 A 
ATOM     48  N   UNL A   1      41.537  28.356  31.616  1.00  0.00    -0.354 N 
ATOM     49  C   UNL A   1      40.103  30.572  35.059  1.00  0.00     0.074 A 
ATOM     50  C   UNL A   1      40.854  30.224  36.245  1.00  0.00     0.031 C 
ATOM     51  C   UNL A   1      42.929  26.994  30.517  1.00  0.00     0.029 A 
ATOM     52  C   UNL A   1      41.763  27.859  30.355  1.00  0.00     0.049 A 
ATOM     53  H   UNL A   1      40.830  29.010  31.819  1.00  0.00     0.167 HD
ATOM     54  C   UNL A   1      39.106  31.486  35.026  1.00  0.00     0.037 A 
ATOM     55  C   UNL A   1      41.081  28.066  29.211  1.00  0.00     0.037 A 
ATOM     56  C   UNL A   1      38.337  31.794  33.850  1.00  0.00     0.049 A 
ATOM     57  C   UNL A   1      39.903  29.007  29.225  1.00  0.00     0.074 A 
ATOM     58  C   UNL A   1      37.274  32.668  33.717  1.00  0.00     0.029 A 
ATOM     59  N   UNL A   1      38.542  31.218  32.604  1.00  0.00    -0.354 N 
ATOM     60  N   UNL A   1      39.434  29.732  30.212  1.00  0.00    -0.248 NA
ATOM     61  C   UNL A   1      39.156  29.155  27.968  1.00  0.00     0.031 C 
ATOM     62  C   UNL A   1      36.800  32.578  32.404  1.00  0.00     0.029 A 
ATOM     63  C   UNL A   1      37.604  31.692  31.703  1.00  0.00     0.049 A 
ATOM     64  H   UNL A   1      39.251  30.567  32.392  1.00  0.00     0.167 HD
ATOM     65  C   UNL A   1      38.353  30.435  29.694  1.00  0.00     0.074 A 
ATOM     66  C   UNL A   1      38.248  30.063  28.297  1.00  0.00     0.031 C 
ATOM     67  C   UNL A   1      37.522  31.307  30.316  1.00  0.00     0.037 A 
BRANCH  54  68
ATOM     68  C   UNL A   1      38.755  32.153  36.321  1.00  0.00     0.064 A 
ATOM     69  C   UNL A   1      39.269  33.412  36.667  1.00  0.00     0.173 A 
ATOM     70  C   UNL A   1      37.914  31.509  37.240  1.00  0.00     0.173 A 
ATOM     71  F   UNL A   1      40.098  34.057  35.833  1.00  0.00    -0.203 F 
ATOM     72  C   UNL A   1      38.978  33.987  37.903  1.00  0.00     0.198 A 
ATOM     73  C   UNL A   1      37.604  32.099  38.462  1.00  0.00     0.198 A 
ATOM     74  F   UNL A   1      37.402  30.303  36.957  1.00  0.00    -0.203 F 
ATOM     75  F   UNL A   1      39.527  35.163  38.239  1.00  0.00    -0.200 F 
ATOM     76  C   UNL A   1      38.145  33.332  38.797  1.00  0.00     0.200 A 
ATOM     77  F   UNL A   1      36.795  31.466  39.322  1.00  0.00    -0.200 F 
ATOM     78  F   UNL A   1      37.873  33.881  39.989  1.00  0.00    -0.200 F 
ENDBRANCH  54  68
BRANCH  55  79
ATOM     79  C   UNL A   1      41.471  27.344  27.970  1.00  0.00     0.064 A 
ATOM     80  C   UNL A   1      40.972  26.067  27.677  1.00  0.00     0.173 A 
ATOM     81  C   UNL A   1      42.376  27.911  27.059  1.00  0.00     0.173 A 
ATOM     82  F   UNL A   1      40.127  25.468  28.528  1.00  0.00    -0.203 F 
ATOM     83  C   UNL A   1      41.375  25.381  26.533  1.00  0.00     0.198 A 
ATOM     84  C   UNL A   1      42.754  27.238  25.900  1.00  0.00     0.198 A 
ATOM     85  F   UNL A   1      42.890  29.128  27.293  1.00  0.00    -0.203 F 
ATOM     86  F   UNL A   1      40.921  24.141  26.303  1.00  0.00    -0.200 F 
ATOM     87  C   UNL A   1      42.260  25.970  25.641  1.00  0.00     0.200 A 
ATOM     88  F   UNL A   1      43.602  27.816  25.038  1.00  0.00    -0.200 F 
ATOM     89  F   UNL A   1      42.646  25.309  24.540  1.00  0.00    -0.200 F 
ENDBRANCH  55  79
BRANCH  67  90
ATOM     90  C   UNL A   1      36.438  31.935  29.489  1.00  0.00     0.064 A 
ATOM     91  C   UNL A   1      35.350  31.187  29.012  1.00  0.00     0.173 A 
ATOM     92  C   UNL A   1      36.458  33.311  29.220  1.00  0.00     0.173 A 
ATOM     93  F   UNL A   1      35.291  29.866  29.231  1.00  0.00    -0.203 F 
ATOM     94  C   UNL A   1      34.333  31.794  28.279  1.00  0.00     0.198 A 
ATOM     95  C   UNL A   1      35.425  33.919  28.512  1.00  0.00     0.198 A 
ATOM     96  F   UNL A   1      37.472  34.072  29.660  1.00  0.00    -0.203 F 
ATOM     97  F   UNL A   1      33.325  31.054  27.798  1.00  0.00    -0.200 F 
ATOM     98  C   UNL A   1      34.367  33.159  28.038  1.00  0.00     0.200 A 
ATOM     99  F   UNL A   1      35.452  35.241  28.293  1.00  0.00    -0.200 F 
ATOM    100  F   UNL A   1      33.381  33.742  27.342  1.00  0.00    -0.200 F 
ENDBRANCH  67  90
ENDBRANCH  41  42
ENDBRANCH  34  36
ENDBRANCH  33  34
ENDBRANCH  32  33
ENDBRANCH   1  32
TORSDOF 17
ENDMDL
MODEL 3
REMARK VINA RESULT:     -10.9      2.489      8.142
REMARK SMILES CCCN1C(=O)/C(=C\c2ccc(OC)c(OC)c2C(=O)OCCOC(=O)c2ccc(-c3c4nc(c(-c5c(F)c(F)c(F)c(F)c5F)c5ccc([nH]5)c(-c5c(F)c(F)c(F)c(F)c5F)c5nc(c(-c6c(F)c(F)c(F)c(F)c6F)c6ccc3[nH]6)C=C5)C=C4)cc2)S/C1=[NH+]\c1nccs1
REMARK SMILES IDX 22 1 21 2 19 3 20 4 18 5 9 6 10 7 11 8 15 9 12 10 8 11 4 12
REMARK SMILES IDX 5 13 91 14 6 15 7 16 90 17 92 18 3 20 2 21 1 22 93 23 94 24
REMARK SMILES IDX 97 25 95 26 96 27 16 28 17 29 13 30 14 31 23 32 24 33 25 34
REMARK SMILES IDX 26 35 27 36 28 37 89 38 29 39 88 40 30 41 31 42 32 43 82 44
REMARK SMILES IDX 33 45 87 46 81 47 83 48 34 49 86 50 80 51 79 52 35 54 67 55
REMARK SMILES IDX 47 56 66 57 48 58 51 59 65 60 84 61 49 62 50 63 64 65 85 66
REMARK SMILES IDX 52 67 36 68 37 69 45 70 38 71 39 72 43 73 46 74 40 75 41 76
REMARK SMILES IDX 44 77 42 78 68 79 69 80 77 81 70 82 71 83 75 84 78 85 72 86
REMARK SMILES IDX 73 87 76 88 74 89 53 90 54 91 62 92 55 93 56 94 60 95 63 96
REMARK SMILES IDX 57 97 58 98 61 99 59 100
REMARK H PARENT 92 19 83 53 51 64
REMARK Flexibility Score: inf
ROOT
ATOM      1  C   UNL A   1      49.048  24.022  37.406  1.00  0.00     0.275 C 
ENDROOT
BRANCH   1   2
ATOM      2  O   UNL A   1      49.920  23.893  36.261  1.00  0.00    -0.458 OA
BRANCH   2   3
ATOM      3  C   UNL A   1      49.500  23.039  35.294  1.00  0.00     0.342 C 
ATOM      4  O   UNL A   1      50.095  22.033  34.954  1.00  0.00    -0.246 OA
BRANCH   3   5
ATOM      5  C   UNL A   1      48.278  23.542  34.615  1.00  0.00     0.113 A 
ATOM      6  C   UNL A   1      47.119  22.707  34.668  1.00  0.00    -0.006 A 
ATOM      7  C   UNL A   1      45.949  23.086  34.007  1.00  0.00     0.013 A 
ATOM      8  C   UNL A   1      45.888  24.316  33.369  1.00  0.00     0.051 A 
ATOM      9  C   UNL A   1      48.211  24.810  33.993  1.00  0.00     0.175 A 
ATOM     10  C   UNL A   1      46.993  25.174  33.368  1.00  0.00     0.161 A 
BRANCH   6  11
ATOM     11  C   UNL A   1      47.069  21.446  35.431  1.00  0.00     0.032 C 
ATOM     12  N   UNL A   1      45.863  22.304  38.668  1.00  0.00    -0.219 N 
ATOM     13  C   UNL A   1      45.655  22.379  37.309  1.00  0.00     0.321 C 
ATOM     14  C   UNL A   1      46.429  21.122  39.107  1.00  0.00     0.271 C 
ATOM     15  O   UNL A   1      44.869  23.105  36.718  1.00  0.00    -0.250 OA
ATOM     16  C   UNL A   1      46.466  21.337  36.624  1.00  0.00     0.100 C 
ATOM     17  S   UNL A   1      46.765  20.065  37.732  1.00  0.00    -0.012 SA
ATOM     18  N   UNL A   1      46.617  20.869  40.360  1.00  0.00    -0.228 N 
ATOM     19  H   UNL A   1      46.408  21.539  41.051  1.00  0.00     0.268 HD
BRANCH  12  20
ATOM     20  C   UNL A   1      45.275  23.283  39.584  1.00  0.00     0.206 C 
BRANCH  20  21
ATOM     21  C   UNL A   1      45.959  24.657  39.669  1.00  0.00     0.035 C 
ATOM     22  C   UNL A   1      45.029  25.829  39.958  1.00  0.00     0.007 C 
ENDBRANCH  20  21
ENDBRANCH  12  20
BRANCH  18  23
ATOM     23  C   UNL A   1      47.108  19.652  40.692  1.00  0.00     0.319 A 
ATOM     24  N   UNL A   1      48.331  19.356  41.085  1.00  0.00    -0.101 NA
ATOM     25  S   UNL A   1      46.031  18.298  40.627  1.00  0.00    -0.070 S 
ATOM     26  C   UNL A   1      48.454  17.994  41.282  1.00  0.00     0.219 A 
ATOM     27  C   UNL A   1      47.310  17.258  41.077  1.00  0.00     0.110 A 
ENDBRANCH  18  23
ENDBRANCH   6  11
BRANCH   9  28
ATOM     28  O   UNL A   1      49.194  25.749  33.850  1.00  0.00    -0.492 OA
ATOM     29  C   UNL A   1      50.310  25.587  32.996  1.00  0.00     0.278 C 
ENDBRANCH   9  28
BRANCH  10  30
ATOM     30  O   UNL A   1      46.708  26.400  32.810  1.00  0.00    -0.493 OA
ATOM     31  C   UNL A   1      46.837  26.491  31.398  1.00  0.00     0.278 C 
ENDBRANCH  10  30
ENDBRANCH   3   5
ENDBRANCH   2   3
ENDBRANCH   1   2
BRANCH   1  32
ATOM     32  C   UNL A   1      48.679  25.485  37.643  1.00  0.00     0.275 C 
BRANCH  32  33
ATOM     33  O   UNL A   1      47.424  25.808  37.021  1.00  0.00    -0.458 OA
BRANCH  33  34
ATOM     34  C   UNL A   1      47.045  27.101  37.173  1.00  0.00     0.338 C 
ATOM     35  O   UNL A   1      47.568  27.949  37.879  1.00  0.00    -0.246 OA
BRANCH  34  36
ATOM     36  C   UNL A   1      45.953  27.409  36.237  1.00  0.00     0.060 A 
ATOM     37  C   UNL A   1      46.088  28.550  35.444  1.00  0.00     0.016 A 
ATOM     38  C   UNL A   1      44.800  26.621  36.157  1.00  0.00     0.016 A 
ATOM     39  C   UNL A   1      45.078  28.899  34.555  1.00  0.00     0.010 A 
ATOM     40  C   UNL A   1      43.770  26.992  35.287  1.00  0.00     0.010 A 
ATOM     41  C   UNL A   1      43.906  28.138  34.489  1.00  0.00    -0.014 A 
BRANCH  41  42
ATOM     42  C   UNL A   1      42.780  28.667  33.692  1.00  0.00     0.031 A 
ATOM     43  C   UNL A   1      41.868  29.673  34.328  1.00  0.00     0.074 A 
ATOM     44  C   UNL A   1      42.643  28.339  32.397  1.00  0.00     0.049 A 
ATOM     45  N   UNL A   1      40.852  30.315  33.815  1.00  0.00    -0.248 NA
ATOM     46  C   UNL A   1      42.158  30.015  35.730  1.00  0.00     0.031 C 
ATOM     47  C   UNL A   1      43.527  27.442  31.657  1.00  0.00     0.029 A 
ATOM     48  N   UNL A   1      41.712  28.736  31.470  1.00  0.00    -0.354 N 
ATOM     49  C   UNL A   1      40.387  31.144  34.827  1.00  0.00     0.074 A 
ATOM     50  C   UNL A   1      41.221  30.914  35.986  1.00  0.00     0.031 C 
ATOM     51  C   UNL A   1      43.096  27.353  30.388  1.00  0.00     0.029 A 
ATOM     52  C   UNL A   1      41.885  28.157  30.237  1.00  0.00     0.049 A 
ATOM     53  H   UNL A   1      40.991  29.375  31.669  1.00  0.00     0.167 HD
ATOM     54  C   UNL A   1      39.351  32.013  34.789  1.00  0.00     0.037 A 
ATOM     55  C   UNL A   1      41.130  28.251  29.124  1.00  0.00     0.037 A 
ATOM     56  C   UNL A   1      38.502  32.203  33.644  1.00  0.00     0.049 A 
ATOM     57  C   UNL A   1      39.915  29.144  29.144  1.00  0.00     0.074 A 
ATOM     58  C   UNL A   1      37.395  33.022  33.514  1.00  0.00     0.029 A 
ATOM     59  N   UNL A   1      38.659  31.545  32.432  1.00  0.00    -0.354 N 
ATOM     60  N   UNL A   1      39.473  29.921  30.103  1.00  0.00    -0.248 NA
ATOM     61  C   UNL A   1      39.090  29.169  27.927  1.00  0.00     0.031 C 
ATOM     62  C   UNL A   1      36.850  32.817  32.242  1.00  0.00     0.029 A 
ATOM     63  C   UNL A   1      37.650  31.913  31.559  1.00  0.00     0.049 A 
ATOM     64  H   UNL A   1      39.381  30.908  32.225  1.00  0.00     0.167 HD
ATOM     65  C   UNL A   1      38.335  30.541  29.604  1.00  0.00     0.074 A 
ATOM     66  C   UNL A   1      38.164  30.062  28.246  1.00  0.00     0.031 C 
ATOM     67  C   UNL A   1      37.503  31.424  30.211  1.00  0.00     0.037 A 
BRANCH  54  68
ATOM     68  C   UNL A   1      39.048  32.761  36.052  1.00  0.00     0.064 A 
ATOM     69  C   UNL A   1      39.568  34.040  36.298  1.00  0.00     0.173 A 
ATOM     70  C   UNL A   1      38.247  32.174  37.043  1.00  0.00     0.173 A 
ATOM     71  F   UNL A   1      40.360  34.633  35.392  1.00  0.00    -0.203 F 
ATOM     72  C   UNL A   1      39.323  34.692  37.505  1.00  0.00     0.198 A 
ATOM     73  C   UNL A   1      37.982  32.839  38.237  1.00  0.00     0.198 A 
ATOM     74  F   UNL A   1      37.730  30.951  36.857  1.00  0.00    -0.203 F 
ATOM     75  F   UNL A   1      39.878  35.888  37.744  1.00  0.00    -0.200 F 
ATOM     76  C   UNL A   1      38.529  34.092  38.471  1.00  0.00     0.200 A 
ATOM     77  F   UNL A   1      37.210  32.260  39.167  1.00  0.00    -0.200 F 
ATOM     78  F   UNL A   1      38.301  34.715  39.635  1.00  0.00    -0.200 F 
ENDBRANCH  54  68
BRANCH  55  79
ATOM     79  C   UNL A   1      41.477  27.455  27.917  1.00  0.00     0.064 A 
ATOM     80  C   UNL A   1      41.057  26.126  27.769  1.00  0.00     0.173 A 
ATOM     81  C   UNL A   1      42.264  28.005  26.892  1.00  0.00     0.173 A 
ATOM     82  F   UNL A   1      40.328  25.544  28.732  1.00  0.00    -0.203 F 
ATOM     83  C   UNL A   1      41.422  25.374  26.653  1.00  0.00     0.198 A 
ATOM     84  C   UNL A   1      42.602  27.263  25.763  1.00  0.00     0.198 A 
ATOM     85  F   UNL A   1      42.700  29.269  26.985  1.00  0.00    -0.203 F 
ATOM     86  F   UNL A   1      41.048  24.090  26.561  1.00  0.00    -0.200 F 
ATOM     87  C   UNL A   1      42.189  25.946  25.648  1.00  0.00     0.200 A 
ATOM     88  F   UNL A   1      43.335  27.822  24.791  1.00  0.00    -0.200 F 
ATOM     89  F   UNL A   1      42.539  25.222  24.574  1.00  0.00    -0.200 F 
ENDBRANCH  55  79
BRANCH  67  90
ATOM     90  C   UNL A   1      36.347  31.945  29.409  1.00  0.00     0.064 A 
ATOM     91  C   UNL A   1      35.261  31.126  29.065  1.00  0.00     0.173 A 
ATOM     92  C   UNL A   1      36.297  33.295  29.031  1.00  0.00     0.173 A 
ATOM     93  F   UNL A   1      35.267  29.825  29.392  1.00  0.00    -0.203 F 
ATOM     94  C   UNL A   1      34.178  31.636  28.354  1.00  0.00     0.198 A 
ATOM     95  C   UNL A   1      35.200  33.809  28.346  1.00  0.00     0.198 A 
ATOM     96  F   UNL A   1      37.307  34.122  29.342  1.00  0.00    -0.203 F 
ATOM     97  F   UNL A   1      33.170  30.827  28.000  1.00  0.00    -0.200 F 
ATOM     98  C   UNL A   1      34.144  32.978  28.003  1.00  0.00     0.200 A 
ATOM     99  F   UNL A   1      35.162  35.108  28.022  1.00  0.00    -0.200 F 
ATOM    100  F   UNL A   1      33.095  33.469  27.330  1.00  0.00    -0.200 F 
ENDBRANCH  67  90
ENDBRANCH  41  42
ENDBRANCH  34  36
ENDBRANCH  33  34
ENDBRANCH  32  33
ENDBRANCH   1  32
TORSDOF 17
ENDMDL
