MODEL 1
REMARK VINA RESULT:     -11.1      0.000      0.000
REMARK SMILES Cc1cc(S(=O)(=O)N[C@H](CO)C(C)C)sc1C(=O)OCCOC(=O)c1ccc(-c2c3nc(c(-c4c(F)c(F)c(F)c(F)c4F)c4ccc([nH]4)c(-c4c(F)c(F)c(F)c(F)c4F)c4nc(c(-c5c(F)c(F)c(F)c(F)c5F)c5ccc2[nH]5)C=C4)C=C3)cc1
REMARK SMILES IDX 19 1 17 2 18 3 16 4 1 5 2 6 3 7 4 8 15 9 5 10 6 11 7 12 8 13
REMARK SMILES IDX 9 15 12 16 13 17 14 18 10 19 11 20 20 22 21 23 22 24 23 25
REMARK SMILES IDX 24 26 25 27 26 28 87 29 27 30 86 31 28 32 29 33 30 34 80 35
REMARK SMILES IDX 31 36 85 37 79 38 81 39 32 40 84 41 78 42 77 43 33 45 65 46
REMARK SMILES IDX 45 47 64 48 46 49 49 50 63 51 82 52 47 53 48 54 62 56 83 57
REMARK SMILES IDX 50 58 34 59 35 60 43 61 36 62 37 63 41 64 44 65 38 66 39 67
REMARK SMILES IDX 42 68 40 69 66 70 67 71 75 72 68 73 69 74 73 75 76 76 70 77
REMARK SMILES IDX 71 78 74 79 72 80 51 81 52 82 60 83 53 84 54 85 58 86 61 87
REMARK SMILES IDX 55 88 56 89 59 90 57 91
REMARK H PARENT 8 14 11 21 81 44 49 55
REMARK Flexibility Score: inf
ROOT
ATOM      1  O   UNL A   1      41.309  21.607  25.702  1.00  0.00    -0.458 OA
ENDROOT
BRANCH   1   2
ATOM      2  C   UNL A   1      40.407  21.646  26.725  1.00  0.00     0.348 C 
ATOM      3  O   UNL A   1      40.696  21.384  27.889  1.00  0.00    -0.245 OA
BRANCH   2   4
ATOM      4  C   UNL A   1      39.110  22.135  26.259  1.00  0.00     0.116 A 
ATOM      5  C   UNL A   1      39.153  24.700  26.645  1.00  0.00     0.046 C 
ATOM      6  C   UNL A   1      38.518  23.397  26.278  1.00  0.00    -0.024 A 
ATOM      7  C   UNL A   1      37.121  23.315  25.928  1.00  0.00     0.038 A 
ATOM      8  C   UNL A   1      36.699  22.030  25.665  1.00  0.00     0.135 A 
ATOM      9  S   UNL A   1      38.045  20.987  25.516  1.00  0.00    -0.115 S 
BRANCH   8  10
ATOM     10  S   UNL A   1      35.083  21.314  25.439  1.00  0.00     0.250 S 
ATOM     11  O   UNL A   1      34.407  21.453  26.710  1.00  0.00    -0.206 OA
ATOM     12  O   UNL A   1      34.570  21.949  24.245  1.00  0.00    -0.206 OA
BRANCH  10  13
ATOM     13  N   UNL A   1      35.229  19.681  25.086  1.00  0.00    -0.205 NA
ATOM     14  H   UNL A   1      35.536  19.240  25.954  1.00  0.00     0.141 HD
BRANCH  13  15
ATOM     15  C   UNL A   1      34.119  18.816  24.568  1.00  0.00     0.098 C 
BRANCH  15  16
ATOM     16  C   UNL A   1      34.453  17.361  24.172  1.00  0.00     0.003 C 
ATOM     17  C   UNL A   1      33.991  16.374  25.256  1.00  0.00     0.009 C 
ATOM     18  C   UNL A   1      33.817  16.924  22.861  1.00  0.00     0.009 C 
ENDBRANCH  15  16
BRANCH  15  19
ATOM     19  C   UNL A   1      32.918  18.880  25.541  1.00  0.00     0.176 C 
BRANCH  19  20
ATOM     20  O   UNL A   1      32.066  19.984  25.230  1.00  0.00    -0.395 OA
ATOM     21  H   UNL A   1      32.226  20.704  25.859  1.00  0.00     0.210 HD
ENDBRANCH  19  20
ENDBRANCH  15  19
ENDBRANCH  13  15
ENDBRANCH  10  13
ENDBRANCH   8  10
ENDBRANCH   2   4
ENDBRANCH   1   2
BRANCH   1  22
ATOM     22  C   UNL A   1      42.561  20.924  25.927  1.00  0.00     0.275 C 
BRANCH  22  23
ATOM     23  C   UNL A   1      43.714  21.611  25.190  1.00  0.00     0.275 C 
BRANCH  23  24
ATOM     24  O   UNL A   1      44.372  22.560  26.049  1.00  0.00    -0.458 OA
BRANCH  24  25
ATOM     25  C   UNL A   1      44.372  23.826  25.585  1.00  0.00     0.338 C 
ATOM     26  O   UNL A   1      44.804  24.226  24.517  1.00  0.00    -0.246 OA
BRANCH  25  27
ATOM     27  C   UNL A   1      43.639  24.697  26.511  1.00  0.00     0.060 A 
ATOM     28  C   UNL A   1      43.931  26.055  26.468  1.00  0.00     0.016 A 
ATOM     29  C   UNL A   1      42.840  24.179  27.528  1.00  0.00     0.016 A 
ATOM     30  C   UNL A   1      43.542  26.884  27.513  1.00  0.00     0.010 A 
ATOM     31  C   UNL A   1      42.353  25.040  28.521  1.00  0.00     0.010 A 
ATOM     32  C   UNL A   1      42.735  26.395  28.549  1.00  0.00    -0.014 A 
BRANCH  32  33
ATOM     33  C   UNL A   1      42.303  27.311  29.644  1.00  0.00     0.031 A 
ATOM     34  C   UNL A   1      43.067  27.390  30.941  1.00  0.00     0.074 A 
ATOM     35  C   UNL A   1      41.228  28.104  29.458  1.00  0.00     0.049 A 
ATOM     36  N   UNL A   1      42.792  28.073  32.026  1.00  0.00    -0.248 NA
ATOM     37  C   UNL A   1      44.303  26.598  31.035  1.00  0.00     0.031 C 
ATOM     38  C   UNL A   1      40.419  28.155  28.238  1.00  0.00     0.029 A 
ATOM     39  N   UNL A   1      40.632  29.023  30.286  1.00  0.00    -0.354 N 
ATOM     40  C   UNL A   1      43.800  27.772  32.936  1.00  0.00     0.074 A 
ATOM     41  C   UNL A   1      44.687  26.835  32.283  1.00  0.00     0.031 C 
ATOM     42  C   UNL A   1      39.459  29.078  28.383  1.00  0.00     0.029 A 
ATOM     43  C   UNL A   1      39.522  29.616  29.735  1.00  0.00     0.049 A 
ATOM     44  H   UNL A   1      40.968  29.237  31.187  1.00  0.00     0.167 HD
ATOM     45  C   UNL A   1      43.966  28.234  34.199  1.00  0.00     0.037 A 
ATOM     46  C   UNL A   1      38.621  30.463  30.268  1.00  0.00     0.037 A 
ATOM     47  C   UNL A   1      43.081  29.172  34.845  1.00  0.00     0.049 A 
ATOM     48  C   UNL A   1      38.788  30.901  31.695  1.00  0.00     0.074 A 
ATOM     49  C   UNL A   1      43.168  29.708  36.119  1.00  0.00     0.029 A 
ATOM     50  N   UNL A   1      41.941  29.712  34.265  1.00  0.00    -0.354 N 
ATOM     51  N   UNL A   1      39.737  30.601  32.547  1.00  0.00    -0.248 NA
ATOM     52  C   UNL A   1      37.752  31.789  32.237  1.00  0.00     0.031 C 
ATOM     53  C   UNL A   1      42.050  30.520  36.333  1.00  0.00     0.029 A 
ATOM     54  C   UNL A   1      41.300  30.548  35.169  1.00  0.00     0.049 A 
ATOM     55  H   UNL A   1      41.631  29.528  33.349  1.00  0.00     0.167 HD
ATOM     56  C   UNL A   1      39.427  31.278  33.717  1.00  0.00     0.074 A 
ATOM     57  C   UNL A   1      38.211  32.020  33.459  1.00  0.00     0.031 C 
ATOM     58  C   UNL A   1      40.089  31.282  34.900  1.00  0.00     0.037 A 
BRANCH  45  59
ATOM     59  C   UNL A   1      45.129  27.704  34.994  1.00  0.00     0.064 A 
ATOM     60  C   UNL A   1      45.034  26.538  35.766  1.00  0.00     0.173 A 
ATOM     61  C   UNL A   1      46.373  28.355  34.945  1.00  0.00     0.173 A 
ATOM     62  F   UNL A   1      43.866  25.883  35.859  1.00  0.00    -0.203 F 
ATOM     63  C   UNL A   1      46.130  26.056  36.479  1.00  0.00     0.198 A 
ATOM     64  C   UNL A   1      47.475  27.853  35.633  1.00  0.00     0.198 A 
ATOM     65  F   UNL A   1      46.525  29.471  34.217  1.00  0.00    -0.203 F 
ATOM     66  F   UNL A   1      46.001  24.967  37.249  1.00  0.00    -0.200 F 
ATOM     67  C   UNL A   1      47.351  26.710  36.407  1.00  0.00     0.200 A 
ATOM     68  F   UNL A   1      48.657  28.479  35.549  1.00  0.00    -0.200 F 
ATOM     69  F   UNL A   1      48.406  26.242  37.087  1.00  0.00    -0.200 F 
ENDBRANCH  45  59
BRANCH  46  70
ATOM     70  C   UNL A   1      37.459  30.911  29.455  1.00  0.00     0.064 A 
ATOM     71  C   UNL A   1      37.413  32.196  28.902  1.00  0.00     0.173 A 
ATOM     72  C   UNL A   1      36.372  30.056  29.210  1.00  0.00     0.173 A 
ATOM     73  F   UNL A   1      38.414  33.059  29.128  1.00  0.00    -0.203 F 
ATOM     74  C   UNL A   1      36.319  32.616  28.147  1.00  0.00     0.198 A 
ATOM     75  C   UNL A   1      35.297  30.463  28.424  1.00  0.00     0.198 A 
ATOM     76  F   UNL A   1      36.365  28.814  29.717  1.00  0.00    -0.203 F 
ATOM     77  F   UNL A   1      36.278  33.867  27.670  1.00  0.00    -0.200 F 
ATOM     78  C   UNL A   1      35.268  31.745  27.900  1.00  0.00     0.200 A 
ATOM     79  F   UNL A   1      34.293  29.612  28.174  1.00  0.00    -0.200 F 
ATOM     80  F   UNL A   1      34.221  32.146  27.166  1.00  0.00    -0.200 F 
ENDBRANCH  46  70
BRANCH  58  81
ATOM     81  C   UNL A   1      39.533  32.148  35.994  1.00  0.00     0.064 A 
ATOM     82  C   UNL A   1      39.992  33.457  36.207  1.00  0.00     0.173 A 
ATOM     83  C   UNL A   1      38.507  31.669  36.824  1.00  0.00     0.173 A 
ATOM     84  F   UNL A   1      40.982  33.956  35.451  1.00  0.00    -0.203 F 
ATOM     85  C   UNL A   1      39.468  34.241  37.231  1.00  0.00     0.198 A 
ATOM     86  C   UNL A   1      37.962  32.469  37.823  1.00  0.00     0.198 A 
ATOM     87  F   UNL A   1      38.028  30.428  36.659  1.00  0.00    -0.203 F 
ATOM     88  F   UNL A   1      39.961  35.467  37.452  1.00  0.00    -0.200 F 
ATOM     89  C   UNL A   1      38.449  33.750  38.033  1.00  0.00     0.200 A 
ATOM     90  F   UNL A   1      36.966  31.998  38.588  1.00  0.00    -0.200 F 
ATOM     91  F   UNL A   1      37.942  34.509  39.013  1.00  0.00    -0.200 F 
ENDBRANCH  58  81
ENDBRANCH  32  33
ENDBRANCH  25  27
ENDBRANCH  24  25
ENDBRANCH  23  24
ENDBRANCH  22  23
ENDBRANCH   1  22
TORSDOF 17
ENDMDL
MODEL 2
REMARK VINA RESULT:     -11.0      5.092      7.422
REMARK SMILES Cc1cc(S(=O)(=O)N[C@H](CO)C(C)C)sc1C(=O)OCCOC(=O)c1ccc(-c2c3nc(c(-c4c(F)c(F)c(F)c(F)c4F)c4ccc([nH]4)c(-c4c(F)c(F)c(F)c(F)c4F)c4nc(c(-c5c(F)c(F)c(F)c(F)c5F)c5ccc2[nH]5)C=C4)C=C3)cc1
REMARK SMILES IDX 19 1 17 2 18 3 16 4 1 5 2 6 3 7 4 8 15 9 5 10 6 11 7 12 8 13
REMARK SMILES IDX 9 15 12 16 13 17 14 18 10 19 11 20 20 22 21 23 22 24 23 25
REMARK SMILES IDX 24 26 25 27 26 28 87 29 27 30 86 31 28 32 29 33 30 34 80 35
REMARK SMILES IDX 31 36 85 37 79 38 81 39 32 40 84 41 78 42 77 43 33 45 65 46
REMARK SMILES IDX 45 47 64 48 46 49 49 50 63 51 82 52 47 53 48 54 62 56 83 57
REMARK SMILES IDX 50 58 34 59 35 60 43 61 36 62 37 63 41 64 44 65 38 66 39 67
REMARK SMILES IDX 42 68 40 69 66 70 67 71 75 72 68 73 69 74 73 75 76 76 70 77
REMARK SMILES IDX 71 78 74 79 72 80 51 81 52 82 60 83 53 84 54 85 58 86 61 87
REMARK SMILES IDX 55 88 56 89 59 90 57 91
REMARK H PARENT 8 14 11 21 81 44 49 55
REMARK Flexibility Score: inf
ROOT
ATOM      1  O   UNL A   1      40.457  20.415  26.123  1.00  0.00    -0.458 OA
ENDROOT
BRANCH   1   2
ATOM      2  C   UNL A   1      40.266  21.713  26.502  1.00  0.00     0.348 C 
ATOM      3  O   UNL A   1      41.138  22.398  27.027  1.00  0.00    -0.245 OA
BRANCH   2   4
ATOM      4  C   UNL A   1      38.940  22.182  26.101  1.00  0.00     0.116 A 
ATOM      5  C   UNL A   1      38.929  24.731  26.585  1.00  0.00     0.046 C 
ATOM      6  C   UNL A   1      38.316  23.426  26.191  1.00  0.00    -0.024 A 
ATOM      7  C   UNL A   1      36.909  23.317  25.888  1.00  0.00     0.038 A 
ATOM      8  C   UNL A   1      36.513  22.031  25.590  1.00  0.00     0.135 A 
ATOM      9  S   UNL A   1      37.880  21.033  25.353  1.00  0.00    -0.115 S 
BRANCH   8  10
ATOM     10  S   UNL A   1      34.909  21.280  25.395  1.00  0.00     0.250 S 
ATOM     11  O   UNL A   1      34.189  21.559  26.617  1.00  0.00    -0.206 OA
ATOM     12  O   UNL A   1      34.435  21.766  24.118  1.00  0.00    -0.206 OA
BRANCH  10  13
ATOM     13  N   UNL A   1      35.076  19.618  25.239  1.00  0.00    -0.205 NA
ATOM     14  H   UNL A   1      35.119  19.258  26.193  1.00  0.00     0.141 HD
BRANCH  13  15
ATOM     15  C   UNL A   1      34.111  18.726  24.516  1.00  0.00     0.098 C 
BRANCH  15  16
ATOM     16  C   UNL A   1      34.594  17.321  24.093  1.00  0.00     0.003 C 
ATOM     17  C   UNL A   1      34.242  16.273  25.161  1.00  0.00     0.009 C 
ATOM     18  C   UNL A   1      34.002  16.843  22.777  1.00  0.00     0.009 C 
ENDBRANCH  15  16
BRANCH  15  19
ATOM     19  C   UNL A   1      32.781  18.659  25.304  1.00  0.00     0.176 C 
BRANCH  19  20
ATOM     20  O   UNL A   1      33.010  18.796  26.707  1.00  0.00    -0.395 OA
ATOM     21  H   UNL A   1      33.958  18.921  26.870  1.00  0.00     0.210 HD
ENDBRANCH  19  20
ENDBRANCH  15  19
ENDBRANCH  13  15
ENDBRANCH  10  13
ENDBRANCH   8  10
ENDBRANCH   2   4
ENDBRANCH   1   2
BRANCH   1  22
ATOM     22  C   UNL A   1      41.323  19.593  26.935  1.00  0.00     0.275 C 
BRANCH  22  23
ATOM     23  C   UNL A   1      42.316  18.806  26.076  1.00  0.00     0.275 C 
BRANCH  23  24
ATOM     24  O   UNL A   1      42.724  19.580  24.934  1.00  0.00    -0.458 OA
BRANCH  24  25
ATOM     25  C   UNL A   1      44.058  19.640  24.747  1.00  0.00     0.338 C 
ATOM     26  O   UNL A   1      44.796  18.748  24.365  1.00  0.00    -0.246 OA
BRANCH  25  27
ATOM     27  C   UNL A   1      44.528  21.015  24.948  1.00  0.00     0.060 A 
ATOM     28  C   UNL A   1      45.121  21.310  26.171  1.00  0.00     0.016 A 
ATOM     29  C   UNL A   1      44.218  22.036  24.051  1.00  0.00     0.016 A 
ATOM     30  C   UNL A   1      45.284  22.632  26.565  1.00  0.00     0.010 A 
ATOM     31  C   UNL A   1      44.489  23.364  24.406  1.00  0.00     0.010 A 
ATOM     32  C   UNL A   1      44.985  23.681  25.684  1.00  0.00    -0.014 A 
BRANCH  32  33
ATOM     33  C   UNL A   1      45.198  25.092  26.118  1.00  0.00     0.031 A 
ATOM     34  C   UNL A   1      46.551  25.747  26.002  1.00  0.00     0.074 A 
ATOM     35  C   UNL A   1      44.156  25.802  26.596  1.00  0.00     0.049 A 
ATOM     36  N   UNL A   1      46.934  26.936  26.400  1.00  0.00    -0.248 NA
ATOM     37  C   UNL A   1      47.616  24.967  25.355  1.00  0.00     0.031 C 
ATOM     38  C   UNL A   1      42.786  25.302  26.729  1.00  0.00     0.029 A 
ATOM     39  N   UNL A   1      44.080  27.095  27.054  1.00  0.00    -0.354 N 
ATOM     40  C   UNL A   1      48.283  27.034  26.078  1.00  0.00     0.074 A 
ATOM     41  C   UNL A   1      48.659  25.779  25.463  1.00  0.00     0.031 C 
ATOM     42  C   UNL A   1      42.001  26.282  27.197  1.00  0.00     0.029 A 
ATOM     43  C   UNL A   1      42.826  27.447  27.489  1.00  0.00     0.049 A 
ATOM     44  H   UNL A   1      44.849  27.709  27.066  1.00  0.00     0.167 HD
ATOM     45  C   UNL A   1      49.129  28.074  26.279  1.00  0.00     0.037 A 
ATOM     46  C   UNL A   1      42.389  28.564  28.101  1.00  0.00     0.037 A 
ATOM     47  C   UNL A   1      48.749  29.325  26.889  1.00  0.00     0.049 A 
ATOM     48  C   UNL A   1      43.364  29.672  28.380  1.00  0.00     0.074 A 
ATOM     49  C   UNL A   1      49.531  30.442  27.129  1.00  0.00     0.029 A 
ATOM     50  N   UNL A   1      47.477  29.622  27.359  1.00  0.00    -0.354 N 
ATOM     51  N   UNL A   1      44.638  29.747  28.081  1.00  0.00    -0.248 NA
ATOM     52  C   UNL A   1      42.842  30.846  29.089  1.00  0.00     0.031 C 
ATOM     53  C   UNL A   1      48.751  31.389  27.800  1.00  0.00     0.029 A 
ATOM     54  C   UNL A   1      47.462  30.893  27.916  1.00  0.00     0.049 A 
ATOM     55  H   UNL A   1      46.700  29.020  27.305  1.00  0.00     0.167 HD
ATOM     56  C   UNL A   1      45.066  30.982  28.546  1.00  0.00     0.074 A 
ATOM     57  C   UNL A   1      43.910  31.631  29.128  1.00  0.00     0.031 C 
ATOM     58  C   UNL A   1      46.306  31.527  28.494  1.00  0.00     0.037 A 
BRANCH  45  59
ATOM     59  C   UNL A   1      50.568  27.897  25.876  1.00  0.00     0.064 A 
ATOM     60  C   UNL A   1      50.997  28.075  24.553  1.00  0.00     0.173 A 
ATOM     61  C   UNL A   1      51.540  27.586  26.841  1.00  0.00     0.173 A 
ATOM     62  F   UNL A   1      50.110  28.360  23.587  1.00  0.00    -0.203 F 
ATOM     63  C   UNL A   1      52.339  27.923  24.206  1.00  0.00     0.198 A 
ATOM     64  C   UNL A   1      52.884  27.466  26.497  1.00  0.00     0.198 A 
ATOM     65  F   UNL A   1      51.187  27.410  28.124  1.00  0.00    -0.203 F 
ATOM     66  F   UNL A   1      52.718  28.051  22.927  1.00  0.00    -0.200 F 
ATOM     67  C   UNL A   1      53.282  27.627  25.179  1.00  0.00     0.200 A 
ATOM     68  F   UNL A   1      53.794  27.194  27.443  1.00  0.00    -0.200 F 
ATOM     69  F   UNL A   1      54.572  27.488  24.846  1.00  0.00    -0.200 F 
ENDBRANCH  45  59
BRANCH  46  70
ATOM     70  C   UNL A   1      40.968  28.662  28.530  1.00  0.00     0.064 A 
ATOM     71  C   UNL A   1      40.576  28.319  29.829  1.00  0.00     0.173 A 
ATOM     72  C   UNL A   1      39.973  29.110  27.646  1.00  0.00     0.173 A 
ATOM     73  F   UNL A   1      41.485  27.862  30.703  1.00  0.00    -0.203 F 
ATOM     74  C   UNL A   1      39.243  28.405  30.226  1.00  0.00     0.198 A 
ATOM     75  C   UNL A   1      38.647  29.231  28.054  1.00  0.00     0.198 A 
ATOM     76  F   UNL A   1      40.293  29.451  26.389  1.00  0.00    -0.203 F 
ATOM     77  F   UNL A   1      38.888  28.024  31.460  1.00  0.00    -0.200 F 
ATOM     78  C   UNL A   1      38.282  28.871  29.340  1.00  0.00     0.200 A 
ATOM     79  F   UNL A   1      37.726  29.700  27.201  1.00  0.00    -0.200 F 
ATOM     80  F   UNL A   1      37.001  28.962  29.725  1.00  0.00    -0.200 F 
ENDBRANCH  46  70
BRANCH  58  81
ATOM     81  C   UNL A   1      46.467  32.914  29.051  1.00  0.00     0.064 A 
ATOM     82  C   UNL A   1      46.265  34.056  28.261  1.00  0.00     0.173 A 
ATOM     83  C   UNL A   1      46.804  33.100  30.400  1.00  0.00     0.173 A 
ATOM     84  F   UNL A   1      45.957  33.932  26.961  1.00  0.00    -0.203 F 
ATOM     85  C   UNL A   1      46.426  35.332  28.794  1.00  0.00     0.198 A 
ATOM     86  C   UNL A   1      46.930  34.377  30.938  1.00  0.00     0.198 A 
ATOM     87  F   UNL A   1      47.003  32.042  31.200  1.00  0.00    -0.203 F 
ATOM     88  F   UNL A   1      46.283  36.407  28.007  1.00  0.00    -0.200 F 
ATOM     89  C   UNL A   1      46.751  35.492  30.133  1.00  0.00     0.200 A 
ATOM     90  F   UNL A   1      47.229  34.530  32.236  1.00  0.00    -0.200 F 
ATOM     91  F   UNL A   1      46.899  36.721  30.645  1.00  0.00    -0.200 F 
ENDBRANCH  58  81
ENDBRANCH  32  33
ENDBRANCH  25  27
ENDBRANCH  24  25
ENDBRANCH  23  24
ENDBRANCH  22  23
ENDBRANCH   1  22
TORSDOF 17
ENDMDL
MODEL 3
REMARK VINA RESULT:     -10.8      3.607      8.612
REMARK SMILES Cc1cc(S(=O)(=O)N[C@H](CO)C(C)C)sc1C(=O)OCCOC(=O)c1ccc(-c2c3nc(c(-c4c(F)c(F)c(F)c(F)c4F)c4ccc([nH]4)c(-c4c(F)c(F)c(F)c(F)c4F)c4nc(c(-c5c(F)c(F)c(F)c(F)c5F)c5ccc2[nH]5)C=C4)C=C3)cc1
REMARK SMILES IDX 19 1 17 2 18 3 16 4 1 5 2 6 3 7 4 8 15 9 5 10 6 11 7 12 8 13
REMARK SMILES IDX 9 15 12 16 13 17 14 18 10 19 11 20 20 22 21 23 22 24 23 25
REMARK SMILES IDX 24 26 25 27 26 28 87 29 27 30 86 31 28 32 29 33 30 34 80 35
REMARK SMILES IDX 31 36 85 37 79 38 81 39 32 40 84 41 78 42 77 43 33 45 65 46
REMARK SMILES IDX 45 47 64 48 46 49 49 50 63 51 82 52 47 53 48 54 62 56 83 57
REMARK SMILES IDX 50 58 34 59 35 60 43 61 36 62 37 63 41 64 44 65 38 66 39 67
REMARK SMILES IDX 42 68 40 69 66 70 67 71 75 72 68 73 69 74 73 75 76 76 70 77
REMARK SMILES IDX 71 78 74 79 72 80 51 81 52 82 60 83 53 84 54 85 58 86 61 87
REMARK SMILES IDX 55 88 56 89 59 90 57 91
REMARK H PARENT 8 14 11 21 81 44 49 55
REMARK Flexibility Score: inf
ROOT
ATOM      1  O   UNL A   1      32.194  28.422  25.594  1.00  0.00    -0.458 OA
ENDROOT
BRANCH   1   2
ATOM      2  C   UNL A   1      31.506  27.302  25.962  1.00  0.00     0.348 C 
ATOM      3  O   UNL A   1      30.987  27.162  27.065  1.00  0.00    -0.245 OA
BRANCH   2   4
ATOM      4  C   UNL A   1      31.393  26.368  24.842  1.00  0.00     0.116 A 
ATOM      5  C   UNL A   1      28.877  26.342  24.208  1.00  0.00     0.046 C 
ATOM      6  C   UNL A   1      30.298  25.882  24.129  1.00  0.00    -0.024 A 
ATOM      7  C   UNL A   1      30.686  24.783  23.279  1.00  0.00     0.038 A 
ATOM      8  C   UNL A   1      32.024  24.468  23.370  1.00  0.00     0.135 A 
ATOM      9  S   UNL A   1      32.862  25.696  24.213  1.00  0.00    -0.115 S 
BRANCH   8  10
ATOM     10  S   UNL A   1      32.982  23.092  22.768  1.00  0.00     0.250 S 
ATOM     11  O   UNL A   1      32.053  21.993  22.629  1.00  0.00    -0.206 OA
ATOM     12  O   UNL A   1      33.694  23.618  21.624  1.00  0.00    -0.206 OA
BRANCH  10  13
ATOM     13  N   UNL A   1      34.145  22.670  23.901  1.00  0.00    -0.205 NA
ATOM     14  H   UNL A   1      34.708  23.510  24.039  1.00  0.00     0.141 HD
BRANCH  13  15
ATOM     15  C   UNL A   1      33.850  22.154  25.278  1.00  0.00     0.098 C 
BRANCH  15  16
ATOM     16  C   UNL A   1      34.183  20.678  25.588  1.00  0.00     0.003 C 
ATOM     17  C   UNL A   1      33.034  19.752  25.160  1.00  0.00     0.009 C 
ATOM     18  C   UNL A   1      35.446  20.180  24.903  1.00  0.00     0.009 C 
ENDBRANCH  15  16
BRANCH  15  19
ATOM     19  C   UNL A   1      34.462  23.110  26.329  1.00  0.00     0.176 C 
BRANCH  19  20
ATOM     20  O   UNL A   1      34.767  22.413  27.538  1.00  0.00    -0.395 OA
ATOM     21  H   UNL A   1      33.943  22.158  27.981  1.00  0.00     0.210 HD
ENDBRANCH  19  20
ENDBRANCH  15  19
ENDBRANCH  13  15
ENDBRANCH  10  13
ENDBRANCH   8  10
ENDBRANCH   2   4
ENDBRANCH   1   2
BRANCH   1  22
ATOM     22  C   UNL A   1      31.450  29.513  25.011  1.00  0.00     0.275 C 
BRANCH  22  23
ATOM     23  C   UNL A   1      31.532  30.774  25.876  1.00  0.00     0.275 C 
BRANCH  23  24
ATOM     24  O   UNL A   1      32.505  30.608  26.923  1.00  0.00    -0.458 OA
BRANCH  24  25
ATOM     25  C   UNL A   1      33.176  31.732  27.245  1.00  0.00     0.338 C 
ATOM     26  O   UNL A   1      32.746  32.873  27.272  1.00  0.00    -0.246 OA
BRANCH  25  27
ATOM     27  C   UNL A   1      34.527  31.392  27.706  1.00  0.00     0.060 A 
ATOM     28  C   UNL A   1      34.775  30.059  28.012  1.00  0.00     0.016 A 
ATOM     29  C   UNL A   1      35.463  32.375  28.023  1.00  0.00     0.016 A 
ATOM     30  C   UNL A   1      35.895  29.713  28.757  1.00  0.00     0.010 A 
ATOM     31  C   UNL A   1      36.647  32.006  28.676  1.00  0.00     0.010 A 
ATOM     32  C   UNL A   1      36.858  30.677  29.089  1.00  0.00    -0.014 A 
BRANCH  32  33
ATOM     33  C   UNL A   1      38.068  30.276  29.863  1.00  0.00     0.031 A 
ATOM     34  C   UNL A   1      39.089  29.333  29.279  1.00  0.00     0.074 A 
ATOM     35  C   UNL A   1      38.266  30.788  31.095  1.00  0.00     0.049 A 
ATOM     36  N   UNL A   1      40.158  28.818  29.837  1.00  0.00    -0.248 NA
ATOM     37  C   UNL A   1      38.885  28.910  27.885  1.00  0.00     0.031 C 
ATOM     38  C   UNL A   1      37.376  31.738  31.765  1.00  0.00     0.029 A 
ATOM     39  N   UNL A   1      39.278  30.590  32.001  1.00  0.00    -0.354 N 
ATOM     40  C   UNL A   1      40.735  27.994  28.877  1.00  0.00     0.074 A 
ATOM     41  C   UNL A   1      39.891  28.065  27.703  1.00  0.00     0.031 C 
ATOM     42  C   UNL A   1      37.895  32.067  32.956  1.00  0.00     0.029 A 
ATOM     43  C   UNL A   1      39.103  31.281  33.176  1.00  0.00     0.049 A 
ATOM     44  H   UNL A   1      40.054  30.010  31.826  1.00  0.00     0.167 HD
ATOM     45  C   UNL A   1      41.862  27.247  28.968  1.00  0.00     0.037 A 
ATOM     46  C   UNL A   1      39.804  31.255  34.325  1.00  0.00     0.037 A 
ATOM     47  C   UNL A   1      42.702  27.183  30.139  1.00  0.00     0.049 A 
ATOM     48  C   UNL A   1      41.007  30.360  34.425  1.00  0.00     0.074 A 
ATOM     49  C   UNL A   1      43.869  26.462  30.327  1.00  0.00     0.029 A 
ATOM     50  N   UNL A   1      42.461  27.864  31.324  1.00  0.00    -0.354 N 
ATOM     51  N   UNL A   1      41.534  29.578  33.515  1.00  0.00    -0.248 NA
ATOM     52  C   UNL A   1      41.706  30.339  35.715  1.00  0.00     0.031 C 
ATOM     53  C   UNL A   1      44.299  26.656  31.644  1.00  0.00     0.029 A 
ATOM     54  C   UNL A   1      43.440  27.554  32.257  1.00  0.00     0.049 A 
ATOM     55  H   UNL A   1      41.706  28.476  31.481  1.00  0.00     0.167 HD
ATOM     56  C   UNL A   1      42.637  28.988  34.113  1.00  0.00     0.074 A 
ATOM     57  C   UNL A   1      42.715  29.518  35.458  1.00  0.00     0.031 C 
ATOM     58  C   UNL A   1      43.506  28.087  33.594  1.00  0.00     0.037 A 
BRANCH  45  59
ATOM     59  C   UNL A   1      42.240  26.399  27.784  1.00  0.00     0.064 A 
ATOM     60  C   UNL A   1      43.182  26.822  26.836  1.00  0.00     0.173 A 
ATOM     61  C   UNL A   1      41.679  25.121  27.622  1.00  0.00     0.173 A 
ATOM     62  F   UNL A   1      43.740  28.038  26.934  1.00  0.00    -0.203 F 
ATOM     63  C   UNL A   1      43.530  26.011  25.757  1.00  0.00     0.198 A 
ATOM     64  C   UNL A   1      42.052  24.301  26.561  1.00  0.00     0.198 A 
ATOM     65  F   UNL A   1      40.777  24.662  28.502  1.00  0.00    -0.203 F 
ATOM     66  F   UNL A   1      44.396  26.456  24.837  1.00  0.00    -0.200 F 
ATOM     67  C   UNL A   1      42.971  24.749  25.624  1.00  0.00     0.200 A 
ATOM     68  F   UNL A   1      41.520  23.075  26.444  1.00  0.00    -0.200 F 
ATOM     69  F   UNL A   1      43.311  23.967  24.590  1.00  0.00    -0.200 F 
ENDBRANCH  45  59
BRANCH  46  70
ATOM     70  C   UNL A   1      39.352  32.071  35.483  1.00  0.00     0.064 A 
ATOM     71  C   UNL A   1      38.513  31.533  36.467  1.00  0.00     0.173 A 
ATOM     72  C   UNL A   1      39.758  33.407  35.631  1.00  0.00     0.173 A 
ATOM     73  F   UNL A   1      38.078  30.270  36.358  1.00  0.00    -0.203 F 
ATOM     74  C   UNL A   1      38.086  32.303  37.548  1.00  0.00     0.198 A 
ATOM     75  C   UNL A   1      39.360  34.164  36.731  1.00  0.00     0.198 A 
ATOM     76  F   UNL A   1      40.561  33.972  34.717  1.00  0.00    -0.203 F 
ATOM     77  F   UNL A   1      37.245  31.778  38.448  1.00  0.00    -0.200 F 
ATOM     78  C   UNL A   1      38.518  33.614  37.683  1.00  0.00     0.200 A 
ATOM     79  F   UNL A   1      39.796  35.424  36.866  1.00  0.00    -0.200 F 
ATOM     80  F   UNL A   1      38.114  34.350  38.727  1.00  0.00    -0.200 F 
ENDBRANCH  46  70
BRANCH  58  81
ATOM     81  C   UNL A   1      44.642  27.646  34.473  1.00  0.00     0.064 A 
ATOM     82  C   UNL A   1      45.854  28.350  34.524  1.00  0.00     0.173 A 
ATOM     83  C   UNL A   1      44.504  26.517  35.295  1.00  0.00     0.173 A 
ATOM     84  F   UNL A   1      46.043  29.427  33.746  1.00  0.00    -0.203 F 
ATOM     85  C   UNL A   1      46.898  27.921  35.340  1.00  0.00     0.198 A 
ATOM     86  C   UNL A   1      45.536  26.111  36.136  1.00  0.00     0.198 A 
ATOM     87  F   UNL A   1      43.363  25.811  35.289  1.00  0.00    -0.203 F 
ATOM     88  F   UNL A   1      48.066  28.576  35.330  1.00  0.00    -0.200 F 
ATOM     89  C   UNL A   1      46.735  26.807  36.151  1.00  0.00     0.200 A 
ATOM     90  F   UNL A   1      45.371  25.044  36.929  1.00  0.00    -0.200 F 
ATOM     91  F   UNL A   1      47.738  26.400  36.940  1.00  0.00    -0.200 F 
ENDBRANCH  58  81
ENDBRANCH  32  33
ENDBRANCH  25  27
ENDBRANCH  24  25
ENDBRANCH  23  24
ENDBRANCH  22  23
ENDBRANCH   1  22
TORSDOF 17
ENDMDL
