MODEL 1
REMARK VINA RESULT:     -12.7      0.000      0.000
REMARK SMILES O=C(Nc1ccc(N2CC[NH+](CC(=O)N3CCOCC3)CC2)c(C(=O)OCCOC(=O)c2ccc(-c3c4nc(c(-c5c(F)c(F)c(F)c(F)c5F)c5ccc([nH]5)c(-c5c(F)c(F)c(F)c(F)c5F)c5nc(c(-c6c(F)c(F)c(F)c(F)c6F)c6ccc3[nH]6)C=C5)C=C4)cc2)c1)c1cccc(Cl)c1
REMARK SMILES IDX 27 1 26 2 24 3 25 4 23 5 4 6 5 7 95 8 6 9 7 10 3 11 1 12
REMARK SMILES IDX 2 13 96 15 97 16 102 17 98 18 100 19 99 20 101 21 8 22 9 23
REMARK SMILES IDX 22 24 10 25 21 26 11 27 12 29 13 30 14 31 15 32 16 33 20 34
REMARK SMILES IDX 17 35 19 36 18 37 28 38 29 39 30 40 31 41 32 42 33 43 94 44
REMARK SMILES IDX 34 45 93 46 35 47 36 48 37 49 87 50 38 51 92 52 86 53 88 54
REMARK SMILES IDX 39 55 91 56 85 57 84 58 40 60 72 61 52 62 71 63 53 64 56 65
REMARK SMILES IDX 70 66 89 67 54 68 55 69 69 71 90 72 57 73 41 74 42 75 50 76
REMARK SMILES IDX 43 77 44 78 48 79 51 80 45 81 46 82 49 83 47 84 73 85 74 86
REMARK SMILES IDX 82 87 75 88 76 89 80 90 83 91 77 92 78 93 81 94 79 95 58 96
REMARK SMILES IDX 59 97 67 98 60 99 61 100 65 101 68 102 62 103 63 104 66 105
REMARK SMILES IDX 64 106
REMARK H PARENT 3 14 11 28 88 59 56 70
REMARK Flexibility Score: inf
ROOT
ATOM      1  C   UNL A   1      33.412  29.002  24.701  1.00  0.00     0.275 C 
ENDROOT
BRANCH   1   2
ATOM      2  O   UNL A   1      33.166  27.582  24.690  1.00  0.00    -0.458 OA
BRANCH   2   3
ATOM      3  C   UNL A   1      33.594  26.938  25.811  1.00  0.00     0.340 C 
ATOM      4  O   UNL A   1      34.536  27.242  26.506  1.00  0.00    -0.246 OA
BRANCH   3   5
ATOM      5  C   UNL A   1      32.674  25.805  26.054  1.00  0.00     0.085 A 
ATOM      6  C   UNL A   1      30.347  25.202  26.270  1.00  0.00     0.042 A 
ATOM      7  C   UNL A   1      30.683  23.883  26.470  1.00  0.00     0.028 A 
ATOM      8  C   UNL A   1      31.342  26.176  26.253  1.00  0.00     0.044 A 
ATOM      9  C   UNL A   1      32.013  23.526  26.289  1.00  0.00     0.029 A 
ATOM     10  C   UNL A   1      33.023  24.452  25.916  1.00  0.00     0.052 A 
BRANCH   6  11
ATOM     11  N   UNL A   1      29.040  25.479  25.855  1.00  0.00    -0.322 N 
ATOM     12  O   UNL A   1      27.515  26.316  24.385  1.00  0.00    -0.269 OA
ATOM     13  C   UNL A   1      28.681  26.024  24.630  1.00  0.00     0.255 C 
ATOM     14  H   UNL A   1      28.313  25.270  26.485  1.00  0.00     0.170 HD
BRANCH  13  15
ATOM     15  C   UNL A   1      29.714  26.196  23.569  1.00  0.00     0.041 A 
ATOM     16  C   UNL A   1      30.499  25.116  23.129  1.00  0.00     0.014 A 
ATOM     17  C   UNL A   1      29.973  27.488  23.109  1.00  0.00     0.034 A 
ATOM     18  C   UNL A   1      31.598  25.347  22.299  1.00  0.00     0.002 A 
ATOM     19  C   UNL A   1      31.067  27.705  22.275  1.00  0.00     0.041 A 
ATOM     20  C   UNL A   1      31.887  26.646  21.881  1.00  0.00     0.020 A 
ATOM     21  Cl  UNL A   1      31.451  29.307  21.780  1.00  0.00    -0.084 Cl
ENDBRANCH  13  15
ENDBRANCH   6  11
BRANCH  10  22
ATOM     22  N   UNL A   1      34.245  23.980  25.448  1.00  0.00    -0.360 N 
ATOM     23  C   UNL A   1      34.538  24.032  23.986  1.00  0.00     0.178 C 
ATOM     24  C   UNL A   1      35.248  23.314  26.344  1.00  0.00     0.178 C 
ATOM     25  C   UNL A   1      35.385  22.861  23.520  1.00  0.00     0.284 C 
ATOM     26  C   UNL A   1      35.947  22.111  25.661  1.00  0.00     0.284 C 
ATOM     27  N   UNL A   1      35.239  21.724  24.416  1.00  0.00    -0.324 N 
ATOM     28  H   UNL A   1      35.598  20.909  23.919  1.00  0.00     0.348 HD
BRANCH  27  29
ATOM     29  C   UNL A   1      33.829  21.368  24.820  1.00  0.00     0.363 C 
BRANCH  29  30
ATOM     30  C   UNL A   1      32.803  20.596  23.952  1.00  0.00     0.277 C 
ATOM     31  O   UNL A   1      32.177  21.126  23.037  1.00  0.00    -0.268 OA
ATOM     32  N   UNL A   1      32.784  19.178  24.150  1.00  0.00    -0.333 N 
ATOM     33  C   UNL A   1      32.741  18.483  25.458  1.00  0.00     0.148 C 
ATOM     34  C   UNL A   1      32.537  18.284  23.004  1.00  0.00     0.148 C 
ATOM     35  C   UNL A   1      33.461  17.113  25.468  1.00  0.00     0.181 C 
ATOM     36  C   UNL A   1      33.297  16.944  23.141  1.00  0.00     0.181 C 
ATOM     37  O   UNL A   1      33.006  16.295  24.386  1.00  0.00    -0.378 OA
ENDBRANCH  29  30
ENDBRANCH  27  29
ENDBRANCH  10  22
ENDBRANCH   3   5
ENDBRANCH   2   3
ENDBRANCH   1   2
BRANCH   1  38
ATOM     38  C   UNL A   1      32.192  29.719  25.295  1.00  0.00     0.275 C 
BRANCH  38  39
ATOM     39  O   UNL A   1      32.456  30.056  26.695  1.00  0.00    -0.458 OA
BRANCH  39  40
ATOM     40  C   UNL A   1      33.003  31.280  26.957  1.00  0.00     0.338 C 
ATOM     41  O   UNL A   1      32.435  32.354  26.841  1.00  0.00    -0.246 OA
BRANCH  40  42
ATOM     42  C   UNL A   1      34.316  31.142  27.677  1.00  0.00     0.060 A 
ATOM     43  C   UNL A   1      34.488  29.963  28.357  1.00  0.00     0.016 A 
ATOM     44  C   UNL A   1      35.266  32.128  27.965  1.00  0.00     0.016 A 
ATOM     45  C   UNL A   1      35.566  29.793  29.272  1.00  0.00     0.010 A 
ATOM     46  C   UNL A   1      36.457  31.839  28.764  1.00  0.00     0.010 A 
ATOM     47  C   UNL A   1      36.681  30.598  29.388  1.00  0.00    -0.014 A 
BRANCH  47  48
ATOM     48  C   UNL A   1      37.902  30.126  30.245  1.00  0.00     0.031 A 
ATOM     49  C   UNL A   1      38.898  29.130  29.675  1.00  0.00     0.074 A 
ATOM     50  C   UNL A   1      38.444  30.710  31.361  1.00  0.00     0.049 A 
ATOM     51  N   UNL A   1      40.069  28.772  30.156  1.00  0.00    -0.248 NA
ATOM     52  C   UNL A   1      38.617  28.588  28.345  1.00  0.00     0.031 C 
ATOM     53  C   UNL A   1      38.255  32.069  31.815  1.00  0.00     0.029 A 
ATOM     54  N   UNL A   1      39.355  30.256  32.317  1.00  0.00    -0.354 N 
ATOM     55  C   UNL A   1      40.705  28.056  29.162  1.00  0.00     0.074 A 
ATOM     56  C   UNL A   1      39.772  27.999  28.050  1.00  0.00     0.031 C 
ATOM     57  C   UNL A   1      38.770  32.282  33.035  1.00  0.00     0.029 A 
ATOM     58  C   UNL A   1      39.453  31.071  33.433  1.00  0.00     0.049 A 
ATOM     59  H   UNL A   1      39.881  29.430  32.207  1.00  0.00     0.167 HD
ATOM     60  C   UNL A   1      41.934  27.480  29.173  1.00  0.00     0.037 A 
ATOM     61  C   UNL A   1      40.065  30.982  34.631  1.00  0.00     0.037 A 
ATOM     62  C   UNL A   1      42.791  27.317  30.328  1.00  0.00     0.049 A 
ATOM     63  C   UNL A   1      41.105  29.937  34.811  1.00  0.00     0.074 A 
ATOM     64  C   UNL A   1      43.921  26.517  30.440  1.00  0.00     0.029 A 
ATOM     65  N   UNL A   1      42.591  27.876  31.582  1.00  0.00    -0.354 N 
ATOM     66  N   UNL A   1      41.659  29.217  33.875  1.00  0.00    -0.248 NA
ATOM     67  C   UNL A   1      41.667  29.731  36.153  1.00  0.00     0.031 C 
ATOM     68  C   UNL A   1      44.296  26.458  31.787  1.00  0.00     0.029 A 
ATOM     69  C   UNL A   1      43.477  27.311  32.502  1.00  0.00     0.049 A 
ATOM     70  H   UNL A   1      41.923  28.567  31.792  1.00  0.00     0.167 HD
ATOM     71  C   UNL A   1      42.652  28.491  34.496  1.00  0.00     0.074 A 
ATOM     72  C   UNL A   1      42.648  28.876  35.892  1.00  0.00     0.031 C 
ATOM     73  C   UNL A   1      43.484  27.595  33.918  1.00  0.00     0.037 A 
BRANCH  60  74
ATOM     74  C   UNL A   1      42.341  26.779  27.914  1.00  0.00     0.064 A 
ATOM     75  C   UNL A   1      43.129  27.389  26.928  1.00  0.00     0.173 A 
ATOM     76  C   UNL A   1      41.930  25.453  27.711  1.00  0.00     0.173 A 
ATOM     77  F   UNL A   1      43.534  28.659  27.072  1.00  0.00    -0.203 F 
ATOM     78  C   UNL A   1      43.480  26.693  25.771  1.00  0.00     0.198 A 
ATOM     79  C   UNL A   1      42.291  24.760  26.563  1.00  0.00     0.198 A 
ATOM     80  F   UNL A   1      41.177  24.836  28.632  1.00  0.00    -0.203 F 
ATOM     81  F   UNL A   1      44.210  27.294  24.823  1.00  0.00    -0.200 F 
ATOM     82  C   UNL A   1      43.060  25.381  25.591  1.00  0.00     0.200 A 
ATOM     83  F   UNL A   1      41.886  23.494  26.396  1.00  0.00    -0.200 F 
ATOM     84  F   UNL A   1      43.386  24.718  24.473  1.00  0.00    -0.200 F 
ENDBRANCH  60  74
BRANCH  61  85
ATOM     85  C   UNL A   1      39.688  31.916  35.737  1.00  0.00     0.064 A 
ATOM     86  C   UNL A   1      40.393  33.093  36.026  1.00  0.00     0.173 A 
ATOM     87  C   UNL A   1      38.592  31.606  36.567  1.00  0.00     0.173 A 
ATOM     88  F   UNL A   1      41.461  33.435  35.290  1.00  0.00    -0.203 F 
ATOM     89  C   UNL A   1      40.025  33.913  37.096  1.00  0.00     0.198 A 
ATOM     90  C   UNL A   1      38.211  32.438  37.617  1.00  0.00     0.198 A 
ATOM     91  F   UNL A   1      37.894  30.478  36.363  1.00  0.00    -0.203 F 
ATOM     92  F   UNL A   1      40.742  35.010  37.375  1.00  0.00    -0.200 F 
ATOM     93  C   UNL A   1      38.932  33.588  37.887  1.00  0.00     0.200 A 
ATOM     94  F   UNL A   1      37.153  32.116  38.374  1.00  0.00    -0.200 F 
ATOM     95  F   UNL A   1      38.583  34.374  38.914  1.00  0.00    -0.200 F 
ENDBRANCH  61  85
BRANCH  73  96
ATOM     96  C   UNL A   1      44.439  26.874  34.822  1.00  0.00     0.064 A 
ATOM     97  C   UNL A   1      44.134  25.600  35.328  1.00  0.00     0.173 A 
ATOM     98  C   UNL A   1      45.669  27.442  35.186  1.00  0.00     0.173 A 
ATOM     99  F   UNL A   1      42.963  25.017  35.027  1.00  0.00    -0.203 F 
ATOM    100  C   UNL A   1      45.005  24.937  36.187  1.00  0.00     0.198 A 
ATOM    101  C   UNL A   1      46.556  26.760  36.018  1.00  0.00     0.198 A 
ATOM    102  F   UNL A   1      46.015  28.658  34.737  1.00  0.00    -0.203 F 
ATOM    103  F   UNL A   1      44.661  23.749  36.702  1.00  0.00    -0.200 F 
ATOM    104  C   UNL A   1      46.220  25.514  36.525  1.00  0.00     0.200 A 
ATOM    105  F   UNL A   1      47.735  27.313  36.334  1.00  0.00    -0.200 F 
ATOM    106  F   UNL A   1      47.062  24.872  37.345  1.00  0.00    -0.200 F 
ENDBRANCH  73  96
ENDBRANCH  47  48
ENDBRANCH  40  42
ENDBRANCH  39  40
ENDBRANCH  38  39
ENDBRANCH   1  38
TORSDOF 16
ENDMDL
MODEL 2
REMARK VINA RESULT:     -12.6      1.302      2.408
REMARK SMILES O=C(Nc1ccc(N2CC[NH+](CC(=O)N3CCOCC3)CC2)c(C(=O)OCCOC(=O)c2ccc(-c3c4nc(c(-c5c(F)c(F)c(F)c(F)c5F)c5ccc([nH]5)c(-c5c(F)c(F)c(F)c(F)c5F)c5nc(c(-c6c(F)c(F)c(F)c(F)c6F)c6ccc3[nH]6)C=C5)C=C4)cc2)c1)c1cccc(Cl)c1
REMARK SMILES IDX 27 1 26 2 24 3 25 4 23 5 4 6 5 7 95 8 6 9 7 10 3 11 1 12
REMARK SMILES IDX 2 13 96 15 97 16 102 17 98 18 100 19 99 20 101 21 8 22 9 23
REMARK SMILES IDX 22 24 10 25 21 26 11 27 12 29 13 30 14 31 15 32 16 33 20 34
REMARK SMILES IDX 17 35 19 36 18 37 28 38 29 39 30 40 31 41 32 42 33 43 94 44
REMARK SMILES IDX 34 45 93 46 35 47 36 48 37 49 87 50 38 51 92 52 86 53 88 54
REMARK SMILES IDX 39 55 91 56 85 57 84 58 40 60 72 61 52 62 71 63 53 64 56 65
REMARK SMILES IDX 70 66 89 67 54 68 55 69 69 71 90 72 57 73 41 74 42 75 50 76
REMARK SMILES IDX 43 77 44 78 48 79 51 80 45 81 46 82 49 83 47 84 73 85 74 86
REMARK SMILES IDX 82 87 75 88 76 89 80 90 83 91 77 92 78 93 81 94 79 95 58 96
REMARK SMILES IDX 59 97 67 98 60 99 61 100 65 101 68 102 62 103 63 104 66 105
REMARK SMILES IDX 64 106
REMARK H PARENT 3 14 11 28 88 59 56 70
REMARK Flexibility Score: inf
ROOT
ATOM      1  C   UNL A   1      33.370  29.163  25.133  1.00  0.00     0.275 C 
ENDROOT
BRANCH   1   2
ATOM      2  O   UNL A   1      32.758  27.858  25.152  1.00  0.00    -0.458 OA
BRANCH   2   3
ATOM      3  C   UNL A   1      33.418  26.948  25.922  1.00  0.00     0.340 C 
ATOM      4  O   UNL A   1      34.531  27.061  26.383  1.00  0.00    -0.246 OA
BRANCH   3   5
ATOM      5  C   UNL A   1      32.513  25.797  26.127  1.00  0.00     0.085 A 
ATOM      6  C   UNL A   1      30.192  25.154  26.301  1.00  0.00     0.042 A 
ATOM      7  C   UNL A   1      30.546  23.836  26.475  1.00  0.00     0.028 A 
ATOM      8  C   UNL A   1      31.172  26.143  26.319  1.00  0.00     0.044 A 
ATOM      9  C   UNL A   1      31.884  23.503  26.300  1.00  0.00     0.029 A 
ATOM     10  C   UNL A   1      32.884  24.452  25.961  1.00  0.00     0.052 A 
BRANCH   6  11
ATOM     11  N   UNL A   1      28.886  25.421  25.878  1.00  0.00    -0.322 N 
ATOM     12  O   UNL A   1      27.366  26.285  24.418  1.00  0.00    -0.269 OA
ATOM     13  C   UNL A   1      28.534  26.006  24.669  1.00  0.00     0.255 C 
ATOM     14  H   UNL A   1      28.155  25.175  26.490  1.00  0.00     0.170 HD
BRANCH  13  15
ATOM     15  C   UNL A   1      29.578  26.237  23.631  1.00  0.00     0.041 A 
ATOM     16  C   UNL A   1      30.363  25.182  23.133  1.00  0.00     0.014 A 
ATOM     17  C   UNL A   1      29.846  27.553  23.252  1.00  0.00     0.034 A 
ATOM     18  C   UNL A   1      31.471  25.458  22.330  1.00  0.00     0.002 A 
ATOM     19  C   UNL A   1      30.949  27.815  22.443  1.00  0.00     0.041 A 
ATOM     20  C   UNL A   1      31.770  26.779  21.994  1.00  0.00     0.020 A 
ATOM     21  Cl  UNL A   1      31.344  29.443  22.050  1.00  0.00    -0.084 Cl
ENDBRANCH  13  15
ENDBRANCH   6  11
BRANCH  10  22
ATOM     22  N   UNL A   1      34.117  24.010  25.497  1.00  0.00    -0.360 N 
ATOM     23  C   UNL A   1      34.428  24.105  24.040  1.00  0.00     0.178 C 
ATOM     24  C   UNL A   1      35.118  23.334  26.387  1.00  0.00     0.178 C 
ATOM     25  C   UNL A   1      35.297  22.959  23.553  1.00  0.00     0.284 C 
ATOM     26  C   UNL A   1      35.843  22.159  25.681  1.00  0.00     0.284 C 
ATOM     27  N   UNL A   1      35.155  21.796  24.417  1.00  0.00    -0.324 N 
ATOM     28  H   UNL A   1      35.533  21.000  23.904  1.00  0.00     0.348 HD
BRANCH  27  29
ATOM     29  C   UNL A   1      33.746  21.410  24.794  1.00  0.00     0.363 C 
BRANCH  29  30
ATOM     30  C   UNL A   1      32.758  20.608  23.910  1.00  0.00     0.277 C 
ATOM     31  O   UNL A   1      32.149  21.113  22.969  1.00  0.00    -0.268 OA
ATOM     32  N   UNL A   1      32.755  19.194  24.131  1.00  0.00    -0.333 N 
ATOM     33  C   UNL A   1      32.686  18.519  25.449  1.00  0.00     0.148 C 
ATOM     34  C   UNL A   1      32.555  18.277  22.994  1.00  0.00     0.148 C 
ATOM     35  C   UNL A   1      33.426  17.161  25.503  1.00  0.00     0.181 C 
ATOM     36  C   UNL A   1      33.332  16.952  23.174  1.00  0.00     0.181 C 
ATOM     37  O   UNL A   1      33.016  16.318  24.422  1.00  0.00    -0.378 OA
ENDBRANCH  29  30
ENDBRANCH  27  29
ENDBRANCH  10  22
ENDBRANCH   3   5
ENDBRANCH   2   3
ENDBRANCH   1   2
BRANCH   1  38
ATOM     38  C   UNL A   1      32.520  30.130  25.969  1.00  0.00     0.275 C 
BRANCH  38  39
ATOM     39  O   UNL A   1      33.031  30.172  27.340  1.00  0.00    -0.458 OA
BRANCH  39  40
ATOM     40  C   UNL A   1      33.925  31.157  27.650  1.00  0.00     0.338 C 
ATOM     41  O   UNL A   1      33.659  32.339  27.801  1.00  0.00    -0.246 OA
BRANCH  40  42
ATOM     42  C   UNL A   1      35.250  30.576  28.060  1.00  0.00     0.060 A 
ATOM     43  C   UNL A   1      35.430  30.432  29.413  1.00  0.00     0.016 A 
ATOM     44  C   UNL A   1      36.407  30.404  27.293  1.00  0.00     0.016 A 
ATOM     45  C   UNL A   1      36.710  30.125  29.954  1.00  0.00     0.010 A 
ATOM     46  C   UNL A   1      37.651  29.905  27.879  1.00  0.00     0.010 A 
ATOM     47  C   UNL A   1      37.811  29.667  29.257  1.00  0.00    -0.014 A 
BRANCH  47  48
ATOM     48  C   UNL A   1      39.054  29.115  30.030  1.00  0.00     0.031 A 
ATOM     49  C   UNL A   1      39.849  27.949  29.468  1.00  0.00     0.074 A 
ATOM     50  C   UNL A   1      39.788  29.720  31.018  1.00  0.00     0.049 A 
ATOM     51  N   UNL A   1      41.014  27.482  29.861  1.00  0.00    -0.248 NA
ATOM     52  C   UNL A   1      39.354  27.332  28.237  1.00  0.00     0.031 C 
ATOM     53  C   UNL A   1      39.820  31.127  31.346  1.00  0.00     0.029 A 
ATOM     54  N   UNL A   1      40.739  29.236  31.918  1.00  0.00    -0.354 N 
ATOM     55  C   UNL A   1      41.440  26.602  28.888  1.00  0.00     0.074 A 
ATOM     56  C   UNL A   1      40.387  26.571  27.888  1.00  0.00     0.031 C 
ATOM     57  C   UNL A   1      40.492  31.378  32.478  1.00  0.00     0.029 A 
ATOM     58  C   UNL A   1      41.063  30.128  32.928  1.00  0.00     0.049 A 
ATOM     59  H   UNL A   1      41.144  28.341  31.842  1.00  0.00     0.167 HD
ATOM     60  C   UNL A   1      42.582  25.871  28.833  1.00  0.00     0.037 A 
ATOM     61  C   UNL A   1      41.792  30.066  34.061  1.00  0.00     0.037 A 
ATOM     62  C   UNL A   1      43.539  25.699  29.905  1.00  0.00     0.049 A 
ATOM     63  C   UNL A   1      42.710  28.912  34.242  1.00  0.00     0.074 A 
ATOM     64  C   UNL A   1      44.568  24.769  29.984  1.00  0.00     0.029 A 
ATOM     65  N   UNL A   1      43.553  26.390  31.109  1.00  0.00    -0.354 N 
ATOM     66  N   UNL A   1      43.061  28.043  33.333  1.00  0.00    -0.248 NA
ATOM     67  C   UNL A   1      43.391  28.754  35.533  1.00  0.00     0.031 C 
ATOM     68  C   UNL A   1      45.084  24.782  31.286  1.00  0.00     0.029 A 
ATOM     69  C   UNL A   1      44.462  25.797  31.988  1.00  0.00     0.049 A 
ATOM     70  H   UNL A   1      43.004  27.181  31.313  1.00  0.00     0.167 HD
ATOM     71  C   UNL A   1      44.022  27.251  33.922  1.00  0.00     0.074 A 
ATOM     72  C   UNL A   1      44.224  27.756  35.264  1.00  0.00     0.031 C 
ATOM     73  C   UNL A   1      44.666  26.204  33.359  1.00  0.00     0.037 A 
BRANCH  60  74
ATOM     74  C   UNL A   1      42.754  25.012  27.619  1.00  0.00     0.064 A 
ATOM     75  C   UNL A   1      42.063  23.806  27.440  1.00  0.00     0.173 A 
ATOM     76  C   UNL A   1      43.632  25.433  26.608  1.00  0.00     0.173 A 
ATOM     77  F   UNL A   1      41.224  23.358  28.384  1.00  0.00    -0.203 F 
ATOM     78  C   UNL A   1      42.260  23.042  26.289  1.00  0.00     0.198 A 
ATOM     79  C   UNL A   1      43.816  24.674  25.459  1.00  0.00     0.198 A 
ATOM     80  F   UNL A   1      44.309  26.582  26.743  1.00  0.00    -0.203 F 
ATOM     81  F   UNL A   1      41.616  21.876  26.140  1.00  0.00    -0.200 F 
ATOM     82  C   UNL A   1      43.136  23.477  25.303  1.00  0.00     0.200 A 
ATOM     83  F   UNL A   1      44.660  25.100  24.510  1.00  0.00    -0.200 F 
ATOM     84  F   UNL A   1      43.334  22.735  24.205  1.00  0.00    -0.200 F 
ENDBRANCH  60  74
BRANCH  61  85
ATOM     85  C   UNL A   1      41.661  31.138  35.097  1.00  0.00     0.064 A 
ATOM     86  C   UNL A   1      40.557  31.251  35.953  1.00  0.00     0.173 A 
ATOM     87  C   UNL A   1      42.668  32.115  35.217  1.00  0.00     0.173 A 
ATOM     88  F   UNL A   1      39.551  30.368  35.875  1.00  0.00    -0.203 F 
ATOM     89  C   UNL A   1      40.462  32.296  36.877  1.00  0.00     0.198 A 
ATOM     90  C   UNL A   1      42.585  33.140  36.156  1.00  0.00     0.198 A 
ATOM     91  F   UNL A   1      43.737  32.080  34.406  1.00  0.00    -0.203 F 
ATOM     92  F   UNL A   1      39.377  32.404  37.655  1.00  0.00    -0.200 F 
ATOM     93  C   UNL A   1      41.478  33.235  36.981  1.00  0.00     0.200 A 
ATOM     94  F   UNL A   1      43.572  34.042  36.250  1.00  0.00    -0.200 F 
ATOM     95  F   UNL A   1      41.384  34.237  37.867  1.00  0.00    -0.200 F 
ENDBRANCH  61  85
BRANCH  73  96
ATOM     96  C   UNL A   1      45.623  25.446  34.230  1.00  0.00     0.064 A 
ATOM     97  C   UNL A   1      46.977  25.811  34.305  1.00  0.00     0.173 A 
ATOM     98  C   UNL A   1      45.199  24.354  35.003  1.00  0.00     0.173 A 
ATOM     99  F   UNL A   1      47.441  26.836  33.574  1.00  0.00    -0.203 F 
ATOM    100  C   UNL A   1      47.875  25.097  35.093  1.00  0.00     0.198 A 
ATOM    101  C   UNL A   1      46.093  23.663  35.818  1.00  0.00     0.198 A 
ATOM    102  F   UNL A   1      43.919  23.956  34.970  1.00  0.00    -0.203 F 
ATOM    103  F   UNL A   1      49.172  25.430  35.098  1.00  0.00    -0.200 F 
ATOM    104  C   UNL A   1      47.430  24.028  35.856  1.00  0.00     0.200 A 
ATOM    105  F   UNL A   1      45.660  22.638  36.565  1.00  0.00    -0.200 F 
ATOM    106  F   UNL A   1      48.293  23.344  36.619  1.00  0.00    -0.200 F 
ENDBRANCH  73  96
ENDBRANCH  47  48
ENDBRANCH  40  42
ENDBRANCH  39  40
ENDBRANCH  38  39
ENDBRANCH   1  38
TORSDOF 16
ENDMDL
MODEL 3
REMARK VINA RESULT:     -12.2      4.610      9.760
REMARK SMILES O=C(Nc1ccc(N2CC[NH+](CC(=O)N3CCOCC3)CC2)c(C(=O)OCCOC(=O)c2ccc(-c3c4nc(c(-c5c(F)c(F)c(F)c(F)c5F)c5ccc([nH]5)c(-c5c(F)c(F)c(F)c(F)c5F)c5nc(c(-c6c(F)c(F)c(F)c(F)c6F)c6ccc3[nH]6)C=C5)C=C4)cc2)c1)c1cccc(Cl)c1
REMARK SMILES IDX 27 1 26 2 24 3 25 4 23 5 4 6 5 7 95 8 6 9 7 10 3 11 1 12
REMARK SMILES IDX 2 13 96 15 97 16 102 17 98 18 100 19 99 20 101 21 8 22 9 23
REMARK SMILES IDX 22 24 10 25 21 26 11 27 12 29 13 30 14 31 15 32 16 33 20 34
REMARK SMILES IDX 17 35 19 36 18 37 28 38 29 39 30 40 31 41 32 42 33 43 94 44
REMARK SMILES IDX 34 45 93 46 35 47 36 48 37 49 87 50 38 51 92 52 86 53 88 54
REMARK SMILES IDX 39 55 91 56 85 57 84 58 40 60 72 61 52 62 71 63 53 64 56 65
REMARK SMILES IDX 70 66 89 67 54 68 55 69 69 71 90 72 57 73 41 74 42 75 50 76
REMARK SMILES IDX 43 77 44 78 48 79 51 80 45 81 46 82 49 83 47 84 73 85 74 86
REMARK SMILES IDX 82 87 75 88 76 89 80 90 83 91 77 92 78 93 81 94 79 95 58 96
REMARK SMILES IDX 59 97 67 98 60 99 61 100 65 101 68 102 62 103 63 104 66 105
REMARK SMILES IDX 64 106
REMARK H PARENT 3 14 11 28 88 59 56 70
REMARK Flexibility Score: inf
ROOT
ATOM      1  C   UNL A   1      36.254  22.886  25.887  1.00  0.00     0.275 C 
ENDROOT
BRANCH   1   2
ATOM      2  O   UNL A   1      36.084  23.935  24.913  1.00  0.00    -0.458 OA
BRANCH   2   3
ATOM      3  C   UNL A   1      35.142  24.859  25.254  1.00  0.00     0.340 C 
ATOM      4  O   UNL A   1      35.038  25.429  26.316  1.00  0.00    -0.246 OA
BRANCH   3   5
ATOM      5  C   UNL A   1      34.278  25.072  24.073  1.00  0.00     0.085 A 
ATOM      6  C   UNL A   1      33.267  23.970  22.178  1.00  0.00     0.042 A 
ATOM      7  C   UNL A   1      32.671  25.145  21.782  1.00  0.00     0.028 A 
ATOM      8  C   UNL A   1      34.210  23.982  23.201  1.00  0.00     0.044 A 
ATOM      9  C   UNL A   1      32.759  26.230  22.645  1.00  0.00     0.029 A 
ATOM     10  C   UNL A   1      33.430  26.178  23.895  1.00  0.00     0.052 A 
BRANCH   6  11
ATOM     11  N   UNL A   1      32.724  22.776  21.692  1.00  0.00    -0.322 N 
ATOM     12  O   UNL A   1      31.760  20.731  21.965  1.00  0.00    -0.269 OA
ATOM     13  C   UNL A   1      32.130  21.787  22.465  1.00  0.00     0.255 C 
ATOM     14  H   UNL A   1      32.766  22.624  20.721  1.00  0.00     0.170 HD
BRANCH  13  15
ATOM     15  C   UNL A   1      31.877  22.036  23.913  1.00  0.00     0.041 A 
ATOM     16  C   UNL A   1      30.908  22.962  24.339  1.00  0.00     0.014 A 
ATOM     17  C   UNL A   1      32.716  21.417  24.841  1.00  0.00     0.034 A 
ATOM     18  C   UNL A   1      30.845  23.333  25.683  1.00  0.00     0.002 A 
ATOM     19  C   UNL A   1      32.636  21.790  26.181  1.00  0.00     0.041 A 
ATOM     20  C   UNL A   1      31.718  22.753  26.603  1.00  0.00     0.020 A 
ATOM     21  Cl  UNL A   1      33.731  21.104  27.318  1.00  0.00    -0.084 Cl
ENDBRANCH  13  15
ENDBRANCH   6  11
BRANCH  10  22
ATOM     22  N   UNL A   1      33.210  27.181  24.833  1.00  0.00    -0.360 N 
ATOM     23  C   UNL A   1      32.199  26.967  25.910  1.00  0.00     0.178 C 
ATOM     24  C   UNL A   1      33.871  28.525  24.745  1.00  0.00     0.178 C 
ATOM     25  C   UNL A   1      31.480  28.248  26.296  1.00  0.00     0.284 C 
ATOM     26  C   UNL A   1      32.919  29.682  25.140  1.00  0.00     0.284 C 
ATOM     27  N   UNL A   1      31.513  29.212  25.207  1.00  0.00    -0.324 N 
ATOM     28  H   UNL A   1      30.805  29.915  25.414  1.00  0.00     0.348 HD
BRANCH  27  29
ATOM     29  C   UNL A   1      31.176  28.682  23.834  1.00  0.00     0.363 C 
BRANCH  29  30
ATOM     30  C   UNL A   1      29.749  28.475  23.267  1.00  0.00     0.277 C 
ATOM     31  O   UNL A   1      29.184  27.383  23.276  1.00  0.00    -0.268 OA
ATOM     32  N   UNL A   1      29.051  29.676  22.923  1.00  0.00    -0.333 N 
ATOM     33  C   UNL A   1      29.594  30.798  22.121  1.00  0.00     0.148 C 
ATOM     34  C   UNL A   1      27.595  29.763  23.137  1.00  0.00     0.148 C 
ATOM     35  C   UNL A   1      29.022  32.183  22.506  1.00  0.00     0.181 C 
ATOM     36  C   UNL A   1      27.147  31.198  23.499  1.00  0.00     0.181 C 
ATOM     37  O   UNL A   1      27.592  32.153  22.525  1.00  0.00    -0.378 OA
ENDBRANCH  29  30
ENDBRANCH  27  29
ENDBRANCH  10  22
ENDBRANCH   3   5
ENDBRANCH   2   3
ENDBRANCH   1   2
BRANCH   1  38
ATOM     38  C   UNL A   1      37.217  21.831  25.326  1.00  0.00     0.275 C 
BRANCH  38  39
ATOM     39  O   UNL A   1      38.583  22.358  25.341  1.00  0.00    -0.458 OA
BRANCH  39  40
ATOM     40  C   UNL A   1      39.364  22.057  26.420  1.00  0.00     0.338 C 
ATOM     41  O   UNL A   1      39.715  20.937  26.755  1.00  0.00    -0.246 OA
BRANCH  40  42
ATOM     42  C   UNL A   1      39.981  23.298  27.004  1.00  0.00     0.060 A 
ATOM     43  C   UNL A   1      39.839  24.432  26.245  1.00  0.00     0.016 A 
ATOM     44  C   UNL A   1      40.885  23.412  28.065  1.00  0.00     0.016 A 
ATOM     45  C   UNL A   1      40.570  25.616  26.550  1.00  0.00     0.010 A 
ATOM     46  C   UNL A   1      41.464  24.700  28.448  1.00  0.00     0.010 A 
ATOM     47  C   UNL A   1      41.245  25.886  27.724  1.00  0.00    -0.014 A 
BRANCH  47  48
ATOM     48  C   UNL A   1      41.764  27.334  28.012  1.00  0.00     0.031 A 
ATOM     49  C   UNL A   1      40.801  28.413  28.479  1.00  0.00     0.074 A 
ATOM     50  C   UNL A   1      43.050  27.756  28.236  1.00  0.00     0.049 A 
ATOM     51  N   UNL A   1      41.074  29.610  28.952  1.00  0.00    -0.248 NA
ATOM     52  C   UNL A   1      39.385  28.057  28.562  1.00  0.00     0.031 C 
ATOM     53  C   UNL A   1      44.185  26.942  28.604  1.00  0.00     0.029 A 
ATOM     54  N   UNL A   1      43.636  29.023  28.263  1.00  0.00    -0.354 N 
ATOM     55  C   UNL A   1      39.900  30.107  29.479  1.00  0.00     0.074 A 
ATOM     56  C   UNL A   1      38.891  29.089  29.239  1.00  0.00     0.031 C 
ATOM     57  C   UNL A   1      45.340  27.622  28.570  1.00  0.00     0.029 A 
ATOM     58  C   UNL A   1      45.021  29.001  28.277  1.00  0.00     0.049 A 
ATOM     59  H   UNL A   1      43.112  29.857  28.271  1.00  0.00     0.167 HD
ATOM     60  C   UNL A   1      39.669  31.299  30.085  1.00  0.00     0.037 A 
ATOM     61  C   UNL A   1      45.993  29.930  28.167  1.00  0.00     0.037 A 
ATOM     62  C   UNL A   1      40.581  32.422  30.137  1.00  0.00     0.049 A 
ATOM     63  C   UNL A   1      45.618  31.359  28.317  1.00  0.00     0.074 A 
ATOM     64  C   UNL A   1      40.297  33.730  30.510  1.00  0.00     0.029 A 
ATOM     65  N   UNL A   1      41.910  32.417  29.738  1.00  0.00    -0.354 N 
ATOM     66  N   UNL A   1      44.481  31.826  28.757  1.00  0.00    -0.248 NA
ATOM     67  C   UNL A   1      46.635  32.383  28.048  1.00  0.00     0.031 C 
ATOM     68  C   UNL A   1      41.390  34.537  30.176  1.00  0.00     0.029 A 
ATOM     69  C   UNL A   1      42.402  33.723  29.705  1.00  0.00     0.049 A 
ATOM     70  H   UNL A   1      42.429  31.612  29.513  1.00  0.00     0.167 HD
ATOM     71  C   UNL A   1      44.645  33.191  28.849  1.00  0.00     0.074 A 
ATOM     72  C   UNL A   1      46.005  33.482  28.443  1.00  0.00     0.031 C 
ATOM     73  C   UNL A   1      43.721  34.094  29.248  1.00  0.00     0.037 A 
BRANCH  60  74
ATOM     74  C   UNL A   1      38.270  31.531  30.565  1.00  0.00     0.064 A 
ATOM     75  C   UNL A   1      37.898  31.395  31.909  1.00  0.00     0.173 A 
ATOM     76  C   UNL A   1      37.287  31.912  29.638  1.00  0.00     0.173 A 
ATOM     77  F   UNL A   1      38.799  31.020  32.829  1.00  0.00    -0.203 F 
ATOM     78  C   UNL A   1      36.579  31.620  32.305  1.00  0.00     0.198 A 
ATOM     79  C   UNL A   1      35.979  32.147  30.038  1.00  0.00     0.198 A 
ATOM     80  F   UNL A   1      37.606  32.054  28.343  1.00  0.00    -0.203 F 
ATOM     81  F   UNL A   1      36.227  31.461  33.588  1.00  0.00    -0.200 F 
ATOM     82  C   UNL A   1      35.623  31.995  31.369  1.00  0.00     0.200 A 
ATOM     83  F   UNL A   1      35.062  32.511  29.132  1.00  0.00    -0.200 F 
ATOM     84  F   UNL A   1      34.354  32.199  31.748  1.00  0.00    -0.200 F 
ENDBRANCH  60  74
BRANCH  61  85
ATOM     85  C   UNL A   1      47.404  29.511  27.896  1.00  0.00     0.064 A 
ATOM     86  C   UNL A   1      47.845  29.051  26.647  1.00  0.00     0.173 A 
ATOM     87  C   UNL A   1      48.349  29.539  28.940  1.00  0.00     0.173 A 
ATOM     88  F   UNL A   1      46.990  28.975  25.617  1.00  0.00    -0.203 F 
ATOM     89  C   UNL A   1      49.164  28.631  26.456  1.00  0.00     0.198 A 
ATOM     90  C   UNL A   1      49.671  29.145  28.740  1.00  0.00     0.198 A 
ATOM     91  F   UNL A   1      47.984  29.940  30.167  1.00  0.00    -0.203 F 
ATOM     92  F   UNL A   1      49.549  28.156  25.263  1.00  0.00    -0.200 F 
ATOM     93  C   UNL A   1      50.077  28.684  27.500  1.00  0.00     0.200 A 
ATOM     94  F   UNL A   1      50.545  29.201  29.754  1.00  0.00    -0.200 F 
ATOM     95  F   UNL A   1      51.341  28.279  27.314  1.00  0.00    -0.200 F 
ENDBRANCH  61  85
BRANCH  73  96
ATOM     96  C   UNL A   1      44.116  35.540  29.192  1.00  0.00     0.064 A 
ATOM     97  C   UNL A   1      44.742  36.161  30.285  1.00  0.00     0.173 A 
ATOM     98  C   UNL A   1      43.879  36.317  28.048  1.00  0.00     0.173 A 
ATOM     99  F   UNL A   1      44.977  35.470  31.411  1.00  0.00    -0.203 F 
ATOM    100  C   UNL A   1      45.088  37.508  30.248  1.00  0.00     0.198 A 
ATOM    101  C   UNL A   1      44.259  37.658  28.002  1.00  0.00     0.198 A 
ATOM    102  F   UNL A   1      43.280  35.781  26.975  1.00  0.00    -0.203 F 
ATOM    103  F   UNL A   1      45.630  38.089  31.327  1.00  0.00    -0.200 F 
ATOM    104  C   UNL A   1      44.854  38.254  29.103  1.00  0.00     0.200 A 
ATOM    105  F   UNL A   1      44.043  38.374  26.890  1.00  0.00    -0.200 F 
ATOM    106  F   UNL A   1      45.193  39.549  29.065  1.00  0.00    -0.200 F 
ENDBRANCH  73  96
ENDBRANCH  47  48
ENDBRANCH  40  42
ENDBRANCH  39  40
ENDBRANCH  38  39
ENDBRANCH   1  38
TORSDOF 16
ENDMDL
