MODEL 1
REMARK VINA RESULT:     -14.1      0.000      0.000
REMARK SMILES Cc1ccc2c(c1)[C@@]1([NH2+][C@@H](CCC(=O)OCCOC(=O)c3ccc(-c4c5nc(c(-c6c(F)c(F)c(F)c(F)c6F)c6ccc([nH]6)c(-c6c(F)c(F)c(F)c(F)c6F)c6nc(c(-c7c(F)c(F)c(F)c(F)c7F)c7ccc4[nH]7)C=C6)C=C5)cc3)[C@H]3C(=O)N(Cc4ccccc4)C(=O)[C@H]31)C(=O)N2
REMARK SMILES IDX 16 1 15 2 13 3 14 4 12 5 11 6 10 7 1 8 2 9 3 10 7 11 4 12
REMARK SMILES IDX 6 13 5 14 8 15 100 16 9 17 97 18 98 19 84 23 95 24 99 25
REMARK SMILES IDX 85 26 87 27 96 28 86 29 88 30 89 31 90 32 94 33 91 34 93 35
REMARK SMILES IDX 92 36 17 37 18 38 19 39 20 40 21 41 22 42 83 43 23 44 82 45
REMARK SMILES IDX 24 46 25 47 26 48 76 49 27 50 81 51 75 52 77 53 28 54 80 55
REMARK SMILES IDX 74 56 73 57 29 59 61 60 41 61 60 62 42 63 45 64 59 65 78 66
REMARK SMILES IDX 43 67 44 68 58 70 79 71 46 72 30 73 31 74 39 75 32 76 33 77
REMARK SMILES IDX 37 78 40 79 34 80 35 81 38 82 36 83 62 84 63 85 71 86 64 87
REMARK SMILES IDX 65 88 69 89 72 90 66 91 67 92 70 93 68 94 47 95 48 96 56 97
REMARK SMILES IDX 49 98 50 99 54 100 57 101 51 102 52 103 55 104 53 105
REMARK H PARENT 100 20 9 21 9 22 77 58 45 69
REMARK Flexibility Score: inf
ROOT
ATOM      1  C   UNL A   1      38.870  20.292  25.289  1.00  0.00     0.274 C 
ENDROOT
BRANCH   1   2
ATOM      2  O   UNL A   1      38.945  21.584  25.941  1.00  0.00    -0.462 OA
BRANCH   2   3
ATOM      3  C   UNL A   1      37.958  22.480  25.767  1.00  0.00     0.306 C 
ATOM      4  O   UNL A   1      38.022  23.645  26.140  1.00  0.00    -0.252 OA
BRANCH   3   5
ATOM      5  C   UNL A   1      36.718  21.863  25.126  1.00  0.00     0.129 C 
BRANCH   5   6
ATOM      6  C   UNL A   1      36.044  22.622  23.985  1.00  0.00     0.077 C 
BRANCH   6   7
ATOM      7  C   UNL A   1      34.963  23.689  24.292  1.00  0.00     0.197 C 
ATOM      8  C   UNL A   1      34.677  29.125  26.459  1.00  0.00     0.044 C 
ATOM      9  C   UNL A   1      33.645  28.033  26.430  1.00  0.00    -0.050 A 
ATOM     10  C   UNL A   1      32.348  28.287  26.930  1.00  0.00     0.005 A 
ATOM     11  C   UNL A   1      33.984  26.752  25.957  1.00  0.00     0.016 A 
ATOM     12  C   UNL A   1      31.392  27.273  27.002  1.00  0.00     0.027 A 
ATOM     13  C   UNL A   1      33.023  25.757  25.998  1.00  0.00     0.047 A 
ATOM     14  C   UNL A   1      31.766  26.025  26.560  1.00  0.00     0.051 A 
ATOM     15  C   UNL A   1      32.983  24.362  25.417  1.00  0.00     0.216 C 
ATOM     16  N   UNL A   1      31.017  24.861  26.640  1.00  0.00    -0.320 N 
ATOM     17  N   UNL A   1      34.188  23.502  25.542  1.00  0.00    -0.326 N 
ATOM     18  C   UNL A   1      32.682  24.462  23.928  1.00  0.00     0.174 C 
ATOM     19  C   UNL A   1      31.752  23.775  26.186  1.00  0.00     0.291 C 
ATOM     20  H   UNL A   1      30.092  24.811  26.974  1.00  0.00     0.170 HD
ATOM     21  H   UNL A   1      33.915  22.524  25.646  1.00  0.00     0.347 HD
ATOM     22  H   UNL A   1      34.739  23.755  26.362  1.00  0.00     0.347 HD
ATOM     23  C   UNL A   1      33.989  24.160  23.202  1.00  0.00     0.157 C 
ATOM     24  C   UNL A   1      31.765  23.338  23.489  1.00  0.00     0.240 C 
ATOM     25  O   UNL A   1      31.465  22.597  26.319  1.00  0.00    -0.267 OA
ATOM     26  C   UNL A   1      33.419  23.213  22.189  1.00  0.00     0.239 C 
ATOM     27  N   UNL A   1      32.500  22.433  22.801  1.00  0.00    -0.277 N 
ATOM     28  O   UNL A   1      30.552  23.346  23.628  1.00  0.00    -0.274 OA
ATOM     29  O   UNL A   1      33.518  23.386  20.981  1.00  0.00    -0.274 OA
BRANCH  27  30
ATOM     30  C   UNL A   1      31.956  21.173  22.300  1.00  0.00     0.164 C 
BRANCH  30  31
ATOM     31  C   UNL A   1      32.522  19.973  23.059  1.00  0.00    -0.028 A 
ATOM     32  C   UNL A   1      32.374  18.668  22.561  1.00  0.00     0.005 A 
ATOM     33  C   UNL A   1      33.272  20.134  24.236  1.00  0.00     0.005 A 
ATOM     34  C   UNL A   1      33.049  17.586  23.146  1.00  0.00     0.000 A 
ATOM     35  C   UNL A   1      33.933  19.050  24.831  1.00  0.00     0.000 A 
ATOM     36  C   UNL A   1      33.842  17.779  24.271  1.00  0.00     0.000 A 
ENDBRANCH  30  31
ENDBRANCH  27  30
ENDBRANCH   6   7
ENDBRANCH   5   6
ENDBRANCH   3   5
ENDBRANCH   2   3
ENDBRANCH   1   2
BRANCH   1  37
ATOM     37  C   UNL A   1      39.661  19.288  26.120  1.00  0.00     0.275 C 
BRANCH  37  38
ATOM     38  O   UNL A   1      40.991  19.202  25.586  1.00  0.00    -0.458 OA
BRANCH  38  39
ATOM     39  C   UNL A   1      41.997  19.300  26.497  1.00  0.00     0.338 C 
ATOM     40  O   UNL A   1      42.674  18.414  26.953  1.00  0.00    -0.246 OA
BRANCH  39  41
ATOM     41  C   UNL A   1      42.302  20.741  26.619  1.00  0.00     0.060 A 
ATOM     42  C   UNL A   1      42.289  21.358  27.869  1.00  0.00     0.016 A 
ATOM     43  C   UNL A   1      42.488  21.489  25.450  1.00  0.00     0.016 A 
ATOM     44  C   UNL A   1      42.420  22.740  27.942  1.00  0.00     0.010 A 
ATOM     45  C   UNL A   1      42.576  22.874  25.518  1.00  0.00     0.010 A 
ATOM     46  C   UNL A   1      42.549  23.500  26.767  1.00  0.00    -0.014 A 
BRANCH  46  47
ATOM     47  C   UNL A   1      42.860  24.932  26.885  1.00  0.00     0.031 A 
ATOM     48  C   UNL A   1      41.920  25.889  27.533  1.00  0.00     0.074 A 
ATOM     49  C   UNL A   1      44.061  25.317  26.426  1.00  0.00     0.049 A 
ATOM     50  N   UNL A   1      42.149  27.115  27.924  1.00  0.00    -0.248 NA
ATOM     51  C   UNL A   1      40.545  25.423  27.765  1.00  0.00     0.031 C 
ATOM     52  C   UNL A   1      45.003  24.440  25.726  1.00  0.00     0.029 A 
ATOM     53  N   UNL A   1      44.710  26.517  26.505  1.00  0.00    -0.354 N 
ATOM     54  C   UNL A   1      40.962  27.559  28.485  1.00  0.00     0.074 A 
ATOM     55  C   UNL A   1      39.993  26.494  28.326  1.00  0.00     0.031 C 
ATOM     56  C   UNL A   1      46.134  25.116  25.487  1.00  0.00     0.029 A 
ATOM     57  C   UNL A   1      45.990  26.468  26.014  1.00  0.00     0.049 A 
ATOM     58  H   UNL A   1      44.303  27.332  26.878  1.00  0.00     0.167 HD
ATOM     59  C   UNL A   1      40.730  28.746  29.096  1.00  0.00     0.037 A 
ATOM     60  C   UNL A   1      46.954  27.405  26.026  1.00  0.00     0.037 A 
ATOM     61  C   UNL A   1      41.719  29.789  29.210  1.00  0.00     0.049 A 
ATOM     62  C   UNL A   1      46.666  28.712  26.704  1.00  0.00     0.074 A 
ATOM     63  C   UNL A   1      41.616  31.014  29.845  1.00  0.00     0.029 A 
ATOM     64  N   UNL A   1      42.995  29.731  28.660  1.00  0.00    -0.354 N 
ATOM     65  N   UNL A   1      45.582  29.090  27.337  1.00  0.00    -0.248 NA
ATOM     66  C   UNL A   1      47.735  29.716  26.683  1.00  0.00     0.031 C 
ATOM     67  C   UNL A   1      42.806  31.717  29.633  1.00  0.00     0.029 A 
ATOM     68  C   UNL A   1      43.675  30.911  28.913  1.00  0.00     0.049 A 
ATOM     69  H   UNL A   1      43.361  28.964  28.164  1.00  0.00     0.167 HD
ATOM     70  C   UNL A   1      45.837  30.371  27.800  1.00  0.00     0.074 A 
ATOM     71  C   UNL A   1      47.192  30.694  27.396  1.00  0.00     0.031 C 
ATOM     72  C   UNL A   1      45.022  31.207  28.490  1.00  0.00     0.037 A 
BRANCH  59  73
ATOM     73  C   UNL A   1      39.379  28.976  29.708  1.00  0.00     0.064 A 
ATOM     74  C   UNL A   1      39.110  28.608  31.036  1.00  0.00     0.173 A 
ATOM     75  C   UNL A   1      38.371  29.651  29.002  1.00  0.00     0.173 A 
ATOM     76  F   UNL A   1      40.038  27.961  31.758  1.00  0.00    -0.203 F 
ATOM     77  C   UNL A   1      37.882  28.895  31.628  1.00  0.00     0.198 A 
ATOM     78  C   UNL A   1      37.154  29.960  29.604  1.00  0.00     0.198 A 
ATOM     79  F   UNL A   1      38.577  30.037  27.733  1.00  0.00    -0.203 F 
ATOM     80  F   UNL A   1      37.642  28.510  32.888  1.00  0.00    -0.200 F 
ATOM     81  C   UNL A   1      36.909  29.578  30.915  1.00  0.00     0.200 A 
ATOM     82  F   UNL A   1      36.221  30.636  28.921  1.00  0.00    -0.200 F 
ATOM     83  F   UNL A   1      35.735  29.871  31.493  1.00  0.00    -0.200 F 
ENDBRANCH  59  73
BRANCH  60  84
ATOM     84  C   UNL A   1      48.282  27.083  25.451  1.00  0.00     0.064 A 
ATOM     85  C   UNL A   1      48.561  27.336  24.102  1.00  0.00     0.173 A 
ATOM     86  C   UNL A   1      49.322  26.589  26.253  1.00  0.00     0.173 A 
ATOM     87  F   UNL A   1      47.598  27.807  23.296  1.00  0.00    -0.203 F 
ATOM     88  C   UNL A   1      49.828  27.100  23.573  1.00  0.00     0.198 A 
ATOM     89  C   UNL A   1      50.596  26.379  25.730  1.00  0.00     0.198 A 
ATOM     90  F   UNL A   1      49.110  26.350  27.555  1.00  0.00    -0.203 F 
ATOM     91  F   UNL A   1      50.063  27.329  22.275  1.00  0.00    -0.200 F 
ATOM     92  C   UNL A   1      50.846  26.631  24.390  1.00  0.00     0.200 A 
ATOM     93  F   UNL A   1      51.582  25.950  26.529  1.00  0.00    -0.200 F 
ATOM     94  F   UNL A   1      52.070  26.423  23.885  1.00  0.00    -0.200 F 
ENDBRANCH  60  84
BRANCH  72  95
ATOM     95  C   UNL A   1      45.570  32.559  28.839  1.00  0.00     0.064 A 
ATOM     96  C   UNL A   1      46.356  32.751  29.985  1.00  0.00     0.173 A 
ATOM     97  C   UNL A   1      45.377  33.651  27.980  1.00  0.00     0.173 A 
ATOM     98  F   UNL A   1      46.555  31.739  30.844  1.00  0.00    -0.203 F 
ATOM     99  C   UNL A   1      46.922  33.990  30.263  1.00  0.00     0.198 A 
ATOM    100  C   UNL A   1      45.970  34.881  28.246  1.00  0.00     0.198 A 
ATOM    101  F   UNL A   1      44.638  33.516  26.869  1.00  0.00    -0.203 F 
ATOM    102  F   UNL A   1      47.643  34.161  31.380  1.00  0.00    -0.200 F 
ATOM    103  C   UNL A   1      46.739  35.051  29.388  1.00  0.00     0.200 A 
ATOM    104  F   UNL A   1      45.807  35.900  27.391  1.00  0.00    -0.200 F 
ATOM    105  F   UNL A   1      47.303  36.238  29.645  1.00  0.00    -0.200 F 
ENDBRANCH  72  95
ENDBRANCH  46  47
ENDBRANCH  39  41
ENDBRANCH  38  39
ENDBRANCH  37  38
ENDBRANCH   1  37
TORSDOF 15
ENDMDL
MODEL 2
REMARK VINA RESULT:     -14.0      5.444      9.147
REMARK SMILES Cc1ccc2c(c1)[C@@]1([NH2+][C@@H](CCC(=O)OCCOC(=O)c3ccc(-c4c5nc(c(-c6c(F)c(F)c(F)c(F)c6F)c6ccc([nH]6)c(-c6c(F)c(F)c(F)c(F)c6F)c6nc(c(-c7c(F)c(F)c(F)c(F)c7F)c7ccc4[nH]7)C=C6)C=C5)cc3)[C@H]3C(=O)N(Cc4ccccc4)C(=O)[C@H]31)C(=O)N2
REMARK SMILES IDX 16 1 15 2 13 3 14 4 12 5 11 6 10 7 1 8 2 9 3 10 7 11 4 12
REMARK SMILES IDX 6 13 5 14 8 15 100 16 9 17 97 18 98 19 84 23 95 24 99 25
REMARK SMILES IDX 85 26 87 27 96 28 86 29 88 30 89 31 90 32 94 33 91 34 93 35
REMARK SMILES IDX 92 36 17 37 18 38 19 39 20 40 21 41 22 42 83 43 23 44 82 45
REMARK SMILES IDX 24 46 25 47 26 48 76 49 27 50 81 51 75 52 77 53 28 54 80 55
REMARK SMILES IDX 74 56 73 57 29 59 61 60 41 61 60 62 42 63 45 64 59 65 78 66
REMARK SMILES IDX 43 67 44 68 58 70 79 71 46 72 30 73 31 74 39 75 32 76 33 77
REMARK SMILES IDX 37 78 40 79 34 80 35 81 38 82 36 83 62 84 63 85 71 86 64 87
REMARK SMILES IDX 65 88 69 89 72 90 66 91 67 92 70 93 68 94 47 95 48 96 56 97
REMARK SMILES IDX 49 98 50 99 54 100 57 101 51 102 52 103 55 104 53 105
REMARK H PARENT 100 20 9 21 9 22 77 58 45 69
REMARK Flexibility Score: inf
ROOT
ATOM      1  C   UNL A   1      31.876  31.866  26.720  1.00  0.00     0.274 C 
ENDROOT
BRANCH   1   2
ATOM      2  O   UNL A   1      32.627  31.113  27.705  1.00  0.00    -0.462 OA
BRANCH   2   3
ATOM      3  C   UNL A   1      33.852  30.650  27.401  1.00  0.00     0.306 C 
ATOM      4  O   UNL A   1      34.857  31.349  27.372  1.00  0.00    -0.252 OA
BRANCH   3   5
ATOM      5  C   UNL A   1      33.837  29.172  27.019  1.00  0.00     0.129 C 
BRANCH   5   6
ATOM      6  C   UNL A   1      33.934  28.811  25.539  1.00  0.00     0.077 C 
BRANCH   6   7
ATOM      7  C   UNL A   1      32.742  29.094  24.589  1.00  0.00     0.197 C 
ATOM      8  C   UNL A   1      28.971  33.438  23.478  1.00  0.00     0.044 C 
ATOM      9  C   UNL A   1      28.839  31.956  23.265  1.00  0.00    -0.050 A 
ATOM     10  C   UNL A   1      27.677  31.441  22.647  1.00  0.00     0.005 A 
ATOM     11  C   UNL A   1      29.843  31.084  23.725  1.00  0.00     0.016 A 
ATOM     12  C   UNL A   1      27.480  30.067  22.513  1.00  0.00     0.027 A 
ATOM     13  C   UNL A   1      29.660  29.722  23.560  1.00  0.00     0.047 A 
ATOM     14  C   UNL A   1      28.467  29.242  23.001  1.00  0.00     0.051 A 
ATOM     15  C   UNL A   1      30.587  28.543  23.756  1.00  0.00     0.216 C 
ATOM     16  N   UNL A   1      28.427  27.857  23.069  1.00  0.00    -0.320 N 
ATOM     17  N   UNL A   1      31.438  28.501  24.973  1.00  0.00    -0.326 N 
ATOM     18  C   UNL A   1      31.536  28.466  22.568  1.00  0.00     0.174 C 
ATOM     19  C   UNL A   1      29.556  27.367  23.711  1.00  0.00     0.291 C 
ATOM     20  H   UNL A   1      27.699  27.299  22.712  1.00  0.00     0.170 HD
ATOM     21  H   UNL A   1      31.565  27.536  25.282  1.00  0.00     0.347 HD
ATOM     22  H   UNL A   1      31.009  29.014  25.743  1.00  0.00     0.347 HD
ATOM     23  C   UNL A   1      32.894  28.947  23.068  1.00  0.00     0.157 C 
ATOM     24  C   UNL A   1      31.792  27.024  22.179  1.00  0.00     0.240 C 
ATOM     25  O   UNL A   1      29.725  26.228  24.114  1.00  0.00    -0.267 OA
ATOM     26  C   UNL A   1      33.711  27.848  22.459  1.00  0.00     0.239 C 
ATOM     27  N   UNL A   1      33.035  26.685  22.595  1.00  0.00    -0.277 N 
ATOM     28  O   UNL A   1      31.040  26.354  21.488  1.00  0.00    -0.274 OA
ATOM     29  O   UNL A   1      34.629  28.051  21.675  1.00  0.00    -0.274 OA
BRANCH  27  30
ATOM     30  C   UNL A   1      33.585  25.338  22.462  1.00  0.00     0.164 C 
BRANCH  30  31
ATOM     31  C   UNL A   1      34.019  24.770  23.814  1.00  0.00    -0.028 A 
ATOM     32  C   UNL A   1      33.365  25.144  24.998  1.00  0.00     0.005 A 
ATOM     33  C   UNL A   1      35.033  23.802  23.913  1.00  0.00     0.005 A 
ATOM     34  C   UNL A   1      33.628  24.490  26.211  1.00  0.00     0.000 A 
ATOM     35  C   UNL A   1      35.308  23.160  25.129  1.00  0.00     0.000 A 
ATOM     36  C   UNL A   1      34.588  23.486  26.274  1.00  0.00     0.000 A 
ENDBRANCH  30  31
ENDBRANCH  27  30
ENDBRANCH   6   7
ENDBRANCH   5   6
ENDBRANCH   3   5
ENDBRANCH   2   3
ENDBRANCH   1   2
BRANCH   1  37
ATOM     37  C   UNL A   1      32.166  33.350  26.927  1.00  0.00     0.275 C 
BRANCH  37  38
ATOM     38  O   UNL A   1      32.184  33.618  28.336  1.00  0.00    -0.458 OA
BRANCH  38  39
ATOM     39  C   UNL A   1      32.900  34.711  28.717  1.00  0.00     0.338 C 
ATOM     40  O   UNL A   1      32.529  35.855  28.780  1.00  0.00    -0.246 OA
BRANCH  39  41
ATOM     41  C   UNL A   1      34.151  34.196  29.314  1.00  0.00     0.060 A 
ATOM     42  C   UNL A   1      35.387  34.590  28.804  1.00  0.00     0.016 A 
ATOM     43  C   UNL A   1      34.064  33.224  30.317  1.00  0.00     0.016 A 
ATOM     44  C   UNL A   1      36.539  33.972  29.274  1.00  0.00     0.010 A 
ATOM     45  C   UNL A   1      35.211  32.574  30.758  1.00  0.00     0.010 A 
ATOM     46  C   UNL A   1      36.452  32.955  30.239  1.00  0.00    -0.014 A 
BRANCH  46  47
ATOM     47  C   UNL A   1      37.694  32.447  30.841  1.00  0.00     0.031 A 
ATOM     48  C   UNL A   1      38.146  32.881  32.192  1.00  0.00     0.074 A 
ATOM     49  C   UNL A   1      38.366  31.530  30.127  1.00  0.00     0.049 A 
ATOM     50  N   UNL A   1      39.074  32.353  32.947  1.00  0.00    -0.248 NA
ATOM     51  C   UNL A   1      37.490  34.062  32.771  1.00  0.00     0.031 C 
ATOM     52  C   UNL A   1      38.008  31.109  28.770  1.00  0.00     0.029 A 
ATOM     53  N   UNL A   1      39.456  30.768  30.442  1.00  0.00    -0.354 N 
ATOM     54  C   UNL A   1      39.089  33.108  34.109  1.00  0.00     0.074 A 
ATOM     55  C   UNL A   1      38.122  34.174  33.934  1.00  0.00     0.031 C 
ATOM     56  C   UNL A   1      38.829  30.122  28.389  1.00  0.00     0.029 A 
ATOM     57  C   UNL A   1      39.767  29.850  29.472  1.00  0.00     0.049 A 
ATOM     58  H   UNL A   1      39.963  30.866  31.280  1.00  0.00     0.167 HD
ATOM     59  C   UNL A   1      39.833  32.898  35.222  1.00  0.00     0.037 A 
ATOM     60  C   UNL A   1      40.687  28.870  29.477  1.00  0.00     0.037 A 
ATOM     61  C   UNL A   1      40.802  31.837  35.343  1.00  0.00     0.049 A 
ATOM     62  C   UNL A   1      41.501  28.666  30.720  1.00  0.00     0.074 A 
ATOM     63  C   UNL A   1      41.582  31.498  36.433  1.00  0.00     0.029 A 
ATOM     64  N   UNL A   1      41.132  30.950  34.325  1.00  0.00    -0.354 N 
ATOM     65  N   UNL A   1      41.435  29.307  31.863  1.00  0.00    -0.248 NA
ATOM     66  C   UNL A   1      42.506  27.598  30.683  1.00  0.00     0.031 C 
ATOM     67  C   UNL A   1      42.421  30.444  36.059  1.00  0.00     0.029 A 
ATOM     68  C   UNL A   1      42.127  30.086  34.752  1.00  0.00     0.049 A 
ATOM     69  H   UNL A   1      40.719  30.937  33.431  1.00  0.00     0.167 HD
ATOM     70  C   UNL A   1      42.380  28.717  32.687  1.00  0.00     0.074 A 
ATOM     71  C   UNL A   1      42.987  27.646  31.918  1.00  0.00     0.031 C 
ATOM     72  C   UNL A   1      42.719  29.035  33.960  1.00  0.00     0.037 A 
BRANCH  59  73
ATOM     73  C   UNL A   1      39.619  33.805  36.399  1.00  0.00     0.064 A 
ATOM     74  C   UNL A   1      38.802  33.420  37.473  1.00  0.00     0.173 A 
ATOM     75  C   UNL A   1      40.303  35.025  36.505  1.00  0.00     0.173 A 
ATOM     76  F   UNL A   1      38.124  32.263  37.425  1.00  0.00    -0.203 F 
ATOM     77  C   UNL A   1      38.667  34.227  38.601  1.00  0.00     0.198 A 
ATOM     78  C   UNL A   1      40.188  35.818  37.645  1.00  0.00     0.198 A 
ATOM     79  F   UNL A   1      41.108  35.438  35.514  1.00  0.00    -0.203 F 
ATOM     80  F   UNL A   1      37.861  33.848  39.601  1.00  0.00    -0.200 F 
ATOM     81  C   UNL A   1      39.368  35.420  38.690  1.00  0.00     0.200 A 
ATOM     82  F   UNL A   1      40.880  36.961  37.738  1.00  0.00    -0.200 F 
ATOM     83  F   UNL A   1      39.254  36.185  39.784  1.00  0.00    -0.200 F 
ENDBRANCH  59  73
BRANCH  60  84
ATOM     84  C   UNL A   1      40.800  27.979  28.297  1.00  0.00     0.064 A 
ATOM     85  C   UNL A   1      41.604  28.333  27.205  1.00  0.00     0.173 A 
ATOM     86  C   UNL A   1      40.173  26.724  28.268  1.00  0.00     0.173 A 
ATOM     87  F   UNL A   1      42.223  29.522  27.187  1.00  0.00    -0.203 F 
ATOM     88  C   UNL A   1      41.769  27.470  26.125  1.00  0.00     0.198 A 
ATOM     89  C   UNL A   1      40.360  25.851  27.200  1.00  0.00     0.198 A 
ATOM     90  F   UNL A   1      39.409  26.332  29.300  1.00  0.00    -0.203 F 
ATOM     91  F   UNL A   1      42.524  27.841  25.083  1.00  0.00    -0.200 F 
ATOM     92  C   UNL A   1      41.154  26.226  26.128  1.00  0.00     0.200 A 
ATOM     93  F   UNL A   1      39.786  24.640  27.220  1.00  0.00    -0.200 F 
ATOM     94  F   UNL A   1      41.330  25.387  25.098  1.00  0.00    -0.200 F 
ENDBRANCH  60  84
BRANCH  72  95
ATOM     95  C   UNL A   1      43.809  28.225  34.599  1.00  0.00     0.064 A 
ATOM     96  C   UNL A   1      45.145  28.647  34.561  1.00  0.00     0.173 A 
ATOM     97  C   UNL A   1      43.502  27.064  35.325  1.00  0.00     0.173 A 
ATOM     98  F   UNL A   1      45.488  29.743  33.866  1.00  0.00    -0.203 F 
ATOM     99  C   UNL A   1      46.139  27.930  35.218  1.00  0.00     0.198 A 
ATOM    100  C   UNL A   1      44.495  26.367  36.006  1.00  0.00     0.198 A 
ATOM    101  F   UNL A   1      42.238  26.625  35.396  1.00  0.00    -0.203 F 
ATOM    102  F   UNL A   1      47.415  28.332  35.142  1.00  0.00    -0.200 F 
ATOM    103  C   UNL A   1      45.812  26.798  35.950  1.00  0.00     0.200 A 
ATOM    104  F   UNL A   1      44.175  25.284  36.727  1.00  0.00    -0.200 F 
ATOM    105  F   UNL A   1      46.767  26.121  36.602  1.00  0.00    -0.200 F 
ENDBRANCH  72  95
ENDBRANCH  46  47
ENDBRANCH  39  41
ENDBRANCH  38  39
ENDBRANCH  37  38
ENDBRANCH   1  37
TORSDOF 15
ENDMDL
MODEL 3
REMARK VINA RESULT:     -14.0      0.753      7.105
REMARK SMILES Cc1ccc2c(c1)[C@@]1([NH2+][C@@H](CCC(=O)OCCOC(=O)c3ccc(-c4c5nc(c(-c6c(F)c(F)c(F)c(F)c6F)c6ccc([nH]6)c(-c6c(F)c(F)c(F)c(F)c6F)c6nc(c(-c7c(F)c(F)c(F)c(F)c7F)c7ccc4[nH]7)C=C6)C=C5)cc3)[C@H]3C(=O)N(Cc4ccccc4)C(=O)[C@H]31)C(=O)N2
REMARK SMILES IDX 16 1 15 2 13 3 14 4 12 5 11 6 10 7 1 8 2 9 3 10 7 11 4 12
REMARK SMILES IDX 6 13 5 14 8 15 100 16 9 17 97 18 98 19 84 23 95 24 99 25
REMARK SMILES IDX 85 26 87 27 96 28 86 29 88 30 89 31 90 32 94 33 91 34 93 35
REMARK SMILES IDX 92 36 17 37 18 38 19 39 20 40 21 41 22 42 83 43 23 44 82 45
REMARK SMILES IDX 24 46 25 47 26 48 76 49 27 50 81 51 75 52 77 53 28 54 80 55
REMARK SMILES IDX 74 56 73 57 29 59 61 60 41 61 60 62 42 63 45 64 59 65 78 66
REMARK SMILES IDX 43 67 44 68 58 70 79 71 46 72 30 73 31 74 39 75 32 76 33 77
REMARK SMILES IDX 37 78 40 79 34 80 35 81 38 82 36 83 62 84 63 85 71 86 64 87
REMARK SMILES IDX 65 88 69 89 72 90 66 91 67 92 70 93 68 94 47 95 48 96 56 97
REMARK SMILES IDX 49 98 50 99 54 100 57 101 51 102 52 103 55 104 53 105
REMARK H PARENT 100 20 9 21 9 22 77 58 45 69
REMARK Flexibility Score: inf
ROOT
ATOM      1  C   UNL A   1      38.465  20.096  25.183  1.00  0.00     0.274 C 
ENDROOT
BRANCH   1   2
ATOM      2  O   UNL A   1      38.748  21.460  25.581  1.00  0.00    -0.462 OA
BRANCH   2   3
ATOM      3  C   UNL A   1      37.765  22.378  25.570  1.00  0.00     0.306 C 
ATOM      4  O   UNL A   1      37.801  23.422  26.211  1.00  0.00    -0.252 OA
BRANCH   3   5
ATOM      5  C   UNL A   1      36.566  21.937  24.736  1.00  0.00     0.129 C 
BRANCH   5   6
ATOM      6  C   UNL A   1      36.021  22.908  23.691  1.00  0.00     0.077 C 
BRANCH   6   7
ATOM      7  C   UNL A   1      34.903  23.913  24.071  1.00  0.00     0.197 C 
ATOM      8  C   UNL A   1      34.450  29.296  26.338  1.00  0.00     0.044 C 
ATOM      9  C   UNL A   1      33.476  28.152  26.345  1.00  0.00    -0.050 A 
ATOM     10  C   UNL A   1      32.195  28.330  26.915  1.00  0.00     0.005 A 
ATOM     11  C   UNL A   1      33.856  26.897  25.834  1.00  0.00     0.016 A 
ATOM     12  C   UNL A   1      31.298  27.267  27.019  1.00  0.00     0.027 A 
ATOM     13  C   UNL A   1      32.951  25.853  25.908  1.00  0.00     0.047 A 
ATOM     14  C   UNL A   1      31.713  26.047  26.538  1.00  0.00     0.051 A 
ATOM     15  C   UNL A   1      32.952  24.465  25.307  1.00  0.00     0.216 C 
ATOM     16  N   UNL A   1      31.030  24.844  26.637  1.00  0.00    -0.320 N 
ATOM     17  N   UNL A   1      34.205  23.668  25.356  1.00  0.00    -0.326 N 
ATOM     18  C   UNL A   1      32.570  24.570  23.837  1.00  0.00     0.174 C 
ATOM     19  C   UNL A   1      31.796  23.804  26.128  1.00  0.00     0.291 C 
ATOM     20  H   UNL A   1      30.128  24.741  27.017  1.00  0.00     0.170 HD
ATOM     21  H   UNL A   1      33.989  22.676  25.458  1.00  0.00     0.347 HD
ATOM     22  H   UNL A   1      34.785  23.938  26.150  1.00  0.00     0.347 HD
ATOM     23  C   UNL A   1      33.851  24.347  23.040  1.00  0.00     0.157 C 
ATOM     24  C   UNL A   1      31.690  23.406  23.427  1.00  0.00     0.240 C 
ATOM     25  O   UNL A   1      31.576  22.611  26.257  1.00  0.00    -0.267 OA
ATOM     26  C   UNL A   1      33.278  23.385  22.042  1.00  0.00     0.239 C 
ATOM     27  N   UNL A   1      32.434  22.550  22.688  1.00  0.00    -0.277 N 
ATOM     28  O   UNL A   1      30.487  23.349  23.628  1.00  0.00    -0.274 OA
ATOM     29  O   UNL A   1      33.305  23.580  20.834  1.00  0.00    -0.274 OA
BRANCH  27  30
ATOM     30  C   UNL A   1      31.930  21.270  22.195  1.00  0.00     0.164 C 
BRANCH  30  31
ATOM     31  C   UNL A   1      32.478  20.097  23.007  1.00  0.00    -0.028 A 
ATOM     32  C   UNL A   1      32.331  18.775  22.558  1.00  0.00     0.005 A 
ATOM     33  C   UNL A   1      33.212  20.300  24.189  1.00  0.00     0.005 A 
ATOM     34  C   UNL A   1      32.991  17.713  23.195  1.00  0.00     0.000 A 
ATOM     35  C   UNL A   1      33.858  19.237  24.835  1.00  0.00     0.000 A 
ATOM     36  C   UNL A   1      33.769  17.946  24.323  1.00  0.00     0.000 A 
ENDBRANCH  30  31
ENDBRANCH  27  30
ENDBRANCH   6   7
ENDBRANCH   5   6
ENDBRANCH   3   5
ENDBRANCH   2   3
ENDBRANCH   1   2
BRANCH   1  37
ATOM     37  C   UNL A   1      39.518  19.185  25.807  1.00  0.00     0.275 C 
BRANCH  37  38
ATOM     38  O   UNL A   1      40.773  19.429  25.156  1.00  0.00    -0.458 OA
BRANCH  38  39
ATOM     39  C   UNL A   1      41.881  19.196  25.912  1.00  0.00     0.338 C 
ATOM     40  O   UNL A   1      42.499  18.168  26.024  1.00  0.00    -0.246 OA
BRANCH  39  41
ATOM     41  C   UNL A   1      42.361  20.521  26.357  1.00  0.00     0.060 A 
ATOM     42  C   UNL A   1      42.313  20.869  27.706  1.00  0.00     0.016 A 
ATOM     43  C   UNL A   1      42.752  21.453  25.388  1.00  0.00     0.016 A 
ATOM     44  C   UNL A   1      42.617  22.172  28.080  1.00  0.00     0.010 A 
ATOM     45  C   UNL A   1      43.016  22.768  25.755  1.00  0.00     0.010 A 
ATOM     46  C   UNL A   1      42.954  23.125  27.104  1.00  0.00    -0.014 A 
BRANCH  46  47
ATOM     47  C   UNL A   1      43.440  24.442  27.544  1.00  0.00     0.031 A 
ATOM     48  C   UNL A   1      44.849  24.873  27.324  1.00  0.00     0.074 A 
ATOM     49  C   UNL A   1      42.529  25.251  28.106  1.00  0.00     0.049 A 
ATOM     50  N   UNL A   1      45.358  26.071  27.435  1.00  0.00    -0.248 NA
ATOM     51  C   UNL A   1      45.815  23.833  26.943  1.00  0.00     0.031 C 
ATOM     52  C   UNL A   1      41.147  24.865  28.406  1.00  0.00     0.029 A 
ATOM     53  N   UNL A   1      42.606  26.561  28.491  1.00  0.00    -0.354 N 
ATOM     54  C   UNL A   1      46.697  25.943  27.099  1.00  0.00     0.074 A 
ATOM     55  C   UNL A   1      46.938  24.538  26.843  1.00  0.00     0.031 C 
ATOM     56  C   UNL A   1      40.489  25.932  28.878  1.00  0.00     0.029 A 
ATOM     57  C   UNL A   1      41.404  27.067  28.914  1.00  0.00     0.049 A 
ATOM     58  H   UNL A   1      43.438  27.086  28.465  1.00  0.00     0.167 HD
ATOM     59  C   UNL A   1      47.621  26.930  26.995  1.00  0.00     0.037 A 
ATOM     60  C   UNL A   1      41.071  28.324  29.257  1.00  0.00     0.037 A 
ATOM     61  C   UNL A   1      47.343  28.315  27.284  1.00  0.00     0.049 A 
ATOM     62  C   UNL A   1      42.116  29.393  29.138  1.00  0.00     0.074 A 
ATOM     63  C   UNL A   1      48.183  29.408  27.172  1.00  0.00     0.029 A 
ATOM     64  N   UNL A   1      46.126  28.793  27.758  1.00  0.00    -0.354 N 
ATOM     65  N   UNL A   1      43.352  29.293  28.710  1.00  0.00    -0.248 NA
ATOM     66  C   UNL A   1      41.722  30.748  29.536  1.00  0.00     0.031 C 
ATOM     67  C   UNL A   1      47.494  30.536  27.628  1.00  0.00     0.029 A 
ATOM     68  C   UNL A   1      46.205  30.159  27.974  1.00  0.00     0.049 A 
ATOM     69  H   UNL A   1      45.326  28.242  27.917  1.00  0.00     0.167 HD
ATOM     70  C   UNL A   1      43.883  30.571  28.774  1.00  0.00     0.074 A 
ATOM     71  C   UNL A   1      42.823  31.435  29.260  1.00  0.00     0.031 C 
ATOM     72  C   UNL A   1      45.135  30.992  28.467  1.00  0.00     0.037 A 
BRANCH  59  73
ATOM     73  C   UNL A   1      49.000  26.562  26.531  1.00  0.00     0.064 A 
ATOM     74  C   UNL A   1      49.387  26.737  25.193  1.00  0.00     0.173 A 
ATOM     75  C   UNL A   1      49.974  26.120  27.439  1.00  0.00     0.173 A 
ATOM     76  F   UNL A   1      48.497  27.158  24.282  1.00  0.00    -0.203 F 
ATOM     77  C   UNL A   1      50.691  26.472  24.780  1.00  0.00     0.198 A 
ATOM     78  C   UNL A   1      51.284  25.881  27.030  1.00  0.00     0.198 A 
ATOM     79  F   UNL A   1      49.664  25.947  28.733  1.00  0.00    -0.203 F 
ATOM     80  F   UNL A   1      51.029  26.622  23.493  1.00  0.00    -0.200 F 
ATOM     81  C   UNL A   1      51.640  26.053  25.700  1.00  0.00     0.200 A 
ATOM     82  F   UNL A   1      52.205  25.494  27.923  1.00  0.00    -0.200 F 
ATOM     83  F   UNL A   1      52.900  25.818  25.306  1.00  0.00    -0.200 F 
ENDBRANCH  59  73
BRANCH  60  84
ATOM     84  C   UNL A   1      39.672  28.619  29.652  1.00  0.00     0.064 A 
ATOM     85  C   UNL A   1      39.246  28.437  30.973  1.00  0.00     0.173 A 
ATOM     86  C   UNL A   1      38.756  29.160  28.737  1.00  0.00     0.173 A 
ATOM     87  F   UNL A   1      40.086  27.922  31.883  1.00  0.00    -0.203 F 
ATOM     88  C   UNL A   1      37.954  28.779  31.365  1.00  0.00     0.198 A 
ATOM     89  C   UNL A   1      37.473  29.526  29.135  1.00  0.00     0.198 A 
ATOM     90  F   UNL A   1      39.124  29.371  27.464  1.00  0.00    -0.203 F 
ATOM     91  F   UNL A   1      37.564  28.575  32.630  1.00  0.00    -0.200 F 
ATOM     92  C   UNL A   1      37.072  29.331  30.447  1.00  0.00     0.200 A 
ATOM     93  F   UNL A   1      36.634  30.083  28.251  1.00  0.00    -0.200 F 
ATOM     94  F   UNL A   1      35.835  29.678  30.829  1.00  0.00    -0.200 F 
ENDBRANCH  60  84
BRANCH  72  95
ATOM     95  C   UNL A   1      45.432  32.449  28.662  1.00  0.00     0.064 A 
ATOM     96  C   UNL A   1      45.150  33.388  27.660  1.00  0.00     0.173 A 
ATOM     97  C   UNL A   1      45.925  32.919  29.889  1.00  0.00     0.173 A 
ATOM     98  F   UNL A   1      44.691  32.984  26.465  1.00  0.00    -0.203 F 
ATOM     99  C   UNL A   1      45.360  34.746  27.875  1.00  0.00     0.198 A 
ATOM    100  C   UNL A   1      46.105  34.281  30.110  1.00  0.00     0.198 A 
ATOM    101  F   UNL A   1      46.205  32.060  30.879  1.00  0.00    -0.203 F 
ATOM    102  F   UNL A   1      45.114  35.624  26.893  1.00  0.00    -0.200 F 
ATOM    103  C   UNL A   1      45.825  35.192  29.103  1.00  0.00     0.200 A 
ATOM    104  F   UNL A   1      46.538  34.712  31.303  1.00  0.00    -0.200 F 
ATOM    105  F   UNL A   1      46.005  36.503  29.317  1.00  0.00    -0.200 F 
ENDBRANCH  72  95
ENDBRANCH  46  47
ENDBRANCH  39  41
ENDBRANCH  38  39
ENDBRANCH  37  38
ENDBRANCH   1  37
TORSDOF 15
ENDMDL
