MODEL 1
REMARK VINA RESULT:     -13.7      0.000      0.000
REMARK SMILES O=C(OCCOC(=O)[C@@H](Cc1c[nH]c2ccccc12)Nc1ncnc2ccccc12)c1ccc(-c2c3nc(c(-c4c(F)c(F)c(F)c(F)c4F)c4ccc([nH]4)c(-c4c(F)c(F)c(F)c(F)c4F)c4nc(c(-c5c(F)c(F)c(F)c(F)c5F)c5ccc2[nH]5)C=C4)C=C3)cc1
REMARK SMILES IDX 4 1 3 2 2 3 1 4 31 5 32 6 93 7 33 8 92 9 34 10 35 11 36 12
REMARK SMILES IDX 86 13 37 14 91 15 85 16 87 17 38 18 90 19 84 20 83 21 39 23
REMARK SMILES IDX 71 24 51 25 70 26 52 27 55 28 69 29 88 30 53 31 54 32 68 34
REMARK SMILES IDX 89 35 56 36 40 37 41 38 49 39 42 40 43 41 47 42 50 43 44 44
REMARK SMILES IDX 45 45 48 46 46 47 72 48 73 49 81 50 74 51 75 52 79 53 82 54
REMARK SMILES IDX 76 55 77 56 80 57 78 58 57 59 58 60 66 61 59 62 60 63 64 64
REMARK SMILES IDX 67 65 61 66 62 67 65 68 63 69 5 70 6 71 7 72 8 73 9 74 10 75
REMARK SMILES IDX 11 76 12 77 19 78 13 79 14 80 18 81 15 83 17 84 16 85 20 86
REMARK SMILES IDX 21 88 22 89 30 90 23 91 25 92 29 93 24 94 26 95 28 96 27 97
REMARK H PARENT 87 22 55 33 13 82 20 87
REMARK Flexibility Score: inf
ROOT
ATOM      1  C   UNL A   1      31.705  27.891  27.207  1.00  0.00     0.275 C 
ENDROOT
BRANCH   1   2
ATOM      2  O   UNL A   1      32.598  28.789  26.544  1.00  0.00    -0.458 OA
BRANCH   2   3
ATOM      3  C   UNL A   1      32.881  30.046  26.943  1.00  0.00     0.338 C 
ATOM      4  O   UNL A   1      31.993  30.895  26.961  1.00  0.00    -0.246 OA
BRANCH   3   5
ATOM      5  C   UNL A   1      34.265  30.506  27.257  1.00  0.00     0.060 A 
ATOM      6  C   UNL A   1      34.626  32.112  27.642  1.00  0.00     0.016 A 
ATOM      7  C   UNL A   1      35.370  29.175  27.498  1.00  0.00     0.016 A 
ATOM      8  C   UNL A   1      36.083  32.449  28.429  1.00  0.00     0.010 A 
ATOM      9  C   UNL A   1      36.859  29.277  28.285  1.00  0.00     0.010 A 
ATOM     10  C   UNL A   1      37.407  30.868  28.824  1.00  0.00    -0.014 A 
BRANCH  10  11
ATOM     11  C   UNL A   1      38.864  30.611  29.470  1.00  0.00     0.031 A 
ATOM     12  C   UNL A   1      38.996  31.035  30.903  1.00  0.00     0.074 A 
ATOM     13  C   UNL A   1      39.887  29.949  28.866  1.00  0.00     0.049 A 
ATOM     14  N   UNL A   1      39.795  30.572  31.822  1.00  0.00    -0.248 NA
ATOM     15  C   UNL A   1      38.135  32.134  31.370  1.00  0.00     0.031 C 
ATOM     16  C   UNL A   1      40.043  29.701  27.437  1.00  0.00     0.029 A 
ATOM     17  N   UNL A   1      40.825  29.099  29.418  1.00  0.00    -0.354 N 
ATOM     18  C   UNL A   1      39.498  31.306  32.960  1.00  0.00     0.074 A 
ATOM     19  C   UNL A   1      38.508  32.284  32.622  1.00  0.00     0.031 C 
ATOM     20  C   UNL A   1      40.683  28.538  27.254  1.00  0.00     0.029 A 
ATOM     21  C   UNL A   1      41.257  28.128  28.523  1.00  0.00     0.049 A 
ATOM     22  H   UNL A   1      41.152  29.173  30.344  1.00  0.00     0.167 HD
ATOM     23  C   UNL A   1      40.011  31.159  34.194  1.00  0.00     0.037 A 
ATOM     24  C   UNL A   1      42.049  27.048  28.701  1.00  0.00     0.037 A 
ATOM     25  C   UNL A   1      41.053  30.222  34.467  1.00  0.00     0.049 A 
ATOM     26  C   UNL A   1      42.650  26.927  30.070  1.00  0.00     0.074 A 
ATOM     27  C   UNL A   1      41.741  30.016  35.642  1.00  0.00     0.029 A 
ATOM     28  N   UNL A   1      41.588  29.365  33.513  1.00  0.00    -0.354 N 
ATOM     29  N   UNL A   1      42.352  27.604  31.154  1.00  0.00    -0.248 NA
ATOM     30  C   UNL A   1      43.748  25.971  30.232  1.00  0.00     0.031 C 
ATOM     31  C   UNL A   1      42.765  29.107  35.368  1.00  0.00     0.029 A 
ATOM     32  C   UNL A   1      42.627  28.646  34.064  1.00  0.00     0.049 A 
ATOM     33  H   UNL A   1      41.273  29.283  32.584  1.00  0.00     0.167 HD
ATOM     34  C   UNL A   1      43.233  27.175  32.127  1.00  0.00     0.074 A 
ATOM     35  C   UNL A   1      44.042  26.135  31.514  1.00  0.00     0.031 C 
ATOM     36  C   UNL A   1      43.381  27.611  33.403  1.00  0.00     0.037 A 
BRANCH  23  37
ATOM     37  C   UNL A   1      39.534  32.120  35.237  1.00  0.00     0.064 A 
ATOM     38  C   UNL A   1      40.091  33.401  35.396  1.00  0.00     0.173 A 
ATOM     39  C   UNL A   1      38.580  31.699  36.172  1.00  0.00     0.173 A 
ATOM     40  F   UNL A   1      41.057  33.828  34.567  1.00  0.00    -0.203 F 
ATOM     41  C   UNL A   1      39.734  34.206  36.475  1.00  0.00     0.198 A 
ATOM     42  C   UNL A   1      38.190  32.525  37.219  1.00  0.00     0.198 A 
ATOM     43  F   UNL A   1      38.053  30.467  36.092  1.00  0.00    -0.203 F 
ATOM     44  F   UNL A   1      40.350  35.380  36.668  1.00  0.00    -0.200 F 
ATOM     45  C   UNL A   1      38.775  33.771  37.377  1.00  0.00     0.200 A 
ATOM     46  F   UNL A   1      37.266  32.100  38.092  1.00  0.00    -0.200 F 
ATOM     47  F   UNL A   1      38.431  34.545  38.416  1.00  0.00    -0.200 F 
ENDBRANCH  23  37
BRANCH  24  48
ATOM     48  C   UNL A   1      42.432  26.120  27.582  1.00  0.00     0.064 A 
ATOM     49  C   UNL A   1      43.527  26.365  26.735  1.00  0.00     0.173 A 
ATOM     50  C   UNL A   1      41.666  24.976  27.295  1.00  0.00     0.173 A 
ATOM     51  F   UNL A   1      44.290  27.455  26.918  1.00  0.00    -0.203 F 
ATOM     52  C   UNL A   1      43.826  25.519  25.659  1.00  0.00     0.198 A 
ATOM     53  C   UNL A   1      42.000  24.101  26.262  1.00  0.00     0.198 A 
ATOM     54  F   UNL A   1      40.574  24.696  28.022  1.00  0.00    -0.203 F 
ATOM     55  F   UNL A   1      44.835  25.821  24.828  1.00  0.00    -0.200 F 
ATOM     56  C   UNL A   1      43.071  24.380  25.434  1.00  0.00     0.200 A 
ATOM     57  F   UNL A   1      41.271  22.993  26.068  1.00  0.00    -0.200 F 
ATOM     58  F   UNL A   1      43.361  23.564  24.410  1.00  0.00    -0.200 F 
ENDBRANCH  24  48
BRANCH  36  59
ATOM     59  C   UNL A   1      44.372  26.874  34.238  1.00  0.00     0.064 A 
ATOM     60  C   UNL A   1      45.705  27.282  34.359  1.00  0.00     0.173 A 
ATOM     61  C   UNL A   1      43.950  25.738  34.944  1.00  0.00     0.173 A 
ATOM     62  F   UNL A   1      46.148  28.363  33.696  1.00  0.00    -0.203 F 
ATOM     63  C   UNL A   1      46.603  26.532  35.105  1.00  0.00     0.198 A 
ATOM     64  C   UNL A   1      44.834  25.031  35.742  1.00  0.00     0.198 A 
ATOM     65  F   UNL A   1      42.675  25.325  34.868  1.00  0.00    -0.203 F 
ATOM     66  F   UNL A   1      47.899  26.870  35.124  1.00  0.00    -0.200 F 
ATOM     67  C   UNL A   1      46.165  25.413  35.803  1.00  0.00     0.200 A 
ATOM     68  F   UNL A   1      44.399  23.976  36.441  1.00  0.00    -0.200 F 
ATOM     69  F   UNL A   1      47.032  24.693  36.524  1.00  0.00    -0.200 F 
ENDBRANCH  36  59
ENDBRANCH  10  11
ENDBRANCH   3   5
ENDBRANCH   2   3
ENDBRANCH   1   2
BRANCH   1  70
ATOM     70  C   UNL A   1      31.799  26.422  26.678  1.00  0.00     0.274 C 
BRANCH  70  71
ATOM     71  O   UNL A   1      30.597  25.583  26.799  1.00  0.00    -0.461 OA
BRANCH  71  72
ATOM     72  C   UNL A   1      30.675  24.266  26.470  1.00  0.00     0.329 C 
ATOM     73  O   UNL A   1      30.332  23.383  27.251  1.00  0.00    -0.250 OA
BRANCH  72  74
ATOM     74  C   UNL A   1      31.144  23.956  25.016  1.00  0.00     0.195 C 
BRANCH  74  75
ATOM     75  C   UNL A   1      31.542  22.531  24.705  1.00  0.00     0.074 C 
BRANCH  75  76
ATOM     76  C   UNL A   1      33.005  22.023  24.869  1.00  0.00    -0.020 A 
ATOM     77  C   UNL A   1      33.164  20.229  25.141  1.00  0.00     0.087 A 
ATOM     78  C   UNL A   1      35.052  22.685  24.610  1.00  0.00     0.003 A 
ATOM     79  N   UNL A   1      34.931  19.753  24.994  1.00  0.00    -0.361 N 
ATOM     80  C   UNL A   1      36.055  21.171  24.762  1.00  0.00     0.046 A 
ATOM     81  C   UNL A   1      35.905  23.874  24.654  1.00  0.00     0.010 A 
ATOM     82  H   UNL A   1      35.241  18.820  25.035  1.00  0.00     0.166 HD
ATOM     83  C   UNL A   1      37.330  21.291  25.330  1.00  0.00     0.026 A 
ATOM     84  C   UNL A   1      37.142  23.777  25.322  1.00  0.00     0.001 A 
ATOM     85  C   UNL A   1      37.774  22.572  25.689  1.00  0.00     0.002 A 
ENDBRANCH  75  76
ENDBRANCH  74  75
BRANCH  74  86
ATOM     86  N   UNL A   1      30.297  24.429  23.924  1.00  0.00    -0.356 N 
ATOM     87  H   UNL A   1      29.693  23.794  23.473  1.00  0.00     0.163 HD
BRANCH  86  88
ATOM     88  C   UNL A   1      30.323  25.744  23.511  1.00  0.00     0.137 A 
ATOM     89  N   UNL A   1      29.095  26.266  23.626  1.00  0.00    -0.219 NA
ATOM     90  C   UNL A   1      31.464  26.525  23.097  1.00  0.00     0.043 A 
ATOM     91  C   UNL A   1      28.998  27.585  23.492  1.00  0.00     0.224 A 
ATOM     92  C   UNL A   1      31.205  27.900  23.033  1.00  0.00     0.076 A 
ATOM     93  C   UNL A   1      32.802  26.138  22.720  1.00  0.00     0.014 A 
ATOM     94  N   UNL A   1      29.998  28.429  23.239  1.00  0.00    -0.236 NA
ATOM     95  C   UNL A   1      32.233  28.796  22.743  1.00  0.00     0.029 A 
ATOM     96  C   UNL A   1      33.815  27.047  22.401  1.00  0.00     0.001 A 
ATOM     97  C   UNL A   1      33.533  28.393  22.441  1.00  0.00     0.002 A 
ENDBRANCH  86  88
ENDBRANCH  74  86
ENDBRANCH  72  74
ENDBRANCH  71  72
ENDBRANCH  70  71
ENDBRANCH   1  70
TORSDOF 15
ENDMDL
MODEL 2
REMARK VINA RESULT:     -13.6      0.789      1.770
REMARK SMILES O=C(OCCOC(=O)[C@@H](Cc1c[nH]c2ccccc12)Nc1ncnc2ccccc12)c1ccc(-c2c3nc(c(-c4c(F)c(F)c(F)c(F)c4F)c4ccc([nH]4)c(-c4c(F)c(F)c(F)c(F)c4F)c4nc(c(-c5c(F)c(F)c(F)c(F)c5F)c5ccc2[nH]5)C=C4)C=C3)cc1
REMARK SMILES IDX 4 1 3 2 2 3 1 4 31 5 32 6 93 7 33 8 92 9 34 10 35 11 36 12
REMARK SMILES IDX 86 13 37 14 91 15 85 16 87 17 38 18 90 19 84 20 83 21 39 23
REMARK SMILES IDX 71 24 51 25 70 26 52 27 55 28 69 29 88 30 53 31 54 32 68 34
REMARK SMILES IDX 89 35 56 36 40 37 41 38 49 39 42 40 43 41 47 42 50 43 44 44
REMARK SMILES IDX 45 45 48 46 46 47 72 48 73 49 81 50 74 51 75 52 79 53 82 54
REMARK SMILES IDX 76 55 77 56 80 57 78 58 57 59 58 60 66 61 59 62 60 63 64 64
REMARK SMILES IDX 67 65 61 66 62 67 65 68 63 69 5 70 6 71 7 72 8 73 9 74 10 75
REMARK SMILES IDX 11 76 12 77 19 78 13 79 14 80 18 81 15 83 17 84 16 85 20 86
REMARK SMILES IDX 21 88 22 89 30 90 23 91 25 92 29 93 24 94 26 95 28 96 27 97
REMARK H PARENT 87 22 55 33 13 82 20 87
REMARK Flexibility Score: inf
ROOT
ATOM      1  C   UNL A   1      31.738  28.296  27.194  1.00  0.00     0.275 C 
ENDROOT
BRANCH   1   2
ATOM      2  O   UNL A   1      32.839  29.042  26.674  1.00  0.00    -0.458 OA
BRANCH   2   3
ATOM      3  C   UNL A   1      33.177  30.296  27.041  1.00  0.00     0.338 C 
ATOM      4  O   UNL A   1      32.331  31.187  27.016  1.00  0.00    -0.246 OA
BRANCH   3   5
ATOM      5  C   UNL A   1      34.576  30.698  27.367  1.00  0.00     0.060 A 
ATOM      6  C   UNL A   1      35.002  32.288  27.750  1.00  0.00     0.016 A 
ATOM      7  C   UNL A   1      35.621  29.322  27.626  1.00  0.00     0.016 A 
ATOM      8  C   UNL A   1      36.463  32.567  28.550  1.00  0.00     0.010 A 
ATOM      9  C   UNL A   1      37.104  29.364  28.428  1.00  0.00     0.010 A 
ATOM     10  C   UNL A   1      37.714  30.933  28.966  1.00  0.00    -0.014 A 
BRANCH  10  11
ATOM     11  C   UNL A   1      39.152  30.617  29.628  1.00  0.00     0.031 A 
ATOM     12  C   UNL A   1      39.267  30.986  31.078  1.00  0.00     0.074 A 
ATOM     13  C   UNL A   1      40.170  29.950  29.020  1.00  0.00     0.049 A 
ATOM     14  N   UNL A   1      40.037  30.471  31.994  1.00  0.00    -0.248 NA
ATOM     15  C   UNL A   1      38.424  32.089  31.569  1.00  0.00     0.031 C 
ATOM     16  C   UNL A   1      40.347  29.750  27.586  1.00  0.00     0.029 A 
ATOM     17  N   UNL A   1      41.076  29.059  29.558  1.00  0.00    -0.354 N 
ATOM     18  C   UNL A   1      39.736  31.171  33.153  1.00  0.00     0.074 A 
ATOM     19  C   UNL A   1      38.777  32.184  32.832  1.00  0.00     0.031 C 
ATOM     20  C   UNL A   1      40.962  28.578  27.372  1.00  0.00     0.029 A 
ATOM     21  C   UNL A   1      41.502  28.110  28.636  1.00  0.00     0.049 A 
ATOM     22  H   UNL A   1      41.388  29.092  30.491  1.00  0.00     0.167 HD
ATOM     23  C   UNL A   1      40.222  30.967  34.390  1.00  0.00     0.037 A 
ATOM     24  C   UNL A   1      42.263  27.004  28.790  1.00  0.00     0.037 A 
ATOM     25  C   UNL A   1      41.236  29.996  34.648  1.00  0.00     0.049 A 
ATOM     26  C   UNL A   1      42.836  26.820  30.164  1.00  0.00     0.074 A 
ATOM     27  C   UNL A   1      41.896  29.731  35.826  1.00  0.00     0.029 A 
ATOM     28  N   UNL A   1      41.768  29.160  33.673  1.00  0.00    -0.354 N 
ATOM     29  N   UNL A   1      42.533  27.465  31.266  1.00  0.00    -0.248 NA
ATOM     30  C   UNL A   1      43.907  25.832  30.312  1.00  0.00     0.031 C 
ATOM     31  C   UNL A   1      42.903  28.807  35.538  1.00  0.00     0.029 A 
ATOM     32  C   UNL A   1      42.778  28.396  34.216  1.00  0.00     0.049 A 
ATOM     33  H   UNL A   1      41.469  29.119  32.736  1.00  0.00     0.167 HD
ATOM     34  C   UNL A   1      43.385  26.981  32.239  1.00  0.00     0.074 A 
ATOM     35  C   UNL A   1      44.179  25.943  31.603  1.00  0.00     0.031 C 
ATOM     36  C   UNL A   1      43.519  27.367  33.532  1.00  0.00     0.037 A 
BRANCH  23  37
ATOM     37  C   UNL A   1      39.749  31.902  35.457  1.00  0.00     0.064 A 
ATOM     38  C   UNL A   1      40.391  33.122  35.733  1.00  0.00     0.173 A 
ATOM     39  C   UNL A   1      38.702  31.507  36.299  1.00  0.00     0.173 A 
ATOM     40  F   UNL A   1      41.443  33.517  34.998  1.00  0.00    -0.203 F 
ATOM     41  C   UNL A   1      40.022  33.891  36.834  1.00  0.00     0.198 A 
ATOM     42  C   UNL A   1      38.304  32.301  37.369  1.00  0.00     0.198 A 
ATOM     43  F   UNL A   1      38.088  30.329  36.107  1.00  0.00    -0.203 F 
ATOM     44  F   UNL A   1      40.713  34.997  37.141  1.00  0.00    -0.200 F 
ATOM     45  C   UNL A   1      38.972  33.484  37.643  1.00  0.00     0.200 A 
ATOM     46  F   UNL A   1      37.291  31.904  38.151  1.00  0.00    -0.200 F 
ATOM     47  F   UNL A   1      38.617  34.222  38.703  1.00  0.00    -0.200 F 
ENDBRANCH  23  37
BRANCH  24  48
ATOM     48  C   UNL A   1      42.645  26.107  27.646  1.00  0.00     0.064 A 
ATOM     49  C   UNL A   1      43.726  26.386  26.791  1.00  0.00     0.173 A 
ATOM     50  C   UNL A   1      41.890  24.960  27.341  1.00  0.00     0.173 A 
ATOM     51  F   UNL A   1      44.476  27.482  26.989  1.00  0.00    -0.203 F 
ATOM     52  C   UNL A   1      44.023  25.569  25.693  1.00  0.00     0.198 A 
ATOM     53  C   UNL A   1      42.223  24.113  26.284  1.00  0.00     0.198 A 
ATOM     54  F   UNL A   1      40.811  24.649  28.074  1.00  0.00    -0.203 F 
ATOM     55  F   UNL A   1      45.017  25.903  24.857  1.00  0.00    -0.200 F 
ATOM     56  C   UNL A   1      43.280  24.426  25.450  1.00  0.00     0.200 A 
ATOM     57  F   UNL A   1      41.507  23.001  26.074  1.00  0.00    -0.200 F 
ATOM     58  F   UNL A   1      43.569  23.637  24.405  1.00  0.00    -0.200 F 
ENDBRANCH  24  48
BRANCH  36  59
ATOM     59  C   UNL A   1      44.476  26.577  34.358  1.00  0.00     0.064 A 
ATOM     60  C   UNL A   1      44.114  25.384  34.995  1.00  0.00     0.173 A 
ATOM     61  C   UNL A   1      45.795  27.036  34.491  1.00  0.00     0.173 A 
ATOM     62  F   UNL A   1      42.861  24.914  34.895  1.00  0.00    -0.203 F 
ATOM     63  C   UNL A   1      45.025  24.714  35.799  1.00  0.00     0.198 A 
ATOM     64  C   UNL A   1      46.720  26.328  35.240  1.00  0.00     0.198 A 
ATOM     65  F   UNL A   1      46.185  28.167  33.881  1.00  0.00    -0.203 F 
ATOM     66  F   UNL A   1      44.636  23.635  36.490  1.00  0.00    -0.200 F 
ATOM     67  C   UNL A   1      46.329  25.181  35.913  1.00  0.00     0.200 A 
ATOM     68  F   UNL A   1      47.984  26.761  35.316  1.00  0.00    -0.200 F 
ATOM     69  F   UNL A   1      47.207  24.531  36.686  1.00  0.00    -0.200 F 
ENDBRANCH  36  59
ENDBRANCH  10  11
ENDBRANCH   3   5
ENDBRANCH   2   3
ENDBRANCH   1   2
BRANCH   1  70
ATOM     70  C   UNL A   1      31.826  26.765  26.883  1.00  0.00     0.274 C 
BRANCH  70  71
ATOM     71  O   UNL A   1      30.562  26.014  26.829  1.00  0.00    -0.461 OA
BRANCH  71  72
ATOM     72  C   UNL A   1      30.559  24.763  26.295  1.00  0.00     0.329 C 
ATOM     73  O   UNL A   1      30.228  23.780  26.953  1.00  0.00    -0.250 OA
BRANCH  72  74
ATOM     74  C   UNL A   1      30.918  24.671  24.782  1.00  0.00     0.195 C 
BRANCH  74  75
ATOM     75  C   UNL A   1      31.184  23.294  24.216  1.00  0.00     0.074 C 
BRANCH  75  76
ATOM     76  C   UNL A   1      32.482  22.497  24.542  1.00  0.00    -0.020 A 
ATOM     77  C   UNL A   1      32.247  21.080  25.661  1.00  0.00     0.087 A 
ATOM     78  C   UNL A   1      34.540  22.302  23.892  1.00  0.00     0.003 A 
ATOM     79  N   UNL A   1      33.782  20.074  25.686  1.00  0.00    -0.361 N 
ATOM     80  C   UNL A   1      35.153  20.803  24.728  1.00  0.00     0.046 A 
ATOM     81  C   UNL A   1      35.649  23.051  23.299  1.00  0.00     0.010 A 
ATOM     82  H   UNL A   1      33.858  19.221  26.171  1.00  0.00     0.166 HD
ATOM     83  C   UNL A   1      36.503  20.774  25.100  1.00  0.00     0.026 A 
ATOM     84  C   UNL A   1      36.930  22.898  23.867  1.00  0.00     0.001 A 
ATOM     85  C   UNL A   1      37.307  21.870  24.754  1.00  0.00     0.002 A 
ENDBRANCH  75  76
ENDBRANCH  74  75
BRANCH  74  86
ATOM     86  N   UNL A   1      30.052  25.377  23.843  1.00  0.00    -0.356 N 
ATOM     87  H   UNL A   1      29.278  24.908  23.455  1.00  0.00     0.163 HD
BRANCH  86  88
ATOM     88  C   UNL A   1      30.293  26.688  23.488  1.00  0.00     0.137 A 
ATOM     89  N   UNL A   1      31.613  26.868  23.343  1.00  0.00    -0.219 NA
ATOM     90  C   UNL A   1      29.332  27.727  23.211  1.00  0.00     0.043 A 
ATOM     91  C   UNL A   1      31.996  28.008  22.777  1.00  0.00     0.224 A 
ATOM     92  C   UNL A   1      29.890  28.851  22.586  1.00  0.00     0.076 A 
ATOM     93  C   UNL A   1      27.918  27.820  23.482  1.00  0.00     0.014 A 
ATOM     94  N   UNL A   1      31.197  28.989  22.359  1.00  0.00    -0.236 NA
ATOM     95  C   UNL A   1      29.073  29.899  22.167  1.00  0.00     0.029 A 
ATOM     96  C   UNL A   1      27.116  28.893  23.082  1.00  0.00     0.001 A 
ATOM     97  C   UNL A   1      27.697  29.931  22.391  1.00  0.00     0.002 A 
ENDBRANCH  86  88
ENDBRANCH  74  86
ENDBRANCH  72  74
ENDBRANCH  71  72
ENDBRANCH  70  71
ENDBRANCH   1  70
TORSDOF 15
ENDMDL
MODEL 3
REMARK VINA RESULT:     -13.6      0.930      4.079
REMARK SMILES O=C(OCCOC(=O)[C@@H](Cc1c[nH]c2ccccc12)Nc1ncnc2ccccc12)c1ccc(-c2c3nc(c(-c4c(F)c(F)c(F)c(F)c4F)c4ccc([nH]4)c(-c4c(F)c(F)c(F)c(F)c4F)c4nc(c(-c5c(F)c(F)c(F)c(F)c5F)c5ccc2[nH]5)C=C4)C=C3)cc1
REMARK SMILES IDX 4 1 3 2 2 3 1 4 31 5 32 6 93 7 33 8 92 9 34 10 35 11 36 12
REMARK SMILES IDX 86 13 37 14 91 15 85 16 87 17 38 18 90 19 84 20 83 21 39 23
REMARK SMILES IDX 71 24 51 25 70 26 52 27 55 28 69 29 88 30 53 31 54 32 68 34
REMARK SMILES IDX 89 35 56 36 40 37 41 38 49 39 42 40 43 41 47 42 50 43 44 44
REMARK SMILES IDX 45 45 48 46 46 47 72 48 73 49 81 50 74 51 75 52 79 53 82 54
REMARK SMILES IDX 76 55 77 56 80 57 78 58 57 59 58 60 66 61 59 62 60 63 64 64
REMARK SMILES IDX 67 65 61 66 62 67 65 68 63 69 5 70 6 71 7 72 8 73 9 74 10 75
REMARK SMILES IDX 11 76 12 77 19 78 13 79 14 80 18 81 15 83 17 84 16 85 20 86
REMARK SMILES IDX 21 88 22 89 30 90 23 91 25 92 29 93 24 94 26 95 28 96 27 97
REMARK H PARENT 87 22 55 33 13 82 20 87
REMARK Flexibility Score: inf
ROOT
ATOM      1  C   UNL A   1      31.857  28.146  27.874  1.00  0.00     0.275 C 
ENDROOT
BRANCH   1   2
ATOM      2  O   UNL A   1      31.997  29.544  27.617  1.00  0.00    -0.458 OA
BRANCH   2   3
ATOM      3  C   UNL A   1      32.854  30.094  26.732  1.00  0.00     0.338 C 
ATOM      4  O   UNL A   1      32.561  30.128  25.540  1.00  0.00    -0.246 OA
BRANCH   3   5
ATOM      5  C   UNL A   1      34.219  30.566  27.110  1.00  0.00     0.060 A 
ATOM      6  C   UNL A   1      34.523  32.143  27.638  1.00  0.00     0.016 A 
ATOM      7  C   UNL A   1      35.361  29.253  27.255  1.00  0.00     0.016 A 
ATOM      8  C   UNL A   1      35.956  32.454  28.477  1.00  0.00     0.010 A 
ATOM      9  C   UNL A   1      36.834  29.331  28.074  1.00  0.00     0.010 A 
ATOM     10  C   UNL A   1      37.323  30.885  28.759  1.00  0.00    -0.014 A 
BRANCH  10  11
ATOM     11  C   UNL A   1      38.777  30.617  29.406  1.00  0.00     0.031 A 
ATOM     12  C   UNL A   1      38.905  31.024  30.844  1.00  0.00     0.074 A 
ATOM     13  C   UNL A   1      39.800  29.959  28.798  1.00  0.00     0.049 A 
ATOM     14  N   UNL A   1      39.701  30.549  31.760  1.00  0.00    -0.248 NA
ATOM     15  C   UNL A   1      38.046  32.120  31.321  1.00  0.00     0.031 C 
ATOM     16  C   UNL A   1      39.960  29.727  27.366  1.00  0.00     0.029 A 
ATOM     17  N   UNL A   1      40.734  29.100  29.343  1.00  0.00    -0.354 N 
ATOM     18  C   UNL A   1      39.402  31.270  32.906  1.00  0.00     0.074 A 
ATOM     19  C   UNL A   1      38.416  32.254  32.576  1.00  0.00     0.031 C 
ATOM     20  C   UNL A   1      40.598  28.564  27.172  1.00  0.00     0.029 A 
ATOM     21  C   UNL A   1      41.167  28.138  28.438  1.00  0.00     0.049 A 
ATOM     22  H   UNL A   1      41.059  29.163  30.271  1.00  0.00     0.167 HD
ATOM     23  C   UNL A   1      39.910  31.108  34.140  1.00  0.00     0.037 A 
ATOM     24  C   UNL A   1      41.955  27.054  28.606  1.00  0.00     0.037 A 
ATOM     25  C   UNL A   1      40.950  30.165  34.406  1.00  0.00     0.049 A 
ATOM     26  C   UNL A   1      42.552  26.916  29.976  1.00  0.00     0.074 A 
ATOM     27  C   UNL A   1      41.633  29.944  35.580  1.00  0.00     0.029 A 
ATOM     28  N   UNL A   1      41.485  29.318  33.443  1.00  0.00    -0.354 N 
ATOM     29  N   UNL A   1      42.252  27.581  31.066  1.00  0.00    -0.248 NA
ATOM     30  C   UNL A   1      43.647  25.956  30.131  1.00  0.00     0.031 C 
ATOM     31  C   UNL A   1      42.656  29.035  35.298  1.00  0.00     0.029 A 
ATOM     32  C   UNL A   1      42.520  28.590  33.989  1.00  0.00     0.049 A 
ATOM     33  H   UNL A   1      41.173  29.247  32.512  1.00  0.00     0.167 HD
ATOM     34  C   UNL A   1      43.129  27.140  32.038  1.00  0.00     0.074 A 
ATOM     35  C   UNL A   1      43.937  26.104  31.415  1.00  0.00     0.031 C 
ATOM     36  C   UNL A   1      43.274  27.560  33.318  1.00  0.00     0.037 A 
BRANCH  23  37
ATOM     37  C   UNL A   1      39.433  32.058  35.192  1.00  0.00     0.064 A 
ATOM     38  C   UNL A   1      39.969  33.349  35.344  1.00  0.00     0.173 A 
ATOM     39  C   UNL A   1      38.502  31.618  36.141  1.00  0.00     0.173 A 
ATOM     40  F   UNL A   1      40.914  33.796  34.501  1.00  0.00    -0.203 F 
ATOM     41  C   UNL A   1      39.614  34.146  36.430  1.00  0.00     0.198 A 
ATOM     42  C   UNL A   1      38.113  32.435  37.196  1.00  0.00     0.198 A 
ATOM     43  F   UNL A   1      37.996  30.377  36.067  1.00  0.00    -0.203 F 
ATOM     44  F   UNL A   1      40.212  35.331  36.616  1.00  0.00    -0.200 F 
ATOM     45  C   UNL A   1      38.678  33.692  37.347  1.00  0.00     0.200 A 
ATOM     46  F   UNL A   1      37.212  31.992  38.083  1.00  0.00    -0.200 F 
ATOM     47  F   UNL A   1      38.337  34.457  38.392  1.00  0.00    -0.200 F 
ENDBRANCH  23  37
BRANCH  24  48
ATOM     48  C   UNL A   1      42.339  26.138  27.479  1.00  0.00     0.064 A 
ATOM     49  C   UNL A   1      41.665  24.931  27.220  1.00  0.00     0.173 A 
ATOM     50  C   UNL A   1      43.443  26.424  26.656  1.00  0.00     0.173 A 
ATOM     51  F   UNL A   1      40.623  24.564  27.982  1.00  0.00    -0.203 F 
ATOM     52  C   UNL A   1      42.082  24.061  26.203  1.00  0.00     0.198 A 
ATOM     53  C   UNL A   1      43.820  25.588  25.604  1.00  0.00     0.198 A 
ATOM     54  F   UNL A   1      44.173  27.529  26.867  1.00  0.00    -0.203 F 
ATOM     55  F   UNL A   1      41.461  22.886  26.029  1.00  0.00    -0.200 F 
ATOM     56  C   UNL A   1      43.150  24.399  25.388  1.00  0.00     0.200 A 
ATOM     57  F   UNL A   1      44.842  25.937  24.812  1.00  0.00    -0.200 F 
ATOM     58  F   UNL A   1      43.544  23.573  24.408  1.00  0.00    -0.200 F 
ENDBRANCH  24  48
BRANCH  36  59
ATOM     59  C   UNL A   1      44.260  26.812  34.149  1.00  0.00     0.064 A 
ATOM     60  C   UNL A   1      45.590  27.223  34.290  1.00  0.00     0.173 A 
ATOM     61  C   UNL A   1      43.837  25.659  34.828  1.00  0.00     0.173 A 
ATOM     62  F   UNL A   1      46.034  28.318  33.654  1.00  0.00    -0.203 F 
ATOM     63  C   UNL A   1      46.485  26.462  35.029  1.00  0.00     0.198 A 
ATOM     64  C   UNL A   1      44.717  24.940  35.619  1.00  0.00     0.198 A 
ATOM     65  F   UNL A   1      42.565  25.243  34.731  1.00  0.00    -0.203 F 
ATOM     66  F   UNL A   1      47.779  26.805  35.068  1.00  0.00    -0.200 F 
ATOM     67  C   UNL A   1      46.045  25.328  35.701  1.00  0.00     0.200 A 
ATOM     68  F   UNL A   1      44.280  23.870  36.294  1.00  0.00    -0.200 F 
ATOM     69  F   UNL A   1      46.909  24.597  36.416  1.00  0.00    -0.200 F 
ENDBRANCH  36  59
ENDBRANCH  10  11
ENDBRANCH   3   5
ENDBRANCH   2   3
ENDBRANCH   1   2
BRANCH   1  70
ATOM     70  C   UNL A   1      31.380  27.332  26.625  1.00  0.00     0.274 C 
BRANCH  70  71
ATOM     71  O   UNL A   1      31.662  25.889  26.613  1.00  0.00    -0.461 OA
BRANCH  71  72
ATOM     72  C   UNL A   1      30.770  25.047  26.025  1.00  0.00     0.329 C 
ATOM     73  O   UNL A   1      29.675  24.809  26.528  1.00  0.00    -0.250 OA
BRANCH  72  74
ATOM     74  C   UNL A   1      31.191  24.474  24.637  1.00  0.00     0.195 C 
BRANCH  74  75
ATOM     75  C   UNL A   1      30.552  25.088  23.412  1.00  0.00     0.074 C 
BRANCH  75  76
ATOM     76  C   UNL A   1      30.432  26.629  23.221  1.00  0.00    -0.020 A 
ATOM     77  C   UNL A   1      32.018  27.497  23.001  1.00  0.00     0.087 A 
ATOM     78  C   UNL A   1      28.951  28.163  22.838  1.00  0.00     0.003 A 
ATOM     79  N   UNL A   1      31.689  29.225  22.475  1.00  0.00    -0.361 N 
ATOM     80  C   UNL A   1      29.917  29.658  22.447  1.00  0.00     0.046 A 
ATOM     81  C   UNL A   1      27.543  28.502  23.055  1.00  0.00     0.010 A 
ATOM     82  H   UNL A   1      32.402  29.857  22.231  1.00  0.00     0.166 HD
ATOM     83  C   UNL A   1      29.382  30.895  22.830  1.00  0.00     0.026 A 
ATOM     84  C   UNL A   1      27.235  29.809  23.484  1.00  0.00     0.001 A 
ATOM     85  C   UNL A   1      28.116  30.908  23.434  1.00  0.00     0.002 A 
ENDBRANCH  75  76
ENDBRANCH  74  75
BRANCH  74  86
ATOM     86  N   UNL A   1      32.621  24.341  24.374  1.00  0.00    -0.356 N 
ATOM     87  H   UNL A   1      33.109  25.097  23.974  1.00  0.00     0.163 HD
BRANCH  86  88
ATOM     88  C   UNL A   1      33.302  23.180  24.673  1.00  0.00     0.137 A 
ATOM     89  N   UNL A   1      32.468  22.139  24.556  1.00  0.00    -0.219 NA
ATOM     90  C   UNL A   1      34.703  23.023  24.980  1.00  0.00     0.043 A 
ATOM     91  C   UNL A   1      33.023  20.931  24.581  1.00  0.00     0.224 A 
ATOM     92  C   UNL A   1      35.138  21.692  24.935  1.00  0.00     0.076 A 
ATOM     93  C   UNL A   1      35.716  23.984  25.343  1.00  0.00     0.014 A 
ATOM     94  N   UNL A   1      34.319  20.660  24.727  1.00  0.00    -0.236 NA
ATOM     95  C   UNL A   1      36.487  21.388  25.113  1.00  0.00     0.029 A 
ATOM     96  C   UNL A   1      37.061  23.660  25.548  1.00  0.00     0.001 A 
ATOM     97  C   UNL A   1      37.454  22.349  25.403  1.00  0.00     0.002 A 
ENDBRANCH  86  88
ENDBRANCH  74  86
ENDBRANCH  72  74
ENDBRANCH  71  72
ENDBRANCH  70  71
ENDBRANCH   1  70
TORSDOF 15
ENDMDL
