MODEL 1
REMARK VINA RESULT:     -12.1      0.000      0.000
REMARK SMILES O=C(CSc1ccc2ccccc2n1)NCc1ccc(C(=O)OCCOC(=O)c2ccc(-c3c4nc(c(-c5c(F)c(F)c(F)c(F)c5F)c5ccc([nH]5)c(-c5c(F)c(F)c(F)c(F)c5F)c5nc(c(-c6c(F)c(F)c(F)c(F)c6F)c6ccc3[nH]6)C=C5)C=C4)cc2)cc1
REMARK SMILES IDX 23 1 21 2 22 3 20 4 17 5 18 6 93 7 19 8 92 9 16 10 15 11
REMARK SMILES IDX 1 12 2 13 3 15 4 16 5 17 6 18 14 19 7 20 13 21 8 22 12 23
REMARK SMILES IDX 9 24 11 25 10 26 24 27 25 28 26 29 27 30 28 31 29 32 30 33
REMARK SMILES IDX 91 34 31 35 90 36 32 37 33 38 34 39 84 40 35 41 89 42 83 43
REMARK SMILES IDX 85 44 36 45 88 46 82 47 81 48 37 50 69 51 49 52 68 53 50 54
REMARK SMILES IDX 53 55 67 56 86 57 51 58 52 59 66 61 87 62 54 63 38 64 39 65
REMARK SMILES IDX 47 66 40 67 41 68 45 69 48 70 42 71 43 72 46 73 44 74 70 75
REMARK SMILES IDX 71 76 79 77 72 78 73 79 77 80 80 81 74 82 75 83 78 84 76 85
REMARK SMILES IDX 55 86 56 87 64 88 57 89 58 90 62 91 65 92 59 93 60 94 63 95
REMARK SMILES IDX 61 96
REMARK H PARENT 15 14 85 49 53 60
REMARK Flexibility Score: inf
ROOT
ATOM      1  O   UNL A   1      35.299  21.209  26.031  1.00  0.00    -0.458 OA
ENDROOT
BRANCH   1   2
ATOM      2  C   UNL A   1      33.982  21.524  25.970  1.00  0.00     0.338 C 
ATOM      3  O   UNL A   1      33.045  20.742  26.028  1.00  0.00    -0.246 OA
BRANCH   2   4
ATOM      4  C   UNL A   1      33.778  22.989  25.900  1.00  0.00     0.060 A 
ATOM      5  C   UNL A   1      33.605  25.797  25.904  1.00  0.00    -0.029 A 
ATOM      6  C   UNL A   1      34.698  25.160  25.312  1.00  0.00     0.006 A 
ATOM      7  C   UNL A   1      32.583  25.012  26.470  1.00  0.00     0.006 A 
ATOM      8  C   UNL A   1      34.796  23.771  25.338  1.00  0.00     0.016 A 
ATOM      9  C   UNL A   1      32.659  23.612  26.455  1.00  0.00     0.016 A 
BRANCH   5  10
ATOM     10  C   UNL A   1      33.579  27.300  25.998  1.00  0.00     0.151 C 
BRANCH  10  11
ATOM     11  N   UNL A   1      32.349  27.845  25.486  1.00  0.00    -0.351 N 
ATOM     12  O   UNL A   1      33.172  29.953  25.116  1.00  0.00    -0.274 OA
ATOM     13  C   UNL A   1      32.252  29.142  25.044  1.00  0.00     0.230 C 
ATOM     14  H   UNL A   1      31.551  27.269  25.451  1.00  0.00     0.163 HD
BRANCH  13  15
ATOM     15  C   UNL A   1      30.887  29.538  24.522  1.00  0.00     0.176 C 
BRANCH  15  16
ATOM     16  S   UNL A   1      30.613  28.987  22.811  1.00  0.00    -0.096 SA
BRANCH  16  17
ATOM     17  C   UNL A   1      30.655  27.211  22.963  1.00  0.00     0.097 A 
ATOM     18  C   UNL A   1      29.699  26.480  23.651  1.00  0.00     0.036 A 
ATOM     19  N   UNL A   1      31.737  26.632  22.394  1.00  0.00    -0.241 NA
ATOM     20  C   UNL A   1      29.856  25.100  23.754  1.00  0.00     0.013 A 
ATOM     21  C   UNL A   1      31.902  25.302  22.510  1.00  0.00     0.072 A 
ATOM     22  C   UNL A   1      30.976  24.485  23.188  1.00  0.00     0.000 A 
ATOM     23  C   UNL A   1      33.024  24.699  21.957  1.00  0.00     0.029 A 
ATOM     24  C   UNL A   1      31.193  23.099  23.294  1.00  0.00     0.010 A 
ATOM     25  C   UNL A   1      33.248  23.322  22.063  1.00  0.00     0.002 A 
ATOM     26  C   UNL A   1      32.331  22.521  22.733  1.00  0.00     0.001 A 
ENDBRANCH  16  17
ENDBRANCH  15  16
ENDBRANCH  13  15
ENDBRANCH  10  11
ENDBRANCH   5  10
ENDBRANCH   2   4
ENDBRANCH   1   2
BRANCH   1  27
ATOM     27  C   UNL A   1      35.769  20.322  24.992  1.00  0.00     0.275 C 
BRANCH  27  28
ATOM     28  C   UNL A   1      37.285  20.415  24.817  1.00  0.00     0.275 C 
BRANCH  28  29
ATOM     29  O   UNL A   1      37.819  21.456  25.654  1.00  0.00    -0.458 OA
BRANCH  29  30
ATOM     30  C   UNL A   1      39.073  21.255  26.115  1.00  0.00     0.338 C 
ATOM     31  O   UNL A   1      39.730  20.228  26.071  1.00  0.00    -0.246 OA
BRANCH  30  32
ATOM     32  C   UNL A   1      39.603  22.503  26.692  1.00  0.00     0.060 A 
ATOM     33  C   UNL A   1      39.135  23.722  26.217  1.00  0.00     0.016 A 
ATOM     34  C   UNL A   1      40.670  22.469  27.587  1.00  0.00     0.016 A 
ATOM     35  C   UNL A   1      39.796  24.905  26.540  1.00  0.00     0.010 A 
ATOM     36  C   UNL A   1      41.262  23.669  28.002  1.00  0.00     0.010 A 
ATOM     37  C   UNL A   1      40.864  24.902  27.449  1.00  0.00    -0.014 A 
BRANCH  37  38
ATOM     38  C   UNL A   1      41.584  26.166  27.786  1.00  0.00     0.031 A 
ATOM     39  C   UNL A   1      40.911  27.230  28.618  1.00  0.00     0.074 A 
ATOM     40  C   UNL A   1      42.849  26.372  27.364  1.00  0.00     0.049 A 
ATOM     41  N   UNL A   1      41.285  28.464  28.853  1.00  0.00    -0.248 NA
ATOM     42  C   UNL A   1      39.639  26.862  29.258  1.00  0.00     0.031 C 
ATOM     43  C   UNL A   1      43.651  25.424  26.590  1.00  0.00     0.029 A 
ATOM     44  N   UNL A   1      43.688  27.449  27.533  1.00  0.00    -0.354 N 
ATOM     45  C   UNL A   1      40.265  29.035  29.605  1.00  0.00     0.074 A 
ATOM     46  C   UNL A   1      39.257  28.013  29.791  1.00  0.00     0.031 C 
ATOM     47  C   UNL A   1      44.874  25.937  26.391  1.00  0.00     0.029 A 
ATOM     48  C   UNL A   1      44.915  27.290  26.934  1.00  0.00     0.049 A 
ATOM     49  H   UNL A   1      43.434  28.257  28.036  1.00  0.00     0.167 HD
ATOM     50  C   UNL A   1      40.178  30.297  30.092  1.00  0.00     0.037 A 
ATOM     51  C   UNL A   1      45.943  28.147  26.791  1.00  0.00     0.037 A 
ATOM     52  C   UNL A   1      41.213  31.292  29.971  1.00  0.00     0.049 A 
ATOM     53  C   UNL A   1      45.819  29.545  27.328  1.00  0.00     0.074 A 
ATOM     54  C   UNL A   1      41.227  32.588  30.456  1.00  0.00     0.029 A 
ATOM     55  N   UNL A   1      42.429  31.092  29.333  1.00  0.00    -0.354 N 
ATOM     56  N   UNL A   1      44.825  30.094  27.980  1.00  0.00    -0.248 NA
ATOM     57  C   UNL A   1      46.952  30.449  27.088  1.00  0.00     0.031 C 
ATOM     58  C   UNL A   1      42.437  33.184  30.084  1.00  0.00     0.029 A 
ATOM     59  C   UNL A   1      43.195  32.245  29.403  1.00  0.00     0.049 A 
ATOM     60  H   UNL A   1      42.707  30.255  28.896  1.00  0.00     0.167 HD
ATOM     61  C   UNL A   1      45.210  31.403  28.233  1.00  0.00     0.074 A 
ATOM     62  C   UNL A   1      46.542  31.559  27.686  1.00  0.00     0.031 C 
ATOM     63  C   UNL A   1      44.519  32.388  28.855  1.00  0.00     0.037 A 
BRANCH  50  64
ATOM     64  C   UNL A   1      38.900  30.694  30.775  1.00  0.00     0.064 A 
ATOM     65  C   UNL A   1      38.736  30.601  32.164  1.00  0.00     0.173 A 
ATOM     66  C   UNL A   1      37.836  31.218  30.022  1.00  0.00     0.173 A 
ATOM     67  F   UNL A   1      39.718  30.097  32.927  1.00  0.00    -0.203 F 
ATOM     68  C   UNL A   1      37.545  30.994  32.772  1.00  0.00     0.198 A 
ATOM     69  C   UNL A   1      36.658  31.635  30.636  1.00  0.00     0.198 A 
ATOM     70  F   UNL A   1      37.944  31.337  28.690  1.00  0.00    -0.203 F 
ATOM     71  F   UNL A   1      37.393  30.854  34.096  1.00  0.00    -0.200 F 
ATOM     72  C   UNL A   1      36.510  31.516  32.009  1.00  0.00     0.200 A 
ATOM     73  F   UNL A   1      35.667  32.153  29.899  1.00  0.00    -0.200 F 
ATOM     74  F   UNL A   1      35.369  31.899  32.597  1.00  0.00    -0.200 F 
ENDBRANCH  50  64
BRANCH  51  75
ATOM     75  C   UNL A   1      47.166  27.715  26.064  1.00  0.00     0.064 A 
ATOM     76  C   UNL A   1      48.287  27.239  26.757  1.00  0.00     0.173 A 
ATOM     77  C   UNL A   1      47.231  27.751  24.663  1.00  0.00     0.173 A 
ATOM     78  F   UNL A   1      48.284  27.213  28.098  1.00  0.00    -0.203 F 
ATOM     79  C   UNL A   1      49.428  26.819  26.075  1.00  0.00     0.198 A 
ATOM     80  C   UNL A   1      48.359  27.301  23.982  1.00  0.00     0.198 A 
ATOM     81  F   UNL A   1      46.185  28.201  23.953  1.00  0.00    -0.203 F 
ATOM     82  F   UNL A   1      50.500  26.402  26.762  1.00  0.00    -0.200 F 
ATOM     83  C   UNL A   1      49.459  26.840  24.689  1.00  0.00     0.200 A 
ATOM     84  F   UNL A   1      48.377  27.309  22.642  1.00  0.00    -0.200 F 
ATOM     85  F   UNL A   1      50.550  26.421  24.034  1.00  0.00    -0.200 F 
ENDBRANCH  51  75
BRANCH  63  86
ATOM     86  C   UNL A   1      45.201  33.715  28.998  1.00  0.00     0.064 A 
ATOM     87  C   UNL A   1      46.004  34.012  30.109  1.00  0.00     0.173 A 
ATOM     88  C   UNL A   1      45.069  34.693  28.000  1.00  0.00     0.173 A 
ATOM     89  F   UNL A   1      46.144  33.115  31.097  1.00  0.00    -0.203 F 
ATOM     90  C   UNL A   1      46.632  35.248  30.226  1.00  0.00     0.198 A 
ATOM     91  C   UNL A   1      45.719  35.918  28.109  1.00  0.00     0.198 A 
ATOM     92  F   UNL A   1      44.314  34.455  26.917  1.00  0.00    -0.203 F 
ATOM     93  F   UNL A   1      47.359  35.528  31.317  1.00  0.00    -0.200 F 
ATOM     94  C   UNL A   1      46.494  36.197  29.224  1.00  0.00     0.200 A 
ATOM     95  F   UNL A   1      45.592  36.831  27.136  1.00  0.00    -0.200 F 
ATOM     96  F   UNL A   1      47.103  37.386  29.338  1.00  0.00    -0.200 F 
ENDBRANCH  63  86
ENDBRANCH  37  38
ENDBRANCH  30  32
ENDBRANCH  29  30
ENDBRANCH  28  29
ENDBRANCH  27  28
ENDBRANCH   1  27
TORSDOF 16
ENDMDL
MODEL 2
REMARK VINA RESULT:     -12.0      4.650      8.682
REMARK SMILES O=C(CSc1ccc2ccccc2n1)NCc1ccc(C(=O)OCCOC(=O)c2ccc(-c3c4nc(c(-c5c(F)c(F)c(F)c(F)c5F)c5ccc([nH]5)c(-c5c(F)c(F)c(F)c(F)c5F)c5nc(c(-c6c(F)c(F)c(F)c(F)c6F)c6ccc3[nH]6)C=C5)C=C4)cc2)cc1
REMARK SMILES IDX 23 1 21 2 22 3 20 4 17 5 18 6 93 7 19 8 92 9 16 10 15 11
REMARK SMILES IDX 1 12 2 13 3 15 4 16 5 17 6 18 14 19 7 20 13 21 8 22 12 23
REMARK SMILES IDX 9 24 11 25 10 26 24 27 25 28 26 29 27 30 28 31 29 32 30 33
REMARK SMILES IDX 91 34 31 35 90 36 32 37 33 38 34 39 84 40 35 41 89 42 83 43
REMARK SMILES IDX 85 44 36 45 88 46 82 47 81 48 37 50 69 51 49 52 68 53 50 54
REMARK SMILES IDX 53 55 67 56 86 57 51 58 52 59 66 61 87 62 54 63 38 64 39 65
REMARK SMILES IDX 47 66 40 67 41 68 45 69 48 70 42 71 43 72 46 73 44 74 70 75
REMARK SMILES IDX 71 76 79 77 72 78 73 79 77 80 80 81 74 82 75 83 78 84 76 85
REMARK SMILES IDX 55 86 56 87 64 88 57 89 58 90 62 91 65 92 59 93 60 94 63 95
REMARK SMILES IDX 61 96
REMARK H PARENT 15 14 85 49 53 60
REMARK Flexibility Score: inf
ROOT
ATOM      1  O   UNL A   1      41.370  20.762  25.695  1.00  0.00    -0.458 OA
ENDROOT
BRANCH   1   2
ATOM      2  C   UNL A   1      40.504  21.085  26.686  1.00  0.00     0.338 C 
ATOM      3  O   UNL A   1      40.659  20.880  27.881  1.00  0.00    -0.246 OA
BRANCH   2   4
ATOM      4  C   UNL A   1      39.328  21.815  26.161  1.00  0.00     0.060 A 
ATOM      5  C   UNL A   1      37.022  23.238  25.407  1.00  0.00    -0.029 A 
ATOM      6  C   UNL A   1      38.016  23.859  26.167  1.00  0.00     0.006 A 
ATOM      7  C   UNL A   1      37.208  21.903  25.003  1.00  0.00     0.006 A 
ATOM      8  C   UNL A   1      39.142  23.143  26.564  1.00  0.00     0.016 A 
ATOM      9  C   UNL A   1      38.363  21.196  25.364  1.00  0.00     0.016 A 
BRANCH   5  10
ATOM     10  C   UNL A   1      35.744  23.975  25.105  1.00  0.00     0.151 C 
BRANCH  10  11
ATOM     11  N   UNL A   1      34.606  23.345  25.722  1.00  0.00    -0.351 N 
ATOM     12  O   UNL A   1      33.478  25.293  26.162  1.00  0.00    -0.274 OA
ATOM     13  C   UNL A   1      33.528  24.066  26.177  1.00  0.00     0.230 C 
ATOM     14  H   UNL A   1      34.599  22.365  25.821  1.00  0.00     0.163 HD
BRANCH  13  15
ATOM     15  C   UNL A   1      32.414  23.235  26.781  1.00  0.00     0.176 C 
BRANCH  15  16
ATOM     16  S   UNL A   1      31.094  22.871  25.583  1.00  0.00    -0.096 SA
BRANCH  16  17
ATOM     17  C   UNL A   1      31.743  21.463  24.705  1.00  0.00     0.097 A 
ATOM     18  C   UNL A   1      31.924  21.436  23.330  1.00  0.00     0.036 A 
ATOM     19  N   UNL A   1      31.996  20.389  25.489  1.00  0.00    -0.241 NA
ATOM     20  C   UNL A   1      32.388  20.264  22.738  1.00  0.00     0.013 A 
ATOM     21  C   UNL A   1      32.424  19.250  24.917  1.00  0.00     0.072 A 
ATOM     22  C   UNL A   1      32.638  19.138  23.529  1.00  0.00     0.000 A 
ATOM     23  C   UNL A   1      32.657  18.131  25.706  1.00  0.00     0.029 A 
ATOM     24  C   UNL A   1      33.078  17.924  22.971  1.00  0.00     0.010 A 
ATOM     25  C   UNL A   1      33.089  16.919  25.157  1.00  0.00     0.002 A 
ATOM     26  C   UNL A   1      33.299  16.816  23.787  1.00  0.00     0.001 A 
ENDBRANCH  16  17
ENDBRANCH  15  16
ENDBRANCH  13  15
ENDBRANCH  10  11
ENDBRANCH   5  10
ENDBRANCH   2   4
ENDBRANCH   1   2
BRANCH   1  27
ATOM     27  C   UNL A   1      42.733  20.531  26.117  1.00  0.00     0.275 C 
BRANCH  27  28
ATOM     28  C   UNL A   1      43.708  21.471  25.408  1.00  0.00     0.275 C 
BRANCH  28  29
ATOM     29  O   UNL A   1      43.009  22.624  24.903  1.00  0.00    -0.458 OA
BRANCH  29  30
ATOM     30  C   UNL A   1      43.696  23.787  24.930  1.00  0.00     0.338 C 
ATOM     31  O   UNL A   1      44.683  24.087  24.281  1.00  0.00    -0.246 OA
BRANCH  30  32
ATOM     32  C   UNL A   1      43.063  24.722  25.875  1.00  0.00     0.060 A 
ATOM     33  C   UNL A   1      43.308  26.085  25.750  1.00  0.00     0.016 A 
ATOM     34  C   UNL A   1      42.355  24.243  26.976  1.00  0.00     0.016 A 
ATOM     35  C   UNL A   1      42.952  26.963  26.771  1.00  0.00     0.010 A 
ATOM     36  C   UNL A   1      41.896  25.141  27.948  1.00  0.00     0.010 A 
ATOM     37  C   UNL A   1      42.227  26.509  27.883  1.00  0.00    -0.014 A 
BRANCH  37  38
ATOM     38  C   UNL A   1      41.857  27.445  28.987  1.00  0.00     0.031 A 
ATOM     39  C   UNL A   1      42.700  27.522  30.236  1.00  0.00     0.074 A 
ATOM     40  C   UNL A   1      40.774  28.243  28.880  1.00  0.00     0.049 A 
ATOM     41  N   UNL A   1      42.445  28.117  31.376  1.00  0.00    -0.248 NA
ATOM     42  C   UNL A   1      43.994  26.824  30.205  1.00  0.00     0.031 C 
ATOM     43  C   UNL A   1      39.885  28.317  27.720  1.00  0.00     0.029 A 
ATOM     44  N   UNL A   1      40.239  29.153  29.763  1.00  0.00    -0.354 N 
ATOM     45  C   UNL A   1      43.510  27.806  32.215  1.00  0.00     0.074 A 
ATOM     46  C   UNL A   1      44.416  26.973  31.452  1.00  0.00     0.031 C 
ATOM     47  C   UNL A   1      38.947  29.250  27.941  1.00  0.00     0.029 A 
ATOM     48  C   UNL A   1      39.104  29.770  29.294  1.00  0.00     0.049 A 
ATOM     49  H   UNL A   1      40.631  29.343  30.646  1.00  0.00     0.167 HD
ATOM     50  C   UNL A   1      43.710  28.179  33.502  1.00  0.00     0.037 A 
ATOM     51  C   UNL A   1      38.253  30.623  29.896  1.00  0.00     0.037 A 
ATOM     52  C   UNL A   1      42.846  29.067  34.238  1.00  0.00     0.049 A 
ATOM     53  C   UNL A   1      38.488  31.013  31.328  1.00  0.00     0.074 A 
ATOM     54  C   UNL A   1      42.982  29.525  35.537  1.00  0.00     0.029 A 
ATOM     55  N   UNL A   1      41.694  29.649  33.728  1.00  0.00    -0.354 N 
ATOM     56  N   UNL A   1      39.462  30.662  32.130  1.00  0.00    -0.248 NA
ATOM     57  C   UNL A   1      37.492  31.900  31.944  1.00  0.00     0.031 C 
ATOM     58  C   UNL A   1      41.895  30.357  35.826  1.00  0.00     0.029 A 
ATOM     59  C   UNL A   1      41.104  30.452  34.693  1.00  0.00     0.049 A 
ATOM     60  H   UNL A   1      41.347  29.512  32.818  1.00  0.00     0.167 HD
ATOM     61  C   UNL A   1      39.201  31.285  33.342  1.00  0.00     0.074 A 
ATOM     62  C   UNL A   1      37.989  32.057  33.162  1.00  0.00     0.031 C 
ATOM     63  C   UNL A   1      39.899  31.216  34.501  1.00  0.00     0.037 A 
BRANCH  50  64
ATOM     64  C   UNL A   1      44.895  27.599  34.220  1.00  0.00     0.064 A 
ATOM     65  C   UNL A   1      44.834  26.369  34.890  1.00  0.00     0.173 A 
ATOM     66  C   UNL A   1      46.127  28.273  34.197  1.00  0.00     0.173 A 
ATOM     67  F   UNL A   1      43.678  25.691  34.951  1.00  0.00    -0.203 F 
ATOM     68  C   UNL A   1      45.955  25.848  35.533  1.00  0.00     0.198 A 
ATOM     69  C   UNL A   1      47.253  27.736  34.817  1.00  0.00     0.198 A 
ATOM     70  F   UNL A   1      46.243  29.450  33.563  1.00  0.00    -0.203 F 
ATOM     71  F   UNL A   1      45.863  24.693  36.205  1.00  0.00    -0.200 F 
ATOM     72  C   UNL A   1      47.164  26.528  35.491  1.00  0.00     0.200 A 
ATOM     73  F   UNL A   1      48.422  28.387  34.761  1.00  0.00    -0.200 F 
ATOM     74  F   UNL A   1      48.243  26.020  36.103  1.00  0.00    -0.200 F 
ENDBRANCH  50  64
BRANCH  51  75
ATOM     75  C   UNL A   1      37.070  31.129  29.152  1.00  0.00     0.064 A 
ATOM     76  C   UNL A   1      35.960  30.306  28.916  1.00  0.00     0.173 A 
ATOM     77  C   UNL A   1      37.017  32.449  28.678  1.00  0.00     0.173 A 
ATOM     78  F   UNL A   1      35.976  29.029  29.322  1.00  0.00    -0.203 F 
ATOM     79  C   UNL A   1      34.844  30.785  28.231  1.00  0.00     0.198 A 
ATOM     80  C   UNL A   1      35.888  32.935  28.023  1.00  0.00     0.198 A 
ATOM     81  F   UNL A   1      38.054  33.276  28.876  1.00  0.00    -0.203 F 
ATOM     82  F   UNL A   1      33.811  29.967  27.987  1.00  0.00    -0.200 F 
ATOM     83  C   UNL A   1      34.804  32.101  27.795  1.00  0.00     0.200 A 
ATOM     84  F   UNL A   1      35.849  34.212  27.618  1.00  0.00    -0.200 F 
ATOM     85  F   UNL A   1      33.724  32.564  27.151  1.00  0.00    -0.200 F 
ENDBRANCH  51  75
BRANCH  63  86
ATOM     86  C   UNL A   1      39.381  32.016  35.659  1.00  0.00     0.064 A 
ATOM     87  C   UNL A   1      39.776  33.346  35.866  1.00  0.00     0.173 A 
ATOM     88  C   UNL A   1      38.462  31.453  36.556  1.00  0.00     0.173 A 
ATOM     89  F   UNL A   1      40.668  33.920  35.045  1.00  0.00    -0.203 F 
ATOM     90  C   UNL A   1      39.284  34.076  36.945  1.00  0.00     0.198 A 
ATOM     91  C   UNL A   1      37.953  32.195  37.618  1.00  0.00     0.198 A 
ATOM     92  F   UNL A   1      38.051  30.185  36.398  1.00  0.00    -0.203 F 
ATOM     93  F   UNL A   1      39.708  35.331  37.151  1.00  0.00    -0.200 F 
ATOM     94  C   UNL A   1      38.370  33.502  37.815  1.00  0.00     0.200 A 
ATOM     95  F   UNL A   1      37.063  31.642  38.454  1.00  0.00    -0.200 F 
ATOM     96  F   UNL A   1      37.896  34.209  38.852  1.00  0.00    -0.200 F 
ENDBRANCH  63  86
ENDBRANCH  37  38
ENDBRANCH  30  32
ENDBRANCH  29  30
ENDBRANCH  28  29
ENDBRANCH  27  28
ENDBRANCH   1  27
TORSDOF 16
ENDMDL
MODEL 3
REMARK VINA RESULT:     -11.9      0.968      2.227
REMARK SMILES O=C(CSc1ccc2ccccc2n1)NCc1ccc(C(=O)OCCOC(=O)c2ccc(-c3c4nc(c(-c5c(F)c(F)c(F)c(F)c5F)c5ccc([nH]5)c(-c5c(F)c(F)c(F)c(F)c5F)c5nc(c(-c6c(F)c(F)c(F)c(F)c6F)c6ccc3[nH]6)C=C5)C=C4)cc2)cc1
REMARK SMILES IDX 23 1 21 2 22 3 20 4 17 5 18 6 93 7 19 8 92 9 16 10 15 11
REMARK SMILES IDX 1 12 2 13 3 15 4 16 5 17 6 18 14 19 7 20 13 21 8 22 12 23
REMARK SMILES IDX 9 24 11 25 10 26 24 27 25 28 26 29 27 30 28 31 29 32 30 33
REMARK SMILES IDX 91 34 31 35 90 36 32 37 33 38 34 39 84 40 35 41 89 42 83 43
REMARK SMILES IDX 85 44 36 45 88 46 82 47 81 48 37 50 69 51 49 52 68 53 50 54
REMARK SMILES IDX 53 55 67 56 86 57 51 58 52 59 66 61 87 62 54 63 38 64 39 65
REMARK SMILES IDX 47 66 40 67 41 68 45 69 48 70 42 71 43 72 46 73 44 74 70 75
REMARK SMILES IDX 71 76 79 77 72 78 73 79 77 80 80 81 74 82 75 83 78 84 76 85
REMARK SMILES IDX 55 86 56 87 64 88 57 89 58 90 62 91 65 92 59 93 60 94 63 95
REMARK SMILES IDX 61 96
REMARK H PARENT 15 14 85 49 53 60
REMARK Flexibility Score: inf
ROOT
ATOM      1  O   UNL A   1      35.427  20.693  25.463  1.00  0.00    -0.458 OA
ENDROOT
BRANCH   1   2
ATOM      2  C   UNL A   1      34.212  20.578  24.874  1.00  0.00     0.338 C 
ATOM      3  O   UNL A   1      33.436  19.640  24.984  1.00  0.00    -0.246 OA
BRANCH   2   4
ATOM      4  C   UNL A   1      33.866  21.796  24.106  1.00  0.00     0.060 A 
ATOM      5  C   UNL A   1      33.158  23.957  22.449  1.00  0.00    -0.029 A 
ATOM      6  C   UNL A   1      32.218  22.972  22.763  1.00  0.00     0.006 A 
ATOM      7  C   UNL A   1      34.450  23.864  22.998  1.00  0.00     0.006 A 
ATOM      8  C   UNL A   1      32.580  21.889  23.559  1.00  0.00     0.016 A 
ATOM      9  C   UNL A   1      34.801  22.797  23.836  1.00  0.00     0.016 A 
BRANCH   5  10
ATOM     10  C   UNL A   1      32.799  25.046  21.473  1.00  0.00     0.151 C 
BRANCH  10  11
ATOM     11  N   UNL A   1      33.067  26.354  22.011  1.00  0.00    -0.351 N 
ATOM     12  O   UNL A   1      30.926  27.140  21.773  1.00  0.00    -0.274 OA
ATOM     13  C   UNL A   1      32.083  27.302  22.154  1.00  0.00     0.230 C 
ATOM     14  H   UNL A   1      33.986  26.577  22.287  1.00  0.00     0.163 HD
BRANCH  13  15
ATOM     15  C   UNL A   1      32.542  28.614  22.755  1.00  0.00     0.176 C 
BRANCH  15  16
ATOM     16  S   UNL A   1      31.932  28.851  24.452  1.00  0.00    -0.096 SA
BRANCH  16  17
ATOM     17  C   UNL A   1      32.337  27.299  25.231  1.00  0.00     0.097 A 
ATOM     18  C   UNL A   1      33.635  26.905  25.521  1.00  0.00     0.036 A 
ATOM     19  N   UNL A   1      31.270  26.503  25.468  1.00  0.00    -0.241 NA
ATOM     20  C   UNL A   1      33.844  25.648  26.082  1.00  0.00     0.013 A 
ATOM     21  C   UNL A   1      31.471  25.280  25.991  1.00  0.00     0.072 A 
ATOM     22  C   UNL A   1      32.755  24.804  26.319  1.00  0.00     0.000 A 
ATOM     23  C   UNL A   1      30.387  24.441  26.211  1.00  0.00     0.029 A 
ATOM     24  C   UNL A   1      32.921  23.513  26.855  1.00  0.00     0.010 A 
ATOM     25  C   UNL A   1      30.545  23.155  26.739  1.00  0.00     0.002 A 
ATOM     26  C   UNL A   1      31.815  22.691  27.061  1.00  0.00     0.001 A 
ENDBRANCH  16  17
ENDBRANCH  15  16
ENDBRANCH  13  15
ENDBRANCH  10  11
ENDBRANCH   5  10
ENDBRANCH   2   4
ENDBRANCH   1   2
BRANCH   1  27
ATOM     27  C   UNL A   1      36.425  19.755  25.003  1.00  0.00     0.275 C 
BRANCH  27  28
ATOM     28  C   UNL A   1      37.736  20.459  24.651  1.00  0.00     0.275 C 
BRANCH  28  29
ATOM     29  O   UNL A   1      38.111  21.368  25.702  1.00  0.00    -0.458 OA
BRANCH  29  30
ATOM     30  C   UNL A   1      39.337  21.177  26.237  1.00  0.00     0.338 C 
ATOM     31  O   UNL A   1      39.983  20.144  26.272  1.00  0.00    -0.246 OA
BRANCH  30  32
ATOM     32  C   UNL A   1      39.849  22.444  26.786  1.00  0.00     0.060 A 
ATOM     33  C   UNL A   1      39.384  23.647  26.265  1.00  0.00     0.016 A 
ATOM     34  C   UNL A   1      40.899  22.443  27.702  1.00  0.00     0.016 A 
ATOM     35  C   UNL A   1      40.034  24.842  26.564  1.00  0.00     0.010 A 
ATOM     36  C   UNL A   1      41.477  23.658  28.091  1.00  0.00     0.010 A 
ATOM     37  C   UNL A   1      41.084  24.872  27.494  1.00  0.00    -0.014 A 
BRANCH  37  38
ATOM     38  C   UNL A   1      41.792  26.149  27.806  1.00  0.00     0.031 A 
ATOM     39  C   UNL A   1      41.117  27.213  28.637  1.00  0.00     0.074 A 
ATOM     40  C   UNL A   1      43.048  26.368  27.362  1.00  0.00     0.049 A 
ATOM     41  N   UNL A   1      41.478  28.454  28.853  1.00  0.00    -0.248 NA
ATOM     42  C   UNL A   1      39.860  26.834  29.300  1.00  0.00     0.031 C 
ATOM     43  C   UNL A   1      43.850  25.422  26.586  1.00  0.00     0.029 A 
ATOM     44  N   UNL A   1      43.874  27.458  27.507  1.00  0.00    -0.354 N 
ATOM     45  C   UNL A   1      40.461  29.020  29.614  1.00  0.00     0.074 A 
ATOM     46  C   UNL A   1      39.470  27.986  29.826  1.00  0.00     0.031 C 
ATOM     47  C   UNL A   1      45.063  25.950  26.363  1.00  0.00     0.029 A 
ATOM     48  C   UNL A   1      45.093  27.309  26.891  1.00  0.00     0.049 A 
ATOM     49  H   UNL A   1      43.616  28.268  28.005  1.00  0.00     0.167 HD
ATOM     50  C   UNL A   1      40.364  30.286  30.089  1.00  0.00     0.037 A 
ATOM     51  C   UNL A   1      46.108  28.179  26.723  1.00  0.00     0.037 A 
ATOM     52  C   UNL A   1      41.384  31.293  29.941  1.00  0.00     0.049 A 
ATOM     53  C   UNL A   1      45.972  29.580  27.247  1.00  0.00     0.074 A 
ATOM     54  C   UNL A   1      41.387  32.594  30.412  1.00  0.00     0.029 A 
ATOM     55  N   UNL A   1      42.592  31.102  29.287  1.00  0.00    -0.354 N 
ATOM     56  N   UNL A   1      44.980  30.123  27.908  1.00  0.00    -0.248 NA
ATOM     57  C   UNL A   1      47.089  30.497  26.980  1.00  0.00     0.031 C 
ATOM     58  C   UNL A   1      42.582  33.203  30.015  1.00  0.00     0.029 A 
ATOM     59  C   UNL A   1      43.343  32.267  29.333  1.00  0.00     0.049 A 
ATOM     60  H   UNL A   1      42.875  30.265  28.855  1.00  0.00     0.167 HD
ATOM     61  C   UNL A   1      45.351  31.439  28.141  1.00  0.00     0.074 A 
ATOM     62  C   UNL A   1      46.673  31.608  27.572  1.00  0.00     0.031 C 
ATOM     63  C   UNL A   1      44.656  32.422  28.763  1.00  0.00     0.037 A 
BRANCH  50  64
ATOM     64  C   UNL A   1      39.092  30.673  30.787  1.00  0.00     0.064 A 
ATOM     65  C   UNL A   1      37.984  31.180  30.093  1.00  0.00     0.173 A 
ATOM     66  C   UNL A   1      38.969  30.489  32.174  1.00  0.00     0.173 A 
ATOM     67  F   UNL A   1      38.052  31.385  28.770  1.00  0.00    -0.203 F 
ATOM     68  C   UNL A   1      36.810  31.515  30.766  1.00  0.00     0.198 A 
ATOM     69  C   UNL A   1      37.785  30.798  32.839  1.00  0.00     0.198 A 
ATOM     70  F   UNL A   1      39.996  29.998  32.885  1.00  0.00    -0.203 F 
ATOM     71  F   UNL A   1      35.779  32.040  30.091  1.00  0.00    -0.200 F 
ATOM     72  C   UNL A   1      36.709  31.318  32.136  1.00  0.00     0.200 A 
ATOM     73  F   UNL A   1      37.686  30.593  34.159  1.00  0.00    -0.200 F 
ATOM     74  F   UNL A   1      35.577  31.633  32.779  1.00  0.00    -0.200 F 
ENDBRANCH  50  64
BRANCH  51  75
ATOM     75  C   UNL A   1      47.325  27.755  25.982  1.00  0.00     0.064 A 
ATOM     76  C   UNL A   1      48.460  27.294  26.662  1.00  0.00     0.173 A 
ATOM     77  C   UNL A   1      47.371  27.785  24.580  1.00  0.00     0.173 A 
ATOM     78  F   UNL A   1      48.475  27.276  28.003  1.00  0.00    -0.203 F 
ATOM     79  C   UNL A   1      49.596  26.883  25.967  1.00  0.00     0.198 A 
ATOM     80  C   UNL A   1      48.494  27.343  23.887  1.00  0.00     0.198 A 
ATOM     81  F   UNL A   1      46.311  28.220  23.882  1.00  0.00    -0.203 F 
ATOM     82  F   UNL A   1      50.681  26.480  26.642  1.00  0.00    -0.200 F 
ATOM     83  C   UNL A   1      49.608  26.897  24.581  1.00  0.00     0.200 A 
ATOM     84  F   UNL A   1      48.495  27.344  22.546  1.00  0.00    -0.200 F 
ATOM     85  F   UNL A   1      50.695  26.486  23.914  1.00  0.00    -0.200 F 
ENDBRANCH  51  75
BRANCH  63  86
ATOM     86  C   UNL A   1      45.322  33.760  28.881  1.00  0.00     0.064 A 
ATOM     87  C   UNL A   1      46.167  34.066  29.958  1.00  0.00     0.173 A 
ATOM     88  C   UNL A   1      45.131  34.738  27.894  1.00  0.00     0.173 A 
ATOM     89  F   UNL A   1      46.365  33.170  30.936  1.00  0.00    -0.203 F 
ATOM     90  C   UNL A   1      46.780  35.313  30.052  1.00  0.00     0.198 A 
ATOM     91  C   UNL A   1      45.765  35.973  27.978  1.00  0.00     0.198 A 
ATOM     92  F   UNL A   1      44.334  34.491  26.843  1.00  0.00    -0.203 F 
ATOM     93  F   UNL A   1      47.548  35.601  31.112  1.00  0.00    -0.200 F 
ATOM     94  C   UNL A   1      46.583  36.262  29.060  1.00  0.00     0.200 A 
ATOM     95  F   UNL A   1      45.581  36.887  27.016  1.00  0.00    -0.200 F 
ATOM     96  F   UNL A   1      47.176  37.461  29.152  1.00  0.00    -0.200 F 
ENDBRANCH  63  86
ENDBRANCH  37  38
ENDBRANCH  30  32
ENDBRANCH  29  30
ENDBRANCH  28  29
ENDBRANCH  27  28
ENDBRANCH   1  27
TORSDOF 16
ENDMDL
