MODEL 1
REMARK VINA RESULT:     -11.4      0.000      0.000
REMARK SMILES Cc1nc(C(=O)OCCOC(=O)c2ccc(-c3c4nc(c(-c5c(F)c(F)c(F)c(F)c5F)c5ccc([nH]5)c(-c5c(F)c(F)c(F)c(F)c5F)c5nc(c(-c6c(F)c(F)c(F)c(F)c6F)c6ccc3[nH]6)C=C5)C=C4)cc2)nn1-c1cccc(C(F)(F)F)c1
REMARK SMILES IDX 8 1 7 2 5 3 6 4 4 5 1 6 2 7 3 8 77 9 76 10 78 11 79 12 87 13
REMARK SMILES IDX 80 14 82 15 81 16 83 17 84 18 85 19 86 20 9 21 10 22 11 23
REMARK SMILES IDX 12 24 13 25 14 26 75 27 15 28 74 29 16 30 17 31 18 32 68 33
REMARK SMILES IDX 19 34 73 35 67 36 69 37 20 38 72 39 66 40 65 41 21 43 53 44
REMARK SMILES IDX 33 45 52 46 34 47 37 48 51 49 70 50 35 51 36 52 50 54 71 55
REMARK SMILES IDX 38 56 22 57 23 58 31 59 24 60 25 61 29 62 32 63 26 64 27 65
REMARK SMILES IDX 30 66 28 67 54 68 55 69 63 70 56 71 57 72 61 73 64 74 58 75
REMARK SMILES IDX 59 76 62 77 60 78 39 79 40 80 48 81 41 82 42 83 46 84 49 85
REMARK SMILES IDX 43 86 44 87 47 88 45 89
REMARK H PARENT 69 42 37 53
REMARK Flexibility Score: inf
ROOT
ATOM      1  C   UNL A   1      42.280  18.965  26.296  1.00  0.00     0.275 C 
ENDROOT
BRANCH   1   2
ATOM      2  O   UNL A   1      42.845  19.208  25.001  1.00  0.00    -0.456 OA
BRANCH   2   3
ATOM      3  C   UNL A   1      44.146  19.658  24.980  1.00  0.00     0.378 C 
ATOM      4  O   UNL A   1      45.102  18.964  24.686  1.00  0.00    -0.242 OA
BRANCH   3   5
ATOM      5  C   UNL A   1      44.231  21.099  25.300  1.00  0.00     0.260 A 
ATOM      6  C   UNL A   1      43.301  24.525  24.917  1.00  0.00     0.090 C 
ATOM      7  C   UNL A   1      43.758  23.176  25.328  1.00  0.00     0.130 A 
ATOM      8  N   UNL A   1      43.421  22.056  24.719  1.00  0.00    -0.206 NA
ATOM      9  N   UNL A   1      44.736  22.902  26.266  1.00  0.00    -0.217 N 
ATOM     10  N   UNL A   1      45.117  21.610  26.170  1.00  0.00    -0.138 NA
BRANCH   9  11
ATOM     11  C   UNL A   1      45.367  23.740  27.215  1.00  0.00     0.067 A 
ATOM     12  C   UNL A   1      46.602  24.307  26.876  1.00  0.00     0.028 A 
ATOM     13  C   UNL A   1      44.817  23.949  28.485  1.00  0.00     0.041 A 
ATOM     14  C   UNL A   1      47.262  25.134  27.780  1.00  0.00     0.003 A 
ATOM     15  C   UNL A   1      45.511  24.736  29.424  1.00  0.00     0.058 A 
ATOM     16  C   UNL A   1      46.721  25.346  29.047  1.00  0.00     0.013 A 
BRANCH  15  17
ATOM     17  C   UNL A   1      45.011  24.904  30.839  1.00  0.00     0.416 C 
ATOM     18  F   UNL A   1      43.996  25.809  30.927  1.00  0.00    -0.166 F 
ATOM     19  F   UNL A   1      44.524  23.745  31.360  1.00  0.00    -0.166 F 
ATOM     20  F   UNL A   1      45.969  25.332  31.708  1.00  0.00    -0.166 F 
ENDBRANCH  15  17
ENDBRANCH   9  11
ENDBRANCH   3   5
ENDBRANCH   2   3
ENDBRANCH   1   2
BRANCH   1  21
ATOM     21  C   UNL A   1      40.944  19.676  26.466  1.00  0.00     0.275 C 
BRANCH  21  22
ATOM     22  O   UNL A   1      41.098  21.002  26.976  1.00  0.00    -0.458 OA
BRANCH  22  23
ATOM     23  C   UNL A   1      40.060  21.837  26.744  1.00  0.00     0.338 C 
ATOM     24  O   UNL A   1      39.010  21.569  26.182  1.00  0.00    -0.246 OA
BRANCH  23  25
ATOM     25  C   UNL A   1      40.471  23.208  27.079  1.00  0.00     0.060 A 
ATOM     26  C   UNL A   1      41.415  23.394  28.092  1.00  0.00     0.016 A 
ATOM     27  C   UNL A   1      39.772  24.294  26.530  1.00  0.00     0.016 A 
ATOM     28  C   UNL A   1      41.588  24.665  28.616  1.00  0.00     0.010 A 
ATOM     29  C   UNL A   1      39.938  25.557  27.059  1.00  0.00     0.010 A 
ATOM     30  C   UNL A   1      40.812  25.729  28.127  1.00  0.00    -0.014 A 
BRANCH  30  31
ATOM     31  C   UNL A   1      41.080  27.070  28.623  1.00  0.00     0.031 A 
ATOM     32  C   UNL A   1      42.319  27.647  28.047  1.00  0.00     0.074 A 
ATOM     33  C   UNL A   1      40.245  27.771  29.419  1.00  0.00     0.049 A 
ATOM     34  N   UNL A   1      43.407  27.931  28.677  1.00  0.00    -0.248 NA
ATOM     35  C   UNL A   1      42.422  27.785  26.585  1.00  0.00     0.031 C 
ATOM     36  C   UNL A   1      38.880  27.412  29.815  1.00  0.00     0.029 A 
ATOM     37  N   UNL A   1      40.412  29.006  29.984  1.00  0.00    -0.354 N 
ATOM     38  C   UNL A   1      44.267  28.478  27.728  1.00  0.00     0.074 A 
ATOM     39  C   UNL A   1      43.679  28.213  26.443  1.00  0.00     0.031 C 
ATOM     40  C   UNL A   1      38.273  28.490  30.367  1.00  0.00     0.029 A 
ATOM     41  C   UNL A   1      39.246  29.561  30.502  1.00  0.00     0.049 A 
ATOM     42  H   UNL A   1      41.283  29.463  30.020  1.00  0.00     0.167 HD
ATOM     43  C   UNL A   1      45.238  29.345  28.119  1.00  0.00     0.037 A 
ATOM     44  C   UNL A   1      39.090  30.814  30.998  1.00  0.00     0.037 A 
ATOM     45  C   UNL A   1      45.434  29.282  29.543  1.00  0.00     0.049 A 
ATOM     46  C   UNL A   1      40.425  31.308  31.396  1.00  0.00     0.074 A 
ATOM     47  C   UNL A   1      46.100  28.473  30.435  1.00  0.00     0.029 A 
ATOM     48  N   UNL A   1      44.510  30.001  30.253  1.00  0.00    -0.354 N 
ATOM     49  N   UNL A   1      41.091  30.828  32.408  1.00  0.00    -0.248 NA
ATOM     50  C   UNL A   1      41.193  32.140  30.475  1.00  0.00     0.031 C 
ATOM     51  C   UNL A   1      45.453  28.646  31.696  1.00  0.00     0.029 A 
ATOM     52  C   UNL A   1      44.434  29.582  31.552  1.00  0.00     0.049 A 
ATOM     53  H   UNL A   1      43.967  30.730  29.874  1.00  0.00     0.167 HD
ATOM     54  C   UNL A   1      42.407  30.920  32.011  1.00  0.00     0.074 A 
ATOM     55  C   UNL A   1      42.424  31.892  30.927  1.00  0.00     0.031 C 
ATOM     56  C   UNL A   1      43.297  29.949  32.358  1.00  0.00     0.037 A 
BRANCH  43  57
ATOM     57  C   UNL A   1      45.642  30.586  27.351  1.00  0.00     0.064 A 
ATOM     58  C   UNL A   1      47.015  30.869  27.194  1.00  0.00     0.173 A 
ATOM     59  C   UNL A   1      44.768  31.659  27.074  1.00  0.00     0.173 A 
ATOM     60  F   UNL A   1      47.941  29.931  27.445  1.00  0.00    -0.203 F 
ATOM     61  C   UNL A   1      47.476  32.148  26.862  1.00  0.00     0.198 A 
ATOM     62  C   UNL A   1      45.229  32.920  26.697  1.00  0.00     0.198 A 
ATOM     63  F   UNL A   1      43.447  31.572  27.269  1.00  0.00    -0.203 F 
ATOM     64  F   UNL A   1      48.792  32.399  26.844  1.00  0.00    -0.200 F 
ATOM     65  C   UNL A   1      46.581  33.173  26.622  1.00  0.00     0.200 A 
ATOM     66  F   UNL A   1      44.347  33.909  26.492  1.00  0.00    -0.200 F 
ATOM     67  F   UNL A   1      47.018  34.414  26.365  1.00  0.00    -0.200 F 
ENDBRANCH  43  57
BRANCH  44  68
ATOM     68  C   UNL A   1      37.914  31.712  31.017  1.00  0.00     0.064 A 
ATOM     69  C   UNL A   1      37.352  32.202  29.822  1.00  0.00     0.173 A 
ATOM     70  C   UNL A   1      37.129  31.835  32.176  1.00  0.00     0.173 A 
ATOM     71  F   UNL A   1      38.023  32.096  28.667  1.00  0.00    -0.203 F 
ATOM     72  C   UNL A   1      36.059  32.733  29.783  1.00  0.00     0.198 A 
ATOM     73  C   UNL A   1      35.838  32.366  32.135  1.00  0.00     0.198 A 
ATOM     74  F   UNL A   1      37.561  31.344  33.346  1.00  0.00    -0.203 F 
ATOM     75  F   UNL A   1      35.528  33.117  28.614  1.00  0.00    -0.200 F 
ATOM     76  C   UNL A   1      35.295  32.797  30.936  1.00  0.00     0.200 A 
ATOM     77  F   UNL A   1      35.093  32.391  33.250  1.00  0.00    -0.200 F 
ATOM     78  F   UNL A   1      34.028  33.230  30.887  1.00  0.00    -0.200 F 
ENDBRANCH  44  68
BRANCH  56  79
ATOM     79  C   UNL A   1      42.971  29.132  33.564  1.00  0.00     0.064 A 
ATOM     80  C   UNL A   1      42.192  27.963  33.547  1.00  0.00     0.173 A 
ATOM     81  C   UNL A   1      43.512  29.538  34.789  1.00  0.00     0.173 A 
ATOM     82  F   UNL A   1      41.699  27.478  32.401  1.00  0.00    -0.203 F 
ATOM     83  C   UNL A   1      41.935  27.259  34.723  1.00  0.00     0.198 A 
ATOM     84  C   UNL A   1      43.283  28.814  35.954  1.00  0.00     0.198 A 
ATOM     85  F   UNL A   1      44.291  30.630  34.850  1.00  0.00    -0.203 F 
ATOM     86  F   UNL A   1      41.169  26.158  34.693  1.00  0.00    -0.200 F 
ATOM     87  C   UNL A   1      42.485  27.682  35.923  1.00  0.00     0.200 A 
ATOM     88  F   UNL A   1      43.847  29.209  37.103  1.00  0.00    -0.200 F 
ATOM     89  F   UNL A   1      42.261  26.990  37.048  1.00  0.00    -0.200 F 
ENDBRANCH  56  79
ENDBRANCH  30  31
ENDBRANCH  23  25
ENDBRANCH  22  23
ENDBRANCH  21  22
ENDBRANCH   1  21
TORSDOF 13
ENDMDL
MODEL 2
REMARK VINA RESULT:     -11.2      1.142      2.149
REMARK SMILES Cc1nc(C(=O)OCCOC(=O)c2ccc(-c3c4nc(c(-c5c(F)c(F)c(F)c(F)c5F)c5ccc([nH]5)c(-c5c(F)c(F)c(F)c(F)c5F)c5nc(c(-c6c(F)c(F)c(F)c(F)c6F)c6ccc3[nH]6)C=C5)C=C4)cc2)nn1-c1cccc(C(F)(F)F)c1
REMARK SMILES IDX 8 1 7 2 5 3 6 4 4 5 1 6 2 7 3 8 77 9 76 10 78 11 79 12 87 13
REMARK SMILES IDX 80 14 82 15 81 16 83 17 84 18 85 19 86 20 9 21 10 22 11 23
REMARK SMILES IDX 12 24 13 25 14 26 75 27 15 28 74 29 16 30 17 31 18 32 68 33
REMARK SMILES IDX 19 34 73 35 67 36 69 37 20 38 72 39 66 40 65 41 21 43 53 44
REMARK SMILES IDX 33 45 52 46 34 47 37 48 51 49 70 50 35 51 36 52 50 54 71 55
REMARK SMILES IDX 38 56 22 57 23 58 31 59 24 60 25 61 29 62 32 63 26 64 27 65
REMARK SMILES IDX 30 66 28 67 54 68 55 69 63 70 56 71 57 72 61 73 64 74 58 75
REMARK SMILES IDX 59 76 62 77 60 78 39 79 40 80 48 81 41 82 42 83 46 84 49 85
REMARK SMILES IDX 43 86 44 87 47 88 45 89
REMARK H PARENT 69 42 37 53
REMARK Flexibility Score: inf
ROOT
ATOM      1  C   UNL A   1      43.421  18.621  25.828  1.00  0.00     0.275 C 
ENDROOT
BRANCH   1   2
ATOM      2  O   UNL A   1      43.852  19.010  24.518  1.00  0.00    -0.456 OA
BRANCH   2   3
ATOM      3  C   UNL A   1      45.090  19.605  24.435  1.00  0.00     0.378 C 
ATOM      4  O   UNL A   1      46.102  19.026  24.081  1.00  0.00    -0.242 OA
BRANCH   3   5
ATOM      5  C   UNL A   1      45.030  21.042  24.774  1.00  0.00     0.260 A 
ATOM      6  C   UNL A   1      43.509  24.273  24.764  1.00  0.00     0.090 C 
ATOM      7  C   UNL A   1      44.262  23.018  24.996  1.00  0.00     0.130 A 
ATOM      8  N   UNL A   1      43.958  21.854  24.454  1.00  0.00    -0.206 NA
ATOM      9  N   UNL A   1      45.480  22.910  25.640  1.00  0.00    -0.217 N 
ATOM     10  N   UNL A   1      46.020  21.694  25.404  1.00  0.00    -0.138 NA
BRANCH   9  11
ATOM     11  C   UNL A   1      46.197  23.844  26.424  1.00  0.00     0.067 A 
ATOM     12  C   UNL A   1      45.878  23.946  27.784  1.00  0.00     0.028 A 
ATOM     13  C   UNL A   1      47.152  24.696  25.855  1.00  0.00     0.041 A 
ATOM     14  C   UNL A   1      46.554  24.855  28.593  1.00  0.00     0.003 A 
ATOM     15  C   UNL A   1      47.794  25.658  26.658  1.00  0.00     0.058 A 
ATOM     16  C   UNL A   1      47.505  25.707  28.033  1.00  0.00     0.013 A 
BRANCH  15  17
ATOM     17  C   UNL A   1      48.751  26.667  26.071  1.00  0.00     0.416 C 
ATOM     18  F   UNL A   1      49.446  26.167  25.011  1.00  0.00    -0.166 F 
ATOM     19  F   UNL A   1      48.116  27.779  25.609  1.00  0.00    -0.166 F 
ATOM     20  F   UNL A   1      49.687  27.109  26.955  1.00  0.00    -0.166 F 
ENDBRANCH  15  17
ENDBRANCH   9  11
ENDBRANCH   3   5
ENDBRANCH   2   3
ENDBRANCH   1   2
BRANCH   1  21
ATOM     21  C   UNL A   1      42.075  19.239  26.182  1.00  0.00     0.275 C 
BRANCH  21  22
ATOM     22  O   UNL A   1      42.215  20.481  26.876  1.00  0.00    -0.458 OA
BRANCH  22  23
ATOM     23  C   UNL A   1      41.059  21.130  27.142  1.00  0.00     0.338 C 
ATOM     24  O   UNL A   1      39.925  20.689  27.037  1.00  0.00    -0.246 OA
BRANCH  23  25
ATOM     25  C   UNL A   1      41.356  22.551  27.374  1.00  0.00     0.060 A 
ATOM     26  C   UNL A   1      42.324  22.884  28.325  1.00  0.00     0.016 A 
ATOM     27  C   UNL A   1      40.534  23.533  26.800  1.00  0.00     0.016 A 
ATOM     28  C   UNL A   1      42.402  24.196  28.764  1.00  0.00     0.010 A 
ATOM     29  C   UNL A   1      40.606  24.837  27.245  1.00  0.00     0.010 A 
ATOM     30  C   UNL A   1      41.509  25.153  28.255  1.00  0.00    -0.014 A 
BRANCH  30  31
ATOM     31  C   UNL A   1      41.674  26.541  28.658  1.00  0.00     0.031 A 
ATOM     32  C   UNL A   1      42.922  27.139  28.123  1.00  0.00     0.074 A 
ATOM     33  C   UNL A   1      40.750  27.255  29.335  1.00  0.00     0.049 A 
ATOM     34  N   UNL A   1      43.946  27.530  28.801  1.00  0.00    -0.248 NA
ATOM     35  C   UNL A   1      43.124  27.168  26.665  1.00  0.00     0.031 C 
ATOM     36  C   UNL A   1      39.379  26.854  29.663  1.00  0.00     0.029 A 
ATOM     37  N   UNL A   1      40.814  28.537  29.807  1.00  0.00    -0.354 N 
ATOM     38  C   UNL A   1      44.845  28.047  27.872  1.00  0.00     0.074 A 
ATOM     39  C   UNL A   1      44.366  27.652  26.575  1.00  0.00     0.031 C 
ATOM     40  C   UNL A   1      38.681  27.936  30.082  1.00  0.00     0.029 A 
ATOM     41  C   UNL A   1      39.587  29.066  30.197  1.00  0.00     0.049 A 
ATOM     42  H   UNL A   1      41.657  29.043  29.866  1.00  0.00     0.167 HD
ATOM     43  C   UNL A   1      45.741  28.995  28.256  1.00  0.00     0.037 A 
ATOM     44  C   UNL A   1      39.335  30.344  30.577  1.00  0.00     0.037 A 
ATOM     45  C   UNL A   1      45.835  29.054  29.692  1.00  0.00     0.049 A 
ATOM     46  C   UNL A   1      40.612  30.940  31.025  1.00  0.00     0.074 A 
ATOM     47  C   UNL A   1      46.474  28.354  30.690  1.00  0.00     0.029 A 
ATOM     48  N   UNL A   1      44.828  29.773  30.275  1.00  0.00    -0.354 N 
ATOM     49  N   UNL A   1      41.224  30.577  32.115  1.00  0.00    -0.248 NA
ATOM     50  C   UNL A   1      41.403  31.738  30.093  1.00  0.00     0.031 C 
ATOM     51  C   UNL A   1      45.728  28.588  31.885  1.00  0.00     0.029 A 
ATOM     52  C   UNL A   1      44.678  29.453  31.595  1.00  0.00     0.049 A 
ATOM     53  H   UNL A   1      44.279  30.440  29.802  1.00  0.00     0.167 HD
ATOM     54  C   UNL A   1      42.559  30.709  31.804  1.00  0.00     0.074 A 
ATOM     55  C   UNL A   1      42.608  31.594  30.648  1.00  0.00     0.031 C 
ATOM     56  C   UNL A   1      43.469  29.819  32.289  1.00  0.00     0.037 A 
BRANCH  43  57
ATOM     57  C   UNL A   1      46.139  30.193  27.420  1.00  0.00     0.064 A 
ATOM     58  C   UNL A   1      47.500  30.559  27.364  1.00  0.00     0.173 A 
ATOM     59  C   UNL A   1      45.229  31.173  26.968  1.00  0.00     0.173 A 
ATOM     60  F   UNL A   1      48.454  29.713  27.783  1.00  0.00    -0.203 F 
ATOM     61  C   UNL A   1      47.908  31.835  26.962  1.00  0.00     0.198 A 
ATOM     62  C   UNL A   1      45.644  32.428  26.523  1.00  0.00     0.198 A 
ATOM     63  F   UNL A   1      43.904  31.008  27.049  1.00  0.00    -0.203 F 
ATOM     64  F   UNL A   1      49.202  32.178  27.042  1.00  0.00    -0.200 F 
ATOM     65  C   UNL A   1      46.979  32.770  26.549  1.00  0.00     0.200 A 
ATOM     66  F   UNL A   1      44.725  33.330  26.149  1.00  0.00    -0.200 F 
ATOM     67  F   UNL A   1      47.359  34.012  26.222  1.00  0.00    -0.200 F 
ENDBRANCH  43  57
BRANCH  44  68
ATOM     68  C   UNL A   1      38.117  31.175  30.442  1.00  0.00     0.064 A 
ATOM     69  C   UNL A   1      37.648  31.960  31.512  1.00  0.00     0.173 A 
ATOM     70  C   UNL A   1      37.590  31.466  29.172  1.00  0.00     0.173 A 
ATOM     71  F   UNL A   1      38.123  31.767  32.751  1.00  0.00    -0.203 F 
ATOM     72  C   UNL A   1      36.746  33.009  31.312  1.00  0.00     0.198 A 
ATOM     73  C   UNL A   1      36.689  32.514  28.974  1.00  0.00     0.198 A 
ATOM     74  F   UNL A   1      38.024  30.807  28.088  1.00  0.00    -0.203 F 
ATOM     75  F   UNL A   1      36.383  33.785  32.343  1.00  0.00    -0.200 F 
ATOM     76  C   UNL A   1      36.282  33.298  30.040  1.00  0.00     0.200 A 
ATOM     77  F   UNL A   1      36.274  32.809  27.733  1.00  0.00    -0.200 F 
ATOM     78  F   UNL A   1      35.482  34.353  29.834  1.00  0.00    -0.200 F 
ENDBRANCH  44  68
BRANCH  56  79
ATOM     79  C   UNL A   1      43.096  29.081  33.533  1.00  0.00     0.064 A 
ATOM     80  C   UNL A   1      42.416  27.853  33.556  1.00  0.00     0.173 A 
ATOM     81  C   UNL A   1      43.487  29.634  34.757  1.00  0.00     0.173 A 
ATOM     82  F   UNL A   1      42.071  27.232  32.420  1.00  0.00    -0.203 F 
ATOM     83  C   UNL A   1      42.106  27.230  34.764  1.00  0.00     0.198 A 
ATOM     84  C   UNL A   1      43.207  28.994  35.959  1.00  0.00     0.198 A 
ATOM     85  F   UNL A   1      44.169  30.790  34.784  1.00  0.00    -0.203 F 
ATOM     86  F   UNL A   1      41.435  26.069  34.770  1.00  0.00    -0.200 F 
ATOM     87  C   UNL A   1      42.506  27.799  35.963  1.00  0.00     0.200 A 
ATOM     88  F   UNL A   1      43.629  29.532  37.111  1.00  0.00    -0.200 F 
ATOM     89  F   UNL A   1      42.233  27.188  37.123  1.00  0.00    -0.200 F 
ENDBRANCH  56  79
ENDBRANCH  30  31
ENDBRANCH  23  25
ENDBRANCH  22  23
ENDBRANCH  21  22
ENDBRANCH   1  21
TORSDOF 13
ENDMDL
MODEL 3
REMARK VINA RESULT:     -10.9      4.096     10.808
REMARK SMILES Cc1nc(C(=O)OCCOC(=O)c2ccc(-c3c4nc(c(-c5c(F)c(F)c(F)c(F)c5F)c5ccc([nH]5)c(-c5c(F)c(F)c(F)c(F)c5F)c5nc(c(-c6c(F)c(F)c(F)c(F)c6F)c6ccc3[nH]6)C=C5)C=C4)cc2)nn1-c1cccc(C(F)(F)F)c1
REMARK SMILES IDX 8 1 7 2 5 3 6 4 4 5 1 6 2 7 3 8 77 9 76 10 78 11 79 12 87 13
REMARK SMILES IDX 80 14 82 15 81 16 83 17 84 18 85 19 86 20 9 21 10 22 11 23
REMARK SMILES IDX 12 24 13 25 14 26 75 27 15 28 74 29 16 30 17 31 18 32 68 33
REMARK SMILES IDX 19 34 73 35 67 36 69 37 20 38 72 39 66 40 65 41 21 43 53 44
REMARK SMILES IDX 33 45 52 46 34 47 37 48 51 49 70 50 35 51 36 52 50 54 71 55
REMARK SMILES IDX 38 56 22 57 23 58 31 59 24 60 25 61 29 62 32 63 26 64 27 65
REMARK SMILES IDX 30 66 28 67 54 68 55 69 63 70 56 71 57 72 61 73 64 74 58 75
REMARK SMILES IDX 59 76 62 77 60 78 39 79 40 80 48 81 41 82 42 83 46 84 49 85
REMARK SMILES IDX 43 86 44 87 47 88 45 89
REMARK H PARENT 69 42 37 53
REMARK Flexibility Score: inf
ROOT
ATOM      1  C   UNL A   1      33.411  35.454  29.044  1.00  0.00     0.275 C 
ENDROOT
BRANCH   1   2
ATOM      2  O   UNL A   1      32.546  35.211  30.160  1.00  0.00    -0.456 OA
BRANCH   2   3
ATOM      3  C   UNL A   1      33.072  35.470  31.406  1.00  0.00     0.378 C 
ATOM      4  O   UNL A   1      32.607  36.281  32.187  1.00  0.00    -0.242 OA
BRANCH   3   5
ATOM      5  C   UNL A   1      34.233  34.604  31.699  1.00  0.00     0.260 A 
ATOM      6  C   UNL A   1      35.856  31.447  32.088  1.00  0.00     0.090 C 
ATOM      7  C   UNL A   1      35.432  32.851  31.872  1.00  0.00     0.130 A 
ATOM      8  N   UNL A   1      34.193  33.225  31.615  1.00  0.00    -0.206 NA
ATOM      9  N   UNL A   1      36.206  33.975  32.091  1.00  0.00    -0.217 N 
ATOM     10  N   UNL A   1      35.426  35.077  32.095  1.00  0.00    -0.138 NA
BRANCH   9  11
ATOM     11  C   UNL A   1      37.593  34.109  32.328  1.00  0.00     0.067 A 
ATOM     12  C   UNL A   1      38.014  34.420  33.628  1.00  0.00     0.028 A 
ATOM     13  C   UNL A   1      38.527  34.006  31.289  1.00  0.00     0.041 A 
ATOM     14  C   UNL A   1      39.369  34.566  33.907  1.00  0.00     0.003 A 
ATOM     15  C   UNL A   1      39.893  34.213  31.557  1.00  0.00     0.058 A 
ATOM     16  C   UNL A   1      40.303  34.465  32.877  1.00  0.00     0.013 A 
BRANCH  15  17
ATOM     17  C   UNL A   1      40.924  34.217  30.452  1.00  0.00     0.416 C 
ATOM     18  F   UNL A   1      41.192  32.964  29.989  1.00  0.00    -0.166 F 
ATOM     19  F   UNL A   1      40.524  34.937  29.369  1.00  0.00    -0.166 F 
ATOM     20  F   UNL A   1      42.123  34.740  30.829  1.00  0.00    -0.166 F 
ENDBRANCH  15  17
ENDBRANCH   9  11
ENDBRANCH   3   5
ENDBRANCH   2   3
ENDBRANCH   1   2
BRANCH   1  21
ATOM     21  C   UNL A   1      33.462  34.257  28.104  1.00  0.00     0.275 C 
BRANCH  21  22
ATOM     22  O   UNL A   1      34.646  33.477  28.283  1.00  0.00    -0.458 OA
BRANCH  22  23
ATOM     23  C   UNL A   1      34.554  32.186  27.894  1.00  0.00     0.338 C 
ATOM     24  O   UNL A   1      33.536  31.568  27.622  1.00  0.00    -0.246 OA
BRANCH  23  25
ATOM     25  C   UNL A   1      35.867  31.546  28.059  1.00  0.00     0.060 A 
ATOM     26  C   UNL A   1      35.948  30.155  27.968  1.00  0.00     0.016 A 
ATOM     27  C   UNL A   1      36.960  32.309  28.499  1.00  0.00     0.016 A 
ATOM     28  C   UNL A   1      37.101  29.524  28.409  1.00  0.00     0.010 A 
ATOM     29  C   UNL A   1      38.103  31.680  28.947  1.00  0.00     0.010 A 
ATOM     30  C   UNL A   1      38.151  30.290  28.940  1.00  0.00    -0.014 A 
BRANCH  30  31
ATOM     31  C   UNL A   1      39.388  29.616  29.305  1.00  0.00     0.031 A 
ATOM     32  C   UNL A   1      39.636  29.646  30.766  1.00  0.00     0.074 A 
ATOM     33  C   UNL A   1      40.167  28.930  28.442  1.00  0.00     0.049 A 
ATOM     34  N   UNL A   1      40.589  30.262  31.378  1.00  0.00    -0.248 NA
ATOM     35  C   UNL A   1      38.633  29.054  31.667  1.00  0.00     0.031 C 
ATOM     36  C   UNL A   1      39.873  28.601  27.044  1.00  0.00     0.029 A 
ATOM     37  N   UNL A   1      41.365  28.306  28.657  1.00  0.00    -0.354 N 
ATOM     38  C   UNL A   1      40.429  29.969  32.730  1.00  0.00     0.074 A 
ATOM     39  C   UNL A   1      39.130  29.367  32.867  1.00  0.00     0.031 C 
ATOM     40  C   UNL A   1      40.750  27.666  26.607  1.00  0.00     0.029 A 
ATOM     41  C   UNL A   1      41.754  27.445  27.635  1.00  0.00     0.049 A 
ATOM     42  H   UNL A   1      41.906  28.453  29.467  1.00  0.00     0.167 HD
ATOM     43  C   UNL A   1      41.507  29.994  33.558  1.00  0.00     0.037 A 
ATOM     44  C   UNL A   1      42.819  26.605  27.639  1.00  0.00     0.037 A 
ATOM     45  C   UNL A   1      42.610  30.679  32.936  1.00  0.00     0.049 A 
ATOM     46  C   UNL A   1      43.788  27.112  28.634  1.00  0.00     0.074 A 
ATOM     47  C   UNL A   1      43.004  31.982  32.736  1.00  0.00     0.029 A 
ATOM     48  N   UNL A   1      43.308  29.900  32.054  1.00  0.00    -0.354 N 
ATOM     49  N   UNL A   1      44.466  28.213  28.471  1.00  0.00    -0.248 NA
ATOM     50  C   UNL A   1      43.789  26.565  29.986  1.00  0.00     0.031 C 
ATOM     51  C   UNL A   1      43.882  31.969  31.610  1.00  0.00     0.029 A 
ATOM     52  C   UNL A   1      44.031  30.656  31.175  1.00  0.00     0.049 A 
ATOM     53  H   UNL A   1      43.292  28.915  32.054  1.00  0.00     0.167 HD
ATOM     54  C   UNL A   1      44.589  28.716  29.748  1.00  0.00     0.074 A 
ATOM     55  C   UNL A   1      44.336  27.593  30.640  1.00  0.00     0.031 C 
ATOM     56  C   UNL A   1      44.538  30.060  29.964  1.00  0.00     0.037 A 
BRANCH  43  57
ATOM     57  C   UNL A   1      41.761  28.999  34.670  1.00  0.00     0.064 A 
ATOM     58  C   UNL A   1      42.561  29.393  35.763  1.00  0.00     0.173 A 
ATOM     59  C   UNL A   1      41.552  27.608  34.544  1.00  0.00     0.173 A 
ATOM     60  F   UNL A   1      42.841  30.688  35.974  1.00  0.00    -0.203 F 
ATOM     61  C   UNL A   1      43.165  28.461  36.614  1.00  0.00     0.198 A 
ATOM     62  C   UNL A   1      42.117  26.685  35.423  1.00  0.00     0.198 A 
ATOM     63  F   UNL A   1      40.896  27.077  33.505  1.00  0.00    -0.203 F 
ATOM     64  F   UNL A   1      44.014  28.877  37.564  1.00  0.00    -0.200 F 
ATOM     65  C   UNL A   1      42.948  27.108  36.437  1.00  0.00     0.200 A 
ATOM     66  F   UNL A   1      41.916  25.375  35.220  1.00  0.00    -0.200 F 
ATOM     67  F   UNL A   1      43.574  26.210  37.210  1.00  0.00    -0.200 F 
ENDBRANCH  43  57
BRANCH  44  68
ATOM     68  C   UNL A   1      43.025  25.295  26.981  1.00  0.00     0.064 A 
ATOM     69  C   UNL A   1      43.996  25.130  25.974  1.00  0.00     0.173 A 
ATOM     70  C   UNL A   1      42.510  24.120  27.554  1.00  0.00     0.173 A 
ATOM     71  F   UNL A   1      44.560  26.201  25.397  1.00  0.00    -0.203 F 
ATOM     72  C   UNL A   1      44.461  23.865  25.603  1.00  0.00     0.198 A 
ATOM     73  C   UNL A   1      42.976  22.857  27.182  1.00  0.00     0.198 A 
ATOM     74  F   UNL A   1      41.625  24.184  28.559  1.00  0.00    -0.203 F 
ATOM     75  F   UNL A   1      45.441  23.752  24.696  1.00  0.00    -0.200 F 
ATOM     76  C   UNL A   1      43.964  22.730  26.221  1.00  0.00     0.200 A 
ATOM     77  F   UNL A   1      42.514  21.766  27.811  1.00  0.00    -0.200 F 
ATOM     78  F   UNL A   1      44.466  21.523  25.925  1.00  0.00    -0.200 F 
ENDBRANCH  44  68
BRANCH  56  79
ATOM     79  C   UNL A   1      44.886  30.944  28.813  1.00  0.00     0.064 A 
ATOM     80  C   UNL A   1      43.999  31.297  27.783  1.00  0.00     0.173 A 
ATOM     81  C   UNL A   1      46.175  31.489  28.779  1.00  0.00     0.173 A 
ATOM     82  F   UNL A   1      42.731  30.867  27.786  1.00  0.00    -0.203 F 
ATOM     83  C   UNL A   1      44.407  32.130  26.742  1.00  0.00     0.198 A 
ATOM     84  C   UNL A   1      46.568  32.347  27.759  1.00  0.00     0.198 A 
ATOM     85  F   UNL A   1      47.048  31.208  29.760  1.00  0.00    -0.203 F 
ATOM     86  F   UNL A   1      43.555  32.438  25.753  1.00  0.00    -0.200 F 
ATOM     87  C   UNL A   1      45.689  32.657  26.734  1.00  0.00     0.200 A 
ATOM     88  F   UNL A   1      47.797  32.882  27.778  1.00  0.00    -0.200 F 
ATOM     89  F   UNL A   1      46.073  33.479  25.749  1.00  0.00    -0.200 F 
ENDBRANCH  56  79
ENDBRANCH  30  31
ENDBRANCH  23  25
ENDBRANCH  22  23
ENDBRANCH  21  22
ENDBRANCH   1  21
TORSDOF 13
ENDMDL
