MODEL 1
REMARK VINA RESULT:     -11.2      0.000      0.000
REMARK SMILES CCc1ccc(S(=O)(=O)Cc2noc(C(=O)OCCOC(=O)c3ccc(-c4c5nc(c(-c6c(F)c(F)c(F)c(F)c6F)c6ccc([nH]6)c(-c6c(F)c(F)c(F)c(F)c6F)c6nc(c(-c7c(F)c(F)c(F)c(F)c7F)c7ccc4[nH]7)C=C6)C=C5)cc3)n2)cc1
REMARK SMILES IDX 18 1 17 2 15 3 16 4 14 5 11 6 12 7 86 8 13 9 10 10 7 11 8 12
REMARK SMILES IDX 9 13 6 14 3 15 4 16 88 17 5 18 87 19 2 20 1 21 19 22 20 23
REMARK SMILES IDX 21 24 22 25 23 26 24 27 85 28 25 29 84 30 26 31 27 32 28 33
REMARK SMILES IDX 78 34 29 35 83 36 77 37 79 38 30 39 82 40 76 41 75 42 31 44
REMARK SMILES IDX 63 45 43 46 62 47 44 48 47 49 61 50 80 51 45 52 46 53 60 55
REMARK SMILES IDX 81 56 48 57 32 58 33 59 41 60 34 61 35 62 39 63 42 64 36 65
REMARK SMILES IDX 37 66 40 67 38 68 64 69 65 70 73 71 66 72 67 73 71 74 74 75
REMARK SMILES IDX 68 76 69 77 72 78 70 79 49 80 50 81 58 82 51 83 52 84 56 85
REMARK SMILES IDX 59 86 53 87 54 88 57 89 55 90
REMARK H PARENT 79 43 47 54
REMARK Flexibility Score: inf
ROOT
ATOM      1  C   UNL A   1      41.330  19.886  26.774  1.00  0.00     0.275 C 
ENDROOT
BRANCH   1   2
ATOM      2  O   UNL A   1      41.760  18.918  25.801  1.00  0.00    -0.455 OA
BRANCH   2   3
ATOM      3  C   UNL A   1      42.939  18.276  26.063  1.00  0.00     0.397 C 
ATOM      4  O   UNL A   1      43.035  17.271  26.756  1.00  0.00    -0.240 OA
BRANCH   3   5
ATOM      5  C   UNL A   1      44.031  18.914  25.365  1.00  0.00     0.336 A 
ATOM      6  C   UNL A   1      45.516  20.177  24.580  1.00  0.00     0.187 A 
ATOM      7  N   UNL A   1      45.562  19.106  23.774  1.00  0.00    -0.061 NA
ATOM      8  N   UNL A   1      44.554  20.108  25.554  1.00  0.00    -0.185 NA
ATOM      9  O   UNL A   1      44.596  18.254  24.308  1.00  0.00    -0.327 OA
BRANCH   6  10
ATOM     10  C   UNL A   1      46.341  21.372  24.329  1.00  0.00     0.223 C 
BRANCH  10  11
ATOM     11  S   UNL A   1      45.426  22.886  24.321  1.00  0.00     0.185 S 
ATOM     12  O   UNL A   1      44.215  22.659  23.552  1.00  0.00    -0.223 OA
ATOM     13  O   UNL A   1      46.334  23.956  23.941  1.00  0.00    -0.223 OA
BRANCH  11  14
ATOM     14  C   UNL A   1      44.878  23.216  25.981  1.00  0.00     0.067 A 
ATOM     15  C   UNL A   1      44.076  23.607  28.643  1.00  0.00    -0.048 A 
ATOM     16  C   UNL A   1      45.436  23.572  28.306  1.00  0.00     0.005 A 
ATOM     17  C   UNL A   1      43.127  23.470  27.616  1.00  0.00     0.005 A 
ATOM     18  C   UNL A   1      45.838  23.369  26.983  1.00  0.00     0.020 A 
ATOM     19  C   UNL A   1      43.520  23.288  26.288  1.00  0.00     0.020 A 
BRANCH  15  20
ATOM     20  C   UNL A   1      43.567  23.791  30.056  1.00  0.00     0.032 C 
ATOM     21  C   UNL A   1      44.477  24.536  31.023  1.00  0.00     0.009 C 
ENDBRANCH  15  20
ENDBRANCH  11  14
ENDBRANCH  10  11
ENDBRANCH   6  10
ENDBRANCH   3   5
ENDBRANCH   2   3
ENDBRANCH   1   2
BRANCH   1  22
ATOM     22  C   UNL A   1      40.091  20.655  26.302  1.00  0.00     0.275 C 
BRANCH  22  23
ATOM     23  O   UNL A   1      40.351  22.065  26.153  1.00  0.00    -0.458 OA
BRANCH  23  24
ATOM     24  C   UNL A   1      39.252  22.854  26.129  1.00  0.00     0.338 C 
ATOM     25  O   UNL A   1      38.129  22.538  25.770  1.00  0.00    -0.246 OA
BRANCH  24  26
ATOM     26  C   UNL A   1      39.538  24.148  26.774  1.00  0.00     0.060 A 
ATOM     27  C   UNL A   1      40.199  25.115  26.009  1.00  0.00     0.016 A 
ATOM     28  C   UNL A   1      39.225  24.400  28.112  1.00  0.00     0.016 A 
ATOM     29  C   UNL A   1      40.546  26.337  26.573  1.00  0.00     0.010 A 
ATOM     30  C   UNL A   1      39.582  25.628  28.682  1.00  0.00     0.010 A 
ATOM     31  C   UNL A   1      40.250  26.600  27.917  1.00  0.00    -0.014 A 
BRANCH  31  32
ATOM     32  C   UNL A   1      40.693  27.882  28.516  1.00  0.00     0.031 A 
ATOM     33  C   UNL A   1      42.150  28.120  28.787  1.00  0.00     0.074 A 
ATOM     34  C   UNL A   1      39.794  28.853  28.758  1.00  0.00     0.049 A 
ATOM     35  N   UNL A   1      42.736  29.164  29.315  1.00  0.00    -0.248 NA
ATOM     36  C   UNL A   1      43.072  27.039  28.409  1.00  0.00     0.031 C 
ATOM     37  C   UNL A   1      38.360  28.756  28.490  1.00  0.00     0.029 A 
ATOM     38  N   UNL A   1      39.955  30.114  29.273  1.00  0.00    -0.354 N 
ATOM     39  C   UNL A   1      44.091  28.864  29.343  1.00  0.00     0.074 A 
ATOM     40  C   UNL A   1      44.240  27.533  28.796  1.00  0.00     0.031 C 
ATOM     41  C   UNL A   1      37.772  29.914  28.834  1.00  0.00     0.029 A 
ATOM     42  C   UNL A   1      38.781  30.817  29.383  1.00  0.00     0.049 A 
ATOM     43  H   UNL A   1      40.831  30.481  29.539  1.00  0.00     0.167 HD
ATOM     44  C   UNL A   1      45.115  29.634  29.782  1.00  0.00     0.037 A 
ATOM     45  C   UNL A   1      38.545  32.043  29.886  1.00  0.00     0.037 A 
ATOM     46  C   UNL A   1      44.965  30.963  30.315  1.00  0.00     0.049 A 
ATOM     47  C   UNL A   1      39.695  32.854  30.419  1.00  0.00     0.074 A 
ATOM     48  C   UNL A   1      45.943  31.822  30.783  1.00  0.00     0.029 A 
ATOM     49  N   UNL A   1      43.754  31.625  30.451  1.00  0.00    -0.354 N 
ATOM     50  N   UNL A   1      40.972  32.560  30.448  1.00  0.00    -0.248 NA
ATOM     51  C   UNL A   1      39.369  34.168  30.993  1.00  0.00     0.031 C 
ATOM     52  C   UNL A   1      45.321  32.991  31.238  1.00  0.00     0.029 A 
ATOM     53  C   UNL A   1      43.959  32.875  31.014  1.00  0.00     0.049 A 
ATOM     54  H   UNL A   1      42.878  31.262  30.187  1.00  0.00     0.167 HD
ATOM     55  C   UNL A   1      41.603  33.653  31.026  1.00  0.00     0.074 A 
ATOM     56  C   UNL A   1      40.570  34.626  31.317  1.00  0.00     0.031 C 
ATOM     57  C   UNL A   1      42.920  33.832  31.295  1.00  0.00     0.037 A 
BRANCH  44  58
ATOM     58  C   UNL A   1      46.493  29.044  29.730  1.00  0.00     0.064 A 
ATOM     59  C   UNL A   1      47.013  28.290  30.792  1.00  0.00     0.173 A 
ATOM     60  C   UNL A   1      47.291  29.209  28.587  1.00  0.00     0.173 A 
ATOM     61  F   UNL A   1      46.295  28.118  31.912  1.00  0.00    -0.203 F 
ATOM     62  C   UNL A   1      48.292  27.742  30.721  1.00  0.00     0.198 A 
ATOM     63  C   UNL A   1      48.558  28.639  28.511  1.00  0.00     0.198 A 
ATOM     64  F   UNL A   1      46.838  29.917  27.543  1.00  0.00    -0.203 F 
ATOM     65  F   UNL A   1      48.786  27.062  31.765  1.00  0.00    -0.200 F 
ATOM     66  C   UNL A   1      49.060  27.912  29.579  1.00  0.00     0.200 A 
ATOM     67  F   UNL A   1      49.297  28.796  27.403  1.00  0.00    -0.200 F 
ATOM     68  F   UNL A   1      50.289  27.381  29.512  1.00  0.00    -0.200 F 
ENDBRANCH  44  58
BRANCH  45  69
ATOM     69  C   UNL A   1      37.157  32.570  29.928  1.00  0.00     0.064 A 
ATOM     70  C   UNL A   1      36.643  33.342  28.878  1.00  0.00     0.173 A 
ATOM     71  C   UNL A   1      36.319  32.315  31.023  1.00  0.00     0.173 A 
ATOM     72  F   UNL A   1      37.416  33.636  27.822  1.00  0.00    -0.203 F 
ATOM     73  C   UNL A   1      35.346  33.849  28.926  1.00  0.00     0.198 A 
ATOM     74  C   UNL A   1      35.013  32.799  31.058  1.00  0.00     0.198 A 
ATOM     75  F   UNL A   1      36.765  31.586  32.055  1.00  0.00    -0.203 F 
ATOM     76  F   UNL A   1      34.892  34.619  27.928  1.00  0.00    -0.200 F 
ATOM     77  C   UNL A   1      34.530  33.571  30.012  1.00  0.00     0.200 A 
ATOM     78  F   UNL A   1      34.225  32.520  32.107  1.00  0.00    -0.200 F 
ATOM     79  F   UNL A   1      33.280  34.055  30.057  1.00  0.00    -0.200 F 
ENDBRANCH  45  69
BRANCH  57  80
ATOM     80  C   UNL A   1      43.320  35.139  31.914  1.00  0.00     0.064 A 
ATOM     81  C   UNL A   1      43.339  35.314  33.305  1.00  0.00     0.173 A 
ATOM     82  C   UNL A   1      43.724  36.213  31.108  1.00  0.00     0.173 A 
ATOM     83  F   UNL A   1      42.948  34.319  34.117  1.00  0.00    -0.203 F 
ATOM     84  C   UNL A   1      43.729  36.527  33.867  1.00  0.00     0.198 A 
ATOM     85  C   UNL A   1      44.135  37.417  31.675  1.00  0.00     0.198 A 
ATOM     86  F   UNL A   1      43.727  36.093  29.772  1.00  0.00    -0.203 F 
ATOM     87  F   UNL A   1      43.701  36.687  35.197  1.00  0.00    -0.200 F 
ATOM     88  C   UNL A   1      44.133  37.575  33.052  1.00  0.00     0.200 A 
ATOM     89  F   UNL A   1      44.535  38.424  30.887  1.00  0.00    -0.200 F 
ATOM     90  F   UNL A   1      44.511  38.740  33.596  1.00  0.00    -0.200 F 
ENDBRANCH  57  80
ENDBRANCH  31  32
ENDBRANCH  24  26
ENDBRANCH  23  24
ENDBRANCH  22  23
ENDBRANCH   1  22
TORSDOF 15
ENDMDL
MODEL 2
REMARK VINA RESULT:     -11.1      0.407      1.650
REMARK SMILES CCc1ccc(S(=O)(=O)Cc2noc(C(=O)OCCOC(=O)c3ccc(-c4c5nc(c(-c6c(F)c(F)c(F)c(F)c6F)c6ccc([nH]6)c(-c6c(F)c(F)c(F)c(F)c6F)c6nc(c(-c7c(F)c(F)c(F)c(F)c7F)c7ccc4[nH]7)C=C6)C=C5)cc3)n2)cc1
REMARK SMILES IDX 18 1 17 2 15 3 16 4 14 5 11 6 12 7 86 8 13 9 10 10 7 11 8 12
REMARK SMILES IDX 9 13 6 14 3 15 4 16 88 17 5 18 87 19 2 20 1 21 19 22 20 23
REMARK SMILES IDX 21 24 22 25 23 26 24 27 85 28 25 29 84 30 26 31 27 32 28 33
REMARK SMILES IDX 78 34 29 35 83 36 77 37 79 38 30 39 82 40 76 41 75 42 31 44
REMARK SMILES IDX 63 45 43 46 62 47 44 48 47 49 61 50 80 51 45 52 46 53 60 55
REMARK SMILES IDX 81 56 48 57 32 58 33 59 41 60 34 61 35 62 39 63 42 64 36 65
REMARK SMILES IDX 37 66 40 67 38 68 64 69 65 70 73 71 66 72 67 73 71 74 74 75
REMARK SMILES IDX 68 76 69 77 72 78 70 79 49 80 50 81 58 82 51 83 52 84 56 85
REMARK SMILES IDX 59 86 53 87 54 88 57 89 55 90
REMARK H PARENT 79 43 47 54
REMARK Flexibility Score: inf
ROOT
ATOM      1  C   UNL A   1      41.075  19.756  26.721  1.00  0.00     0.275 C 
ENDROOT
BRANCH   1   2
ATOM      2  O   UNL A   1      41.628  18.850  25.749  1.00  0.00    -0.455 OA
BRANCH   2   3
ATOM      3  C   UNL A   1      42.847  18.307  26.050  1.00  0.00     0.397 C 
ATOM      4  O   UNL A   1      43.003  17.307  26.738  1.00  0.00    -0.240 OA
BRANCH   3   5
ATOM      5  C   UNL A   1      43.905  19.041  25.395  1.00  0.00     0.336 A 
ATOM      6  C   UNL A   1      45.311  20.429  24.680  1.00  0.00     0.187 A 
ATOM      7  N   UNL A   1      45.453  19.389  23.847  1.00  0.00    -0.061 NA
ATOM      8  N   UNL A   1      44.336  20.264  25.629  1.00  0.00    -0.185 NA
ATOM      9  O   UNL A   1      44.539  18.454  24.335  1.00  0.00    -0.327 OA
BRANCH   6  10
ATOM     10  C   UNL A   1      46.054  21.687  24.481  1.00  0.00     0.223 C 
BRANCH  10  11
ATOM     11  S   UNL A   1      45.053  23.140  24.625  1.00  0.00     0.185 S 
ATOM     12  O   UNL A   1      43.809  22.883  23.920  1.00  0.00    -0.223 OA
ATOM     13  O   UNL A   1      45.870  24.284  24.254  1.00  0.00    -0.223 OA
BRANCH  11  14
ATOM     14  C   UNL A   1      44.600  23.339  26.332  1.00  0.00     0.067 A 
ATOM     15  C   UNL A   1      43.967  23.533  29.061  1.00  0.00    -0.048 A 
ATOM     16  C   UNL A   1      45.286  23.705  28.621  1.00  0.00     0.005 A 
ATOM     17  C   UNL A   1      42.967  23.289  28.103  1.00  0.00     0.005 A 
ATOM     18  C   UNL A   1      45.605  23.600  27.265  1.00  0.00     0.020 A 
ATOM     19  C   UNL A   1      43.274  23.205  26.744  1.00  0.00     0.020 A 
BRANCH  15  20
ATOM     20  C   UNL A   1      43.552  23.601  30.514  1.00  0.00     0.032 C 
ATOM     21  C   UNL A   1      44.532  24.253  31.480  1.00  0.00     0.009 C 
ENDBRANCH  15  20
ENDBRANCH  11  14
ENDBRANCH  10  11
ENDBRANCH   6  10
ENDBRANCH   3   5
ENDBRANCH   2   3
ENDBRANCH   1   2
BRANCH   1  22
ATOM     22  C   UNL A   1      39.968  20.628  26.119  1.00  0.00     0.275 C 
BRANCH  22  23
ATOM     23  O   UNL A   1      40.249  22.035  26.260  1.00  0.00    -0.458 OA
BRANCH  23  24
ATOM     24  C   UNL A   1      39.173  22.850  26.159  1.00  0.00     0.338 C 
ATOM     25  O   UNL A   1      38.072  22.561  25.721  1.00  0.00    -0.246 OA
BRANCH  24  26
ATOM     26  C   UNL A   1      39.443  24.136  26.826  1.00  0.00     0.060 A 
ATOM     27  C   UNL A   1      40.138  25.105  26.096  1.00  0.00     0.016 A 
ATOM     28  C   UNL A   1      39.080  24.378  28.154  1.00  0.00     0.016 A 
ATOM     29  C   UNL A   1      40.471  26.321  26.684  1.00  0.00     0.010 A 
ATOM     30  C   UNL A   1      39.424  25.598  28.749  1.00  0.00     0.010 A 
ATOM     31  C   UNL A   1      40.126  26.573  28.019  1.00  0.00    -0.014 A 
BRANCH  31  32
ATOM     32  C   UNL A   1      40.554  27.847  28.645  1.00  0.00     0.031 A 
ATOM     33  C   UNL A   1      41.997  28.061  29.000  1.00  0.00     0.074 A 
ATOM     34  C   UNL A   1      39.658  28.832  28.838  1.00  0.00     0.049 A 
ATOM     35  N   UNL A   1      42.568  29.095  29.563  1.00  0.00    -0.248 NA
ATOM     36  C   UNL A   1      42.922  26.966  28.672  1.00  0.00     0.031 C 
ATOM     37  C   UNL A   1      38.240  28.758  28.488  1.00  0.00     0.029 A 
ATOM     38  N   UNL A   1      39.809  30.089  29.365  1.00  0.00    -0.354 N 
ATOM     39  C   UNL A   1      43.914  28.773  29.668  1.00  0.00     0.074 A 
ATOM     40  C   UNL A   1      44.074  27.441  29.126  1.00  0.00     0.031 C 
ATOM     41  C   UNL A   1      37.652  29.924  28.802  1.00  0.00     0.029 A 
ATOM     42  C   UNL A   1      38.642  30.810  29.410  1.00  0.00     0.049 A 
ATOM     43  H   UNL A   1      40.674  30.441  29.682  1.00  0.00     0.167 HD
ATOM     44  C   UNL A   1      44.923  29.526  30.166  1.00  0.00     0.037 A 
ATOM     45  C   UNL A   1      38.397  32.038  29.903  1.00  0.00     0.037 A 
ATOM     46  C   UNL A   1      44.764  30.857  30.694  1.00  0.00     0.049 A 
ATOM     47  C   UNL A   1      39.527  32.830  30.502  1.00  0.00     0.074 A 
ATOM     48  C   UNL A   1      45.727  31.699  31.219  1.00  0.00     0.029 A 
ATOM     49  N   UNL A   1      43.557  31.538  30.763  1.00  0.00    -0.354 N 
ATOM     50  N   UNL A   1      40.795  32.516  30.604  1.00  0.00    -0.248 NA
ATOM     51  C   UNL A   1      39.190  34.148  31.060  1.00  0.00     0.031 C 
ATOM     52  C   UNL A   1      45.098  32.876  31.642  1.00  0.00     0.029 A 
ATOM     53  C   UNL A   1      43.750  32.783  31.340  1.00  0.00     0.049 A 
ATOM     54  H   UNL A   1      42.693  31.188  30.448  1.00  0.00     0.167 HD
ATOM     55  C   UNL A   1      41.410  33.598  31.220  1.00  0.00     0.074 A 
ATOM     56  C   UNL A   1      40.377  34.586  31.454  1.00  0.00     0.031 C 
ATOM     57  C   UNL A   1      42.711  33.756  31.564  1.00  0.00     0.037 A 
BRANCH  44  58
ATOM     58  C   UNL A   1      46.293  28.914  30.192  1.00  0.00     0.064 A 
ATOM     59  C   UNL A   1      47.200  29.091  29.137  1.00  0.00     0.173 A 
ATOM     60  C   UNL A   1      46.712  28.166  31.303  1.00  0.00     0.173 A 
ATOM     61  F   UNL A   1      46.839  29.784  28.047  1.00  0.00    -0.203 F 
ATOM     62  C   UNL A   1      48.470  28.522  29.184  1.00  0.00     0.198 A 
ATOM     63  C   UNL A   1      47.992  27.620  31.356  1.00  0.00     0.198 A 
ATOM     64  F   UNL A   1      45.884  27.971  32.339  1.00  0.00    -0.203 F 
ATOM     65  F   UNL A   1      49.306  28.668  28.146  1.00  0.00    -0.200 F 
ATOM     66  C   UNL A   1      48.867  27.793  30.295  1.00  0.00     0.200 A 
ATOM     67  F   UNL A   1      48.377  26.923  32.434  1.00  0.00    -0.200 F 
ATOM     68  F   UNL A   1      50.091  27.249  30.339  1.00  0.00    -0.200 F 
ENDBRANCH  44  58
BRANCH  45  69
ATOM     69  C   UNL A   1      37.017  32.588  29.866  1.00  0.00     0.064 A 
ATOM     70  C   UNL A   1      36.541  33.277  28.743  1.00  0.00     0.173 A 
ATOM     71  C   UNL A   1      36.150  32.437  30.957  1.00  0.00     0.173 A 
ATOM     72  F   UNL A   1      37.343  33.470  27.686  1.00  0.00    -0.203 F 
ATOM     73  C   UNL A   1      35.251  33.805  28.718  1.00  0.00     0.198 A 
ATOM     74  C   UNL A   1      34.852  32.941  30.921  1.00  0.00     0.198 A 
ATOM     75  F   UNL A   1      36.560  31.790  32.058  1.00  0.00    -0.203 F 
ATOM     76  F   UNL A   1      34.833  34.495  27.648  1.00  0.00    -0.200 F 
ATOM     77  C   UNL A   1      34.405  33.630  29.803  1.00  0.00     0.200 A 
ATOM     78  F   UNL A   1      34.036  32.763  31.969  1.00  0.00    -0.200 F 
ATOM     79  F   UNL A   1      33.164  34.134  29.777  1.00  0.00    -0.200 F 
ENDBRANCH  45  69
BRANCH  57  80
ATOM     80  C   UNL A   1      43.096  35.054  32.208  1.00  0.00     0.064 A 
ATOM     81  C   UNL A   1      43.539  36.146  31.448  1.00  0.00     0.173 A 
ATOM     82  C   UNL A   1      42.987  35.219  33.597  1.00  0.00     0.173 A 
ATOM     83  F   UNL A   1      43.674  36.032  30.117  1.00  0.00    -0.203 F 
ATOM     84  C   UNL A   1      43.878  37.352  32.057  1.00  0.00     0.198 A 
ATOM     85  C   UNL A   1      43.304  36.434  34.200  1.00  0.00     0.198 A 
ATOM     86  F   UNL A   1      42.564  34.206  34.367  1.00  0.00    -0.203 F 
ATOM     87  F   UNL A   1      44.337  38.369  31.317  1.00  0.00    -0.200 F 
ATOM     88  C   UNL A   1      43.754  37.496  33.432  1.00  0.00     0.200 A 
ATOM     89  F   UNL A   1      43.174  36.575  35.526  1.00  0.00    -0.200 F 
ATOM     90  F   UNL A   1      44.077  38.658  34.015  1.00  0.00    -0.200 F 
ENDBRANCH  57  80
ENDBRANCH  31  32
ENDBRANCH  24  26
ENDBRANCH  23  24
ENDBRANCH  22  23
ENDBRANCH   1  22
TORSDOF 15
ENDMDL
MODEL 3
REMARK VINA RESULT:     -10.9      5.692     11.278
REMARK SMILES CCc1ccc(S(=O)(=O)Cc2noc(C(=O)OCCOC(=O)c3ccc(-c4c5nc(c(-c6c(F)c(F)c(F)c(F)c6F)c6ccc([nH]6)c(-c6c(F)c(F)c(F)c(F)c6F)c6nc(c(-c7c(F)c(F)c(F)c(F)c7F)c7ccc4[nH]7)C=C6)C=C5)cc3)n2)cc1
REMARK SMILES IDX 18 1 17 2 15 3 16 4 14 5 11 6 12 7 86 8 13 9 10 10 7 11 8 12
REMARK SMILES IDX 9 13 6 14 3 15 4 16 88 17 5 18 87 19 2 20 1 21 19 22 20 23
REMARK SMILES IDX 21 24 22 25 23 26 24 27 85 28 25 29 84 30 26 31 27 32 28 33
REMARK SMILES IDX 78 34 29 35 83 36 77 37 79 38 30 39 82 40 76 41 75 42 31 44
REMARK SMILES IDX 63 45 43 46 62 47 44 48 47 49 61 50 80 51 45 52 46 53 60 55
REMARK SMILES IDX 81 56 48 57 32 58 33 59 41 60 34 61 35 62 39 63 42 64 36 65
REMARK SMILES IDX 37 66 40 67 38 68 64 69 65 70 73 71 66 72 67 73 71 74 74 75
REMARK SMILES IDX 68 76 69 77 72 78 70 79 49 80 50 81 58 82 51 83 52 84 56 85
REMARK SMILES IDX 59 86 53 87 54 88 57 89 55 90
REMARK H PARENT 79 43 47 54
REMARK Flexibility Score: inf
ROOT
ATOM      1  C   UNL A   1      33.931  34.480  28.207  1.00  0.00     0.275 C 
ENDROOT
BRANCH   1   2
ATOM      2  O   UNL A   1      32.736  35.185  28.585  1.00  0.00    -0.455 OA
BRANCH   2   3
ATOM      3  C   UNL A   1      32.911  36.424  29.140  1.00  0.00     0.397 C 
ATOM      4  O   UNL A   1      32.926  37.467  28.501  1.00  0.00    -0.240 OA
BRANCH   3   5
ATOM      5  C   UNL A   1      33.015  36.325  30.578  1.00  0.00     0.336 A 
ATOM      6  C   UNL A   1      33.529  35.986  32.587  1.00  0.00     0.187 A 
ATOM      7  N   UNL A   1      32.262  36.419  32.660  1.00  0.00    -0.061 NA
ATOM      8  N   UNL A   1      34.016  35.880  31.310  1.00  0.00    -0.185 NA
ATOM      9  O   UNL A   1      31.927  36.671  31.330  1.00  0.00    -0.327 OA
BRANCH   6  10
ATOM     10  C   UNL A   1      34.263  35.533  33.782  1.00  0.00     0.223 C 
BRANCH  10  11
ATOM     11  S   UNL A   1      34.904  33.889  33.648  1.00  0.00     0.185 S 
ATOM     12  O   UNL A   1      33.861  33.060  33.069  1.00  0.00    -0.223 OA
ATOM     13  O   UNL A   1      35.484  33.529  34.932  1.00  0.00    -0.223 OA
BRANCH  11  14
ATOM     14  C   UNL A   1      36.220  33.899  32.452  1.00  0.00     0.067 A 
ATOM     15  C   UNL A   1      38.282  34.064  30.553  1.00  0.00    -0.048 A 
ATOM     16  C   UNL A   1      38.416  34.677  31.805  1.00  0.00     0.005 A 
ATOM     17  C   UNL A   1      37.106  33.343  30.282  1.00  0.00     0.005 A 
ATOM     18  C   UNL A   1      37.388  34.605  32.749  1.00  0.00     0.020 A 
ATOM     19  C   UNL A   1      36.083  33.246  31.228  1.00  0.00     0.020 A 
BRANCH  15  20
ATOM     20  C   UNL A   1      39.337  34.126  29.471  1.00  0.00     0.032 C 
ATOM     21  C   UNL A   1      40.790  34.054  29.922  1.00  0.00     0.009 C 
ENDBRANCH  15  20
ENDBRANCH  11  14
ENDBRANCH  10  11
ENDBRANCH   6  10
ENDBRANCH   3   5
ENDBRANCH   2   3
ENDBRANCH   1   2
BRANCH   1  22
ATOM     22  C   UNL A   1      33.777  32.965  28.382  1.00  0.00     0.275 C 
BRANCH  22  23
ATOM     23  O   UNL A   1      34.663  32.226  27.518  1.00  0.00    -0.458 OA
BRANCH  23  24
ATOM     24  C   UNL A   1      34.647  30.884  27.689  1.00  0.00     0.338 C 
ATOM     25  O   UNL A   1      33.774  30.109  27.333  1.00  0.00    -0.246 OA
BRANCH  24  26
ATOM     26  C   UNL A   1      35.939  30.422  28.226  1.00  0.00     0.060 A 
ATOM     27  C   UNL A   1      35.919  29.726  29.439  1.00  0.00     0.016 A 
ATOM     28  C   UNL A   1      37.153  30.709  27.597  1.00  0.00     0.016 A 
ATOM     29  C   UNL A   1      37.108  29.309  30.027  1.00  0.00     0.010 A 
ATOM     30  C   UNL A   1      38.351  30.297  28.194  1.00  0.00     0.010 A 
ATOM     31  C   UNL A   1      38.334  29.601  29.415  1.00  0.00    -0.014 A 
BRANCH  31  32
ATOM     32  C   UNL A   1      39.591  29.208  30.097  1.00  0.00     0.031 A 
ATOM     33  C   UNL A   1      40.427  28.091  29.544  1.00  0.00     0.074 A 
ATOM     34  C   UNL A   1      40.011  29.896  31.174  1.00  0.00     0.049 A 
ATOM     35  N   UNL A   1      41.548  27.590  29.997  1.00  0.00    -0.248 NA
ATOM     36  C   UNL A   1      39.938  27.455  28.312  1.00  0.00     0.031 C 
ATOM     37  C   UNL A   1      39.310  31.031  31.773  1.00  0.00     0.029 A 
ATOM     38  N   UNL A   1      41.132  29.747  31.951  1.00  0.00    -0.354 N 
ATOM     39  C   UNL A   1      41.893  26.575  29.116  1.00  0.00     0.074 A 
ATOM     40  C   UNL A   1      40.854  26.518  28.110  1.00  0.00     0.031 C 
ATOM     41  C   UNL A   1      40.022  31.483  32.818  1.00  0.00     0.029 A 
ATOM     42  C   UNL A   1      41.207  30.645  32.986  1.00  0.00     0.049 A 
ATOM     43  H   UNL A   1      41.819  29.060  31.781  1.00  0.00     0.167 HD
ATOM     44  C   UNL A   1      42.982  25.770  29.144  1.00  0.00     0.037 A 
ATOM     45  C   UNL A   1      42.119  30.765  33.969  1.00  0.00     0.037 A 
ATOM     46  C   UNL A   1      44.019  25.837  30.140  1.00  0.00     0.049 A 
ATOM     47  C   UNL A   1      43.289  29.820  34.007  1.00  0.00     0.074 A 
ATOM     48  C   UNL A   1      45.162  25.065  30.250  1.00  0.00     0.029 A 
ATOM     49  N   UNL A   1      44.038  26.732  31.199  1.00  0.00    -0.354 N 
ATOM     50  N   UNL A   1      43.603  28.858  33.175  1.00  0.00    -0.248 NA
ATOM     51  C   UNL A   1      44.229  29.975  35.127  1.00  0.00     0.031 C 
ATOM     52  C   UNL A   1      45.854  25.466  31.399  1.00  0.00     0.029 A 
ATOM     53  C   UNL A   1      45.164  26.517  31.980  1.00  0.00     0.049 A 
ATOM     54  H   UNL A   1      43.354  27.418  31.371  1.00  0.00     0.167 HD
ATOM     55  C   UNL A   1      44.782  28.304  33.657  1.00  0.00     0.074 A 
ATOM     56  C   UNL A   1      45.136  29.049  34.848  1.00  0.00     0.031 C 
ATOM     57  C   UNL A   1      45.502  27.270  33.160  1.00  0.00     0.037 A 
BRANCH  44  58
ATOM     58  C   UNL A   1      43.091  24.721  28.077  1.00  0.00     0.064 A 
ATOM     59  C   UNL A   1      42.652  23.406  28.287  1.00  0.00     0.173 A 
ATOM     60  C   UNL A   1      43.615  25.047  26.816  1.00  0.00     0.173 A 
ATOM     61  F   UNL A   1      42.158  23.043  29.480  1.00  0.00    -0.203 F 
ATOM     62  C   UNL A   1      42.753  22.449  27.280  1.00  0.00     0.198 A 
ATOM     63  C   UNL A   1      43.692  24.094  25.805  1.00  0.00     0.198 A 
ATOM     64  F   UNL A   1      44.045  26.291  26.564  1.00  0.00    -0.203 F 
ATOM     65  F   UNL A   1      42.367  21.188  27.516  1.00  0.00    -0.200 F 
ATOM     66  C   UNL A   1      43.267  22.795  26.039  1.00  0.00     0.200 A 
ATOM     67  F   UNL A   1      44.181  24.431  24.604  1.00  0.00    -0.200 F 
ATOM     68  F   UNL A   1      43.361  21.872  25.071  1.00  0.00    -0.200 F 
ENDBRANCH  44  58
BRANCH  45  69
ATOM     69  C   UNL A   1      41.950  31.812  35.010  1.00  0.00     0.064 A 
ATOM     70  C   UNL A   1      41.054  31.641  36.072  1.00  0.00     0.173 A 
ATOM     71  C   UNL A   1      42.681  33.008  34.957  1.00  0.00     0.173 A 
ATOM     72  F   UNL A   1      40.312  30.526  36.149  1.00  0.00    -0.203 F 
ATOM     73  C   UNL A   1      40.886  32.631  37.038  1.00  0.00     0.198 A 
ATOM     74  C   UNL A   1      42.533  33.986  35.937  1.00  0.00     0.198 A 
ATOM     75  F   UNL A   1      43.548  33.222  33.957  1.00  0.00    -0.203 F 
ATOM     76  F   UNL A   1      39.992  32.461  38.021  1.00  0.00    -0.200 F 
ATOM     77  C   UNL A   1      41.630  33.800  36.974  1.00  0.00     0.200 A 
ATOM     78  F   UNL A   1      43.261  35.110  35.876  1.00  0.00    -0.200 F 
ATOM     79  F   UNL A   1      41.472  34.751  37.905  1.00  0.00    -0.200 F 
ENDBRANCH  45  69
BRANCH  57  80
ATOM     80  C   UNL A   1      46.759  26.898  33.890  1.00  0.00     0.064 A 
ATOM     81  C   UNL A   1      47.985  27.511  33.596  1.00  0.00     0.173 A 
ATOM     82  C   UNL A   1      46.729  25.944  34.918  1.00  0.00     0.173 A 
ATOM     83  F   UNL A   1      48.067  28.419  32.611  1.00  0.00    -0.203 F 
ATOM     84  C   UNL A   1      49.142  27.168  34.292  1.00  0.00     0.198 A 
ATOM     85  C   UNL A   1      47.883  25.620  35.628  1.00  0.00     0.198 A 
ATOM     86  F   UNL A   1      45.579  25.332  35.240  1.00  0.00    -0.203 F 
ATOM     87  F   UNL A   1      50.311  27.737  33.968  1.00  0.00    -0.200 F 
ATOM     88  C   UNL A   1      49.088  26.228  35.311  1.00  0.00     0.200 A 
ATOM     89  F   UNL A   1      47.827  24.721  36.619  1.00  0.00    -0.200 F 
ATOM     90  F   UNL A   1      50.201  25.903  35.983  1.00  0.00    -0.200 F 
ENDBRANCH  57  80
ENDBRANCH  31  32
ENDBRANCH  24  26
ENDBRANCH  23  24
ENDBRANCH  22  23
ENDBRANCH   1  22
TORSDOF 15
ENDMDL
