MODEL 1
REMARK VINA RESULT:     -13.1      0.000      0.000
REMARK SMILES C[C@@H](C(=O)OCCOC(=O)c1ccc(-c2c3nc(c(-c4c(F)c(F)c(F)c(F)c4F)c4ccc([nH]4)c(-c4c(F)c(F)c(F)c(F)c4F)c4nc(c(-c5c(F)c(F)c(F)c(F)c5F)c5ccc2[nH]5)C=C4)C=C3)cc1)c1ccc(C[C@H]2CCCC2=O)c(-c2ccc(F)cc2)c1
REMARK SMILES IDX 6 1 5 2 3 3 4 4 2 5 1 6 74 7 75 8 93 9 76 10 85 11 77 12
REMARK SMILES IDX 86 13 87 14 92 15 88 16 91 17 89 18 90 19 78 20 79 21 80 22
REMARK SMILES IDX 83 23 81 24 82 25 84 26 7 27 8 28 9 29 10 30 11 31 12 32
REMARK SMILES IDX 73 33 13 34 72 35 14 36 15 37 16 38 66 39 17 40 71 41 65 42
REMARK SMILES IDX 67 43 18 44 70 45 64 46 63 47 19 49 51 50 31 51 50 52 32 53
REMARK SMILES IDX 35 54 49 55 68 56 33 57 34 58 48 60 69 61 36 62 20 63 21 64
REMARK SMILES IDX 29 65 22 66 23 67 27 68 30 69 24 70 25 71 28 72 26 73 52 74
REMARK SMILES IDX 53 75 61 76 54 77 55 78 59 79 62 80 56 81 57 82 60 83 58 84
REMARK SMILES IDX 37 85 38 86 46 87 39 88 40 89 44 90 47 91 41 92 42 93 45 94
REMARK SMILES IDX 43 95
REMARK H PARENT 67 48 35 59
REMARK Flexibility Score: inf
ROOT
ATOM      1  C   UNL A   1      35.078  21.838  25.066  1.00  0.00     0.274 C 
ENDROOT
BRANCH   1   2
ATOM      2  O   UNL A   1      35.304  22.619  23.870  1.00  0.00    -0.462 OA
BRANCH   2   3
ATOM      3  C   UNL A   1      34.223  22.876  23.077  1.00  0.00     0.313 C 
ATOM      4  O   UNL A   1      34.298  23.383  21.963  1.00  0.00    -0.252 OA
BRANCH   3   5
ATOM      5  C   UNL A   1      32.898  22.549  23.797  1.00  0.00     0.126 C 
ATOM      6  C   UNL A   1      32.087  21.474  23.065  1.00  0.00     0.025 C 
BRANCH   5   7
ATOM      7  C   UNL A   1      32.080  23.817  24.055  1.00  0.00    -0.033 A 
ATOM      8  C   UNL A   1      30.853  24.023  23.421  1.00  0.00     0.005 A 
ATOM      9  C   UNL A   1      32.581  24.847  24.878  1.00  0.00     0.013 A 
ATOM     10  C   UNL A   1      30.232  25.272  23.469  1.00  0.00     0.004 A 
ATOM     11  C   UNL A   1      31.935  26.099  24.992  1.00  0.00    -0.015 A 
ATOM     12  C   UNL A   1      30.799  26.346  24.180  1.00  0.00    -0.039 A 
BRANCH  11  13
ATOM     13  C   UNL A   1      32.447  27.141  25.908  1.00  0.00    -0.018 A 
ATOM     14  C   UNL A   1      31.647  27.587  26.978  1.00  0.00     0.012 A 
ATOM     15  C   UNL A   1      33.642  27.830  25.641  1.00  0.00     0.012 A 
ATOM     16  C   UNL A   1      31.923  28.789  27.628  1.00  0.00     0.040 A 
ATOM     17  C   UNL A   1      33.926  29.029  26.302  1.00  0.00     0.040 A 
ATOM     18  C   UNL A   1      33.044  29.514  27.260  1.00  0.00     0.123 A 
ATOM     19  F   UNL A   1      33.266  30.713  27.816  1.00  0.00    -0.207 F 
ENDBRANCH  11  13
BRANCH  12  20
ATOM     20  C   UNL A   1      30.205  27.743  23.959  1.00  0.00     0.047 C 
BRANCH  20  21
ATOM     21  C   UNL A   1      28.994  27.852  23.002  1.00  0.00     0.060 C 
ATOM     22  C   UNL A   1      27.575  27.792  23.569  1.00  0.00     0.012 C 
ATOM     23  C   UNL A   1      29.024  29.208  22.391  1.00  0.00     0.136 C 
ATOM     24  C   UNL A   1      26.855  29.089  23.208  1.00  0.00     0.009 C 
ATOM     25  C   UNL A   1      27.945  30.102  22.937  1.00  0.00     0.076 C 
ATOM     26  O   UNL A   1      29.930  29.536  21.638  1.00  0.00    -0.299 OA
ENDBRANCH  20  21
ENDBRANCH  12  20
ENDBRANCH   5   7
ENDBRANCH   3   5
ENDBRANCH   2   3
ENDBRANCH   1   2
BRANCH   1  27
ATOM     27  C   UNL A   1      36.320  21.028  25.439  1.00  0.00     0.275 C 
BRANCH  27  28
ATOM     28  O   UNL A   1      37.491  21.843  25.254  1.00  0.00    -0.458 OA
BRANCH  28  29
ATOM     29  C   UNL A   1      38.646  21.363  25.771  1.00  0.00     0.338 C 
ATOM     30  O   UNL A   1      39.130  20.257  25.621  1.00  0.00    -0.246 OA
BRANCH  29  31
ATOM     31  C   UNL A   1      39.320  22.460  26.487  1.00  0.00     0.060 A 
ATOM     32  C   UNL A   1      38.914  23.748  26.186  1.00  0.00     0.016 A 
ATOM     33  C   UNL A   1      40.399  22.251  27.354  1.00  0.00     0.016 A 
ATOM     34  C   UNL A   1      39.601  24.824  26.736  1.00  0.00     0.010 A 
ATOM     35  C   UNL A   1      41.045  23.351  27.959  1.00  0.00     0.010 A 
ATOM     36  C   UNL A   1      40.647  24.661  27.659  1.00  0.00    -0.014 A 
BRANCH  36  37
ATOM     37  C   UNL A   1      41.316  25.891  28.197  1.00  0.00     0.031 A 
ATOM     38  C   UNL A   1      42.644  26.315  27.625  1.00  0.00     0.074 A 
ATOM     39  C   UNL A   1      40.652  26.775  28.977  1.00  0.00     0.049 A 
ATOM     40  N   UNL A   1      43.343  27.403  27.848  1.00  0.00    -0.248 NA
ATOM     41  C   UNL A   1      43.272  25.385  26.674  1.00  0.00     0.031 C 
ATOM     42  C   UNL A   1      39.292  26.601  29.474  1.00  0.00     0.029 A 
ATOM     43  N   UNL A   1      40.972  28.073  29.337  1.00  0.00    -0.354 N 
ATOM     44  C   UNL A   1      44.513  27.259  27.118  1.00  0.00     0.074 A 
ATOM     45  C   UNL A   1      44.404  26.013  26.388  1.00  0.00     0.031 C 
ATOM     46  C   UNL A   1      38.824  27.794  29.885  1.00  0.00     0.029 A 
ATOM     47  C   UNL A   1      39.881  28.800  29.770  1.00  0.00     0.049 A 
ATOM     48  H   UNL A   1      41.883  28.441  29.290  1.00  0.00     0.167 HD
ATOM     49  C   UNL A   1      45.605  28.060  27.106  1.00  0.00     0.037 A 
ATOM     50  C   UNL A   1      39.743  30.124  30.004  1.00  0.00     0.037 A 
ATOM     51  C   UNL A   1      45.720  29.312  27.806  1.00  0.00     0.049 A 
ATOM     52  C   UNL A   1      40.961  31.017  29.979  1.00  0.00     0.074 A 
ATOM     53  C   UNL A   1      46.843  30.097  28.007  1.00  0.00     0.029 A 
ATOM     54  N   UNL A   1      44.658  29.981  28.387  1.00  0.00    -0.354 N 
ATOM     55  N   UNL A   1      42.149  30.797  29.480  1.00  0.00    -0.248 NA
ATOM     56  C   UNL A   1      40.823  32.336  30.627  1.00  0.00     0.031 C 
ATOM     57  C   UNL A   1      46.463  31.233  28.733  1.00  0.00     0.029 A 
ATOM     58  C   UNL A   1      45.099  31.168  28.953  1.00  0.00     0.049 A 
ATOM     59  H   UNL A   1      43.726  29.661  28.399  1.00  0.00     0.167 HD
ATOM     60  C   UNL A   1      42.910  31.916  29.799  1.00  0.00     0.074 A 
ATOM     61  C   UNL A   1      42.029  32.858  30.450  1.00  0.00     0.031 C 
ATOM     62  C   UNL A   1      44.239  32.109  29.618  1.00  0.00     0.037 A 
BRANCH  49  63
ATOM     63  C   UNL A   1      46.825  27.517  26.435  1.00  0.00     0.064 A 
ATOM     64  C   UNL A   1      47.133  27.784  25.096  1.00  0.00     0.173 A 
ATOM     65  C   UNL A   1      47.703  26.704  27.171  1.00  0.00     0.173 A 
ATOM     66  F   UNL A   1      46.311  28.535  24.349  1.00  0.00    -0.203 F 
ATOM     67  C   UNL A   1      48.273  27.239  24.511  1.00  0.00     0.198 A 
ATOM     68  C   UNL A   1      48.850  26.179  26.589  1.00  0.00     0.198 A 
ATOM     69  F   UNL A   1      47.444  26.422  28.456  1.00  0.00    -0.203 F 
ATOM     70  F   UNL A   1      48.536  27.469  23.217  1.00  0.00    -0.200 F 
ATOM     71  C   UNL A   1      49.132  26.442  25.258  1.00  0.00     0.200 A 
ATOM     72  F   UNL A   1      49.678  25.415  27.314  1.00  0.00    -0.200 F 
ATOM     73  F   UNL A   1      50.227  25.918  24.690  1.00  0.00    -0.200 F 
ENDBRANCH  49  63
BRANCH  50  74
ATOM     74  C   UNL A   1      38.419  30.742  30.311  1.00  0.00     0.064 A 
ATOM     75  C   UNL A   1      37.965  30.812  31.641  1.00  0.00     0.173 A 
ATOM     76  C   UNL A   1      37.539  31.171  29.310  1.00  0.00     0.173 A 
ATOM     77  F   UNL A   1      38.750  30.382  32.641  1.00  0.00    -0.203 F 
ATOM     78  C   UNL A   1      36.682  31.264  31.948  1.00  0.00     0.198 A 
ATOM     79  C   UNL A   1      36.270  31.659  29.620  1.00  0.00     0.198 A 
ATOM     80  F   UNL A   1      37.900  31.099  28.020  1.00  0.00    -0.203 F 
ATOM     81  F   UNL A   1      36.255  31.251  33.219  1.00  0.00    -0.200 F 
ATOM     82  C   UNL A   1      35.837  31.692  30.937  1.00  0.00     0.200 A 
ATOM     83  F   UNL A   1      35.457  32.077  28.640  1.00  0.00    -0.200 F 
ATOM     84  F   UNL A   1      34.600  32.118  31.229  1.00  0.00    -0.200 F 
ENDBRANCH  50  74
BRANCH  62  85
ATOM     85  C   UNL A   1      44.852  33.351  30.198  1.00  0.00     0.064 A 
ATOM     86  C   UNL A   1      44.935  34.531  29.438  1.00  0.00     0.173 A 
ATOM     87  C   UNL A   1      45.299  33.397  31.525  1.00  0.00     0.173 A 
ATOM     88  F   UNL A   1      44.528  34.540  28.159  1.00  0.00    -0.203 F 
ATOM     89  C   UNL A   1      45.460  35.701  29.979  1.00  0.00     0.198 A 
ATOM     90  C   UNL A   1      45.804  34.577  32.071  1.00  0.00     0.198 A 
ATOM     91  F   UNL A   1      45.238  32.303  32.298  1.00  0.00    -0.203 F 
ATOM     92  F   UNL A   1      45.558  36.802  29.222  1.00  0.00    -0.200 F 
ATOM     93  C   UNL A   1      45.888  35.725  31.297  1.00  0.00     0.200 A 
ATOM     94  F   UNL A   1      46.209  34.603  33.349  1.00  0.00    -0.200 F 
ATOM     95  F   UNL A   1      46.385  36.854  31.820  1.00  0.00    -0.200 F 
ENDBRANCH  62  85
ENDBRANCH  36  37
ENDBRANCH  29  31
ENDBRANCH  28  29
ENDBRANCH  27  28
ENDBRANCH   1  27
TORSDOF 15
ENDMDL
MODEL 2
REMARK VINA RESULT:     -13.1      4.053      9.338
REMARK SMILES C[C@@H](C(=O)OCCOC(=O)c1ccc(-c2c3nc(c(-c4c(F)c(F)c(F)c(F)c4F)c4ccc([nH]4)c(-c4c(F)c(F)c(F)c(F)c4F)c4nc(c(-c5c(F)c(F)c(F)c(F)c5F)c5ccc2[nH]5)C=C4)C=C3)cc1)c1ccc(C[C@H]2CCCC2=O)c(-c2ccc(F)cc2)c1
REMARK SMILES IDX 6 1 5 2 3 3 4 4 2 5 1 6 74 7 75 8 93 9 76 10 85 11 77 12
REMARK SMILES IDX 86 13 87 14 92 15 88 16 91 17 89 18 90 19 78 20 79 21 80 22
REMARK SMILES IDX 83 23 81 24 82 25 84 26 7 27 8 28 9 29 10 30 11 31 12 32
REMARK SMILES IDX 73 33 13 34 72 35 14 36 15 37 16 38 66 39 17 40 71 41 65 42
REMARK SMILES IDX 67 43 18 44 70 45 64 46 63 47 19 49 51 50 31 51 50 52 32 53
REMARK SMILES IDX 35 54 49 55 68 56 33 57 34 58 48 60 69 61 36 62 20 63 21 64
REMARK SMILES IDX 29 65 22 66 23 67 27 68 30 69 24 70 25 71 28 72 26 73 52 74
REMARK SMILES IDX 53 75 61 76 54 77 55 78 59 79 62 80 56 81 57 82 60 83 58 84
REMARK SMILES IDX 37 85 38 86 46 87 39 88 40 89 44 90 47 91 41 92 42 93 45 94
REMARK SMILES IDX 43 95
REMARK H PARENT 67 48 35 59
REMARK Flexibility Score: inf
ROOT
ATOM      1  C   UNL A   1      31.216  28.956  24.919  1.00  0.00     0.274 C 
ENDROOT
BRANCH   1   2
ATOM      2  O   UNL A   1      31.483  27.974  25.947  1.00  0.00    -0.462 OA
BRANCH   2   3
ATOM      3  C   UNL A   1      30.856  26.766  25.838  1.00  0.00     0.313 C 
ATOM      4  O   UNL A   1      30.559  26.061  26.795  1.00  0.00    -0.252 OA
BRANCH   3   5
ATOM      5  C   UNL A   1      30.665  26.356  24.362  1.00  0.00     0.126 C 
ATOM      6  C   UNL A   1      29.187  26.310  23.956  1.00  0.00     0.025 C 
BRANCH   5   7
ATOM      7  C   UNL A   1      31.391  25.044  24.053  1.00  0.00    -0.033 A 
ATOM      8  C   UNL A   1      30.698  23.938  23.556  1.00  0.00     0.005 A 
ATOM      9  C   UNL A   1      32.764  24.892  24.338  1.00  0.00     0.013 A 
ATOM     10  C   UNL A   1      31.309  22.684  23.505  1.00  0.00     0.004 A 
ATOM     11  C   UNL A   1      33.419  23.643  24.233  1.00  0.00    -0.015 A 
ATOM     12  C   UNL A   1      32.642  22.500  23.919  1.00  0.00    -0.039 A 
BRANCH  11  13
ATOM     13  C   UNL A   1      34.872  23.522  24.480  1.00  0.00    -0.018 A 
ATOM     14  C   UNL A   1      35.711  23.000  23.475  1.00  0.00     0.012 A 
ATOM     15  C   UNL A   1      35.422  23.748  25.753  1.00  0.00     0.012 A 
ATOM     16  C   UNL A   1      36.989  22.534  23.779  1.00  0.00     0.040 A 
ATOM     17  C   UNL A   1      36.710  23.292  26.054  1.00  0.00     0.040 A 
ATOM     18  C   UNL A   1      37.463  22.657  25.075  1.00  0.00     0.123 A 
ATOM     19  F   UNL A   1      38.653  22.130  25.393  1.00  0.00    -0.207 F 
ENDBRANCH  11  13
BRANCH  12  20
ATOM     20  C   UNL A   1      33.145  21.061  24.090  1.00  0.00     0.047 C 
BRANCH  20  21
ATOM     21  C   UNL A   1      32.183  19.923  23.676  1.00  0.00     0.060 C 
ATOM     22  C   UNL A   1      32.190  19.415  22.233  1.00  0.00     0.012 C 
ATOM     23  C   UNL A   1      32.576  18.704  24.433  1.00  0.00     0.136 C 
ATOM     24  C   UNL A   1      32.532  17.927  22.247  1.00  0.00     0.009 C 
ATOM     25  C   UNL A   1      33.246  17.681  23.557  1.00  0.00     0.076 C 
ATOM     26  O   UNL A   1      32.461  18.658  25.650  1.00  0.00    -0.299 OA
ENDBRANCH  20  21
ENDBRANCH  12  20
ENDBRANCH   5   7
ENDBRANCH   3   5
ENDBRANCH   2   3
ENDBRANCH   1   2
BRANCH   1  27
ATOM     27  C   UNL A   1      31.736  30.335  25.324  1.00  0.00     0.275 C 
BRANCH  27  28
ATOM     28  O   UNL A   1      32.679  30.189  26.401  1.00  0.00    -0.458 OA
BRANCH  28  29
ATOM     29  C   UNL A   1      32.995  31.315  27.081  1.00  0.00     0.338 C 
ATOM     30  O   UNL A   1      32.274  32.258  27.344  1.00  0.00    -0.246 OA
BRANCH  29  31
ATOM     31  C   UNL A   1      34.377  31.182  27.575  1.00  0.00     0.060 A 
ATOM     32  C   UNL A   1      34.810  29.905  27.888  1.00  0.00     0.016 A 
ATOM     33  C   UNL A   1      35.202  32.282  27.832  1.00  0.00     0.016 A 
ATOM     34  C   UNL A   1      36.058  29.735  28.478  1.00  0.00     0.010 A 
ATOM     35  C   UNL A   1      36.494  32.091  28.369  1.00  0.00     0.010 A 
ATOM     36  C   UNL A   1      36.943  30.804  28.695  1.00  0.00    -0.014 A 
BRANCH  36  37
ATOM     37  C   UNL A   1      38.269  30.508  29.331  1.00  0.00     0.031 A 
ATOM     38  C   UNL A   1      38.450  30.765  30.805  1.00  0.00     0.074 A 
ATOM     39  C   UNL A   1      39.211  29.773  28.696  1.00  0.00     0.049 A 
ATOM     40  N   UNL A   1      39.462  30.473  31.588  1.00  0.00    -0.248 NA
ATOM     41  C   UNL A   1      37.342  31.450  31.489  1.00  0.00     0.031 C 
ATOM     42  C   UNL A   1      39.116  29.289  27.324  1.00  0.00     0.029 A 
ATOM     43  N   UNL A   1      40.351  29.158  29.185  1.00  0.00    -0.354 N 
ATOM     44  C   UNL A   1      39.140  30.988  32.834  1.00  0.00     0.074 A 
ATOM     45  C   UNL A   1      37.810  31.551  32.726  1.00  0.00     0.031 C 
ATOM     46  C   UNL A   1      40.020  28.308  27.146  1.00  0.00     0.029 A 
ATOM     47  C   UNL A   1      40.823  28.158  28.360  1.00  0.00     0.049 A 
ATOM     48  H   UNL A   1      40.781  29.408  30.034  1.00  0.00     0.167 HD
ATOM     49  C   UNL A   1      39.907  31.045  33.948  1.00  0.00     0.037 A 
ATOM     50  C   UNL A   1      41.762  27.210  28.575  1.00  0.00     0.037 A 
ATOM     51  C   UNL A   1      41.219  30.470  34.079  1.00  0.00     0.049 A 
ATOM     52  C   UNL A   1      42.608  27.269  29.825  1.00  0.00     0.074 A 
ATOM     53  C   UNL A   1      42.144  30.634  35.096  1.00  0.00     0.029 A 
ATOM     54  N   UNL A   1      41.776  29.583  33.175  1.00  0.00    -0.354 N 
ATOM     55  N   UNL A   1      42.419  27.935  30.933  1.00  0.00    -0.248 NA
ATOM     56  C   UNL A   1      43.855  26.478  29.813  1.00  0.00     0.031 C 
ATOM     57  C   UNL A   1      43.274  29.864  34.794  1.00  0.00     0.029 A 
ATOM     58  C   UNL A   1      43.035  29.196  33.607  1.00  0.00     0.049 A 
ATOM     59  H   UNL A   1      41.342  29.273  32.347  1.00  0.00     0.167 HD
ATOM     60  C   UNL A   1      43.538  27.692  31.722  1.00  0.00     0.074 A 
ATOM     61  C   UNL A   1      44.360  26.740  31.011  1.00  0.00     0.031 C 
ATOM     62  C   UNL A   1      43.874  28.262  32.904  1.00  0.00     0.037 A 
BRANCH  49  63
ATOM     63  C   UNL A   1      39.400  31.899  35.066  1.00  0.00     0.064 A 
ATOM     64  C   UNL A   1      38.644  31.388  36.126  1.00  0.00     0.173 A 
ATOM     65  C   UNL A   1      39.691  33.274  35.058  1.00  0.00     0.173 A 
ATOM     66  F   UNL A   1      38.323  30.086  36.162  1.00  0.00    -0.203 F 
ATOM     67  C   UNL A   1      38.180  32.229  37.134  1.00  0.00     0.198 A 
ATOM     68  C   UNL A   1      39.244  34.105  36.075  1.00  0.00     0.198 A 
ATOM     69  F   UNL A   1      40.412  33.805  34.059  1.00  0.00    -0.203 F 
ATOM     70  F   UNL A   1      37.423  31.733  38.122  1.00  0.00    -0.200 F 
ATOM     71  C   UNL A   1      38.483  33.584  37.110  1.00  0.00     0.200 A 
ATOM     72  F   UNL A   1      39.543  35.411  36.052  1.00  0.00    -0.200 F 
ATOM     73  F   UNL A   1      38.033  34.391  38.081  1.00  0.00    -0.200 F 
ENDBRANCH  49  63
BRANCH  50  74
ATOM     74  C   UNL A   1      42.012  26.104  27.602  1.00  0.00     0.064 A 
ATOM     75  C   UNL A   1      41.319  24.887  27.726  1.00  0.00     0.173 A 
ATOM     76  C   UNL A   1      43.000  26.183  26.613  1.00  0.00     0.173 A 
ATOM     77  F   UNL A   1      40.386  24.741  28.680  1.00  0.00    -0.203 F 
ATOM     78  C   UNL A   1      41.621  23.793  26.916  1.00  0.00     0.198 A 
ATOM     79  C   UNL A   1      43.276  25.101  25.777  1.00  0.00     0.198 A 
ATOM     80  F   UNL A   1      43.718  27.306  26.466  1.00  0.00    -0.203 F 
ATOM     81  F   UNL A   1      40.992  22.625  27.107  1.00  0.00    -0.200 F 
ATOM     82  C   UNL A   1      42.596  23.902  25.938  1.00  0.00     0.200 A 
ATOM     83  F   UNL A   1      44.216  25.212  24.829  1.00  0.00    -0.200 F 
ATOM     84  F   UNL A   1      42.895  22.850  25.165  1.00  0.00    -0.200 F 
ENDBRANCH  50  74
BRANCH  62  85
ATOM     85  C   UNL A   1      45.223  27.940  33.479  1.00  0.00     0.064 A 
ATOM     86  C   UNL A   1      45.390  26.846  34.345  1.00  0.00     0.173 A 
ATOM     87  C   UNL A   1      46.364  28.673  33.124  1.00  0.00     0.173 A 
ATOM     88  F   UNL A   1      44.330  26.115  34.723  1.00  0.00    -0.203 F 
ATOM     89  C   UNL A   1      46.644  26.511  34.849  1.00  0.00     0.198 A 
ATOM     90  C   UNL A   1      47.622  28.321  33.613  1.00  0.00     0.198 A 
ATOM     91  F   UNL A   1      46.264  29.723  32.296  1.00  0.00    -0.203 F 
ATOM     92  F   UNL A   1      46.770  25.483  35.699  1.00  0.00    -0.200 F 
ATOM     93  C   UNL A   1      47.760  27.244  34.477  1.00  0.00     0.200 A 
ATOM     94  F   UNL A   1      48.703  29.024  33.246  1.00  0.00    -0.200 F 
ATOM     95  F   UNL A   1      48.968  26.916  34.954  1.00  0.00    -0.200 F 
ENDBRANCH  62  85
ENDBRANCH  36  37
ENDBRANCH  29  31
ENDBRANCH  28  29
ENDBRANCH  27  28
ENDBRANCH   1  27
TORSDOF 15
ENDMDL
MODEL 3
REMARK VINA RESULT:     -13.0      1.146      2.157
REMARK SMILES C[C@@H](C(=O)OCCOC(=O)c1ccc(-c2c3nc(c(-c4c(F)c(F)c(F)c(F)c4F)c4ccc([nH]4)c(-c4c(F)c(F)c(F)c(F)c4F)c4nc(c(-c5c(F)c(F)c(F)c(F)c5F)c5ccc2[nH]5)C=C4)C=C3)cc1)c1ccc(C[C@H]2CCCC2=O)c(-c2ccc(F)cc2)c1
REMARK SMILES IDX 6 1 5 2 3 3 4 4 2 5 1 6 74 7 75 8 93 9 76 10 85 11 77 12
REMARK SMILES IDX 86 13 87 14 92 15 88 16 91 17 89 18 90 19 78 20 79 21 80 22
REMARK SMILES IDX 83 23 81 24 82 25 84 26 7 27 8 28 9 29 10 30 11 31 12 32
REMARK SMILES IDX 73 33 13 34 72 35 14 36 15 37 16 38 66 39 17 40 71 41 65 42
REMARK SMILES IDX 67 43 18 44 70 45 64 46 63 47 19 49 51 50 31 51 50 52 32 53
REMARK SMILES IDX 35 54 49 55 68 56 33 57 34 58 48 60 69 61 36 62 20 63 21 64
REMARK SMILES IDX 29 65 22 66 23 67 27 68 30 69 24 70 25 71 28 72 26 73 52 74
REMARK SMILES IDX 53 75 61 76 54 77 55 78 59 79 62 80 56 81 57 82 60 83 58 84
REMARK SMILES IDX 37 85 38 86 46 87 39 88 40 89 44 90 47 91 41 92 42 93 45 94
REMARK SMILES IDX 43 95
REMARK H PARENT 67 48 35 59
REMARK Flexibility Score: inf
ROOT
ATOM      1  C   UNL A   1      35.885  21.226  25.223  1.00  0.00     0.274 C 
ENDROOT
BRANCH   1   2
ATOM      2  O   UNL A   1      34.744  20.339  25.276  1.00  0.00    -0.462 OA
BRANCH   2   3
ATOM      3  C   UNL A   1      33.638  20.779  25.943  1.00  0.00     0.313 C 
ATOM      4  O   UNL A   1      33.568  20.873  27.163  1.00  0.00    -0.252 OA
BRANCH   3   5
ATOM      5  C   UNL A   1      32.460  21.041  24.982  1.00  0.00     0.126 C 
ATOM      6  C   UNL A   1      32.394  20.011  23.847  1.00  0.00     0.025 C 
BRANCH   5   7
ATOM      7  C   UNL A   1      32.480  22.479  24.457  1.00  0.00    -0.033 A 
ATOM      8  C   UNL A   1      32.516  22.745  23.087  1.00  0.00     0.005 A 
ATOM      9  C   UNL A   1      32.545  23.572  25.346  1.00  0.00     0.013 A 
ATOM     10  C   UNL A   1      32.777  24.035  22.622  1.00  0.00     0.004 A 
ATOM     11  C   UNL A   1      32.745  24.897  24.894  1.00  0.00    -0.015 A 
ATOM     12  C   UNL A   1      32.977  25.108  23.512  1.00  0.00    -0.039 A 
BRANCH  11  13
ATOM     13  C   UNL A   1      32.749  26.032  25.841  1.00  0.00    -0.018 A 
ATOM     14  C   UNL A   1      31.552  26.421  26.473  1.00  0.00     0.012 A 
ATOM     15  C   UNL A   1      33.879  26.853  25.999  1.00  0.00     0.012 A 
ATOM     16  C   UNL A   1      31.429  27.675  27.069  1.00  0.00     0.040 A 
ATOM     17  C   UNL A   1      33.760  28.106  26.608  1.00  0.00     0.040 A 
ATOM     18  C   UNL A   1      32.528  28.518  27.102  1.00  0.00     0.123 A 
ATOM     19  F   UNL A   1      32.393  29.757  27.593  1.00  0.00    -0.207 F 
ENDBRANCH  11  13
BRANCH  12  20
ATOM     20  C   UNL A   1      33.525  26.420  22.936  1.00  0.00     0.047 C 
BRANCH  20  21
ATOM     21  C   UNL A   1      32.514  27.365  22.247  1.00  0.00     0.060 C 
ATOM     22  C   UNL A   1      31.016  27.069  22.342  1.00  0.00     0.012 C 
ATOM     23  C   UNL A   1      32.608  28.691  22.916  1.00  0.00     0.136 C 
ATOM     24  C   UNL A   1      30.330  28.259  23.009  1.00  0.00     0.009 C 
ATOM     25  C   UNL A   1      31.413  28.977  23.783  1.00  0.00     0.076 C 
ATOM     26  O   UNL A   1      33.628  29.362  22.836  1.00  0.00    -0.299 OA
ENDBRANCH  20  21
ENDBRANCH  12  20
ENDBRANCH   5   7
ENDBRANCH   3   5
ENDBRANCH   2   3
ENDBRANCH   1   2
BRANCH   1  27
ATOM     27  C   UNL A   1      37.178  20.450  24.970  1.00  0.00     0.275 C 
BRANCH  27  28
ATOM     28  O   UNL A   1      38.301  21.335  25.124  1.00  0.00    -0.458 OA
BRANCH  28  29
ATOM     29  C   UNL A   1      39.301  20.902  25.927  1.00  0.00     0.338 C 
ATOM     30  O   UNL A   1      39.755  19.778  26.017  1.00  0.00    -0.246 OA
BRANCH  29  31
ATOM     31  C   UNL A   1      39.864  22.068  26.630  1.00  0.00     0.060 A 
ATOM     32  C   UNL A   1      39.404  23.316  26.243  1.00  0.00     0.016 A 
ATOM     33  C   UNL A   1      40.894  21.964  27.570  1.00  0.00     0.016 A 
ATOM     34  C   UNL A   1      39.992  24.454  26.782  1.00  0.00     0.010 A 
ATOM     35  C   UNL A   1      41.437  23.126  28.161  1.00  0.00     0.010 A 
ATOM     36  C   UNL A   1      40.984  24.395  27.775  1.00  0.00    -0.014 A 
BRANCH  36  37
ATOM     37  C   UNL A   1      41.545  25.686  28.294  1.00  0.00     0.031 A 
ATOM     38  C   UNL A   1      42.860  26.186  27.754  1.00  0.00     0.074 A 
ATOM     39  C   UNL A   1      40.792  26.544  29.020  1.00  0.00     0.049 A 
ATOM     40  N   UNL A   1      43.473  27.327  27.964  1.00  0.00    -0.248 NA
ATOM     41  C   UNL A   1      43.586  25.273  26.857  1.00  0.00     0.031 C 
ATOM     42  C   UNL A   1      39.431  26.290  29.476  1.00  0.00     0.029 A 
ATOM     43  N   UNL A   1      41.007  27.873  29.347  1.00  0.00    -0.354 N 
ATOM     44  C   UNL A   1      44.676  27.244  27.280  1.00  0.00     0.074 A 
ATOM     45  C   UNL A   1      44.681  25.970  26.589  1.00  0.00     0.031 C 
ATOM     46  C   UNL A   1      38.866  27.459  29.830  1.00  0.00     0.029 A 
ATOM     47  C   UNL A   1      39.853  28.533  29.717  1.00  0.00     0.049 A 
ATOM     48  H   UNL A   1      41.892  28.302  29.319  1.00  0.00     0.167 HD
ATOM     49  C   UNL A   1      45.709  28.119  27.279  1.00  0.00     0.037 A 
ATOM     50  C   UNL A   1      39.615  29.851  29.902  1.00  0.00     0.037 A 
ATOM     51  C   UNL A   1      45.710  29.397  27.940  1.00  0.00     0.049 A 
ATOM     52  C   UNL A   1      40.768  30.827  29.889  1.00  0.00     0.074 A 
ATOM     53  C   UNL A   1      46.768  30.266  28.152  1.00  0.00     0.029 A 
ATOM     54  N   UNL A   1      44.583  30.007  28.461  1.00  0.00    -0.354 N 
ATOM     55  N   UNL A   1      41.985  30.676  29.439  1.00  0.00    -0.248 NA
ATOM     56  C   UNL A   1      40.514  32.152  30.487  1.00  0.00     0.031 C 
ATOM     57  C   UNL A   1      46.283  31.394  28.826  1.00  0.00     0.029 A 
ATOM     58  C   UNL A   1      44.920  31.239  29.001  1.00  0.00     0.049 A 
ATOM     59  H   UNL A   1      43.677  29.622  28.451  1.00  0.00     0.167 HD
ATOM     60  C   UNL A   1      42.654  31.856  29.746  1.00  0.00     0.074 A 
ATOM     61  C   UNL A   1      41.686  32.753  30.333  1.00  0.00     0.031 C 
ATOM     62  C   UNL A   1      43.972  32.137  29.604  1.00  0.00     0.037 A 
BRANCH  49  63
ATOM     63  C   UNL A   1      46.988  27.644  26.668  1.00  0.00     0.064 A 
ATOM     64  C   UNL A   1      47.344  27.923  25.344  1.00  0.00     0.173 A 
ATOM     65  C   UNL A   1      47.874  26.883  27.449  1.00  0.00     0.173 A 
ATOM     66  F   UNL A   1      46.517  28.625  24.555  1.00  0.00    -0.203 F 
ATOM     67  C   UNL A   1      48.539  27.441  24.816  1.00  0.00     0.198 A 
ATOM     68  C   UNL A   1      49.074  26.422  26.925  1.00  0.00     0.198 A 
ATOM     69  F   UNL A   1      47.571  26.591  28.722  1.00  0.00    -0.203 F 
ATOM     70  F   UNL A   1      48.849  27.682  23.535  1.00  0.00    -0.200 F 
ATOM     71  C   UNL A   1      49.404  26.696  25.607  1.00  0.00     0.200 A 
ATOM     72  F   UNL A   1      49.909  25.708  27.692  1.00  0.00    -0.200 F 
ATOM     73  F   UNL A   1      50.552  26.232  25.094  1.00  0.00    -0.200 F 
ENDBRANCH  49  63
BRANCH  50  74
ATOM     74  C   UNL A   1      38.240  30.382  30.142  1.00  0.00     0.064 A 
ATOM     75  C   UNL A   1      37.433  30.766  29.055  1.00  0.00     0.173 A 
ATOM     76  C   UNL A   1      37.740  30.621  31.429  1.00  0.00     0.173 A 
ATOM     77  F   UNL A   1      37.874  30.594  27.800  1.00  0.00    -0.203 F 
ATOM     78  C   UNL A   1      36.198  31.384  29.250  1.00  0.00     0.198 A 
ATOM     79  C   UNL A   1      36.489  31.205  31.623  1.00  0.00     0.198 A 
ATOM     80  F   UNL A   1      38.476  30.308  32.505  1.00  0.00    -0.203 F 
ATOM     81  F   UNL A   1      35.486  31.802  28.194  1.00  0.00    -0.200 F 
ATOM     82  C   UNL A   1      35.725  31.599  30.534  1.00  0.00     0.200 A 
ATOM     83  F   UNL A   1      36.032  31.406  32.866  1.00  0.00    -0.200 F 
ATOM     84  F   UNL A   1      34.543  32.201  30.724  1.00  0.00    -0.200 F 
ENDBRANCH  50  74
BRANCH  62  85
ATOM     85  C   UNL A   1      44.475  33.438  30.162  1.00  0.00     0.064 A 
ATOM     86  C   UNL A   1      44.936  33.518  31.487  1.00  0.00     0.173 A 
ATOM     87  C   UNL A   1      44.562  34.590  29.370  1.00  0.00     0.173 A 
ATOM     88  F   UNL A   1      44.868  32.446  32.292  1.00  0.00    -0.203 F 
ATOM     89  C   UNL A   1      45.446  34.707  32.002  1.00  0.00     0.198 A 
ATOM     90  C   UNL A   1      45.094  35.773  29.881  1.00  0.00     0.198 A 
ATOM     91  F   UNL A   1      44.142  34.569  28.096  1.00  0.00    -0.203 F 
ATOM     92  F   UNL A   1      45.848  34.765  33.279  1.00  0.00    -0.200 F 
ATOM     93  C   UNL A   1      45.531  35.832  31.197  1.00  0.00     0.200 A 
ATOM     94  F   UNL A   1      45.185  36.859  29.099  1.00  0.00    -0.200 F 
ATOM     95  F   UNL A   1      46.030  36.973  31.689  1.00  0.00    -0.200 F 
ENDBRANCH  62  85
ENDBRANCH  36  37
ENDBRANCH  29  31
ENDBRANCH  28  29
ENDBRANCH  27  28
ENDBRANCH   1  27
TORSDOF 15
ENDMDL
