MODEL 1
REMARK VINA RESULT:     -10.8      0.000      0.000
REMARK SMILES C#CCN(CC(=O)OCCOC(=O)c1ccc(-c2c3nc(c(-c4c(F)c(F)c(F)c(F)c4F)c4ccc([nH]4)c(-c4c(F)c(F)c(F)c(F)c4F)c4nc(c(-c5c(F)c(F)c(F)c(F)c5F)c5ccc2[nH]5)C=C4)C=C3)cc1)C(=O)[C@H]1C[NH2+]C[C@H]1C
REMARK SMILES IDX 9 1 8 2 6 3 7 4 5 5 4 6 3 7 2 8 1 9 77 10 78 11 79 12 80 13
REMARK SMILES IDX 83 14 81 15 82 16 84 17 10 20 11 21 12 22 13 23 14 24 15 25
REMARK SMILES IDX 76 26 16 27 75 28 17 29 18 30 19 31 69 32 20 33 74 34 68 35
REMARK SMILES IDX 70 36 21 37 73 38 67 39 66 40 22 42 54 43 34 44 53 45 35 46
REMARK SMILES IDX 38 47 52 48 71 49 36 50 37 51 51 53 72 54 39 55 23 56 24 57
REMARK SMILES IDX 32 58 25 59 26 60 30 61 33 62 27 63 28 64 31 65 29 66 55 67
REMARK SMILES IDX 56 68 64 69 57 70 58 71 62 72 65 73 59 74 60 75 63 76 61 77
REMARK SMILES IDX 40 78 41 79 49 80 42 81 43 82 47 83 50 84 44 85 45 86 48 87
REMARK SMILES IDX 46 88
REMARK H PARENT 81 18 81 19 70 41 38 52
REMARK Flexibility Score: inf
ROOT
ATOM      1  C   UNL A   1      36.279  20.627  24.648  1.00  0.00     0.274 C 
ENDROOT
BRANCH   1   2
ATOM      2  O   UNL A   1      35.940  22.020  24.837  1.00  0.00    -0.461 OA
BRANCH   2   3
ATOM      3  C   UNL A   1      35.721  22.755  23.709  1.00  0.00     0.325 C 
ATOM      4  O   UNL A   1      36.492  22.830  22.759  1.00  0.00    -0.250 OA
BRANCH   3   5
ATOM      5  C   UNL A   1      34.292  23.308  23.633  1.00  0.00     0.243 C 
BRANCH   5   6
ATOM      6  N   UNL A   1      34.165  24.715  23.988  1.00  0.00    -0.320 N 
BRANCH   6   7
ATOM      7  C   UNL A   1      34.296  24.998  25.412  1.00  0.00     0.210 C 
BRANCH   7   8
ATOM      8  C   UNL A   1      33.090  24.392  26.111  1.00  0.00    -0.085 C 
ATOM      9  C   UNL A   1      32.056  23.873  26.712  1.00  0.00     0.006 C 
ENDBRANCH   7   8
ENDBRANCH   6   7
BRANCH   6  10
ATOM     10  C   UNL A   1      33.911  25.785  23.127  1.00  0.00     0.233 C 
ATOM     11  O   UNL A   1      33.857  25.600  21.911  1.00  0.00    -0.274 OA
BRANCH  10  12
ATOM     12  C   UNL A   1      33.629  27.165  23.740  1.00  0.00     0.142 C 
ATOM     13  C   UNL A   1      34.041  28.281  22.804  1.00  0.00     0.274 C 
ATOM     14  C   UNL A   1      32.190  27.583  24.137  1.00  0.00     0.059 C 
ATOM     15  N   UNL A   1      33.375  29.481  23.311  1.00  0.00    -0.345 N 
ATOM     16  C   UNL A   1      32.021  29.008  23.585  1.00  0.00     0.264 C 
ATOM     17  C   UNL A   1      31.019  26.720  23.694  1.00  0.00     0.015 C 
ATOM     18  H   UNL A   1      33.370  30.223  22.613  1.00  0.00     0.346 HD
ATOM     19  H   UNL A   1      33.834  29.883  24.129  1.00  0.00     0.346 HD
ENDBRANCH  10  12
ENDBRANCH   6  10
ENDBRANCH   5   6
ENDBRANCH   3   5
ENDBRANCH   2   3
ENDBRANCH   1   2
BRANCH   1  20
ATOM     20  C   UNL A   1      37.745  20.357  25.030  1.00  0.00     0.275 C 
BRANCH  20  21
ATOM     21  O   UNL A   1      38.493  21.537  25.377  1.00  0.00    -0.458 OA
BRANCH  21  22
ATOM     22  C   UNL A   1      39.644  21.374  26.061  1.00  0.00     0.338 C 
ATOM     23  O   UNL A   1      40.288  20.349  26.183  1.00  0.00    -0.246 OA
BRANCH  22  24
ATOM     24  C   UNL A   1      39.890  22.612  26.833  1.00  0.00     0.060 A 
ATOM     25  C   UNL A   1      40.924  22.608  27.775  1.00  0.00     0.016 A 
ATOM     26  C   UNL A   1      39.131  23.766  26.629  1.00  0.00     0.016 A 
ATOM     27  C   UNL A   1      41.223  23.765  28.496  1.00  0.00     0.010 A 
ATOM     28  C   UNL A   1      39.493  24.952  27.280  1.00  0.00     0.010 A 
ATOM     29  C   UNL A   1      40.579  24.972  28.173  1.00  0.00    -0.014 A 
BRANCH  29  30
ATOM     30  C   UNL A   1      41.263  26.262  28.469  1.00  0.00     0.031 A 
ATOM     31  C   UNL A   1      40.593  27.416  29.145  1.00  0.00     0.074 A 
ATOM     32  C   UNL A   1      42.528  26.388  28.014  1.00  0.00     0.049 A 
ATOM     33  N   UNL A   1      41.047  28.632  29.328  1.00  0.00    -0.248 NA
ATOM     34  C   UNL A   1      39.249  27.188  29.691  1.00  0.00     0.031 C 
ATOM     35  C   UNL A   1      43.284  25.333  27.332  1.00  0.00     0.029 A 
ATOM     36  N   UNL A   1      43.396  27.451  28.034  1.00  0.00    -0.354 N 
ATOM     37  C   UNL A   1      40.050  29.320  30.004  1.00  0.00     0.074 A 
ATOM     38  C   UNL A   1      38.956  28.384  30.192  1.00  0.00     0.031 C 
ATOM     39  C   UNL A   1      44.496  25.793  27.005  1.00  0.00     0.029 A 
ATOM     40  C   UNL A   1      44.577  27.197  27.381  1.00  0.00     0.049 A 
ATOM     41  H   UNL A   1      43.191  28.309  28.470  1.00  0.00     0.167 HD
ATOM     42  C   UNL A   1      40.055  30.609  30.423  1.00  0.00     0.037 A 
ATOM     43  C   UNL A   1      45.601  28.007  27.063  1.00  0.00     0.037 A 
ATOM     44  C   UNL A   1      41.147  31.533  30.222  1.00  0.00     0.049 A 
ATOM     45  C   UNL A   1      45.540  29.447  27.463  1.00  0.00     0.074 A 
ATOM     46  C   UNL A   1      41.258  32.846  30.653  1.00  0.00     0.029 A 
ATOM     47  N   UNL A   1      42.310  31.250  29.519  1.00  0.00    -0.354 N 
ATOM     48  N   UNL A   1      44.600  30.077  28.120  1.00  0.00    -0.248 NA
ATOM     49  C   UNL A   1      46.674  30.290  27.067  1.00  0.00     0.031 C 
ATOM     50  C   UNL A   1      42.462  33.370  30.170  1.00  0.00     0.029 A 
ATOM     51  C   UNL A   1      43.125  32.372  29.476  1.00  0.00     0.049 A 
ATOM     52  H   UNL A   1      42.524  30.380  29.111  1.00  0.00     0.167 HD
ATOM     53  C   UNL A   1      45.029  31.389  28.229  1.00  0.00     0.074 A 
ATOM     54  C   UNL A   1      46.323  31.461  27.581  1.00  0.00     0.031 C 
ATOM     55  C   UNL A   1      44.402  32.438  28.813  1.00  0.00     0.037 A 
BRANCH  42  56
ATOM     56  C   UNL A   1      38.836  31.126  31.130  1.00  0.00     0.064 A 
ATOM     57  C   UNL A   1      37.752  31.669  30.424  1.00  0.00     0.173 A 
ATOM     58  C   UNL A   1      38.710  30.991  32.521  1.00  0.00     0.173 A 
ATOM     59  F   UNL A   1      37.822  31.821  29.093  1.00  0.00    -0.203 F 
ATOM     60  C   UNL A   1      36.591  32.065  31.085  1.00  0.00     0.198 A 
ATOM     61  C   UNL A   1      37.541  31.371  33.178  1.00  0.00     0.198 A 
ATOM     62  F   UNL A   1      39.712  30.467  33.242  1.00  0.00    -0.203 F 
ATOM     63  F   UNL A   1      35.575  32.599  30.393  1.00  0.00    -0.200 F 
ATOM     64  C   UNL A   1      36.484  31.909  32.460  1.00  0.00     0.200 A 
ATOM     65  F   UNL A   1      37.434  31.205  34.503  1.00  0.00    -0.200 F 
ATOM     66  F   UNL A   1      35.362  32.278  33.092  1.00  0.00    -0.200 F 
ENDBRANCH  42  56
BRANCH  43  67
ATOM     67  C   UNL A   1      46.744  27.462  26.289  1.00  0.00     0.064 A 
ATOM     68  C   UNL A   1      46.799  27.600  24.898  1.00  0.00     0.173 A 
ATOM     69  C   UNL A   1      47.827  26.847  26.935  1.00  0.00     0.173 A 
ATOM     70  F   UNL A   1      45.779  28.166  24.239  1.00  0.00    -0.203 F 
ATOM     71  C   UNL A   1      47.899  27.139  24.178  1.00  0.00     0.198 A 
ATOM     72  C   UNL A   1      48.937  26.413  26.218  1.00  0.00     0.198 A 
ATOM     73  F   UNL A   1      47.821  26.704  28.269  1.00  0.00    -0.203 F 
ATOM     74  F   UNL A   1      47.921  27.260  22.844  1.00  0.00    -0.200 F 
ATOM     75  C   UNL A   1      48.971  26.555  24.838  1.00  0.00     0.200 A 
ATOM     76  F   UNL A   1      49.978  25.867  26.861  1.00  0.00    -0.200 F 
ATOM     77  F   UNL A   1      50.036  26.129  24.146  1.00  0.00    -0.200 F 
ENDBRANCH  43  67
BRANCH  55  78
ATOM     78  C   UNL A   1      45.122  33.752  28.785  1.00  0.00     0.064 A 
ATOM     79  C   UNL A   1      44.912  34.677  27.752  1.00  0.00     0.173 A 
ATOM     80  C   UNL A   1      46.028  34.090  29.800  1.00  0.00     0.173 A 
ATOM     81  F   UNL A   1      44.075  34.386  26.746  1.00  0.00    -0.203 F 
ATOM     82  C   UNL A   1      45.599  35.888  27.728  1.00  0.00     0.198 A 
ATOM     83  C   UNL A   1      46.696  35.310  29.785  1.00  0.00     0.198 A 
ATOM     84  F   UNL A   1      46.265  33.236  30.807  1.00  0.00    -0.203 F 
ATOM     85  F   UNL A   1      45.419  36.739  26.708  1.00  0.00    -0.200 F 
ATOM     86  C   UNL A   1      46.487  36.205  28.746  1.00  0.00     0.200 A 
ATOM     87  F   UNL A   1      47.549  35.619  30.772  1.00  0.00    -0.200 F 
ATOM     88  F   UNL A   1      47.148  37.371  28.721  1.00  0.00    -0.200 F 
ENDBRANCH  55  78
ENDBRANCH  29  30
ENDBRANCH  22  24
ENDBRANCH  21  22
ENDBRANCH  20  21
ENDBRANCH   1  20
TORSDOF 16
ENDMDL
MODEL 2
REMARK VINA RESULT:     -10.7      4.688     10.052
REMARK SMILES C#CCN(CC(=O)OCCOC(=O)c1ccc(-c2c3nc(c(-c4c(F)c(F)c(F)c(F)c4F)c4ccc([nH]4)c(-c4c(F)c(F)c(F)c(F)c4F)c4nc(c(-c5c(F)c(F)c(F)c(F)c5F)c5ccc2[nH]5)C=C4)C=C3)cc1)C(=O)[C@H]1C[NH2+]C[C@H]1C
REMARK SMILES IDX 9 1 8 2 6 3 7 4 5 5 4 6 3 7 2 8 1 9 77 10 78 11 79 12 80 13
REMARK SMILES IDX 83 14 81 15 82 16 84 17 10 20 11 21 12 22 13 23 14 24 15 25
REMARK SMILES IDX 76 26 16 27 75 28 17 29 18 30 19 31 69 32 20 33 74 34 68 35
REMARK SMILES IDX 70 36 21 37 73 38 67 39 66 40 22 42 54 43 34 44 53 45 35 46
REMARK SMILES IDX 38 47 52 48 71 49 36 50 37 51 51 53 72 54 39 55 23 56 24 57
REMARK SMILES IDX 32 58 25 59 26 60 30 61 33 62 27 63 28 64 31 65 29 66 55 67
REMARK SMILES IDX 56 68 64 69 57 70 58 71 62 72 65 73 59 74 60 75 63 76 61 77
REMARK SMILES IDX 40 78 41 79 49 80 42 81 43 82 47 83 50 84 44 85 45 86 48 87
REMARK SMILES IDX 46 88
REMARK H PARENT 81 18 81 19 70 41 38 52
REMARK Flexibility Score: inf
ROOT
ATOM      1  C   UNL A   1      31.792  30.453  26.746  1.00  0.00     0.274 C 
ENDROOT
BRANCH   1   2
ATOM      2  O   UNL A   1      32.116  30.251  25.351  1.00  0.00    -0.461 OA
BRANCH   2   3
ATOM      3  C   UNL A   1      33.127  29.377  25.078  1.00  0.00     0.325 C 
ATOM      4  O   UNL A   1      33.861  28.869  25.917  1.00  0.00    -0.250 OA
BRANCH   3   5
ATOM      5  C   UNL A   1      33.113  28.897  23.622  1.00  0.00     0.243 C 
BRANCH   5   6
ATOM      6  N   UNL A   1      32.086  27.910  23.316  1.00  0.00    -0.320 N 
BRANCH   6   7
ATOM      7  C   UNL A   1      32.319  26.591  23.889  1.00  0.00     0.210 C 
BRANCH   7   8
ATOM      8  C   UNL A   1      31.293  26.383  24.991  1.00  0.00    -0.085 C 
ATOM      9  C   UNL A   1      30.413  26.205  25.936  1.00  0.00     0.006 C 
ENDBRANCH   7   8
ENDBRANCH   6   7
BRANCH   6  10
ATOM     10  C   UNL A   1      30.947  28.091  22.527  1.00  0.00     0.233 C 
ATOM     11  O   UNL A   1      30.682  27.290  21.630  1.00  0.00    -0.274 OA
BRANCH  10  12
ATOM     12  C   UNL A   1      30.008  29.261  22.858  1.00  0.00     0.142 C 
ATOM     13  C   UNL A   1      29.686  30.078  21.626  1.00  0.00     0.274 C 
ATOM     14  C   UNL A   1      28.602  29.010  23.463  1.00  0.00     0.059 C 
ATOM     15  N   UNL A   1      28.514  30.878  21.984  1.00  0.00    -0.345 N 
ATOM     16  C   UNL A   1      27.653  29.908  22.654  1.00  0.00     0.264 C 
ATOM     17  C   UNL A   1      28.056  27.591  23.502  1.00  0.00     0.015 C 
ATOM     18  H   UNL A   1      28.061  31.260  21.154  1.00  0.00     0.346 HD
ATOM     19  H   UNL A   1      28.738  31.686  22.565  1.00  0.00     0.346 HD
ENDBRANCH  10  12
ENDBRANCH   6  10
ENDBRANCH   5   6
ENDBRANCH   3   5
ENDBRANCH   2   3
ENDBRANCH   1   2
BRANCH   1  20
ATOM     20  C   UNL A   1      31.708  31.952  27.085  1.00  0.00     0.275 C 
BRANCH  20  21
ATOM     21  O   UNL A   1      32.958  32.656  26.964  1.00  0.00    -0.458 OA
BRANCH  21  22
ATOM     22  C   UNL A   1      33.541  33.104  28.095  1.00  0.00     0.338 C 
ATOM     23  O   UNL A   1      33.179  34.036  28.789  1.00  0.00    -0.246 OA
BRANCH  22  24
ATOM     24  C   UNL A   1      34.836  32.405  28.243  1.00  0.00     0.060 A 
ATOM     25  C   UNL A   1      36.002  33.176  28.279  1.00  0.00     0.016 A 
ATOM     26  C   UNL A   1      34.910  31.015  28.360  1.00  0.00     0.016 A 
ATOM     27  C   UNL A   1      37.244  32.566  28.462  1.00  0.00     0.010 A 
ATOM     28  C   UNL A   1      36.143  30.412  28.640  1.00  0.00     0.010 A 
ATOM     29  C   UNL A   1      37.308  31.192  28.751  1.00  0.00    -0.014 A 
BRANCH  29  30
ATOM     30  C   UNL A   1      38.474  30.664  29.513  1.00  0.00     0.031 A 
ATOM     31  C   UNL A   1      39.426  29.646  28.966  1.00  0.00     0.074 A 
ATOM     32  C   UNL A   1      38.600  31.087  30.788  1.00  0.00     0.049 A 
ATOM     33  N   UNL A   1      40.391  29.013  29.587  1.00  0.00    -0.248 NA
ATOM     34  C   UNL A   1      39.287  29.290  27.549  1.00  0.00     0.031 C 
ATOM     35  C   UNL A   1      37.727  32.073  31.436  1.00  0.00     0.029 A 
ATOM     36  N   UNL A   1      39.487  30.739  31.776  1.00  0.00    -0.354 N 
ATOM     37  C   UNL A   1      40.976  28.180  28.644  1.00  0.00     0.074 A 
ATOM     38  C   UNL A   1      40.247  28.382  27.405  1.00  0.00     0.031 C 
ATOM     39  C   UNL A   1      38.121  32.255  32.701  1.00  0.00     0.029 A 
ATOM     40  C   UNL A   1      39.221  31.344  32.980  1.00  0.00     0.049 A 
ATOM     41  H   UNL A   1      40.236  30.117  31.636  1.00  0.00     0.167 HD
ATOM     42  C   UNL A   1      42.020  27.331  28.807  1.00  0.00     0.037 A 
ATOM     43  C   UNL A   1      39.758  31.157  34.199  1.00  0.00     0.037 A 
ATOM     44  C   UNL A   1      42.732  27.133  30.049  1.00  0.00     0.049 A 
ATOM     45  C   UNL A   1      40.851  30.150  34.365  1.00  0.00     0.074 A 
ATOM     46  C   UNL A   1      43.832  26.327  30.295  1.00  0.00     0.029 A 
ATOM     47  N   UNL A   1      42.406  27.734  31.257  1.00  0.00    -0.354 N 
ATOM     48  N   UNL A   1      41.407  29.386  33.460  1.00  0.00    -0.248 NA
ATOM     49  C   UNL A   1      41.382  29.971  35.721  1.00  0.00     0.031 C 
ATOM     50  C   UNL A   1      44.140  26.402  31.658  1.00  0.00     0.029 A 
ATOM     51  C   UNL A   1      43.261  27.289  32.256  1.00  0.00     0.049 A 
ATOM     52  H   UNL A   1      41.675  28.381  31.386  1.00  0.00     0.167 HD
ATOM     53  C   UNL A   1      42.362  28.640  34.130  1.00  0.00     0.074 A 
ATOM     54  C   UNL A   1      42.320  29.055  35.517  1.00  0.00     0.031 C 
ATOM     55  C   UNL A   1      43.197  27.695  33.636  1.00  0.00     0.037 A 
BRANCH  42  56
ATOM     56  C   UNL A   1      42.463  26.521  27.623  1.00  0.00     0.064 A 
ATOM     57  C   UNL A   1      43.497  26.956  26.782  1.00  0.00     0.173 A 
ATOM     58  C   UNL A   1      41.911  25.254  27.382  1.00  0.00     0.173 A 
ATOM     59  F   UNL A   1      44.057  28.161  26.969  1.00  0.00    -0.203 F 
ATOM     60  C   UNL A   1      43.956  26.156  25.737  1.00  0.00     0.198 A 
ATOM     61  C   UNL A   1      42.385  24.448  26.349  1.00  0.00     0.198 A 
ATOM     62  F   UNL A   1      40.927  24.785  28.165  1.00  0.00    -0.203 F 
ATOM     63  F   UNL A   1      44.933  26.600  24.934  1.00  0.00    -0.200 F 
ATOM     64  C   UNL A   1      43.405  24.900  25.527  1.00  0.00     0.200 A 
ATOM     65  F   UNL A   1      41.861  23.230  26.156  1.00  0.00    -0.200 F 
ATOM     66  F   UNL A   1      43.858  24.127  24.530  1.00  0.00    -0.200 F 
ENDBRANCH  42  56
BRANCH  43  67
ATOM     67  C   UNL A   1      39.224  31.925  35.351  1.00  0.00     0.064 A 
ATOM     68  C   UNL A   1      38.344  31.331  36.262  1.00  0.00     0.173 A 
ATOM     69  C   UNL A   1      39.633  33.245  35.592  1.00  0.00     0.173 A 
ATOM     70  F   UNL A   1      37.915  30.077  36.061  1.00  0.00    -0.203 F 
ATOM     71  C   UNL A   1      37.889  32.034  37.375  1.00  0.00     0.198 A 
ATOM     72  C   UNL A   1      39.199  33.935  36.719  1.00  0.00     0.198 A 
ATOM     73  F   UNL A   1      40.485  33.849  34.750  1.00  0.00    -0.203 F 
ATOM     74  F   UNL A   1      37.028  31.454  38.222  1.00  0.00    -0.200 F 
ATOM     75  C   UNL A   1      38.324  33.330  37.609  1.00  0.00     0.200 A 
ATOM     76  F   UNL A   1      39.637  35.181  36.951  1.00  0.00    -0.200 F 
ATOM     77  F   UNL A   1      37.898  33.998  38.690  1.00  0.00    -0.200 F 
ENDBRANCH  43  67
BRANCH  55  78
ATOM     78  C   UNL A   1      44.142  27.057  34.609  1.00  0.00     0.064 A 
ATOM     79  C   UNL A   1      45.373  27.650  34.927  1.00  0.00     0.173 A 
ATOM     80  C   UNL A   1      43.812  25.845  35.231  1.00  0.00     0.173 A 
ATOM     81  F   UNL A   1      45.741  28.797  34.338  1.00  0.00    -0.203 F 
ATOM     82  C   UNL A   1      46.249  27.040  35.820  1.00  0.00     0.198 A 
ATOM     83  C   UNL A   1      44.681  25.249  36.140  1.00  0.00     0.198 A 
ATOM     84  F   UNL A   1      42.649  25.238  34.956  1.00  0.00    -0.203 F 
ATOM     85  F   UNL A   1      47.440  27.599  36.076  1.00  0.00    -0.200 F 
ATOM     86  C   UNL A   1      45.900  25.843  36.429  1.00  0.00     0.200 A 
ATOM     87  F   UNL A   1      44.341  24.095  36.733  1.00  0.00    -0.200 F 
ATOM     88  F   UNL A   1      46.746  25.256  37.288  1.00  0.00    -0.200 F 
ENDBRANCH  55  78
ENDBRANCH  29  30
ENDBRANCH  22  24
ENDBRANCH  21  22
ENDBRANCH  20  21
ENDBRANCH   1  20
TORSDOF 16
ENDMDL
MODEL 3
REMARK VINA RESULT:     -10.6      0.938      2.005
REMARK SMILES C#CCN(CC(=O)OCCOC(=O)c1ccc(-c2c3nc(c(-c4c(F)c(F)c(F)c(F)c4F)c4ccc([nH]4)c(-c4c(F)c(F)c(F)c(F)c4F)c4nc(c(-c5c(F)c(F)c(F)c(F)c5F)c5ccc2[nH]5)C=C4)C=C3)cc1)C(=O)[C@H]1C[NH2+]C[C@H]1C
REMARK SMILES IDX 9 1 8 2 6 3 7 4 5 5 4 6 3 7 2 8 1 9 77 10 78 11 79 12 80 13
REMARK SMILES IDX 83 14 81 15 82 16 84 17 10 20 11 21 12 22 13 23 14 24 15 25
REMARK SMILES IDX 76 26 16 27 75 28 17 29 18 30 19 31 69 32 20 33 74 34 68 35
REMARK SMILES IDX 70 36 21 37 73 38 67 39 66 40 22 42 54 43 34 44 53 45 35 46
REMARK SMILES IDX 38 47 52 48 71 49 36 50 37 51 51 53 72 54 39 55 23 56 24 57
REMARK SMILES IDX 32 58 25 59 26 60 30 61 33 62 27 63 28 64 31 65 29 66 55 67
REMARK SMILES IDX 56 68 64 69 57 70 58 71 62 72 65 73 59 74 60 75 63 76 61 77
REMARK SMILES IDX 40 78 41 79 49 80 42 81 43 82 47 83 50 84 44 85 45 86 48 87
REMARK SMILES IDX 46 88
REMARK H PARENT 81 18 81 19 70 41 38 52
REMARK Flexibility Score: inf
ROOT
ATOM      1  C   UNL A   1      36.444  20.533  24.914  1.00  0.00     0.274 C 
ENDROOT
BRANCH   1   2
ATOM      2  O   UNL A   1      35.955  21.457  25.915  1.00  0.00    -0.461 OA
BRANCH   2   3
ATOM      3  C   UNL A   1      35.683  22.726  25.495  1.00  0.00     0.325 C 
ATOM      4  O   UNL A   1      35.867  23.740  26.158  1.00  0.00    -0.250 OA
BRANCH   3   5
ATOM      5  C   UNL A   1      35.335  22.790  24.002  1.00  0.00     0.243 C 
BRANCH   5   6
ATOM      6  N   UNL A   1      33.950  23.140  23.715  1.00  0.00    -0.320 N 
BRANCH   6   7
ATOM      7  C   UNL A   1      32.973  22.543  24.616  1.00  0.00     0.210 C 
BRANCH   7   8
ATOM      8  C   UNL A   1      32.868  21.068  24.265  1.00  0.00    -0.085 C 
ATOM      9  C   UNL A   1      32.778  19.802  23.964  1.00  0.00     0.006 C 
ENDBRANCH   7   8
ENDBRANCH   6   7
BRANCH   6  10
ATOM     10  C   UNL A   1      33.479  23.946  22.676  1.00  0.00     0.233 C 
ATOM     11  O   UNL A   1      33.338  23.478  21.546  1.00  0.00    -0.274 OA
BRANCH  10  12
ATOM     12  C   UNL A   1      33.076  25.392  22.999  1.00  0.00     0.142 C 
ATOM     13  C   UNL A   1      33.269  26.300  21.803  1.00  0.00     0.274 C 
ATOM     14  C   UNL A   1      31.632  25.739  23.445  1.00  0.00     0.059 C 
ATOM     15  N   UNL A   1      32.500  27.509  22.104  1.00  0.00    -0.345 N 
ATOM     16  C   UNL A   1      31.242  26.972  22.616  1.00  0.00     0.264 C 
ATOM     17  C   UNL A   1      30.547  24.679  23.328  1.00  0.00     0.015 C 
ATOM     18  H   UNL A   1      32.347  28.066  21.264  1.00  0.00     0.346 HD
ATOM     19  H   UNL A   1      32.968  28.133  22.761  1.00  0.00     0.346 HD
ENDBRANCH  10  12
ENDBRANCH   6  10
ENDBRANCH   5   6
ENDBRANCH   3   5
ENDBRANCH   2   3
ENDBRANCH   1   2
BRANCH   1  20
ATOM     20  C   UNL A   1      37.924  20.186  25.156  1.00  0.00     0.275 C 
BRANCH  20  21
ATOM     21  O   UNL A   1      38.776  21.330  25.349  1.00  0.00    -0.458 OA
BRANCH  21  22
ATOM     22  C   UNL A   1      39.884  21.170  26.100  1.00  0.00     0.338 C 
ATOM     23  O   UNL A   1      40.515  20.143  26.271  1.00  0.00    -0.246 OA
BRANCH  22  24
ATOM     24  C   UNL A   1      40.092  22.416  26.870  1.00  0.00     0.060 A 
ATOM     25  C   UNL A   1      41.162  22.464  27.772  1.00  0.00     0.016 A 
ATOM     26  C   UNL A   1      39.265  23.528  26.704  1.00  0.00     0.016 A 
ATOM     27  C   UNL A   1      41.425  23.632  28.489  1.00  0.00     0.010 A 
ATOM     28  C   UNL A   1      39.586  24.729  27.349  1.00  0.00     0.010 A 
ATOM     29  C   UNL A   1      40.704  24.803  28.199  1.00  0.00    -0.014 A 
BRANCH  29  30
ATOM     30  C   UNL A   1      41.328  26.127  28.477  1.00  0.00     0.031 A 
ATOM     31  C   UNL A   1      40.606  27.258  29.141  1.00  0.00     0.074 A 
ATOM     32  C   UNL A   1      42.584  26.307  28.017  1.00  0.00     0.049 A 
ATOM     33  N   UNL A   1      41.004  28.495  29.307  1.00  0.00    -0.248 NA
ATOM     34  C   UNL A   1      39.276  26.974  29.693  1.00  0.00     0.031 C 
ATOM     35  C   UNL A   1      43.387  25.279  27.346  1.00  0.00     0.029 A 
ATOM     36  N   UNL A   1      43.402  27.409  28.021  1.00  0.00    -0.354 N 
ATOM     37  C   UNL A   1      39.977  29.145  29.978  1.00  0.00     0.074 A 
ATOM     38  C   UNL A   1      38.929  28.161  30.180  1.00  0.00     0.031 C 
ATOM     39  C   UNL A   1      44.576  25.791  27.010  1.00  0.00     0.029 A 
ATOM     40  C   UNL A   1      44.593  27.202  27.368  1.00  0.00     0.049 A 
ATOM     41  H   UNL A   1      43.159  28.262  28.448  1.00  0.00     0.167 HD
ATOM     42  C   UNL A   1      39.923  30.438  30.380  1.00  0.00     0.037 A 
ATOM     43  C   UNL A   1      45.577  28.055  27.037  1.00  0.00     0.037 A 
ATOM     44  C   UNL A   1      40.970  31.409  30.165  1.00  0.00     0.049 A 
ATOM     45  C   UNL A   1      45.450  29.495  27.420  1.00  0.00     0.074 A 
ATOM     46  C   UNL A   1      41.021  32.731  30.579  1.00  0.00     0.029 A 
ATOM     47  N   UNL A   1      42.144  31.172  29.462  1.00  0.00    -0.354 N 
ATOM     48  N   UNL A   1      44.483  30.089  28.072  1.00  0.00    -0.248 NA
ATOM     49  C   UNL A   1      46.542  30.385  27.011  1.00  0.00     0.031 C 
ATOM     50  C   UNL A   1      42.198  33.305  30.087  1.00  0.00     0.029 A 
ATOM     51  C   UNL A   1      42.906  32.330  29.403  1.00  0.00     0.049 A 
ATOM     52  H   UNL A   1      42.398  30.307  29.065  1.00  0.00     0.167 HD
ATOM     53  C   UNL A   1      44.850  31.421  28.163  1.00  0.00     0.074 A 
ATOM     54  C   UNL A   1      46.138  31.545  27.511  1.00  0.00     0.031 C 
ATOM     55  C   UNL A   1      44.177  32.446  28.736  1.00  0.00     0.037 A 
BRANCH  42  56
ATOM     56  C   UNL A   1      38.682  30.907  31.084  1.00  0.00     0.064 A 
ATOM     57  C   UNL A   1      38.574  30.872  32.482  1.00  0.00     0.173 A 
ATOM     58  C   UNL A   1      37.629  31.485  30.359  1.00  0.00     0.173 A 
ATOM     59  F   UNL A   1      39.553  30.329  33.221  1.00  0.00    -0.203 F 
ATOM     60  C   UNL A   1      37.453  31.389  33.127  1.00  0.00     0.198 A 
ATOM     61  C   UNL A   1      36.517  32.018  31.008  1.00  0.00     0.198 A 
ATOM     62  F   UNL A   1      37.688  31.554  29.021  1.00  0.00    -0.203 F 
ATOM     63  F   UNL A   1      37.361  31.328  34.463  1.00  0.00    -0.200 F 
ATOM     64  C   UNL A   1      36.429  31.969  32.391  1.00  0.00     0.200 A 
ATOM     65  F   UNL A   1      35.537  32.590  30.296  1.00  0.00    -0.200 F 
ATOM     66  F   UNL A   1      35.358  32.478  33.014  1.00  0.00    -0.200 F 
ENDBRANCH  42  56
BRANCH  43  67
ATOM     67  C   UNL A   1      46.742  27.554  26.268  1.00  0.00     0.064 A 
ATOM     68  C   UNL A   1      46.784  27.669  24.874  1.00  0.00     0.173 A 
ATOM     69  C   UNL A   1      47.858  27.006  26.919  1.00  0.00     0.173 A 
ATOM     70  F   UNL A   1      45.733  28.171  24.211  1.00  0.00    -0.203 F 
ATOM     71  C   UNL A   1      47.903  27.250  24.157  1.00  0.00     0.198 A 
ATOM     72  C   UNL A   1      48.985  26.615  26.203  1.00  0.00     0.198 A 
ATOM     73  F   UNL A   1      47.865  26.887  28.255  1.00  0.00    -0.203 F 
ATOM     74  F   UNL A   1      47.912  27.348  22.820  1.00  0.00    -0.200 F 
ATOM     75  C   UNL A   1      49.006  26.734  24.821  1.00  0.00     0.200 A 
ATOM     76  F   UNL A   1      50.055  26.135  26.851  1.00  0.00    -0.200 F 
ATOM     77  F   UNL A   1      50.087  26.349  24.130  1.00  0.00    -0.200 F 
ENDBRANCH  43  67
BRANCH  55  78
ATOM     78  C   UNL A   1      44.835  33.792  28.690  1.00  0.00     0.064 A 
ATOM     79  C   UNL A   1      45.665  34.234  29.731  1.00  0.00     0.173 A 
ATOM     80  C   UNL A   1      44.637  34.645  27.595  1.00  0.00     0.173 A 
ATOM     81  F   UNL A   1      45.863  33.463  30.810  1.00  0.00    -0.203 F 
ATOM     82  C   UNL A   1      46.258  35.493  29.685  1.00  0.00     0.198 A 
ATOM     83  C   UNL A   1      45.250  35.893  27.542  1.00  0.00     0.198 A 
ATOM     84  F   UNL A   1      43.849  34.268  26.578  1.00  0.00    -0.203 F 
ATOM     85  F   UNL A   1      47.010  35.916  30.711  1.00  0.00    -0.200 F 
ATOM     86  C   UNL A   1      46.053  36.319  28.589  1.00  0.00     0.200 A 
ATOM     87  F   UNL A   1      45.057  36.689  26.481  1.00  0.00    -0.200 F 
ATOM     88  F   UNL A   1      46.625  37.531  28.547  1.00  0.00    -0.200 F 
ENDBRANCH  55  78
ENDBRANCH  29  30
ENDBRANCH  22  24
ENDBRANCH  21  22
ENDBRANCH  20  21
ENDBRANCH   1  20
TORSDOF 16
ENDMDL
