MODEL 1
REMARK VINA RESULT:      -9.7      0.000      0.000
REMARK SMILES COc1cc(Br)ccc1[C@H]([NH3+])C(=O)OCCOC(=O)c1ccc(-c2c3nc(c(-c4c(F)c(F)c(F)c(F)c4F)c4ccc([nH]4)c(-c4c(F)c(F)c(F)c(F)c4F)c4nc(c(-c5c(F)c(F)c(F)c(F)c5F)c5ccc2[nH]5)C=C4)C=C3)cc1
REMARK SMILES IDX 15 1 14 2 12 3 13 4 10 5 9 6 3 7 4 8 5 9 8 10 6 11 7 12 2 13
REMARK SMILES IDX 1 14 11 15 16 19 17 20 18 21 19 22 20 23 21 24 82 25 22 26
REMARK SMILES IDX 81 27 23 28 24 29 25 30 75 31 26 32 80 33 74 34 76 35 27 36
REMARK SMILES IDX 79 37 73 38 72 39 28 41 60 42 40 43 59 44 41 45 44 46 58 47
REMARK SMILES IDX 77 48 42 49 43 50 57 52 78 53 45 54 29 55 30 56 38 57 31 58
REMARK SMILES IDX 32 59 36 60 39 61 33 62 34 63 37 64 35 65 61 66 62 67 70 68
REMARK SMILES IDX 63 69 64 70 68 71 71 72 65 73 66 74 69 75 67 76 46 77 47 78
REMARK SMILES IDX 55 79 48 80 49 81 53 82 56 83 50 84 51 85 54 86 52 87
REMARK H PARENT 11 16 11 17 11 18 76 40 44 51
REMARK Flexibility Score: inf
ROOT
ATOM      1  C   UNL A   1      33.701  34.398  28.564  1.00  0.00     0.274 C 
ENDROOT
BRANCH   1   2
ATOM      2  O   UNL A   1      33.225  34.213  29.907  1.00  0.00    -0.457 OA
BRANCH   2   3
ATOM      3  C   UNL A   1      33.966  34.757  30.915  1.00  0.00     0.370 C 
ATOM      4  O   UNL A   1      33.885  35.928  31.274  1.00  0.00    -0.245 OA
BRANCH   3   5
ATOM      5  C   UNL A   1      34.900  33.724  31.587  1.00  0.00     0.326 C 
BRANCH   5   6
ATOM      6  C   UNL A   1      36.368  33.850  31.207  1.00  0.00     0.063 A 
ATOM      7  C   UNL A   1      37.275  34.476  32.093  1.00  0.00     0.129 A 
ATOM      8  C   UNL A   1      38.630  34.578  31.757  1.00  0.00     0.062 A 
ATOM      9  C   UNL A   1      39.080  34.098  30.528  1.00  0.00     0.021 A 
ATOM     10  C   UNL A   1      36.853  33.373  29.975  1.00  0.00     0.015 A 
ATOM     11  Br  UNL A   1      40.910  34.248  30.076  1.00  0.00    -0.051 Br
ATOM     12  C   UNL A   1      38.198  33.508  29.631  1.00  0.00     0.016 A 
BRANCH   7  13
ATOM     13  O   UNL A   1      36.751  34.928  33.280  1.00  0.00    -0.496 OA
ATOM     14  C   UNL A   1      37.106  34.202  34.451  1.00  0.00     0.278 C 
ENDBRANCH   7  13
ENDBRANCH   5   6
BRANCH   5  15
ATOM     15  N   UNL A   1      34.404  32.339  31.411  1.00  0.00    -0.342 N 
ATOM     16  H   UNL A   1      34.217  31.926  32.325  1.00  0.00     0.345 HD
ATOM     17  H   UNL A   1      35.110  31.784  30.925  1.00  0.00     0.345 HD
ATOM     18  H   UNL A   1      33.545  32.352  30.861  1.00  0.00     0.345 HD
ENDBRANCH   5  15
ENDBRANCH   3   5
ENDBRANCH   2   3
ENDBRANCH   1   2
BRANCH   1  19
ATOM     19  C   UNL A   1      33.656  33.078  27.786  1.00  0.00     0.275 C 
BRANCH  19  20
ATOM     20  O   UNL A   1      34.251  31.994  28.527  1.00  0.00    -0.458 OA
BRANCH  20  21
ATOM     21  C   UNL A   1      34.506  30.872  27.815  1.00  0.00     0.338 C 
ATOM     22  O   UNL A   1      33.871  30.427  26.873  1.00  0.00    -0.246 OA
BRANCH  21  23
ATOM     23  C   UNL A   1      35.796  30.302  28.238  1.00  0.00     0.060 A 
ATOM     24  C   UNL A   1      35.857  29.701  29.499  1.00  0.00     0.016 A 
ATOM     25  C   UNL A   1      36.941  30.404  27.448  1.00  0.00     0.016 A 
ATOM     26  C   UNL A   1      37.059  29.202  29.982  1.00  0.00     0.010 A 
ATOM     27  C   UNL A   1      38.152  29.901  27.933  1.00  0.00     0.010 A 
ATOM     28  C   UNL A   1      38.217  29.305  29.205  1.00  0.00    -0.014 A 
BRANCH  28  29
ATOM     29  C   UNL A   1      39.506  28.827  29.753  1.00  0.00     0.031 A 
ATOM     30  C   UNL A   1      40.165  29.581  30.867  1.00  0.00     0.074 A 
ATOM     31  C   UNL A   1      40.064  27.705  29.263  1.00  0.00     0.049 A 
ATOM     32  N   UNL A   1      41.339  29.395  31.413  1.00  0.00    -0.248 NA
ATOM     33  C   UNL A   1      39.397  30.694  31.449  1.00  0.00     0.031 C 
ATOM     34  C   UNL A   1      39.478  26.856  28.226  1.00  0.00     0.029 A 
ATOM     35  N   UNL A   1      41.250  27.091  29.572  1.00  0.00    -0.354 N 
ATOM     36  C   UNL A   1      41.462  30.378  32.385  1.00  0.00     0.074 A 
ATOM     37  C   UNL A   1      40.248  31.165  32.350  1.00  0.00     0.031 C 
ATOM     38  C   UNL A   1      40.312  25.833  27.978  1.00  0.00     0.029 A 
ATOM     39  C   UNL A   1      41.511  25.987  28.798  1.00  0.00     0.049 A 
ATOM     40  H   UNL A   1      41.857  27.410  30.279  1.00  0.00     0.167 HD
ATOM     41  C   UNL A   1      42.498  30.599  33.228  1.00  0.00     0.037 A 
ATOM     42  C   UNL A   1      42.611  25.215  28.731  1.00  0.00     0.037 A 
ATOM     43  C   UNL A   1      43.694  29.799  33.264  1.00  0.00     0.049 A 
ATOM     44  C   UNL A   1      43.783  25.534  29.620  1.00  0.00     0.074 A 
ATOM     45  C   UNL A   1      44.796  29.929  34.092  1.00  0.00     0.029 A 
ATOM     46  N   UNL A   1      43.947  28.721  32.428  1.00  0.00    -0.354 N 
ATOM     47  N   UNL A   1      43.901  26.472  30.527  1.00  0.00    -0.248 NA
ATOM     48  C   UNL A   1      44.979  24.696  29.463  1.00  0.00     0.031 C 
ATOM     49  C   UNL A   1      45.733  28.955  33.727  1.00  0.00     0.029 A 
ATOM     50  C   UNL A   1      45.198  28.193  32.701  1.00  0.00     0.049 A 
ATOM     51  H   UNL A   1      43.328  28.381  31.743  1.00  0.00     0.167 HD
ATOM     52  C   UNL A   1      45.175  26.332  31.057  1.00  0.00     0.074 A 
ATOM     53  C   UNL A   1      45.786  25.205  30.384  1.00  0.00     0.031 C 
ATOM     54  C   UNL A   1      45.788  27.072  32.013  1.00  0.00     0.037 A 
BRANCH  41  55
ATOM     55  C   UNL A   1      42.398  31.772  34.155  1.00  0.00     0.064 A 
ATOM     56  C   UNL A   1      42.818  33.054  33.774  1.00  0.00     0.173 A 
ATOM     57  C   UNL A   1      41.845  31.615  35.435  1.00  0.00     0.173 A 
ATOM     58  F   UNL A   1      43.368  33.254  32.567  1.00  0.00    -0.203 F 
ATOM     59  C   UNL A   1      42.707  34.133  34.649  1.00  0.00     0.198 A 
ATOM     60  C   UNL A   1      41.714  32.700  36.298  1.00  0.00     0.198 A 
ATOM     61  F   UNL A   1      41.427  30.409  35.847  1.00  0.00    -0.203 F 
ATOM     62  F   UNL A   1      43.152  35.342  34.280  1.00  0.00    -0.200 F 
ATOM     63  C   UNL A   1      42.150  33.956  35.907  1.00  0.00     0.200 A 
ATOM     64  F   UNL A   1      41.166  32.528  37.510  1.00  0.00    -0.200 F 
ATOM     65  F   UNL A   1      42.040  34.995  36.746  1.00  0.00    -0.200 F 
ENDBRANCH  41  55
BRANCH  42  66
ATOM     66  C   UNL A   1      42.671  24.096  27.756  1.00  0.00     0.064 A 
ATOM     67  C   UNL A   1      43.085  24.308  26.435  1.00  0.00     0.173 A 
ATOM     68  C   UNL A   1      42.310  22.792  28.127  1.00  0.00     0.173 A 
ATOM     69  F   UNL A   1      43.413  25.543  26.027  1.00  0.00    -0.203 F 
ATOM     70  C   UNL A   1      43.129  23.261  25.518  1.00  0.00     0.198 A 
ATOM     71  C   UNL A   1      42.380  21.739  27.217  1.00  0.00     0.198 A 
ATOM     72  F   UNL A   1      41.902  22.537  29.378  1.00  0.00    -0.203 F 
ATOM     73  F   UNL A   1      43.491  23.497  24.250  1.00  0.00    -0.200 F 
ATOM     74  C   UNL A   1      42.784  21.975  25.912  1.00  0.00     0.200 A 
ATOM     75  F   UNL A   1      42.055  20.498  27.604  1.00  0.00    -0.200 F 
ATOM     76  F   UNL A   1      42.830  20.967  25.030  1.00  0.00    -0.200 F 
ENDBRANCH  42  66
BRANCH  54  77
ATOM     77  C   UNL A   1      47.184  26.679  32.394  1.00  0.00     0.064 A 
ATOM     78  C   UNL A   1      47.426  25.652  33.318  1.00  0.00     0.173 A 
ATOM     79  C   UNL A   1      48.288  27.306  31.801  1.00  0.00     0.173 A 
ATOM     80  F   UNL A   1      46.401  25.034  33.925  1.00  0.00    -0.203 F 
ATOM     81  C   UNL A   1      48.726  25.278  33.646  1.00  0.00     0.198 A 
ATOM     82  C   UNL A   1      49.586  26.913  32.112  1.00  0.00     0.198 A 
ATOM     83  F   UNL A   1      48.107  28.292  30.909  1.00  0.00    -0.203 F 
ATOM     84  F   UNL A   1      48.936  24.320  34.559  1.00  0.00    -0.200 F 
ATOM     85  C   UNL A   1      49.804  25.903  33.037  1.00  0.00     0.200 A 
ATOM     86  F   UNL A   1      50.627  27.510  31.514  1.00  0.00    -0.200 F 
ATOM     87  F   UNL A   1      51.056  25.537  33.348  1.00  0.00    -0.200 F 
ENDBRANCH  54  77
ENDBRANCH  28  29
ENDBRANCH  21  23
ENDBRANCH  20  21
ENDBRANCH  19  20
ENDBRANCH   1  19
TORSDOF 14
ENDMDL
MODEL 2
REMARK VINA RESULT:      -9.6      3.793      9.363
REMARK SMILES COc1cc(Br)ccc1[C@H]([NH3+])C(=O)OCCOC(=O)c1ccc(-c2c3nc(c(-c4c(F)c(F)c(F)c(F)c4F)c4ccc([nH]4)c(-c4c(F)c(F)c(F)c(F)c4F)c4nc(c(-c5c(F)c(F)c(F)c(F)c5F)c5ccc2[nH]5)C=C4)C=C3)cc1
REMARK SMILES IDX 15 1 14 2 12 3 13 4 10 5 9 6 3 7 4 8 5 9 8 10 6 11 7 12 2 13
REMARK SMILES IDX 1 14 11 15 16 19 17 20 18 21 19 22 20 23 21 24 82 25 22 26
REMARK SMILES IDX 81 27 23 28 24 29 25 30 75 31 26 32 80 33 74 34 76 35 27 36
REMARK SMILES IDX 79 37 73 38 72 39 28 41 60 42 40 43 59 44 41 45 44 46 58 47
REMARK SMILES IDX 77 48 42 49 43 50 57 52 78 53 45 54 29 55 30 56 38 57 31 58
REMARK SMILES IDX 32 59 36 60 39 61 33 62 34 63 37 64 35 65 61 66 62 67 70 68
REMARK SMILES IDX 63 69 64 70 68 71 71 72 65 73 66 74 69 75 67 76 46 77 47 78
REMARK SMILES IDX 55 79 48 80 49 81 53 82 56 83 50 84 51 85 54 86 52 87
REMARK H PARENT 11 16 11 17 11 18 76 40 44 51
REMARK Flexibility Score: inf
ROOT
ATOM      1  C   UNL A   1      31.166  30.003  25.095  1.00  0.00     0.274 C 
ENDROOT
BRANCH   1   2
ATOM      2  O   UNL A   1      31.529  28.685  24.656  1.00  0.00    -0.457 OA
BRANCH   2   3
ATOM      3  C   UNL A   1      32.064  28.565  23.406  1.00  0.00     0.370 C 
ATOM      4  O   UNL A   1      31.463  28.837  22.371  1.00  0.00    -0.245 OA
BRANCH   3   5
ATOM      5  C   UNL A   1      33.533  28.083  23.435  1.00  0.00     0.326 C 
BRANCH   5   6
ATOM      6  C   UNL A   1      33.710  26.596  23.706  1.00  0.00     0.063 A 
ATOM      7  C   UNL A   1      33.674  25.675  22.633  1.00  0.00     0.129 A 
ATOM      8  C   UNL A   1      33.855  24.307  22.873  1.00  0.00     0.062 A 
ATOM      9  C   UNL A   1      34.030  23.847  24.178  1.00  0.00     0.021 A 
ATOM     10  C   UNL A   1      33.891  26.102  25.010  1.00  0.00     0.015 A 
ATOM     11  Br  UNL A   1      34.264  21.998  24.497  1.00  0.00    -0.051 Br
ATOM     12  C   UNL A   1      34.036  24.735  25.247  1.00  0.00     0.016 A 
BRANCH   7  13
ATOM     13  O   UNL A   1      33.491  26.208  21.380  1.00  0.00    -0.496 OA
ATOM     14  C   UNL A   1      32.572  25.532  20.528  1.00  0.00     0.278 C 
ENDBRANCH   7  13
ENDBRANCH   5   6
BRANCH   5  15
ATOM     15  N   UNL A   1      34.365  28.909  24.342  1.00  0.00    -0.342 N 
ATOM     16  H   UNL A   1      34.039  29.875  24.316  1.00  0.00     0.345 HD
ATOM     17  H   UNL A   1      35.338  28.870  24.039  1.00  0.00     0.345 HD
ATOM     18  H   UNL A   1      34.290  28.549  25.294  1.00  0.00     0.345 HD
ENDBRANCH   5  15
ENDBRANCH   3   5
ENDBRANCH   2   3
ENDBRANCH   1   2
BRANCH   1  19
ATOM     19  C   UNL A   1      31.757  30.296  26.478  1.00  0.00     0.275 C 
BRANCH  19  20
ATOM     20  O   UNL A   1      33.155  30.638  26.406  1.00  0.00    -0.458 OA
BRANCH  20  21
ATOM     21  C   UNL A   1      33.545  31.670  27.190  1.00  0.00     0.338 C 
ATOM     22  O   UNL A   1      32.918  32.682  27.454  1.00  0.00    -0.246 OA
BRANCH  21  23
ATOM     23  C   UNL A   1      34.822  31.338  27.843  1.00  0.00     0.060 A 
ATOM     24  C   UNL A   1      34.972  30.044  28.354  1.00  0.00     0.016 A 
ATOM     25  C   UNL A   1      35.833  32.284  28.009  1.00  0.00     0.016 A 
ATOM     26  C   UNL A   1      36.127  29.689  29.037  1.00  0.00     0.010 A 
ATOM     27  C   UNL A   1      36.997  31.927  28.696  1.00  0.00     0.010 A 
ATOM     28  C   UNL A   1      37.145  30.629  29.220  1.00  0.00    -0.014 A 
BRANCH  28  29
ATOM     29  C   UNL A   1      38.345  30.261  30.002  1.00  0.00     0.031 A 
ATOM     30  C   UNL A   1      39.358  29.327  29.412  1.00  0.00     0.074 A 
ATOM     31  C   UNL A   1      38.532  30.788  31.226  1.00  0.00     0.049 A 
ATOM     32  N   UNL A   1      40.417  28.797  29.966  1.00  0.00    -0.248 NA
ATOM     33  C   UNL A   1      39.153  28.941  28.007  1.00  0.00     0.031 C 
ATOM     34  C   UNL A   1      37.646  31.757  31.870  1.00  0.00     0.029 A 
ATOM     35  N   UNL A   1      39.526  30.576  32.146  1.00  0.00    -0.354 N 
ATOM     36  C   UNL A   1      40.993  27.997  28.988  1.00  0.00     0.074 A 
ATOM     37  C   UNL A   1      40.161  28.104  27.809  1.00  0.00     0.031 C 
ATOM     38  C   UNL A   1      38.133  32.051  33.086  1.00  0.00     0.029 A 
ATOM     39  C   UNL A   1      39.331  31.251  33.325  1.00  0.00     0.049 A 
ATOM     40  H   UNL A   1      40.305  29.996  31.978  1.00  0.00     0.167 HD
ATOM     41  C   UNL A   1      42.114  27.243  29.075  1.00  0.00     0.037 A 
ATOM     42  C   UNL A   1      40.020  31.195  34.480  1.00  0.00     0.037 A 
ATOM     43  C   UNL A   1      42.941  27.157  30.250  1.00  0.00     0.049 A 
ATOM     44  C   UNL A   1      41.214  30.285  34.576  1.00  0.00     0.074 A 
ATOM     45  C   UNL A   1      44.108  26.435  30.434  1.00  0.00     0.029 A 
ATOM     46  N   UNL A   1      42.683  27.813  31.445  1.00  0.00    -0.354 N 
ATOM     47  N   UNL A   1      41.746  29.520  33.655  1.00  0.00    -0.248 NA
ATOM     48  C   UNL A   1      41.892  30.218  35.878  1.00  0.00     0.031 C 
ATOM     49  C   UNL A   1      44.532  26.622  31.755  1.00  0.00     0.029 A 
ATOM     50  C   UNL A   1      43.654  27.492  32.380  1.00  0.00     0.049 A 
ATOM     51  H   UNL A   1      41.924  28.419  31.604  1.00  0.00     0.167 HD
ATOM     52  C   UNL A   1      42.825  28.891  34.258  1.00  0.00     0.074 A 
ATOM     53  C   UNL A   1      42.885  29.379  35.620  1.00  0.00     0.031 C 
ATOM     54  C   UNL A   1      43.689  27.987  33.733  1.00  0.00     0.037 A 
BRANCH  41  55
ATOM     55  C   UNL A   1      42.491  26.424  27.878  1.00  0.00     0.064 A 
ATOM     56  C   UNL A   1      43.403  26.890  26.920  1.00  0.00     0.173 A 
ATOM     57  C   UNL A   1      41.954  25.140  27.703  1.00  0.00     0.173 A 
ATOM     58  F   UNL A   1      43.933  28.117  27.033  1.00  0.00    -0.203 F 
ATOM     59  C   UNL A   1      43.747  26.108  25.819  1.00  0.00     0.198 A 
ATOM     60  C   UNL A   1      42.318  24.351  26.615  1.00  0.00     0.198 A 
ATOM     61  F   UNL A   1      41.079  24.648  28.593  1.00  0.00    -0.203 F 
ATOM     62  F   UNL A   1      44.589  26.589  24.894  1.00  0.00    -0.200 F 
ATOM     63  C   UNL A   1      43.210  24.838  25.672  1.00  0.00     0.200 A 
ATOM     64  F   UNL A   1      41.804  23.121  26.480  1.00  0.00    -0.200 F 
ATOM     65  F   UNL A   1      43.544  24.085  24.615  1.00  0.00    -0.200 F 
ENDBRANCH  41  55
BRANCH  42  66
ATOM     66  C   UNL A   1      39.569  31.993  35.649  1.00  0.00     0.064 A 
ATOM     67  C   UNL A   1      40.126  33.248  35.927  1.00  0.00     0.173 A 
ATOM     68  C   UNL A   1      38.573  31.514  36.513  1.00  0.00     0.173 A 
ATOM     69  F   UNL A   1      41.100  33.736  35.145  1.00  0.00    -0.203 F 
ATOM     70  C   UNL A   1      39.711  33.990  37.031  1.00  0.00     0.198 A 
ATOM     71  C   UNL A   1      38.139  32.268  37.601  1.00  0.00     0.198 A 
ATOM     72  F   UNL A   1      38.012  30.316  36.293  1.00  0.00    -0.203 F 
ATOM     73  F   UNL A   1      40.287  35.169  37.298  1.00  0.00    -0.200 F 
ATOM     74  C   UNL A   1      38.713  33.503  37.862  1.00  0.00     0.200 A 
ATOM     75  F   UNL A   1      37.168  31.798  38.395  1.00  0.00    -0.200 F 
ATOM     76  F   UNL A   1      38.310  34.219  38.921  1.00  0.00    -0.200 F 
ENDBRANCH  42  66
BRANCH  54  77
ATOM     77  C   UNL A   1      44.777  27.477  34.631  1.00  0.00     0.064 A 
ATOM     78  C   UNL A   1      46.002  28.148  34.746  1.00  0.00     0.173 A 
ATOM     79  C   UNL A   1      44.576  26.332  35.414  1.00  0.00     0.173 A 
ATOM     80  F   UNL A   1      46.247  29.239  34.003  1.00  0.00    -0.203 F 
ATOM     81  C   UNL A   1      46.996  27.680  35.601  1.00  0.00     0.198 A 
ATOM     82  C   UNL A   1      45.561  25.880  36.287  1.00  0.00     0.198 A 
ATOM     83  F   UNL A   1      43.418  25.658  35.342  1.00  0.00    -0.203 F 
ATOM     84  F   UNL A   1      48.175  28.314  35.667  1.00  0.00    -0.200 F 
ATOM     85  C   UNL A   1      46.772  26.552  36.376  1.00  0.00     0.200 A 
ATOM     86  F   UNL A   1      45.339  24.797  37.044  1.00  0.00    -0.200 F 
ATOM     87  F   UNL A   1      47.726  26.106  37.205  1.00  0.00    -0.200 F 
ENDBRANCH  54  77
ENDBRANCH  28  29
ENDBRANCH  21  23
ENDBRANCH  20  21
ENDBRANCH  19  20
ENDBRANCH   1  19
TORSDOF 14
ENDMDL
MODEL 3
REMARK VINA RESULT:      -9.6      4.445     10.642
REMARK SMILES COc1cc(Br)ccc1[C@H]([NH3+])C(=O)OCCOC(=O)c1ccc(-c2c3nc(c(-c4c(F)c(F)c(F)c(F)c4F)c4ccc([nH]4)c(-c4c(F)c(F)c(F)c(F)c4F)c4nc(c(-c5c(F)c(F)c(F)c(F)c5F)c5ccc2[nH]5)C=C4)C=C3)cc1
REMARK SMILES IDX 15 1 14 2 12 3 13 4 10 5 9 6 3 7 4 8 5 9 8 10 6 11 7 12 2 13
REMARK SMILES IDX 1 14 11 15 16 19 17 20 18 21 19 22 20 23 21 24 82 25 22 26
REMARK SMILES IDX 81 27 23 28 24 29 25 30 75 31 26 32 80 33 74 34 76 35 27 36
REMARK SMILES IDX 79 37 73 38 72 39 28 41 60 42 40 43 59 44 41 45 44 46 58 47
REMARK SMILES IDX 77 48 42 49 43 50 57 52 78 53 45 54 29 55 30 56 38 57 31 58
REMARK SMILES IDX 32 59 36 60 39 61 33 62 34 63 37 64 35 65 61 66 62 67 70 68
REMARK SMILES IDX 63 69 64 70 68 71 71 72 65 73 66 74 69 75 67 76 46 77 47 78
REMARK SMILES IDX 55 79 48 80 49 81 53 82 56 83 50 84 51 85 54 86 52 87
REMARK H PARENT 11 16 11 17 11 18 76 40 44 51
REMARK Flexibility Score: inf
ROOT
ATOM      1  C   UNL A   1      41.446  20.115  26.515  1.00  0.00     0.274 C 
ENDROOT
BRANCH   1   2
ATOM      2  O   UNL A   1      42.197  20.564  25.375  1.00  0.00    -0.457 OA
BRANCH   2   3
ATOM      3  C   UNL A   1      43.505  20.895  25.577  1.00  0.00     0.370 C 
ATOM      4  O   UNL A   1      44.423  20.081  25.618  1.00  0.00    -0.245 OA
BRANCH   3   5
ATOM      5  C   UNL A   1      43.714  22.421  25.715  1.00  0.00     0.326 C 
BRANCH   5   6
ATOM      6  C   UNL A   1      43.904  22.912  27.143  1.00  0.00     0.063 A 
ATOM      7  C   UNL A   1      45.174  23.360  27.572  1.00  0.00     0.129 A 
ATOM      8  C   UNL A   1      45.350  23.831  28.879  1.00  0.00     0.062 A 
ATOM      9  C   UNL A   1      44.280  23.819  29.772  1.00  0.00     0.021 A 
ATOM     10  C   UNL A   1      42.842  22.915  28.066  1.00  0.00     0.015 A 
ATOM     11  Br  UNL A   1      44.527  24.447  31.539  1.00  0.00    -0.051 Br
ATOM     12  C   UNL A   1      43.032  23.353  29.377  1.00  0.00     0.016 A 
BRANCH   7  13
ATOM     13  O   UNL A   1      46.177  23.333  26.633  1.00  0.00    -0.496 OA
ATOM     14  C   UNL A   1      47.060  24.450  26.610  1.00  0.00     0.278 C 
ENDBRANCH   7  13
ENDBRANCH   5   6
BRANCH   5  15
ATOM     15  N   UNL A   1      42.662  23.186  25.006  1.00  0.00    -0.342 N 
ATOM     16  H   UNL A   1      42.637  22.902  24.026  1.00  0.00     0.345 HD
ATOM     17  H   UNL A   1      42.869  24.184  25.065  1.00  0.00     0.345 HD
ATOM     18  H   UNL A   1      41.757  23.001  25.438  1.00  0.00     0.345 HD
ENDBRANCH   5  15
ENDBRANCH   3   5
ENDBRANCH   2   3
ENDBRANCH   1   2
BRANCH   1  19
ATOM     19  C   UNL A   1      40.118  20.873  26.623  1.00  0.00     0.275 C 
BRANCH  19  20
ATOM     20  O   UNL A   1      40.211  22.204  26.075  1.00  0.00    -0.458 OA
BRANCH  20  21
ATOM     21  C   UNL A   1      39.084  22.949  26.159  1.00  0.00     0.338 C 
ATOM     22  O   UNL A   1      37.947  22.615  25.871  1.00  0.00    -0.246 OA
BRANCH  21  23
ATOM     23  C   UNL A   1      39.389  24.229  26.819  1.00  0.00     0.060 A 
ATOM     24  C   UNL A   1      40.044  25.208  26.064  1.00  0.00     0.016 A 
ATOM     25  C   UNL A   1      39.097  24.453  28.165  1.00  0.00     0.016 A 
ATOM     26  C   UNL A   1      40.416  26.412  26.647  1.00  0.00     0.010 A 
ATOM     27  C   UNL A   1      39.471  25.665  28.752  1.00  0.00     0.010 A 
ATOM     28  C   UNL A   1      40.138  26.647  27.997  1.00  0.00    -0.014 A 
BRANCH  28  29
ATOM     29  C   UNL A   1      40.593  27.907  28.626  1.00  0.00     0.031 A 
ATOM     30  C   UNL A   1      42.029  28.063  29.023  1.00  0.00     0.074 A 
ATOM     31  C   UNL A   1      39.719  28.912  28.812  1.00  0.00     0.049 A 
ATOM     32  N   UNL A   1      42.607  29.035  29.679  1.00  0.00    -0.248 NA
ATOM     33  C   UNL A   1      42.940  26.978  28.623  1.00  0.00     0.031 C 
ATOM     34  C   UNL A   1      38.315  28.895  28.404  1.00  0.00     0.029 A 
ATOM     35  N   UNL A   1      39.885  30.141  29.398  1.00  0.00    -0.354 N 
ATOM     36  C   UNL A   1      43.941  28.672  29.793  1.00  0.00     0.074 A 
ATOM     37  C   UNL A   1      44.088  27.386  29.146  1.00  0.00     0.031 C 
ATOM     38  C   UNL A   1      37.743  30.058  28.758  1.00  0.00     0.029 A 
ATOM     39  C   UNL A   1      38.726  30.874  29.465  1.00  0.00     0.049 A 
ATOM     40  H   UNL A   1      40.751  30.467  29.737  1.00  0.00     0.167 HD
ATOM     41  C   UNL A   1      44.949  29.356  30.386  1.00  0.00     0.037 A 
ATOM     42  C   UNL A   1      38.480  32.052  30.067  1.00  0.00     0.037 A 
ATOM     43  C   UNL A   1      44.792  30.641  31.013  1.00  0.00     0.049 A 
ATOM     44  C   UNL A   1      39.597  32.751  30.793  1.00  0.00     0.074 A 
ATOM     45  C   UNL A   1      45.753  31.425  31.627  1.00  0.00     0.029 A 
ATOM     46  N   UNL A   1      43.592  31.330  31.110  1.00  0.00    -0.354 N 
ATOM     47  N   UNL A   1      40.854  32.398  30.910  1.00  0.00    -0.248 NA
ATOM     48  C   UNL A   1      39.258  34.003  31.482  1.00  0.00     0.031 C 
ATOM     49  C   UNL A   1      45.125  32.569  32.134  1.00  0.00     0.029 A 
ATOM     50  C   UNL A   1      43.782  32.518  31.799  1.00  0.00     0.049 A 
ATOM     51  H   UNL A   1      42.733  31.021  30.743  1.00  0.00     0.167 HD
ATOM     52  C   UNL A   1      41.458  33.386  31.674  1.00  0.00     0.074 A 
ATOM     53  C   UNL A   1      40.434  34.365  31.977  1.00  0.00     0.031 C 
ATOM     54  C   UNL A   1      42.745  33.474  32.092  1.00  0.00     0.037 A 
BRANCH  41  55
ATOM     55  C   UNL A   1      46.300  28.709  30.416  1.00  0.00     0.064 A 
ATOM     56  C   UNL A   1      47.258  28.950  29.421  1.00  0.00     0.173 A 
ATOM     57  C   UNL A   1      46.653  27.858  31.474  1.00  0.00     0.173 A 
ATOM     58  F   UNL A   1      46.965  29.744  28.379  1.00  0.00    -0.203 F 
ATOM     59  C   UNL A   1      48.512  28.345  29.473  1.00  0.00     0.198 A 
ATOM     60  C   UNL A   1      47.915  27.274  31.536  1.00  0.00     0.198 A 
ATOM     61  F   UNL A   1      45.772  27.596  32.452  1.00  0.00    -0.203 F 
ATOM     62  F   UNL A   1      49.399  28.557  28.490  1.00  0.00    -0.200 F 
ATOM     63  C   UNL A   1      48.841  27.514  30.533  1.00  0.00     0.200 A 
ATOM     64  F   UNL A   1      48.234  26.478  32.567  1.00  0.00    -0.200 F 
ATOM     65  F   UNL A   1      50.050  26.937  30.585  1.00  0.00    -0.200 F 
ENDBRANCH  41  55
BRANCH  42  66
ATOM     66  C   UNL A   1      37.107  32.620  30.047  1.00  0.00     0.064 A 
ATOM     67  C   UNL A   1      36.191  32.335  31.068  1.00  0.00     0.173 A 
ATOM     68  C   UNL A   1      36.684  33.457  29.004  1.00  0.00     0.173 A 
ATOM     69  F   UNL A   1      36.541  31.517  32.072  1.00  0.00    -0.203 F 
ATOM     70  C   UNL A   1      34.900  32.857  31.041  1.00  0.00     0.198 A 
ATOM     71  C   UNL A   1      35.402  34.001  28.992  1.00  0.00     0.198 A 
ATOM     72  F   UNL A   1      37.521  33.756  28.000  1.00  0.00    -0.203 F 
ATOM     73  F   UNL A   1      34.029  32.538  32.008  1.00  0.00    -0.200 F 
ATOM     74  C   UNL A   1      34.509  33.696  30.007  1.00  0.00     0.200 A 
ATOM     75  F   UNL A   1      35.032  34.818  27.996  1.00  0.00    -0.200 F 
ATOM     76  F   UNL A   1      33.268  34.202  29.985  1.00  0.00    -0.200 F 
ENDBRANCH  42  66
BRANCH  54  77
ATOM     77  C   UNL A   1      43.118  34.675  32.910  1.00  0.00     0.064 A 
ATOM     78  C   UNL A   1      43.451  35.895  32.306  1.00  0.00     0.173 A 
ATOM     79  C   UNL A   1      43.102  34.615  34.311  1.00  0.00     0.173 A 
ATOM     80  F   UNL A   1      43.497  35.996  30.969  1.00  0.00    -0.203 F 
ATOM     81  C   UNL A   1      43.772  37.010  33.075  1.00  0.00     0.198 A 
ATOM     82  C   UNL A   1      43.399  35.737  35.078  1.00  0.00     0.198 A 
ATOM     83  F   UNL A   1      42.786  33.470  34.936  1.00  0.00    -0.203 F 
ATOM     84  F   UNL A   1      44.125  38.156  32.478  1.00  0.00    -0.200 F 
ATOM     85  C   UNL A   1      43.738  36.932  34.460  1.00  0.00     0.200 A 
ATOM     86  F   UNL A   1      43.355  35.664  36.416  1.00  0.00    -0.200 F 
ATOM     87  F   UNL A   1      44.040  38.008  35.200  1.00  0.00    -0.200 F 
ENDBRANCH  54  77
ENDBRANCH  28  29
ENDBRANCH  21  23
ENDBRANCH  20  21
ENDBRANCH  19  20
ENDBRANCH   1  19
TORSDOF 14
ENDMDL
