MODEL 1
REMARK VINA RESULT:     -11.7      0.000      0.000
REMARK SMILES CCOC(=O)[C@H]1CCCN(C(=O)N[C@](C)(CC)C(=O)OCCOC(=O)c2ccc(-c3c4nc(c(-c5c(F)c(F)c(F)c(F)c5F)c5ccc([nH]5)c(-c5c(F)c(F)c(F)c(F)c5F)c5nc(c(-c6c(F)c(F)c(F)c(F)c6F)c6ccc3[nH]6)C=C5)C=C4)cc2)C1
REMARK SMILES IDX 20 1 18 2 19 3 14 4 15 5 13 6 11 7 12 8 10 10 6 11 7 12
REMARK SMILES IDX 89 13 8 14 9 15 4 16 5 17 3 18 2 19 1 20 16 21 17 22 21 23
REMARK SMILES IDX 22 24 23 25 24 26 25 27 26 28 27 29 88 30 28 31 87 32 29 33
REMARK SMILES IDX 30 34 31 35 81 36 32 37 86 38 80 39 82 40 33 41 85 42 79 43
REMARK SMILES IDX 78 44 34 46 66 47 46 48 65 49 47 50 50 51 64 52 83 53 48 54
REMARK SMILES IDX 49 55 63 57 84 58 51 59 35 60 36 61 44 62 37 63 38 64 42 65
REMARK SMILES IDX 45 66 39 67 40 68 43 69 41 70 67 71 68 72 76 73 69 74 70 75
REMARK SMILES IDX 74 76 77 77 71 78 72 79 75 80 73 81 52 82 53 83 61 84 54 85
REMARK SMILES IDX 55 86 59 87 62 88 56 89 57 90 60 91 58 92
REMARK H PARENT 13 9 82 45 50 56
REMARK Flexibility Score: inf
ROOT
ATOM      1  O   UNL A   1      31.030  27.328  25.028  1.00  0.00    -0.460 OA
ENDROOT
BRANCH   1   2
ATOM      2  C   UNL A   1      31.483  26.600  26.089  1.00  0.00     0.331 C 
ATOM      3  O   UNL A   1      31.180  26.839  27.253  1.00  0.00    -0.249 OA
BRANCH   2   4
ATOM      4  C   UNL A   1      32.392  25.413  25.653  1.00  0.00     0.136 C 
ATOM      5  C   UNL A   1      33.876  25.736  25.861  1.00  0.00     0.047 C 
BRANCH   4   6
ATOM      6  N   UNL A   1      31.976  25.062  24.242  1.00  0.00    -0.322 N 
ATOM      7  C   UNL A   1      32.151  24.254  23.189  1.00  0.00     0.318 C 
ATOM      8  O   UNL A   1      31.483  24.595  22.204  1.00  0.00    -0.249 OA
ATOM      9  H   UNL A   1      31.274  25.704  23.989  1.00  0.00     0.166 HD
BRANCH   7  10
ATOM     10  N   UNL A   1      32.929  23.148  23.143  1.00  0.00    -0.324 N 
ATOM     11  C   UNL A   1      32.836  21.165  24.631  1.00  0.00     0.119 C 
ATOM     12  C   UNL A   1      34.335  21.398  24.935  1.00  0.00     0.019 C 
ATOM     13  C   UNL A   1      32.328  21.822  23.336  1.00  0.00     0.136 C 
ATOM     14  C   UNL A   1      34.852  22.768  24.497  1.00  0.00     0.023 C 
ATOM     15  C   UNL A   1      34.362  23.063  23.085  1.00  0.00     0.121 C 
BRANCH  11  16
ATOM     16  C   UNL A   1      32.620  19.671  24.519  1.00  0.00     0.310 C 
ATOM     17  O   UNL A   1      32.192  18.976  25.433  1.00  0.00    -0.252 OA
BRANCH  16  18
ATOM     18  O   UNL A   1      32.915  19.222  23.271  1.00  0.00    -0.466 OA
BRANCH  18  19
ATOM     19  C   UNL A   1      32.653  17.829  23.038  1.00  0.00     0.229 C 
ATOM     20  C   UNL A   1      33.927  17.003  23.059  1.00  0.00     0.049 C 
ENDBRANCH  18  19
ENDBRANCH  16  18
ENDBRANCH  11  16
ENDBRANCH   7  10
ENDBRANCH   4   6
BRANCH   4  21
ATOM     21  C   UNL A   1      32.064  24.118  26.487  1.00  0.00     0.037 C 
ATOM     22  C   UNL A   1      30.645  23.554  26.390  1.00  0.00     0.007 C 
ENDBRANCH   4  21
ENDBRANCH   2   4
ENDBRANCH   1   2
BRANCH   1  23
ATOM     23  C   UNL A   1      31.840  28.448  24.607  1.00  0.00     0.274 C 
BRANCH  23  24
ATOM     24  C   UNL A   1      31.723  29.596  25.605  1.00  0.00     0.275 C 
BRANCH  24  25
ATOM     25  O   UNL A   1      32.999  30.250  25.716  1.00  0.00    -0.458 OA
BRANCH  25  26
ATOM     26  C   UNL A   1      33.168  31.066  26.782  1.00  0.00     0.338 C 
ATOM     27  O   UNL A   1      32.360  31.850  27.249  1.00  0.00    -0.246 OA
BRANCH  26  28
ATOM     28  C   UNL A   1      34.504  30.839  27.373  1.00  0.00     0.060 A 
ATOM     29  C   UNL A   1      34.942  29.544  27.627  1.00  0.00     0.016 A 
ATOM     30  C   UNL A   1      35.276  31.921  27.799  1.00  0.00     0.016 A 
ATOM     31  C   UNL A   1      36.085  29.332  28.395  1.00  0.00     0.010 A 
ATOM     32  C   UNL A   1      36.489  31.695  28.469  1.00  0.00     0.010 A 
ATOM     33  C   UNL A   1      36.895  30.395  28.814  1.00  0.00    -0.014 A 
BRANCH  33  34
ATOM     34  C   UNL A   1      38.122  30.141  29.636  1.00  0.00     0.031 A 
ATOM     35  C   UNL A   1      39.271  29.339  29.069  1.00  0.00     0.074 A 
ATOM     36  C   UNL A   1      38.258  30.653  30.878  1.00  0.00     0.049 A 
ATOM     37  N   UNL A   1      40.290  28.796  29.690  1.00  0.00    -0.248 NA
ATOM     38  C   UNL A   1      39.269  29.112  27.617  1.00  0.00     0.031 C 
ATOM     39  C   UNL A   1      37.292  31.518  31.557  1.00  0.00     0.029 A 
ATOM     40  N   UNL A   1      39.282  30.534  31.791  1.00  0.00    -0.354 N 
ATOM     41  C   UNL A   1      40.996  28.094  28.721  1.00  0.00     0.074 A 
ATOM     42  C   UNL A   1      40.304  28.297  27.467  1.00  0.00     0.031 C 
ATOM     43  C   UNL A   1      37.800  31.916  32.731  1.00  0.00     0.029 A 
ATOM     44  C   UNL A   1      39.058  31.219  32.962  1.00  0.00     0.049 A 
ATOM     45  H   UNL A   1      40.097  30.008  31.621  1.00  0.00     0.167 HD
ATOM     46  C   UNL A   1      42.114  27.339  28.869  1.00  0.00     0.037 A 
ATOM     47  C   UNL A   1      39.739  31.235  34.124  1.00  0.00     0.037 A 
ATOM     48  C   UNL A   1      42.851  27.203  30.099  1.00  0.00     0.049 A 
ATOM     49  C   UNL A   1      40.938  30.347  34.288  1.00  0.00     0.074 A 
ATOM     50  C   UNL A   1      43.995  26.462  30.346  1.00  0.00     0.029 A 
ATOM     51  N   UNL A   1      42.536  27.850  31.285  1.00  0.00    -0.354 N 
ATOM     52  N   UNL A   1      41.520  29.573  33.406  1.00  0.00    -0.248 NA
ATOM     53  C   UNL A   1      41.544  30.297  35.626  1.00  0.00     0.031 C 
ATOM     54  C   UNL A   1      44.353  26.635  31.687  1.00  0.00     0.029 A 
ATOM     55  C   UNL A   1      43.455  27.514  32.268  1.00  0.00     0.049 A 
ATOM     56  H   UNL A   1      41.771  28.457  31.410  1.00  0.00     0.167 HD
ATOM     57  C   UNL A   1      42.553  28.938  34.081  1.00  0.00     0.074 A 
ATOM     58  C   UNL A   1      42.540  29.442  35.439  1.00  0.00     0.031 C 
ATOM     59  C   UNL A   1      43.426  28.012  33.617  1.00  0.00     0.037 A 
BRANCH  46  60
ATOM     60  C   UNL A   1      42.586  26.553  27.681  1.00  0.00     0.064 A 
ATOM     61  C   UNL A   1      43.552  27.045  26.792  1.00  0.00     0.173 A 
ATOM     62  C   UNL A   1      42.086  25.259  27.456  1.00  0.00     0.173 A 
ATOM     63  F   UNL A   1      44.049  28.281  26.953  1.00  0.00    -0.203 F 
ATOM     64  C   UNL A   1      43.983  26.280  25.710  1.00  0.00     0.198 A 
ATOM     65  C   UNL A   1      42.540  24.488  26.391  1.00  0.00     0.198 A 
ATOM     66  F   UNL A   1      41.166  24.738  28.282  1.00  0.00    -0.203 F 
ATOM     67  F   UNL A   1      44.877  26.787  24.849  1.00  0.00    -0.200 F 
ATOM     68  C   UNL A   1      43.483  25.002  25.514  1.00  0.00     0.200 A 
ATOM     69  F   UNL A   1      42.065  23.248  26.212  1.00  0.00    -0.200 F 
ATOM     70  F   UNL A   1      43.906  24.266  24.477  1.00  0.00    -0.200 F 
ENDBRANCH  46  60
BRANCH  47  71
ATOM     71  C   UNL A   1      39.241  32.057  35.260  1.00  0.00     0.064 A 
ATOM     72  C   UNL A   1      38.469  31.484  36.280  1.00  0.00     0.173 A 
ATOM     73  C   UNL A   1      39.534  33.426  35.352  1.00  0.00     0.173 A 
ATOM     74  F   UNL A   1      38.125  30.190  36.213  1.00  0.00    -0.203 F 
ATOM     75  C   UNL A   1      38.015  32.251  37.352  1.00  0.00     0.198 A 
ATOM     76  C   UNL A   1      39.110  34.182  36.442  1.00  0.00     0.198 A 
ATOM     77  F   UNL A   1      40.258  34.024  34.395  1.00  0.00    -0.203 F 
ATOM     78  F   UNL A   1      37.244  31.691  38.294  1.00  0.00    -0.200 F 
ATOM     79  C   UNL A   1      38.347  33.595  37.438  1.00  0.00     0.200 A 
ATOM     80  F   UNL A   1      39.444  35.478  36.525  1.00  0.00    -0.200 F 
ATOM     81  F   UNL A   1      37.922  34.328  38.476  1.00  0.00    -0.200 F 
ENDBRANCH  47  71
BRANCH  59  82
ATOM     82  C   UNL A   1      44.446  27.493  34.586  1.00  0.00     0.064 A 
ATOM     83  C   UNL A   1      44.217  26.328  35.332  1.00  0.00     0.173 A 
ATOM     84  C   UNL A   1      45.669  28.157  34.758  1.00  0.00     0.173 A 
ATOM     85  F   UNL A   1      43.053  25.670  35.215  1.00  0.00    -0.203 F 
ATOM     86  C   UNL A   1      45.167  25.858  36.234  1.00  0.00     0.198 A 
ATOM     87  C   UNL A   1      46.627  27.671  35.644  1.00  0.00     0.198 A 
ATOM     88  F   UNL A   1      45.936  29.274  34.066  1.00  0.00    -0.203 F 
ATOM     89  F   UNL A   1      44.910  24.767  36.969  1.00  0.00    -0.200 F 
ATOM     90  C   UNL A   1      46.373  26.527  36.385  1.00  0.00     0.200 A 
ATOM     91  F   UNL A   1      47.795  28.314  35.785  1.00  0.00    -0.200 F 
ATOM     92  F   UNL A   1      47.287  26.074  37.254  1.00  0.00    -0.200 F 
ENDBRANCH  59  82
ENDBRANCH  33  34
ENDBRANCH  26  28
ENDBRANCH  25  26
ENDBRANCH  24  25
ENDBRANCH  23  24
ENDBRANCH   1  23
TORSDOF 17
ENDMDL
MODEL 2
REMARK VINA RESULT:     -11.5      0.833      1.613
REMARK SMILES CCOC(=O)[C@H]1CCCN(C(=O)N[C@](C)(CC)C(=O)OCCOC(=O)c2ccc(-c3c4nc(c(-c5c(F)c(F)c(F)c(F)c5F)c5ccc([nH]5)c(-c5c(F)c(F)c(F)c(F)c5F)c5nc(c(-c6c(F)c(F)c(F)c(F)c6F)c6ccc3[nH]6)C=C5)C=C4)cc2)C1
REMARK SMILES IDX 20 1 18 2 19 3 14 4 15 5 13 6 11 7 12 8 10 10 6 11 7 12
REMARK SMILES IDX 89 13 8 14 9 15 4 16 5 17 3 18 2 19 1 20 16 21 17 22 21 23
REMARK SMILES IDX 22 24 23 25 24 26 25 27 26 28 27 29 88 30 28 31 87 32 29 33
REMARK SMILES IDX 30 34 31 35 81 36 32 37 86 38 80 39 82 40 33 41 85 42 79 43
REMARK SMILES IDX 78 44 34 46 66 47 46 48 65 49 47 50 50 51 64 52 83 53 48 54
REMARK SMILES IDX 49 55 63 57 84 58 51 59 35 60 36 61 44 62 37 63 38 64 42 65
REMARK SMILES IDX 45 66 39 67 40 68 43 69 41 70 67 71 68 72 76 73 69 74 70 75
REMARK SMILES IDX 74 76 77 77 71 78 72 79 75 80 73 81 52 82 53 83 61 84 54 85
REMARK SMILES IDX 55 86 59 87 62 88 56 89 57 90 60 91 58 92
REMARK H PARENT 13 9 82 45 50 56
REMARK Flexibility Score: inf
ROOT
ATOM      1  O   UNL A   1      31.917  26.863  25.764  1.00  0.00    -0.460 OA
ENDROOT
BRANCH   1   2
ATOM      2  C   UNL A   1      31.016  25.881  26.052  1.00  0.00     0.331 C 
ATOM      3  O   UNL A   1      29.903  26.099  26.520  1.00  0.00    -0.249 OA
BRANCH   2   4
ATOM      4  C   UNL A   1      31.543  24.461  25.686  1.00  0.00     0.136 C 
ATOM      5  C   UNL A   1      31.211  23.439  26.779  1.00  0.00     0.047 C 
BRANCH   4   6
ATOM      6  N   UNL A   1      33.008  24.630  25.352  1.00  0.00    -0.322 N 
ATOM      7  C   UNL A   1      34.185  24.032  25.136  1.00  0.00     0.318 C 
ATOM      8  O   UNL A   1      35.113  24.836  24.979  1.00  0.00    -0.249 OA
ATOM      9  H   UNL A   1      33.163  25.597  25.250  1.00  0.00     0.166 HD
BRANCH   7  10
ATOM     10  N   UNL A   1      34.408  22.700  25.051  1.00  0.00    -0.324 N 
ATOM     11  C   UNL A   1      32.754  20.912  24.578  1.00  0.00     0.119 C 
ATOM     12  C   UNL A   1      33.204  20.232  25.892  1.00  0.00     0.019 C 
ATOM     13  C   UNL A   1      33.762  21.917  23.990  1.00  0.00     0.136 C 
ATOM     14  C   UNL A   1      34.035  21.133  26.806  1.00  0.00     0.023 C 
ATOM     15  C   UNL A   1      35.096  21.846  25.978  1.00  0.00     0.121 C 
BRANCH  11  16
ATOM     16  C   UNL A   1      32.524  19.820  23.555  1.00  0.00     0.310 C 
ATOM     17  O   UNL A   1      32.093  20.027  22.426  1.00  0.00    -0.252 OA
BRANCH  16  18
ATOM     18  O   UNL A   1      32.902  18.607  24.035  1.00  0.00    -0.466 OA
BRANCH  18  19
ATOM     19  C   UNL A   1      33.037  17.569  23.051  1.00  0.00     0.229 C 
ATOM     20  C   UNL A   1      33.988  16.476  23.508  1.00  0.00     0.049 C 
ENDBRANCH  18  19
ENDBRANCH  16  18
ENDBRANCH  11  16
ENDBRANCH   7  10
ENDBRANCH   4   6
BRANCH   4  21
ATOM     21  C   UNL A   1      30.896  23.952  24.344  1.00  0.00     0.037 C 
ATOM     22  C   UNL A   1      30.868  24.919  23.159  1.00  0.00     0.007 C 
ENDBRANCH   4  21
ENDBRANCH   2   4
ENDBRANCH   1   2
BRANCH   1  23
ATOM     23  C   UNL A   1      31.813  28.091  26.517  1.00  0.00     0.274 C 
BRANCH  23  24
ATOM     24  C   UNL A   1      31.742  29.289  25.575  1.00  0.00     0.275 C 
BRANCH  24  25
ATOM     25  O   UNL A   1      32.981  30.016  25.648  1.00  0.00    -0.458 OA
BRANCH  25  26
ATOM     26  C   UNL A   1      33.132  30.845  26.707  1.00  0.00     0.338 C 
ATOM     27  O   UNL A   1      32.306  31.612  27.171  1.00  0.00    -0.246 OA
BRANCH  26  28
ATOM     28  C   UNL A   1      34.474  30.655  27.297  1.00  0.00     0.060 A 
ATOM     29  C   UNL A   1      34.943  29.373  27.563  1.00  0.00     0.016 A 
ATOM     30  C   UNL A   1      35.223  31.758  27.708  1.00  0.00     0.016 A 
ATOM     31  C   UNL A   1      36.093  29.196  28.331  1.00  0.00     0.010 A 
ATOM     32  C   UNL A   1      36.443  31.568  28.376  1.00  0.00     0.010 A 
ATOM     33  C   UNL A   1      36.880  30.281  28.734  1.00  0.00    -0.014 A 
BRANCH  33  34
ATOM     34  C   UNL A   1      38.115  30.065  29.555  1.00  0.00     0.031 A 
ATOM     35  C   UNL A   1      39.278  29.279  28.996  1.00  0.00     0.074 A 
ATOM     36  C   UNL A   1      38.244  30.597  30.789  1.00  0.00     0.049 A 
ATOM     37  N   UNL A   1      40.311  28.766  29.619  1.00  0.00    -0.248 NA
ATOM     38  C   UNL A   1      39.275  29.030  27.546  1.00  0.00     0.031 C 
ATOM     39  C   UNL A   1      37.263  31.453  31.460  1.00  0.00     0.029 A 
ATOM     40  N   UNL A   1      39.274  30.513  31.700  1.00  0.00    -0.354 N 
ATOM     41  C   UNL A   1      41.027  28.064  28.658  1.00  0.00     0.074 A 
ATOM     42  C   UNL A   1      40.326  28.235  27.404  1.00  0.00     0.031 C 
ATOM     43  C   UNL A   1      37.767  31.878  32.625  1.00  0.00     0.029 A 
ATOM     44  C   UNL A   1      39.041  31.210  32.861  1.00  0.00     0.049 A 
ATOM     45  H   UNL A   1      40.099  30.002  31.534  1.00  0.00     0.167 HD
ATOM     46  C   UNL A   1      42.161  27.336  28.813  1.00  0.00     0.037 A 
ATOM     47  C   UNL A   1      39.725  31.257  34.021  1.00  0.00     0.037 A 
ATOM     48  C   UNL A   1      42.906  27.233  30.042  1.00  0.00     0.049 A 
ATOM     49  C   UNL A   1      40.943  30.397  34.192  1.00  0.00     0.074 A 
ATOM     50  C   UNL A   1      44.065  26.519  30.294  1.00  0.00     0.029 A 
ATOM     51  N   UNL A   1      42.581  27.890  31.219  1.00  0.00    -0.354 N 
ATOM     52  N   UNL A   1      41.537  29.622  33.319  1.00  0.00    -0.248 NA
ATOM     53  C   UNL A   1      41.555  30.379  35.528  1.00  0.00     0.031 C 
ATOM     54  C   UNL A   1      44.424  26.719  31.632  1.00  0.00     0.029 A 
ATOM     55  C   UNL A   1      43.510  27.588  32.203  1.00  0.00     0.049 A 
ATOM     56  H   UNL A   1      41.804  28.483  31.339  1.00  0.00     0.167 HD
ATOM     57  C   UNL A   1      42.586  29.019  33.999  1.00  0.00     0.074 A 
ATOM     58  C   UNL A   1      42.567  29.542  35.350  1.00  0.00     0.031 C 
ATOM     59  C   UNL A   1      43.476  28.105  33.546  1.00  0.00     0.037 A 
BRANCH  46  60
ATOM     60  C   UNL A   1      42.645  26.542  27.634  1.00  0.00     0.064 A 
ATOM     61  C   UNL A   1      43.622  27.028  26.755  1.00  0.00     0.173 A 
ATOM     62  C   UNL A   1      42.145  25.248  27.411  1.00  0.00     0.173 A 
ATOM     63  F   UNL A   1      44.121  28.263  26.914  1.00  0.00    -0.203 F 
ATOM     64  C   UNL A   1      44.064  26.256  25.681  1.00  0.00     0.198 A 
ATOM     65  C   UNL A   1      42.609  24.470  26.354  1.00  0.00     0.198 A 
ATOM     66  F   UNL A   1      41.214  24.733  28.228  1.00  0.00    -0.203 F 
ATOM     67  F   UNL A   1      44.969  26.756  24.828  1.00  0.00    -0.200 F 
ATOM     68  C   UNL A   1      43.564  24.978  25.486  1.00  0.00     0.200 A 
ATOM     69  F   UNL A   1      42.133  23.231  26.176  1.00  0.00    -0.200 F 
ATOM     70  F   UNL A   1      43.997  24.236  24.457  1.00  0.00    -0.200 F 
ENDBRANCH  46  60
BRANCH  47  71
ATOM     71  C   UNL A   1      39.214  32.085  35.147  1.00  0.00     0.064 A 
ATOM     72  C   UNL A   1      38.465  31.510  36.182  1.00  0.00     0.173 A 
ATOM     73  C   UNL A   1      39.472  33.463  35.213  1.00  0.00     0.173 A 
ATOM     74  F   UNL A   1      38.155  30.206  36.140  1.00  0.00    -0.203 F 
ATOM     75  C   UNL A   1      38.000  32.282  37.245  1.00  0.00     0.198 A 
ATOM     76  C   UNL A   1      39.036  34.226  36.293  1.00  0.00     0.198 A 
ATOM     77  F   UNL A   1      40.172  34.063  34.240  1.00  0.00    -0.203 F 
ATOM     78  F   UNL A   1      37.251  31.719  38.202  1.00  0.00    -0.200 F 
ATOM     79  C   UNL A   1      38.296  33.636  37.306  1.00  0.00     0.200 A 
ATOM     80  F   UNL A   1      39.336  35.531  36.352  1.00  0.00    -0.200 F 
ATOM     81  F   UNL A   1      37.861  34.375  38.334  1.00  0.00    -0.200 F 
ENDBRANCH  47  71
BRANCH  59  82
ATOM     82  C   UNL A   1      44.510  27.621  34.518  1.00  0.00     0.064 A 
ATOM     83  C   UNL A   1      45.724  28.301  34.691  1.00  0.00     0.173 A 
ATOM     84  C   UNL A   1      44.278  26.477  35.295  1.00  0.00     0.173 A 
ATOM     85  F   UNL A   1      45.998  29.389  33.955  1.00  0.00    -0.203 F 
ATOM     86  C   UNL A   1      46.680  27.840  35.591  1.00  0.00     0.198 A 
ATOM     87  C   UNL A   1      45.227  26.032  36.213  1.00  0.00     0.198 A 
ATOM     88  F   UNL A   1      43.132  25.793  35.169  1.00  0.00    -0.203 F 
ATOM     89  F   UNL A   1      47.852  28.480  35.708  1.00  0.00    -0.200 F 
ATOM     90  C   UNL A   1      46.429  26.709  36.354  1.00  0.00     0.200 A 
ATOM     91  F   UNL A   1      44.980  24.944  36.955  1.00  0.00    -0.200 F 
ATOM     92  F   UNL A   1      47.350  26.266  37.221  1.00  0.00    -0.200 F 
ENDBRANCH  59  82
ENDBRANCH  33  34
ENDBRANCH  26  28
ENDBRANCH  25  26
ENDBRANCH  24  25
ENDBRANCH  23  24
ENDBRANCH   1  23
TORSDOF 17
ENDMDL
MODEL 3
REMARK VINA RESULT:     -11.5      4.085      9.788
REMARK SMILES CCOC(=O)[C@H]1CCCN(C(=O)N[C@](C)(CC)C(=O)OCCOC(=O)c2ccc(-c3c4nc(c(-c5c(F)c(F)c(F)c(F)c5F)c5ccc([nH]5)c(-c5c(F)c(F)c(F)c(F)c5F)c5nc(c(-c6c(F)c(F)c(F)c(F)c6F)c6ccc3[nH]6)C=C5)C=C4)cc2)C1
REMARK SMILES IDX 20 1 18 2 19 3 14 4 15 5 13 6 11 7 12 8 10 10 6 11 7 12
REMARK SMILES IDX 89 13 8 14 9 15 4 16 5 17 3 18 2 19 1 20 16 21 17 22 21 23
REMARK SMILES IDX 22 24 23 25 24 26 25 27 26 28 27 29 88 30 28 31 87 32 29 33
REMARK SMILES IDX 30 34 31 35 81 36 32 37 86 38 80 39 82 40 33 41 85 42 79 43
REMARK SMILES IDX 78 44 34 46 66 47 46 48 65 49 47 50 50 51 64 52 83 53 48 54
REMARK SMILES IDX 49 55 63 57 84 58 51 59 35 60 36 61 44 62 37 63 38 64 42 65
REMARK SMILES IDX 45 66 39 67 40 68 43 69 41 70 67 71 68 72 76 73 69 74 70 75
REMARK SMILES IDX 74 76 77 77 71 78 72 79 75 80 73 81 52 82 53 83 61 84 54 85
REMARK SMILES IDX 55 86 59 87 62 88 56 89 57 90 60 91 58 92
REMARK H PARENT 13 9 82 45 50 56
REMARK Flexibility Score: inf
ROOT
ATOM      1  O   UNL A   1      34.232  21.262  24.292  1.00  0.00    -0.460 OA
ENDROOT
BRANCH   1   2
ATOM      2  C   UNL A   1      32.943  21.396  24.715  1.00  0.00     0.331 C 
ATOM      3  O   UNL A   1      32.163  20.454  24.819  1.00  0.00    -0.249 OA
BRANCH   2   4
ATOM      4  C   UNL A   1      32.586  22.866  25.087  1.00  0.00     0.136 C 
ATOM      5  C   UNL A   1      31.074  23.051  25.259  1.00  0.00     0.047 C 
BRANCH   4   6
ATOM      6  N   UNL A   1      33.251  23.736  24.043  1.00  0.00    -0.322 N 
ATOM      7  C   UNL A   1      33.326  24.944  23.474  1.00  0.00     0.318 C 
ATOM      8  O   UNL A   1      34.100  24.974  22.508  1.00  0.00    -0.249 OA
ATOM      9  H   UNL A   1      33.912  23.169  23.586  1.00  0.00     0.166 HD
BRANCH   7  10
ATOM     10  N   UNL A   1      32.685  26.066  23.875  1.00  0.00    -0.324 N 
ATOM     11  C   UNL A   1      31.831  26.595  26.144  1.00  0.00     0.119 C 
ATOM     12  C   UNL A   1      30.444  26.828  25.502  1.00  0.00     0.019 C 
ATOM     13  C   UNL A   1      33.018  26.676  25.168  1.00  0.00     0.136 C 
ATOM     14  C   UNL A   1      30.322  26.295  24.074  1.00  0.00     0.023 C 
ATOM     15  C   UNL A   1      31.550  26.711  23.276  1.00  0.00     0.121 C 
BRANCH  11  16
ATOM     16  C   UNL A   1      32.023  27.652  27.211  1.00  0.00     0.310 C 
ATOM     17  O   UNL A   1      31.151  27.981  28.006  1.00  0.00    -0.252 OA
BRANCH  16  18
ATOM     18  O   UNL A   1      33.292  28.140  27.199  1.00  0.00    -0.466 OA
BRANCH  18  19
ATOM     19  C   UNL A   1      33.401  29.572  27.199  1.00  0.00     0.229 C 
ATOM     20  C   UNL A   1      34.847  30.029  27.278  1.00  0.00     0.049 C 
ENDBRANCH  18  19
ENDBRANCH  16  18
ENDBRANCH  11  16
ENDBRANCH   7  10
ENDBRANCH   4   6
BRANCH   4  21
ATOM     21  C   UNL A   1      33.275  23.286  26.438  1.00  0.00     0.037 C 
ATOM     22  C   UNL A   1      32.999  22.427  27.672  1.00  0.00     0.007 C 
ENDBRANCH   4  21
ENDBRANCH   2   4
ENDBRANCH   1   2
BRANCH   1  23
ATOM     23  C   UNL A   1      35.132  20.527  25.151  1.00  0.00     0.274 C 
BRANCH  23  24
ATOM     24  C   UNL A   1      36.573  20.689  24.676  1.00  0.00     0.275 C 
BRANCH  24  25
ATOM     25  O   UNL A   1      37.241  21.638  25.526  1.00  0.00    -0.458 OA
BRANCH  25  26
ATOM     26  C   UNL A   1      38.503  21.328  25.902  1.00  0.00     0.338 C 
ATOM     27  O   UNL A   1      39.078  20.263  25.757  1.00  0.00    -0.246 OA
BRANCH  26  28
ATOM     28  C   UNL A   1      39.152  22.520  26.489  1.00  0.00     0.060 A 
ATOM     29  C   UNL A   1      38.670  23.791  26.195  1.00  0.00     0.016 A 
ATOM     30  C   UNL A   1      40.324  22.385  27.234  1.00  0.00     0.016 A 
ATOM     31  C   UNL A   1      39.412  24.916  26.547  1.00  0.00     0.010 A 
ATOM     32  C   UNL A   1      41.001  23.528  27.688  1.00  0.00     0.010 A 
ATOM     33  C   UNL A   1      40.577  24.816  27.317  1.00  0.00    -0.014 A 
BRANCH  33  34
ATOM     34  C   UNL A   1      41.355  26.042  27.687  1.00  0.00     0.031 A 
ATOM     35  C   UNL A   1      40.747  27.094  28.586  1.00  0.00     0.074 A 
ATOM     36  C   UNL A   1      42.627  26.223  27.271  1.00  0.00     0.049 A 
ATOM     37  N   UNL A   1      41.142  28.323  28.811  1.00  0.00    -0.248 NA
ATOM     38  C   UNL A   1      39.530  26.716  29.319  1.00  0.00     0.031 C 
ATOM     39  C   UNL A   1      43.408  25.278  26.469  1.00  0.00     0.029 A 
ATOM     40  N   UNL A   1      43.503  27.264  27.484  1.00  0.00    -0.354 N 
ATOM     41  C   UNL A   1      40.178  28.888  29.638  1.00  0.00     0.074 A 
ATOM     42  C   UNL A   1      39.191  27.862  29.894  1.00  0.00     0.031 C 
ATOM     43  C   UNL A   1      44.658  25.739  26.331  1.00  0.00     0.029 A 
ATOM     44  C   UNL A   1      44.733  27.079  26.900  1.00  0.00     0.049 A 
ATOM     45  H   UNL A   1      43.269  28.066  28.007  1.00  0.00     0.167 HD
ATOM     46  C   UNL A   1      40.120  30.151  30.128  1.00  0.00     0.037 A 
ATOM     47  C   UNL A   1      45.785  27.910  26.764  1.00  0.00     0.037 A 
ATOM     48  C   UNL A   1      41.143  31.148  29.943  1.00  0.00     0.049 A 
ATOM     49  C   UNL A   1      45.677  29.322  27.260  1.00  0.00     0.074 A 
ATOM     50  C   UNL A   1      41.172  32.455  30.402  1.00  0.00     0.029 A 
ATOM     51  N   UNL A   1      42.336  30.940  29.267  1.00  0.00    -0.354 N 
ATOM     52  N   UNL A   1      44.700  29.894  27.919  1.00  0.00    -0.248 NA
ATOM     53  C   UNL A   1      46.798  30.219  26.946  1.00  0.00     0.031 C 
ATOM     54  C   UNL A   1      42.368  33.045  29.978  1.00  0.00     0.029 A 
ATOM     55  C   UNL A   1      43.102  32.096  29.287  1.00  0.00     0.049 A 
ATOM     56  H   UNL A   1      42.600  30.094  28.837  1.00  0.00     0.167 HD
ATOM     57  C   UNL A   1      45.083  31.216  28.093  1.00  0.00     0.074 A 
ATOM     58  C   UNL A   1      46.396  31.356  27.498  1.00  0.00     0.031 C 
ATOM     59  C   UNL A   1      44.401  32.226  28.683  1.00  0.00     0.037 A 
BRANCH  46  60
ATOM     60  C   UNL A   1      38.880  30.553  30.873  1.00  0.00     0.064 A 
ATOM     61  C   UNL A   1      38.781  30.459  32.268  1.00  0.00     0.173 A 
ATOM     62  C   UNL A   1      37.784  31.082  30.172  1.00  0.00     0.173 A 
ATOM     63  F   UNL A   1      39.794  29.946  32.984  1.00  0.00    -0.203 F 
ATOM     64  C   UNL A   1      37.623  30.859  32.931  1.00  0.00     0.198 A 
ATOM     65  C   UNL A   1      36.640  31.506  30.840  1.00  0.00     0.198 A 
ATOM     66  F   UNL A   1      37.830  31.200  28.836  1.00  0.00    -0.203 F 
ATOM     67  F   UNL A   1      37.534  30.723  34.261  1.00  0.00    -0.200 F 
ATOM     68  C   UNL A   1      36.557  31.389  32.218  1.00  0.00     0.200 A 
ATOM     69  F   UNL A   1      35.617  32.029  30.149  1.00  0.00    -0.200 F 
ATOM     70  F   UNL A   1      35.447  31.780  32.860  1.00  0.00    -0.200 F 
ENDBRANCH  46  60
BRANCH  47  71
ATOM     71  C   UNL A   1      47.001  27.448  26.041  1.00  0.00     0.064 A 
ATOM     72  C   UNL A   1      47.115  27.599  24.653  1.00  0.00     0.173 A 
ATOM     73  C   UNL A   1      48.074  26.856  26.725  1.00  0.00     0.173 A 
ATOM     74  F   UNL A   1      46.097  28.118  23.950  1.00  0.00    -0.203 F 
ATOM     75  C   UNL A   1      48.260  27.181  23.978  1.00  0.00     0.198 A 
ATOM     76  C   UNL A   1      49.232  26.472  26.054  1.00  0.00     0.198 A 
ATOM     77  F   UNL A   1      48.008  26.677  28.052  1.00  0.00    -0.203 F 
ATOM     78  F   UNL A   1      48.330  27.298  22.645  1.00  0.00    -0.200 F 
ATOM     79  C   UNL A   1      49.322  26.630  24.680  1.00  0.00     0.200 A 
ATOM     80  F   UNL A   1      50.259  25.951  26.740  1.00  0.00    -0.200 F 
ATOM     81  F   UNL A   1      50.428  26.242  24.032  1.00  0.00    -0.200 F 
ENDBRANCH  47  71
BRANCH  59  82
ATOM     82  C   UNL A   1      45.069  33.568  28.722  1.00  0.00     0.064 A 
ATOM     83  C   UNL A   1      44.872  34.511  27.703  1.00  0.00     0.173 A 
ATOM     84  C   UNL A   1      45.901  33.920  29.795  1.00  0.00     0.173 A 
ATOM     85  F   UNL A   1      44.100  34.212  26.647  1.00  0.00    -0.203 F 
ATOM     86  C   UNL A   1      45.502  35.751  27.745  1.00  0.00     0.198 A 
ATOM     87  C   UNL A   1      46.511  35.170  29.845  1.00  0.00     0.198 A 
ATOM     88  F   UNL A   1      46.119  33.053  30.794  1.00  0.00    -0.203 F 
ATOM     89  F   UNL A   1      45.335  36.621  26.739  1.00  0.00    -0.200 F 
ATOM     90  C   UNL A   1      46.317  36.082  28.818  1.00  0.00     0.200 A 
ATOM     91  F   UNL A   1      47.293  35.491  30.886  1.00  0.00    -0.200 F 
ATOM     92  F   UNL A   1      46.924  37.276  28.858  1.00  0.00    -0.200 F 
ENDBRANCH  59  82
ENDBRANCH  33  34
ENDBRANCH  26  28
ENDBRANCH  25  26
ENDBRANCH  24  25
ENDBRANCH  23  24
ENDBRANCH   1  23
TORSDOF 17
ENDMDL
