MODEL 1
REMARK VINA RESULT:     -11.9      0.000      0.000
REMARK SMILES O=C(Cc1ccccc1Nc1c(Cl)cccc1C(F)(F)F)OCCOC(=O)c1ccc(-c2c3nc(c(-c4c(F)c(F)c(F)c(F)c4F)c4ccc([nH]4)c(-c4c(F)c(F)c(F)c(F)c4F)c4nc(c(-c5c(F)c(F)c(F)c(F)c5F)c5ccc2[nH]5)C=C4)C=C3)cc1
REMARK SMILES IDX 23 1 22 2 2 3 1 4 3 5 4 6 5 7 9 8 6 9 8 10 7 11 10 12 11 14
REMARK SMILES IDX 12 15 17 16 13 17 14 18 16 19 15 20 18 21 19 22 20 23 21 24
REMARK SMILES IDX 24 25 25 26 26 27 27 28 28 29 29 30 90 31 30 32 89 33 31 34
REMARK SMILES IDX 32 35 33 36 83 37 34 38 88 39 82 40 84 41 35 42 87 43 81 44
REMARK SMILES IDX 80 45 36 47 68 48 48 49 67 50 49 51 52 52 66 53 85 54 50 55
REMARK SMILES IDX 51 56 65 58 86 59 53 60 37 61 38 62 46 63 39 64 40 65 44 66
REMARK SMILES IDX 47 67 41 68 42 69 45 70 43 71 69 72 70 73 78 74 71 75 72 76
REMARK SMILES IDX 76 77 79 78 73 79 74 80 77 81 75 82 54 83 55 84 63 85 56 86
REMARK SMILES IDX 57 87 61 88 64 89 58 90 59 91 62 92 60 93
REMARK H PARENT 10 13 84 46 52 57
REMARK Flexibility Score: inf
ROOT
ATOM      1  C   UNL A   1      31.834  32.146  27.004  1.00  0.00     0.274 C 
ENDROOT
BRANCH   1   2
ATOM      2  O   UNL A   1      32.485  30.857  27.018  1.00  0.00    -0.462 OA
BRANCH   2   3
ATOM      3  C   UNL A   1      32.441  29.948  26.015  1.00  0.00     0.310 C 
ATOM      4  O   UNL A   1      31.395  29.768  25.394  1.00  0.00    -0.252 OA
BRANCH   3   5
ATOM      5  C   UNL A   1      33.687  29.162  25.686  1.00  0.00     0.160 C 
BRANCH   5   6
ATOM      6  C   UNL A   1      33.668  28.344  24.415  1.00  0.00    -0.013 A 
ATOM      7  C   UNL A   1      33.957  28.932  23.169  1.00  0.00     0.006 A 
ATOM      8  C   UNL A   1      33.422  26.953  24.471  1.00  0.00     0.042 A 
ATOM      9  C   UNL A   1      33.956  28.178  21.997  1.00  0.00     0.000 A 
ATOM     10  C   UNL A   1      33.378  26.227  23.267  1.00  0.00     0.026 A 
ATOM     11  C   UNL A   1      33.652  26.826  22.043  1.00  0.00     0.002 A 
BRANCH   8  12
ATOM     12  N   UNL A   1      33.163  26.301  25.699  1.00  0.00    -0.354 N 
ATOM     13  H   UNL A   1      33.366  26.797  26.524  1.00  0.00     0.167 HD
BRANCH  12  14
ATOM     14  C   UNL A   1      32.639  25.001  25.839  1.00  0.00     0.070 A 
ATOM     15  C   UNL A   1      33.506  23.894  25.946  1.00  0.00     0.065 A 
ATOM     16  C   UNL A   1      31.249  24.795  25.932  1.00  0.00     0.080 A 
ATOM     17  Cl  UNL A   1      35.221  24.072  25.784  1.00  0.00    -0.082 Cl
ATOM     18  C   UNL A   1      33.007  22.615  26.189  1.00  0.00     0.023 A 
ATOM     19  C   UNL A   1      30.764  23.497  26.167  1.00  0.00     0.015 A 
ATOM     20  C   UNL A   1      31.635  22.421  26.307  1.00  0.00     0.002 A 
BRANCH  16  21
ATOM     21  C   UNL A   1      30.270  25.942  25.927  1.00  0.00     0.418 C 
ATOM     22  F   UNL A   1      29.027  25.577  26.357  1.00  0.00    -0.166 F 
ATOM     23  F   UNL A   1      30.654  26.955  26.753  1.00  0.00    -0.166 F 
ATOM     24  F   UNL A   1      30.069  26.503  24.699  1.00  0.00    -0.166 F 
ENDBRANCH  16  21
ENDBRANCH  12  14
ENDBRANCH   8  12
ENDBRANCH   5   6
ENDBRANCH   3   5
ENDBRANCH   2   3
ENDBRANCH   1   2
BRANCH   1  25
ATOM     25  C   UNL A   1      32.817  33.280  27.304  1.00  0.00     0.275 C 
BRANCH  25  26
ATOM     26  O   UNL A   1      32.220  34.276  28.159  1.00  0.00    -0.458 OA
BRANCH  26  27
ATOM     27  C   UNL A   1      33.084  35.133  28.758  1.00  0.00     0.338 C 
ATOM     28  O   UNL A   1      32.900  36.319  28.969  1.00  0.00    -0.246 OA
BRANCH  27  29
ATOM     29  C   UNL A   1      34.257  34.391  29.282  1.00  0.00     0.060 A 
ATOM     30  C   UNL A   1      34.035  33.424  30.271  1.00  0.00     0.016 A 
ATOM     31  C   UNL A   1      35.560  34.631  28.832  1.00  0.00     0.016 A 
ATOM     32  C   UNL A   1      35.108  32.719  30.828  1.00  0.00     0.010 A 
ATOM     33  C   UNL A   1      36.633  33.924  29.392  1.00  0.00     0.010 A 
ATOM     34  C   UNL A   1      36.420  32.974  30.409  1.00  0.00    -0.014 A 
BRANCH  34  35
ATOM     35  C   UNL A   1      37.577  32.315  31.075  1.00  0.00     0.031 A 
ATOM     36  C   UNL A   1      38.234  31.120  30.442  1.00  0.00     0.074 A 
ATOM     37  C   UNL A   1      38.081  32.779  32.234  1.00  0.00     0.049 A 
ATOM     38  N   UNL A   1      39.220  30.385  30.893  1.00  0.00    -0.248 NA
ATOM     39  C   UNL A   1      37.742  30.721  29.115  1.00  0.00     0.031 C 
ATOM     40  C   UNL A   1      37.659  33.995  32.920  1.00  0.00     0.029 A 
ATOM     41  N   UNL A   1      39.062  32.258  33.049  1.00  0.00    -0.354 N 
ATOM     42  C   UNL A   1      39.509  29.478  29.886  1.00  0.00     0.074 A 
ATOM     43  C   UNL A   1      38.541  29.702  28.829  1.00  0.00     0.031 C 
ATOM     44  C   UNL A   1      38.331  34.091  34.080  1.00  0.00     0.029 A 
ATOM     45  C   UNL A   1      39.188  32.927  34.241  1.00  0.00     0.049 A 
ATOM     46  H   UNL A   1      39.616  31.483  32.802  1.00  0.00     0.167 HD
ATOM     47  C   UNL A   1      40.514  28.570  29.826  1.00  0.00     0.037 A 
ATOM     48  C   UNL A   1      39.879  32.622  35.353  1.00  0.00     0.037 A 
ATOM     49  C   UNL A   1      41.475  28.323  30.871  1.00  0.00     0.049 A 
ATOM     50  C   UNL A   1      40.802  31.445  35.369  1.00  0.00     0.074 A 
ATOM     51  C   UNL A   1      42.559  27.460  30.859  1.00  0.00     0.029 A 
ATOM     52  N   UNL A   1      41.456  28.915  32.123  1.00  0.00    -0.354 N 
ATOM     53  N   UNL A   1      41.076  30.601  34.410  1.00  0.00    -0.248 NA
ATOM     54  C   UNL A   1      41.544  31.206  36.616  1.00  0.00     0.031 C 
ATOM     55  C   UNL A   1      43.156  27.481  32.125  1.00  0.00     0.029 A 
ATOM     56  C   UNL A   1      42.478  28.397  32.909  1.00  0.00     0.049 A 
ATOM     57  H   UNL A   1      40.814  29.601  32.414  1.00  0.00     0.167 HD
ATOM     58  C   UNL A   1      42.064  29.769  34.913  1.00  0.00     0.074 A 
ATOM     59  C   UNL A   1      42.317  30.186  36.274  1.00  0.00     0.031 C 
ATOM     60  C   UNL A   1      42.726  28.777  34.274  1.00  0.00     0.037 A 
BRANCH  47  61
ATOM     61  C   UNL A   1      40.639  27.768  28.568  1.00  0.00     0.064 A 
ATOM     62  C   UNL A   1      39.972  26.543  28.416  1.00  0.00     0.173 A 
ATOM     63  C   UNL A   1      41.370  28.263  27.479  1.00  0.00     0.173 A 
ATOM     64  F   UNL A   1      39.266  26.027  29.434  1.00  0.00    -0.203 F 
ATOM     65  C   UNL A   1      40.046  25.835  27.221  1.00  0.00     0.198 A 
ATOM     66  C   UNL A   1      41.422  27.563  26.279  1.00  0.00     0.198 A 
ATOM     67  F   UNL A   1      42.019  29.432  27.578  1.00  0.00    -0.203 F 
ATOM     68  F   UNL A   1      39.423  24.654  27.104  1.00  0.00    -0.200 F 
ATOM     69  C   UNL A   1      40.763  26.349  26.151  1.00  0.00     0.200 A 
ATOM     70  F   UNL A   1      42.107  28.066  25.242  1.00  0.00    -0.200 F 
ATOM     71  F   UNL A   1      40.821  25.673  24.995  1.00  0.00    -0.200 F 
ENDBRANCH  47  61
BRANCH  48  72
ATOM     72  C   UNL A   1      39.680  33.389  36.605  1.00  0.00     0.064 A 
ATOM     73  C   UNL A   1      38.727  33.018  37.559  1.00  0.00     0.173 A 
ATOM     74  C   UNL A   1      40.375  34.591  36.797  1.00  0.00     0.173 A 
ATOM     75  F   UNL A   1      38.004  31.904  37.384  1.00  0.00    -0.203 F 
ATOM     76  C   UNL A   1      38.474  33.829  38.665  1.00  0.00     0.198 A 
ATOM     77  C   UNL A   1      40.122  35.396  37.902  1.00  0.00     0.198 A 
ATOM     78  F   UNL A   1      41.283  34.993  35.895  1.00  0.00    -0.203 F 
ATOM     79  F   UNL A   1      37.530  33.477  39.550  1.00  0.00    -0.200 F 
ATOM     80  C   UNL A   1      39.172  35.015  38.837  1.00  0.00     0.200 A 
ATOM     81  F   UNL A   1      40.798  36.542  38.062  1.00  0.00    -0.200 F 
ATOM     82  F   UNL A   1      38.923  35.799  39.894  1.00  0.00    -0.200 F 
ENDBRANCH  48  72
BRANCH  60  83
ATOM     83  C   UNL A   1      43.833  28.104  35.028  1.00  0.00     0.064 A 
ATOM     84  C   UNL A   1      43.620  26.930  35.766  1.00  0.00     0.173 A 
ATOM     85  C   UNL A   1      45.121  28.659  35.034  1.00  0.00     0.173 A 
ATOM     86  F   UNL A   1      42.397  26.379  35.819  1.00  0.00    -0.203 F 
ATOM     87  C   UNL A   1      44.649  26.353  36.505  1.00  0.00     0.198 A 
ATOM     88  C   UNL A   1      46.156  28.063  35.749  1.00  0.00     0.198 A 
ATOM     89  F   UNL A   1      45.376  29.786  34.353  1.00  0.00    -0.203 F 
ATOM     90  F   UNL A   1      44.408  25.268  37.253  1.00  0.00    -0.200 F 
ATOM     91  C   UNL A   1      45.917  26.917  36.492  1.00  0.00     0.200 A 
ATOM     92  F   UNL A   1      47.381  28.607  35.732  1.00  0.00    -0.200 F 
ATOM     93  F   UNL A   1      46.905  26.364  37.208  1.00  0.00    -0.200 F 
ENDBRANCH  60  83
ENDBRANCH  34  35
ENDBRANCH  27  29
ENDBRANCH  26  27
ENDBRANCH  25  26
ENDBRANCH   1  25
TORSDOF 15
ENDMDL
MODEL 2
REMARK VINA RESULT:     -11.8      3.785      8.681
REMARK SMILES O=C(Cc1ccccc1Nc1c(Cl)cccc1C(F)(F)F)OCCOC(=O)c1ccc(-c2c3nc(c(-c4c(F)c(F)c(F)c(F)c4F)c4ccc([nH]4)c(-c4c(F)c(F)c(F)c(F)c4F)c4nc(c(-c5c(F)c(F)c(F)c(F)c5F)c5ccc2[nH]5)C=C4)C=C3)cc1
REMARK SMILES IDX 23 1 22 2 2 3 1 4 3 5 4 6 5 7 9 8 6 9 8 10 7 11 10 12 11 14
REMARK SMILES IDX 12 15 17 16 13 17 14 18 16 19 15 20 18 21 19 22 20 23 21 24
REMARK SMILES IDX 24 25 25 26 26 27 27 28 28 29 29 30 90 31 30 32 89 33 31 34
REMARK SMILES IDX 32 35 33 36 83 37 34 38 88 39 82 40 84 41 35 42 87 43 81 44
REMARK SMILES IDX 80 45 36 47 68 48 48 49 67 50 49 51 52 52 66 53 85 54 50 55
REMARK SMILES IDX 51 56 65 58 86 59 53 60 37 61 38 62 46 63 39 64 40 65 44 66
REMARK SMILES IDX 47 67 41 68 42 69 45 70 43 71 69 72 70 73 78 74 71 75 72 76
REMARK SMILES IDX 76 77 79 78 73 79 74 80 77 81 75 82 54 83 55 84 63 85 56 86
REMARK SMILES IDX 57 87 61 88 64 89 58 90 59 91 62 92 60 93
REMARK H PARENT 10 13 84 46 52 57
REMARK Flexibility Score: inf
ROOT
ATOM      1  C   UNL A   1      31.878  29.300  26.077  1.00  0.00     0.274 C 
ENDROOT
BRANCH   1   2
ATOM      2  O   UNL A   1      31.587  28.068  26.773  1.00  0.00    -0.462 OA
BRANCH   2   3
ATOM      3  C   UNL A   1      32.109  26.857  26.468  1.00  0.00     0.310 C 
ATOM      4  O   UNL A   1      31.573  25.833  26.887  1.00  0.00    -0.252 OA
BRANCH   3   5
ATOM      5  C   UNL A   1      33.356  26.791  25.620  1.00  0.00     0.160 C 
BRANCH   5   6
ATOM      6  C   UNL A   1      33.217  26.195  24.238  1.00  0.00    -0.013 A 
ATOM      7  C   UNL A   1      32.963  27.010  23.118  1.00  0.00     0.006 A 
ATOM      8  C   UNL A   1      33.407  24.808  24.042  1.00  0.00     0.042 A 
ATOM      9  C   UNL A   1      32.849  26.465  21.840  1.00  0.00     0.000 A 
ATOM     10  C   UNL A   1      33.238  24.280  22.750  1.00  0.00     0.026 A 
ATOM     11  C   UNL A   1      32.973  25.096  21.656  1.00  0.00     0.002 A 
BRANCH   8  12
ATOM     12  N   UNL A   1      33.702  23.947  25.124  1.00  0.00    -0.354 N 
ATOM     13  H   UNL A   1      33.964  24.366  25.975  1.00  0.00     0.167 HD
BRANCH  12  14
ATOM     14  C   UNL A   1      33.653  22.540  25.085  1.00  0.00     0.070 A 
ATOM     15  C   UNL A   1      32.421  21.868  25.222  1.00  0.00     0.065 A 
ATOM     16  C   UNL A   1      34.821  21.788  24.850  1.00  0.00     0.080 A 
ATOM     17  Cl  UNL A   1      30.957  22.728  25.565  1.00  0.00    -0.082 Cl
ATOM     18  C   UNL A   1      32.341  20.483  25.081  1.00  0.00     0.023 A 
ATOM     19  C   UNL A   1      34.722  20.391  24.723  1.00  0.00     0.015 A 
ATOM     20  C   UNL A   1      33.492  19.748  24.823  1.00  0.00     0.002 A 
BRANCH  16  21
ATOM     21  C   UNL A   1      36.154  22.445  24.595  1.00  0.00     0.418 C 
ATOM     22  F   UNL A   1      36.489  23.351  25.560  1.00  0.00    -0.166 F 
ATOM     23  F   UNL A   1      37.179  21.548  24.571  1.00  0.00    -0.166 F 
ATOM     24  F   UNL A   1      36.223  23.137  23.422  1.00  0.00    -0.166 F 
ENDBRANCH  16  21
ENDBRANCH  12  14
ENDBRANCH   8  12
ENDBRANCH   5   6
ENDBRANCH   3   5
ENDBRANCH   2   3
ENDBRANCH   1   2
BRANCH   1  25
ATOM     25  C   UNL A   1      32.570  30.315  26.989  1.00  0.00     0.275 C 
BRANCH  25  26
ATOM     26  O   UNL A   1      33.881  29.858  27.380  1.00  0.00    -0.458 OA
BRANCH  26  27
ATOM     27  C   UNL A   1      34.626  30.741  28.090  1.00  0.00     0.338 C 
ATOM     28  O   UNL A   1      34.236  31.783  28.589  1.00  0.00    -0.246 OA
BRANCH  27  29
ATOM     29  C   UNL A   1      35.983  30.189  28.327  1.00  0.00     0.060 A 
ATOM     30  C   UNL A   1      36.264  29.656  29.591  1.00  0.00     0.016 A 
ATOM     31  C   UNL A   1      36.978  30.195  27.343  1.00  0.00     0.016 A 
ATOM     32  C   UNL A   1      37.539  29.155  29.882  1.00  0.00     0.010 A 
ATOM     33  C   UNL A   1      38.253  29.694  27.638  1.00  0.00     0.010 A 
ATOM     34  C   UNL A   1      38.552  29.186  28.916  1.00  0.00    -0.014 A 
BRANCH  34  35
ATOM     35  C   UNL A   1      39.940  28.764  29.251  1.00  0.00     0.031 A 
ATOM     36  C   UNL A   1      40.874  29.715  29.945  1.00  0.00     0.074 A 
ATOM     37  C   UNL A   1      40.387  27.525  28.970  1.00  0.00     0.049 A 
ATOM     38  N   UNL A   1      42.130  29.545  30.275  1.00  0.00    -0.248 NA
ATOM     39  C   UNL A   1      40.313  31.012  30.353  1.00  0.00     0.031 C 
ATOM     40  C   UNL A   1      39.587  26.436  28.421  1.00  0.00     0.029 A 
ATOM     41  N   UNL A   1      41.646  26.983  29.099  1.00  0.00    -0.354 N 
ATOM     42  C   UNL A   1      42.495  30.682  30.980  1.00  0.00     0.074 A 
ATOM     43  C   UNL A   1      41.349  31.571  30.964  1.00  0.00     0.031 C 
ATOM     44  C   UNL A   1      40.389  25.379  28.204  1.00  0.00     0.029 A 
ATOM     45  C   UNL A   1      41.758  25.731  28.549  1.00  0.00     0.049 A 
ATOM     46  H   UNL A   1      42.393  27.448  29.543  1.00  0.00     0.167 HD
ATOM     47  C   UNL A   1      43.660  30.943  31.620  1.00  0.00     0.037 A 
ATOM     48  C   UNL A   1      42.838  24.967  28.307  1.00  0.00     0.037 A 
ATOM     49  C   UNL A   1      44.814  30.080  31.636  1.00  0.00     0.049 A 
ATOM     50  C   UNL A   1      44.187  25.394  28.793  1.00  0.00     0.074 A 
ATOM     51  C   UNL A   1      46.010  30.251  32.312  1.00  0.00     0.029 A 
ATOM     52  N   UNL A   1      44.929  28.897  30.924  1.00  0.00    -0.354 N 
ATOM     53  N   UNL A   1      44.519  26.463  29.467  1.00  0.00    -0.248 NA
ATOM     54  C   UNL A   1      45.306  24.481  28.516  1.00  0.00     0.031 C 
ATOM     55  C   UNL A   1      46.873  29.207  31.958  1.00  0.00     0.029 A 
ATOM     56  C   UNL A   1      46.196  28.356  31.105  1.00  0.00     0.049 A 
ATOM     57  H   UNL A   1      44.218  28.499  30.372  1.00  0.00     0.167 HD
ATOM     58  C   UNL A   1      45.869  26.325  29.748  1.00  0.00     0.074 A 
ATOM     59  C   UNL A   1      46.304  25.086  29.142  1.00  0.00     0.031 C 
ATOM     60  C   UNL A   1      46.657  27.142  30.485  1.00  0.00     0.037 A 
BRANCH  47  61
ATOM     61  C   UNL A   1      43.751  32.231  32.381  1.00  0.00     0.064 A 
ATOM     62  C   UNL A   1      44.195  33.411  31.765  1.00  0.00     0.173 A 
ATOM     63  C   UNL A   1      43.319  32.301  33.712  1.00  0.00     0.173 A 
ATOM     64  F   UNL A   1      44.624  33.389  30.493  1.00  0.00    -0.203 F 
ATOM     65  C   UNL A   1      44.217  34.614  32.462  1.00  0.00     0.198 A 
ATOM     66  C   UNL A   1      43.322  33.510  34.399  1.00  0.00     0.198 A 
ATOM     67  F   UNL A   1      42.882  31.200  34.340  1.00  0.00    -0.203 F 
ATOM     68  F   UNL A   1      44.670  35.725  31.865  1.00  0.00    -0.200 F 
ATOM     69  C   UNL A   1      43.773  34.665  33.775  1.00  0.00     0.200 A 
ATOM     70  F   UNL A   1      42.883  33.562  35.664  1.00  0.00    -0.200 F 
ATOM     71  F   UNL A   1      43.782  35.828  34.442  1.00  0.00    -0.200 F 
ENDBRANCH  47  61
BRANCH  48  72
ATOM     72  C   UNL A   1      42.730  23.736  27.490  1.00  0.00     0.064 A 
ATOM     73  C   UNL A   1      42.430  22.494  28.057  1.00  0.00     0.173 A 
ATOM     74  C   UNL A   1      43.055  23.781  26.128  1.00  0.00     0.173 A 
ATOM     75  F   UNL A   1      42.167  22.402  29.368  1.00  0.00    -0.203 F 
ATOM     76  C   UNL A   1      42.460  21.333  27.285  1.00  0.00     0.198 A 
ATOM     77  C   UNL A   1      43.082  22.621  25.360  1.00  0.00     0.198 A 
ATOM     78  F   UNL A   1      43.369  24.950  25.550  1.00  0.00    -0.203 F 
ATOM     79  F   UNL A   1      42.207  20.145  27.853  1.00  0.00    -0.200 F 
ATOM     80  C   UNL A   1      42.785  21.397  25.938  1.00  0.00     0.200 A 
ATOM     81  F   UNL A   1      43.398  22.690  24.059  1.00  0.00    -0.200 F 
ATOM     82  F   UNL A   1      42.824  20.282  25.198  1.00  0.00    -0.200 F 
ENDBRANCH  48  72
BRANCH  60  83
ATOM     83  C   UNL A   1      48.066  26.693  30.723  1.00  0.00     0.064 A 
ATOM     84  C   UNL A   1      49.125  27.106  29.901  1.00  0.00     0.173 A 
ATOM     85  C   UNL A   1      48.358  25.811  31.775  1.00  0.00     0.173 A 
ATOM     86  F   UNL A   1      48.892  27.922  28.862  1.00  0.00    -0.203 F 
ATOM     87  C   UNL A   1      50.417  26.632  30.106  1.00  0.00     0.198 A 
ATOM     88  C   UNL A   1      49.657  25.362  31.997  1.00  0.00     0.198 A 
ATOM     89  F   UNL A   1      47.380  25.378  32.585  1.00  0.00    -0.203 F 
ATOM     90  F   UNL A   1      51.402  26.991  29.271  1.00  0.00    -0.200 F 
ATOM     91  C   UNL A   1      50.683  25.764  31.156  1.00  0.00     0.200 A 
ATOM     92  F   UNL A   1      49.912  24.527  33.014  1.00  0.00    -0.200 F 
ATOM     93  F   UNL A   1      51.927  25.304  31.349  1.00  0.00    -0.200 F 
ENDBRANCH  60  83
ENDBRANCH  34  35
ENDBRANCH  27  29
ENDBRANCH  26  27
ENDBRANCH  25  26
ENDBRANCH   1  25
TORSDOF 15
ENDMDL
MODEL 3
REMARK VINA RESULT:     -11.8      5.431      8.869
REMARK SMILES O=C(Cc1ccccc1Nc1c(Cl)cccc1C(F)(F)F)OCCOC(=O)c1ccc(-c2c3nc(c(-c4c(F)c(F)c(F)c(F)c4F)c4ccc([nH]4)c(-c4c(F)c(F)c(F)c(F)c4F)c4nc(c(-c5c(F)c(F)c(F)c(F)c5F)c5ccc2[nH]5)C=C4)C=C3)cc1
REMARK SMILES IDX 23 1 22 2 2 3 1 4 3 5 4 6 5 7 9 8 6 9 8 10 7 11 10 12 11 14
REMARK SMILES IDX 12 15 17 16 13 17 14 18 16 19 15 20 18 21 19 22 20 23 21 24
REMARK SMILES IDX 24 25 25 26 26 27 27 28 28 29 29 30 90 31 30 32 89 33 31 34
REMARK SMILES IDX 32 35 33 36 83 37 34 38 88 39 82 40 84 41 35 42 87 43 81 44
REMARK SMILES IDX 80 45 36 47 68 48 48 49 67 50 49 51 52 52 66 53 85 54 50 55
REMARK SMILES IDX 51 56 65 58 86 59 53 60 37 61 38 62 46 63 39 64 40 65 44 66
REMARK SMILES IDX 47 67 41 68 42 69 45 70 43 71 69 72 70 73 78 74 71 75 72 76
REMARK SMILES IDX 76 77 79 78 73 79 74 80 77 81 75 82 54 83 55 84 63 85 56 86
REMARK SMILES IDX 57 87 61 88 64 89 58 90 59 91 62 92 60 93
REMARK H PARENT 10 13 84 46 52 57
REMARK Flexibility Score: inf
ROOT
ATOM      1  C   UNL A   1      37.984  19.759  24.962  1.00  0.00     0.274 C 
ENDROOT
BRANCH   1   2
ATOM      2  O   UNL A   1      37.937  21.203  24.975  1.00  0.00    -0.462 OA
BRANCH   2   3
ATOM      3  C   UNL A   1      36.813  21.949  24.864  1.00  0.00     0.310 C 
ATOM      4  O   UNL A   1      36.802  22.940  24.137  1.00  0.00    -0.252 OA
BRANCH   3   5
ATOM      5  C   UNL A   1      35.590  21.548  25.653  1.00  0.00     0.160 C 
BRANCH   5   6
ATOM      6  C   UNL A   1      34.442  20.940  24.879  1.00  0.00    -0.013 A 
ATOM      7  C   UNL A   1      34.288  19.544  24.786  1.00  0.00     0.006 A 
ATOM      8  C   UNL A   1      33.465  21.774  24.290  1.00  0.00     0.042 A 
ATOM      9  C   UNL A   1      33.222  18.980  24.087  1.00  0.00     0.000 A 
ATOM     10  C   UNL A   1      32.428  21.179  23.549  1.00  0.00     0.026 A 
ATOM     11  C   UNL A   1      32.298  19.798  23.455  1.00  0.00     0.002 A 
BRANCH   8  12
ATOM     12  N   UNL A   1      33.547  23.183  24.383  1.00  0.00    -0.354 N 
ATOM     13  H   UNL A   1      34.439  23.588  24.297  1.00  0.00     0.167 HD
BRANCH  12  14
ATOM     14  C   UNL A   1      32.459  24.053  24.590  1.00  0.00     0.070 A 
ATOM     15  C   UNL A   1      31.824  24.108  25.848  1.00  0.00     0.065 A 
ATOM     16  C   UNL A   1      32.029  24.919  23.565  1.00  0.00     0.080 A 
ATOM     17  Cl  UNL A   1      32.267  23.035  27.132  1.00  0.00    -0.082 Cl
ATOM     18  C   UNL A   1      30.815  25.038  26.099  1.00  0.00     0.023 A 
ATOM     19  C   UNL A   1      31.002  25.841  23.834  1.00  0.00     0.015 A 
ATOM     20  C   UNL A   1      30.412  25.908  25.093  1.00  0.00     0.002 A 
BRANCH  16  21
ATOM     21  C   UNL A   1      32.727  24.983  22.231  1.00  0.00     0.418 C 
ATOM     22  F   UNL A   1      32.042  25.727  21.313  1.00  0.00    -0.166 F 
ATOM     23  F   UNL A   1      33.958  25.560  22.316  1.00  0.00    -0.166 F 
ATOM     24  F   UNL A   1      32.912  23.770  21.635  1.00  0.00    -0.166 F 
ENDBRANCH  16  21
ENDBRANCH  12  14
ENDBRANCH   8  12
ENDBRANCH   5   6
ENDBRANCH   3   5
ENDBRANCH   2   3
ENDBRANCH   1   2
BRANCH   1  25
ATOM     25  C   UNL A   1      39.204  19.225  25.717  1.00  0.00     0.275 C 
BRANCH  25  26
ATOM     26  O   UNL A   1      40.204  20.251  25.885  1.00  0.00    -0.458 OA
BRANCH  26  27
ATOM     27  C   UNL A   1      40.701  20.390  27.139  1.00  0.00     0.338 C 
ATOM     28  O   UNL A   1      40.976  19.491  27.914  1.00  0.00    -0.246 OA
BRANCH  27  29
ATOM     29  C   UNL A   1      41.026  21.814  27.404  1.00  0.00     0.060 A 
ATOM     30  C   UNL A   1      40.504  22.780  26.534  1.00  0.00     0.016 A 
ATOM     31  C   UNL A   1      41.835  22.212  28.473  1.00  0.00     0.016 A 
ATOM     32  C   UNL A   1      40.807  24.135  26.714  1.00  0.00     0.010 A 
ATOM     33  C   UNL A   1      42.139  23.570  28.650  1.00  0.00     0.010 A 
ATOM     34  C   UNL A   1      41.643  24.542  27.761  1.00  0.00    -0.014 A 
BRANCH  34  35
ATOM     35  C   UNL A   1      42.066  25.964  27.893  1.00  0.00     0.031 A 
ATOM     36  C   UNL A   1      43.443  26.387  27.462  1.00  0.00     0.074 A 
ATOM     37  C   UNL A   1      41.231  26.907  28.369  1.00  0.00     0.049 A 
ATOM     38  N   UNL A   1      44.007  27.567  27.542  1.00  0.00    -0.248 NA
ATOM     39  C   UNL A   1      44.281  25.359  26.827  1.00  0.00     0.031 C 
ATOM     40  C   UNL A   1      39.827  26.706  28.710  1.00  0.00     0.029 A 
ATOM     41  N   UNL A   1      41.461  28.232  28.662  1.00  0.00    -0.354 N 
ATOM     42  C   UNL A   1      45.238  27.442  26.916  1.00  0.00     0.074 A 
ATOM     43  C   UNL A   1      45.373  26.051  26.530  1.00  0.00     0.031 C 
ATOM     44  C   UNL A   1      39.341  27.849  29.224  1.00  0.00     0.029 A 
ATOM     45  C   UNL A   1      40.404  28.839  29.293  1.00  0.00     0.049 A 
ATOM     46  H   UNL A   1      42.299  28.698  28.441  1.00  0.00     0.167 HD
ATOM     47  C   UNL A   1      46.152  28.406  26.649  1.00  0.00     0.037 A 
ATOM     48  C   UNL A   1      40.308  30.037  29.898  1.00  0.00     0.037 A 
ATOM     49  C   UNL A   1      46.042  29.789  27.038  1.00  0.00     0.049 A 
ATOM     50  C   UNL A   1      41.441  31.011  29.823  1.00  0.00     0.074 A 
ATOM     51  C   UNL A   1      46.902  30.836  26.750  1.00  0.00     0.029 A 
ATOM     52  N   UNL A   1      45.027  30.316  27.819  1.00  0.00    -0.354 N 
ATOM     53  N   UNL A   1      42.594  30.889  29.221  1.00  0.00    -0.248 NA
ATOM     54  C   UNL A   1      41.236  32.310  30.482  1.00  0.00     0.031 C 
ATOM     55  C   UNL A   1      46.443  31.981  27.412  1.00  0.00     0.029 A 
ATOM     56  C   UNL A   1      45.267  31.661  28.066  1.00  0.00     0.049 A 
ATOM     57  H   UNL A   1      44.249  29.811  28.150  1.00  0.00     0.167 HD
ATOM     58  C   UNL A   1      43.229  32.112  29.375  1.00  0.00     0.074 A 
ATOM     59  C   UNL A   1      42.348  32.952  30.157  1.00  0.00     0.031 C 
ATOM     60  C   UNL A   1      44.420  32.504  28.867  1.00  0.00     0.037 A 
BRANCH  47  61
ATOM     61  C   UNL A   1      47.370  27.999  25.878  1.00  0.00     0.064 A 
ATOM     62  C   UNL A   1      48.575  27.693  26.529  1.00  0.00     0.173 A 
ATOM     63  C   UNL A   1      47.312  27.843  24.487  1.00  0.00     0.173 A 
ATOM     64  F   UNL A   1      48.679  27.835  27.860  1.00  0.00    -0.203 F 
ATOM     65  C   UNL A   1      49.683  27.258  25.810  1.00  0.00     0.198 A 
ATOM     66  C   UNL A   1      48.415  27.385  23.774  1.00  0.00     0.198 A 
ATOM     67  F   UNL A   1      46.179  28.119  23.824  1.00  0.00    -0.203 F 
ATOM     68  F   UNL A   1      50.833  26.995  26.447  1.00  0.00    -0.200 F 
ATOM     69  C   UNL A   1      49.600  27.096  24.435  1.00  0.00     0.200 A 
ATOM     70  F   UNL A   1      48.331  27.219  22.447  1.00  0.00    -0.200 F 
ATOM     71  F   UNL A   1      50.664  26.662  23.744  1.00  0.00    -0.200 F 
ENDBRANCH  47  61
BRANCH  48  72
ATOM     72  C   UNL A   1      39.121  30.383  30.714  1.00  0.00     0.064 A 
ATOM     73  C   UNL A   1      38.063  31.139  30.200  1.00  0.00     0.173 A 
ATOM     74  C   UNL A   1      39.099  30.054  32.076  1.00  0.00     0.173 A 
ATOM     75  F   UNL A   1      38.073  31.518  28.915  1.00  0.00    -0.203 F 
ATOM     76  C   UNL A   1      37.019  31.557  31.026  1.00  0.00     0.198 A 
ATOM     77  C   UNL A   1      38.056  30.471  32.897  1.00  0.00     0.198 A 
ATOM     78  F   UNL A   1      40.106  29.349  32.613  1.00  0.00    -0.203 F 
ATOM     79  F   UNL A   1      36.032  32.312  30.525  1.00  0.00    -0.200 F 
ATOM     80  C   UNL A   1      37.016  31.222  32.372  1.00  0.00     0.200 A 
ATOM     81  F   UNL A   1      38.060  30.146  34.197  1.00  0.00    -0.200 F 
ATOM     82  F   UNL A   1      36.020  31.631  33.168  1.00  0.00    -0.200 F 
ENDBRANCH  48  72
BRANCH  60  83
ATOM     83  C   UNL A   1      44.820  33.930  29.098  1.00  0.00     0.064 A 
ATOM     84  C   UNL A   1      45.611  34.309  30.193  1.00  0.00     0.173 A 
ATOM     85  C   UNL A   1      44.381  34.936  28.224  1.00  0.00     0.173 A 
ATOM     86  F   UNL A   1      46.027  33.389  31.075  1.00  0.00    -0.203 F 
ATOM     87  C   UNL A   1      45.924  35.647  30.419  1.00  0.00     0.198 A 
ATOM     88  C   UNL A   1      44.721  36.270  28.437  1.00  0.00     0.198 A 
ATOM     89  F   UNL A   1      43.615  34.628  27.168  1.00  0.00    -0.203 F 
ATOM     90  F   UNL A   1      46.627  35.994  31.506  1.00  0.00    -0.200 F 
ATOM     91  C   UNL A   1      45.483  36.625  29.539  1.00  0.00     0.200 A 
ATOM     92  F   UNL A   1      44.297  37.212  27.583  1.00  0.00    -0.200 F 
ATOM     93  F   UNL A   1      45.779  37.912  29.762  1.00  0.00    -0.200 F 
ENDBRANCH  60  83
ENDBRANCH  34  35
ENDBRANCH  27  29
ENDBRANCH  26  27
ENDBRANCH  25  26
ENDBRANCH   1  25
TORSDOF 15
ENDMDL
