MODEL 1
REMARK VINA RESULT:     -12.4      0.000      0.000
REMARK SMILES CCOc1cnc(C(=O)c2[nH]c3cc(Cl)ccc3c2CC(=O)OCCOC(=O)c2ccc(-c3c4nc(c(-c5c(F)c(F)c(F)c(F)c5F)c5ccc([nH]5)c(-c5c(F)c(F)c(F)c(F)c5F)c5nc(c(-c6c(F)c(F)c(F)c(F)c6F)c6ccc3[nH]6)C=C5)C=C4)cc2)cc1CC
REMARK SMILES IDX 23 1 21 2 22 3 20 4 19 5 10 6 11 7 12 8 18 10 13 11 17 12
REMARK SMILES IDX 14 13 16 14 15 15 8 16 9 17 7 18 4 19 5 20 93 21 6 22 92 23
REMARK SMILES IDX 3 24 2 25 1 26 94 27 95 28 24 29 25 30 26 31 27 32 28 33
REMARK SMILES IDX 29 34 30 35 91 36 31 37 90 38 32 39 33 40 34 41 84 42 35 43
REMARK SMILES IDX 89 44 83 45 85 46 36 47 88 48 82 49 81 50 37 52 69 53 49 54
REMARK SMILES IDX 68 55 50 56 53 57 67 58 86 59 51 60 52 61 66 63 87 64 54 65
REMARK SMILES IDX 38 66 39 67 47 68 40 69 41 70 45 71 48 72 42 73 43 74 46 75
REMARK SMILES IDX 44 76 70 77 71 78 79 79 72 80 73 81 77 82 80 83 74 84 75 85
REMARK SMILES IDX 78 86 76 87 55 88 56 89 64 90 57 91 58 92 62 93 65 94 59 95
REMARK SMILES IDX 60 96 63 97 61 98
REMARK H PARENT 11 9 85 51 53 62
REMARK Flexibility Score: inf
ROOT
ATOM      1  O   UNL A   1      30.747  27.574  26.904  1.00  0.00    -0.462 OA
ENDROOT
BRANCH   1   2
ATOM      2  C   UNL A   1      30.806  26.350  26.325  1.00  0.00     0.310 C 
ATOM      3  O   UNL A   1      31.273  25.352  26.872  1.00  0.00    -0.252 OA
BRANCH   2   4
ATOM      4  C   UNL A   1      30.119  26.242  24.979  1.00  0.00     0.161 C 
BRANCH   4   5
ATOM      5  C   UNL A   1      30.542  27.165  23.879  1.00  0.00     0.000 A 
ATOM      6  C   UNL A   1      31.829  27.406  23.401  1.00  0.00     0.093 A 
ATOM      7  N   UNL A   1      31.714  28.312  22.371  1.00  0.00    -0.351 N 
ATOM      8  C   UNL A   1      30.464  28.875  22.367  1.00  0.00     0.048 A 
ATOM      9  H   UNL A   1      32.428  28.526  21.729  1.00  0.00     0.167 HD
ATOM     10  C   UNL A   1      29.679  28.120  23.236  1.00  0.00     0.004 A 
ATOM     11  C   UNL A   1      29.981  29.982  21.663  1.00  0.00     0.047 A 
ATOM     12  C   UNL A   1      28.314  28.456  23.365  1.00  0.00     0.012 A 
ATOM     13  C   UNL A   1      28.638  30.319  21.847  1.00  0.00     0.043 A 
ATOM     14  C   UNL A   1      27.808  29.562  22.669  1.00  0.00     0.021 A 
ATOM     15  Cl  UNL A   1      28.006  31.706  21.047  1.00  0.00    -0.084 Cl
BRANCH   6  16
ATOM     16  C   UNL A   1      33.152  26.929  23.786  1.00  0.00     0.227 C 
ATOM     17  O   UNL A   1      34.045  27.716  24.091  1.00  0.00    -0.285 OA
BRANCH  16  18
ATOM     18  C   UNL A   1      33.302  25.469  24.158  1.00  0.00     0.113 A 
ATOM     19  C   UNL A   1      34.246  22.889  24.326  1.00  0.00     0.140 A 
ATOM     20  C   UNL A   1      33.294  23.285  23.393  1.00  0.00     0.158 A 
ATOM     21  C   UNL A   1      34.736  23.838  25.222  1.00  0.00    -0.002 A 
ATOM     22  N   UNL A   1      32.815  24.549  23.282  1.00  0.00    -0.249 NA
ATOM     23  C   UNL A   1      34.196  25.131  25.176  1.00  0.00     0.040 A 
BRANCH  19  24
ATOM     24  O   UNL A   1      34.819  21.653  24.238  1.00  0.00    -0.492 OA
BRANCH  24  25
ATOM     25  C   UNL A   1      33.908  20.594  24.550  1.00  0.00     0.226 C 
ATOM     26  C   UNL A   1      33.529  20.672  26.018  1.00  0.00     0.049 C 
ENDBRANCH  24  25
ENDBRANCH  19  24
BRANCH  21  27
ATOM     27  C   UNL A   1      35.913  23.569  26.126  1.00  0.00     0.036 C 
ATOM     28  C   UNL A   1      37.236  23.701  25.378  1.00  0.00     0.009 C 
ENDBRANCH  21  27
ENDBRANCH  16  18
ENDBRANCH   6  16
ENDBRANCH   4   5
ENDBRANCH   2   4
ENDBRANCH   1   2
BRANCH   1  29
ATOM     29  C   UNL A   1      31.992  28.299  27.001  1.00  0.00     0.274 C 
BRANCH  29  30
ATOM     30  C   UNL A   1      31.827  29.777  26.615  1.00  0.00     0.275 C 
BRANCH  30  31
ATOM     31  O   UNL A   1      33.073  30.400  26.214  1.00  0.00    -0.458 OA
BRANCH  31  32
ATOM     32  C   UNL A   1      33.539  31.285  27.104  1.00  0.00     0.338 C 
ATOM     33  O   UNL A   1      32.938  32.250  27.566  1.00  0.00    -0.246 OA
BRANCH  32  34
ATOM     34  C   UNL A   1      34.856  30.958  27.632  1.00  0.00     0.060 A 
ATOM     35  C   UNL A   1      35.089  29.630  28.010  1.00  0.00     0.016 A 
ATOM     36  C   UNL A   1      35.745  31.972  28.002  1.00  0.00     0.016 A 
ATOM     37  C   UNL A   1      36.179  29.320  28.805  1.00  0.00     0.010 A 
ATOM     38  C   UNL A   1      36.874  31.645  28.754  1.00  0.00     0.010 A 
ATOM     39  C   UNL A   1      37.087  30.321  29.176  1.00  0.00    -0.014 A 
BRANCH  39  40
ATOM     40  C   UNL A   1      38.289  29.948  29.955  1.00  0.00     0.031 A 
ATOM     41  C   UNL A   1      39.315  29.006  29.404  1.00  0.00     0.074 A 
ATOM     42  C   UNL A   1      38.452  30.500  31.170  1.00  0.00     0.049 A 
ATOM     43  N   UNL A   1      40.413  28.567  29.966  1.00  0.00    -0.248 NA
ATOM     44  C   UNL A   1      39.090  28.490  28.045  1.00  0.00     0.031 C 
ATOM     45  C   UNL A   1      37.524  31.446  31.794  1.00  0.00     0.029 A 
ATOM     46  N   UNL A   1      39.450  30.349  32.096  1.00  0.00    -0.354 N 
ATOM     47  C   UNL A   1      41.009  27.728  29.036  1.00  0.00     0.074 A 
ATOM     48  C   UNL A   1      40.142  27.699  27.877  1.00  0.00     0.031 C 
ATOM     49  C   UNL A   1      37.997  31.793  32.999  1.00  0.00     0.029 A 
ATOM     50  C   UNL A   1      39.230  31.056  33.251  1.00  0.00     0.049 A 
ATOM     51  H   UNL A   1      40.246  29.789  31.948  1.00  0.00     0.167 HD
ATOM     52  C   UNL A   1      42.179  27.057  29.141  1.00  0.00     0.037 A 
ATOM     53  C   UNL A   1      39.926  31.081  34.401  1.00  0.00     0.037 A 
ATOM     54  C   UNL A   1      43.032  27.078  30.299  1.00  0.00     0.049 A 
ATOM     55  C   UNL A   1      41.172  30.256  34.519  1.00  0.00     0.074 A 
ATOM     56  C   UNL A   1      44.244  26.438  30.490  1.00  0.00     0.029 A 
ATOM     57  N   UNL A   1      42.755  27.770  31.468  1.00  0.00    -0.354 N 
ATOM     58  N   UNL A   1      41.742  29.492  33.621  1.00  0.00    -0.248 NA
ATOM     59  C   UNL A   1      41.867  30.291  35.812  1.00  0.00     0.031 C 
ATOM     60  C   UNL A   1      44.687  26.720  31.789  1.00  0.00     0.029 A 
ATOM     61  C   UNL A   1      43.760  27.552  32.395  1.00  0.00     0.049 A 
ATOM     62  H   UNL A   1      41.962  28.334  31.616  1.00  0.00     0.167 HD
ATOM     63  C   UNL A   1      42.865  28.959  34.234  1.00  0.00     0.074 A 
ATOM     64  C   UNL A   1      42.906  29.500  35.577  1.00  0.00     0.031 C 
ATOM     65  C   UNL A   1      43.779  28.096  33.727  1.00  0.00     0.037 A 
BRANCH  52  66
ATOM     66  C   UNL A   1      42.619  26.241  27.969  1.00  0.00     0.064 A 
ATOM     67  C   UNL A   1      43.472  26.785  26.999  1.00  0.00     0.173 A 
ATOM     68  C   UNL A   1      42.248  24.896  27.843  1.00  0.00     0.173 A 
ATOM     69  F   UNL A   1      43.850  28.069  27.083  1.00  0.00    -0.203 F 
ATOM     70  C   UNL A   1      43.928  26.015  25.933  1.00  0.00     0.198 A 
ATOM     71  C   UNL A   1      42.716  24.124  26.783  1.00  0.00     0.198 A 
ATOM     72  F   UNL A   1      41.440  24.332  28.753  1.00  0.00    -0.203 F 
ATOM     73  F   UNL A   1      44.723  26.564  25.005  1.00  0.00    -0.200 F 
ATOM     74  C   UNL A   1      43.553  24.684  25.828  1.00  0.00     0.200 A 
ATOM     75  F   UNL A   1      42.357  22.837  26.684  1.00  0.00    -0.200 F 
ATOM     76  F   UNL A   1      43.996  23.941  24.804  1.00  0.00    -0.200 F 
ENDBRANCH  52  66
BRANCH  53  77
ATOM     77  C   UNL A   1      39.421  31.893  35.533  1.00  0.00     0.064 A 
ATOM     78  C   UNL A   1      39.801  33.231  35.689  1.00  0.00     0.173 A 
ATOM     79  C   UNL A   1      38.509  31.355  36.453  1.00  0.00     0.173 A 
ATOM     80  F   UNL A   1      40.683  33.780  34.842  1.00  0.00    -0.203 F 
ATOM     81  C   UNL A   1      39.286  34.003  36.728  1.00  0.00     0.198 A 
ATOM     82  C   UNL A   1      37.978  32.134  37.477  1.00  0.00     0.198 A 
ATOM     83  F   UNL A   1      38.113  30.078  36.339  1.00  0.00    -0.203 F 
ATOM     84  F   UNL A   1      39.680  35.276  36.872  1.00  0.00    -0.200 F 
ATOM     85  C   UNL A   1      38.368  33.457  37.615  1.00  0.00     0.200 A 
ATOM     86  F   UNL A   1      37.081  31.606  38.321  1.00  0.00    -0.200 F 
ATOM     87  F   UNL A   1      37.864  34.206  38.605  1.00  0.00    -0.200 F 
ENDBRANCH  53  77
BRANCH  65  88
ATOM     88  C   UNL A   1      44.901  27.691  34.633  1.00  0.00     0.064 A 
ATOM     89  C   UNL A   1      46.057  28.475  34.745  1.00  0.00     0.173 A 
ATOM     90  C   UNL A   1      44.804  26.532  35.413  1.00  0.00     0.173 A 
ATOM     91  F   UNL A   1      46.197  29.584  34.004  1.00  0.00    -0.203 F 
ATOM     92  C   UNL A   1      47.090  28.101  35.601  1.00  0.00     0.198 A 
ATOM     93  C   UNL A   1      45.830  26.171  36.281  1.00  0.00     0.198 A 
ATOM     94  F   UNL A   1      43.714  25.754  35.338  1.00  0.00    -0.203 F 
ATOM     95  F   UNL A   1      48.203  28.844  35.670  1.00  0.00    -0.200 F 
ATOM     96  C   UNL A   1      46.973  26.952  36.371  1.00  0.00     0.200 A 
ATOM     97  F   UNL A   1      45.716  25.065  37.030  1.00  0.00    -0.200 F 
ATOM     98  F   UNL A   1      47.967  26.594  37.195  1.00  0.00    -0.200 F 
ENDBRANCH  65  88
ENDBRANCH  39  40
ENDBRANCH  32  34
ENDBRANCH  31  32
ENDBRANCH  30  31
ENDBRANCH  29  30
ENDBRANCH   1  29
TORSDOF 17
ENDMDL
MODEL 2
REMARK VINA RESULT:     -12.4      1.832      4.248
REMARK SMILES CCOc1cnc(C(=O)c2[nH]c3cc(Cl)ccc3c2CC(=O)OCCOC(=O)c2ccc(-c3c4nc(c(-c5c(F)c(F)c(F)c(F)c5F)c5ccc([nH]5)c(-c5c(F)c(F)c(F)c(F)c5F)c5nc(c(-c6c(F)c(F)c(F)c(F)c6F)c6ccc3[nH]6)C=C5)C=C4)cc2)cc1CC
REMARK SMILES IDX 23 1 21 2 22 3 20 4 19 5 10 6 11 7 12 8 18 10 13 11 17 12
REMARK SMILES IDX 14 13 16 14 15 15 8 16 9 17 7 18 4 19 5 20 93 21 6 22 92 23
REMARK SMILES IDX 3 24 2 25 1 26 94 27 95 28 24 29 25 30 26 31 27 32 28 33
REMARK SMILES IDX 29 34 30 35 91 36 31 37 90 38 32 39 33 40 34 41 84 42 35 43
REMARK SMILES IDX 89 44 83 45 85 46 36 47 88 48 82 49 81 50 37 52 69 53 49 54
REMARK SMILES IDX 68 55 50 56 53 57 67 58 86 59 51 60 52 61 66 63 87 64 54 65
REMARK SMILES IDX 38 66 39 67 47 68 40 69 41 70 45 71 48 72 42 73 43 74 46 75
REMARK SMILES IDX 44 76 70 77 71 78 79 79 72 80 73 81 77 82 80 83 74 84 75 85
REMARK SMILES IDX 78 86 76 87 55 88 56 89 64 90 57 91 58 92 62 93 65 94 59 95
REMARK SMILES IDX 60 96 63 97 61 98
REMARK H PARENT 11 9 85 51 53 62
REMARK Flexibility Score: inf
ROOT
ATOM      1  O   UNL A   1      31.077  27.088  26.696  1.00  0.00    -0.462 OA
ENDROOT
BRANCH   1   2
ATOM      2  C   UNL A   1      31.814  25.956  26.583  1.00  0.00     0.310 C 
ATOM      3  O   UNL A   1      31.436  24.849  26.963  1.00  0.00    -0.252 OA
BRANCH   2   4
ATOM      4  C   UNL A   1      33.110  26.108  25.814  1.00  0.00     0.161 C 
BRANCH   4   5
ATOM      5  C   UNL A   1      33.557  24.987  24.928  1.00  0.00     0.000 A 
ATOM      6  C   UNL A   1      32.824  24.312  23.954  1.00  0.00     0.093 A 
ATOM      7  N   UNL A   1      33.665  23.382  23.388  1.00  0.00    -0.351 N 
ATOM      8  C   UNL A   1      34.795  23.234  24.149  1.00  0.00     0.048 A 
ATOM      9  H   UNL A   1      33.482  22.891  22.555  1.00  0.00     0.167 HD
ATOM     10  C   UNL A   1      34.803  24.282  25.068  1.00  0.00     0.004 A 
ATOM     11  C   UNL A   1      35.798  22.261  24.089  1.00  0.00     0.047 A 
ATOM     12  C   UNL A   1      35.907  24.398  25.938  1.00  0.00     0.012 A 
ATOM     13  C   UNL A   1      36.854  22.376  24.995  1.00  0.00     0.043 A 
ATOM     14  C   UNL A   1      36.924  23.435  25.895  1.00  0.00     0.021 A 
ATOM     15  Cl  UNL A   1      38.087  21.173  25.000  1.00  0.00    -0.084 Cl
BRANCH   6  16
ATOM     16  C   UNL A   1      31.443  24.397  23.494  1.00  0.00     0.227 C 
ATOM     17  O   UNL A   1      30.650  23.480  23.698  1.00  0.00    -0.285 OA
BRANCH  16  18
ATOM     18  C   UNL A   1      30.906  25.756  23.096  1.00  0.00     0.113 A 
ATOM     19  C   UNL A   1      30.180  28.410  23.158  1.00  0.00     0.140 A 
ATOM     20  C   UNL A   1      29.310  27.381  23.501  1.00  0.00     0.158 A 
ATOM     21  C   UNL A   1      31.474  28.081  22.755  1.00  0.00    -0.002 A 
ATOM     22  N   UNL A   1      29.641  26.066  23.486  1.00  0.00    -0.249 NA
ATOM     23  C   UNL A   1      31.811  26.724  22.656  1.00  0.00     0.040 A 
BRANCH  19  24
ATOM     24  O   UNL A   1      29.833  29.709  23.393  1.00  0.00    -0.492 OA
BRANCH  24  25
ATOM     25  C   UNL A   1      28.716  30.138  22.607  1.00  0.00     0.226 C 
ATOM     26  C   UNL A   1      27.713  30.846  23.501  1.00  0.00     0.049 C 
ENDBRANCH  24  25
ENDBRANCH  19  24
BRANCH  21  27
ATOM     27  C   UNL A   1      32.554  29.119  22.566  1.00  0.00     0.036 C 
ATOM     28  C   UNL A   1      33.943  28.528  22.786  1.00  0.00     0.009 C 
ENDBRANCH  21  27
ENDBRANCH  16  18
ENDBRANCH   6  16
ENDBRANCH   4   5
ENDBRANCH   2   4
ENDBRANCH   1   2
BRANCH   1  29
ATOM     29  C   UNL A   1      31.738  28.229  27.285  1.00  0.00     0.274 C 
BRANCH  29  30
ATOM     30  C   UNL A   1      31.673  29.464  26.374  1.00  0.00     0.275 C 
BRANCH  30  31
ATOM     31  O   UNL A   1      32.981  29.993  26.043  1.00  0.00    -0.458 OA
BRANCH  31  32
ATOM     32  C   UNL A   1      33.396  30.955  26.877  1.00  0.00     0.338 C 
ATOM     33  O   UNL A   1      32.747  31.918  27.270  1.00  0.00    -0.246 OA
BRANCH  32  34
ATOM     34  C   UNL A   1      34.722  30.723  27.434  1.00  0.00     0.060 A 
ATOM     35  C   UNL A   1      35.108  29.395  27.653  1.00  0.00     0.016 A 
ATOM     36  C   UNL A   1      35.455  31.780  27.983  1.00  0.00     0.016 A 
ATOM     37  C   UNL A   1      36.195  29.118  28.464  1.00  0.00     0.010 A 
ATOM     38  C   UNL A   1      36.584  31.497  28.750  1.00  0.00     0.010 A 
ATOM     39  C   UNL A   1      36.949  30.165  29.012  1.00  0.00    -0.014 A 
BRANCH  39  40
ATOM     40  C   UNL A   1      38.156  29.841  29.805  1.00  0.00     0.031 A 
ATOM     41  C   UNL A   1      39.208  28.911  29.283  1.00  0.00     0.074 A 
ATOM     42  C   UNL A   1      38.299  30.427  31.008  1.00  0.00     0.049 A 
ATOM     43  N   UNL A   1      40.314  28.514  29.861  1.00  0.00    -0.248 NA
ATOM     44  C   UNL A   1      39.003  28.357  27.937  1.00  0.00     0.031 C 
ATOM     45  C   UNL A   1      37.344  31.364  31.603  1.00  0.00     0.029 A 
ATOM     46  N   UNL A   1      39.295  30.324  31.941  1.00  0.00    -0.354 N 
ATOM     47  C   UNL A   1      40.935  27.668  28.955  1.00  0.00     0.074 A 
ATOM     48  C   UNL A   1      40.076  27.588  27.793  1.00  0.00     0.031 C 
ATOM     49  C   UNL A   1      37.802  31.753  32.801  1.00  0.00     0.029 A 
ATOM     50  C   UNL A   1      39.052  31.054  33.077  1.00  0.00     0.049 A 
ATOM     51  H   UNL A   1      40.106  29.780  31.811  1.00  0.00     0.167 HD
ATOM     52  C   UNL A   1      42.121  27.028  29.083  1.00  0.00     0.037 A 
ATOM     53  C   UNL A   1      39.740  31.124  34.230  1.00  0.00     0.037 A 
ATOM     54  C   UNL A   1      42.967  27.100  30.244  1.00  0.00     0.049 A 
ATOM     55  C   UNL A   1      41.006  30.334  34.374  1.00  0.00     0.074 A 
ATOM     56  C   UNL A   1      44.194  26.495  30.457  1.00  0.00     0.029 A 
ATOM     57  N   UNL A   1      42.667  27.814  31.394  1.00  0.00    -0.354 N 
ATOM     58  N   UNL A   1      41.599  29.562  33.498  1.00  0.00    -0.248 NA
ATOM     59  C   UNL A   1      41.693  30.418  35.669  1.00  0.00     0.031 C 
ATOM     60  C   UNL A   1      44.622  26.820  31.750  1.00  0.00     0.029 A 
ATOM     61  C   UNL A   1      43.672  27.643  32.331  1.00  0.00     0.049 A 
ATOM     62  H   UNL A   1      41.859  28.361  31.524  1.00  0.00     0.167 HD
ATOM     63  C   UNL A   1      42.732  29.073  34.129  1.00  0.00     0.074 A 
ATOM     64  C   UNL A   1      42.752  29.648  35.459  1.00  0.00     0.031 C 
ATOM     65  C   UNL A   1      43.670  28.221  33.649  1.00  0.00     0.037 A 
BRANCH  52  66
ATOM     66  C   UNL A   1      42.588  26.195  27.933  1.00  0.00     0.064 A 
ATOM     67  C   UNL A   1      43.450  26.729  26.966  1.00  0.00     0.173 A 
ATOM     68  C   UNL A   1      42.231  24.845  27.827  1.00  0.00     0.173 A 
ATOM     69  F   UNL A   1      43.815  28.018  27.032  1.00  0.00    -0.203 F 
ATOM     70  C   UNL A   1      43.930  25.943  25.922  1.00  0.00     0.198 A 
ATOM     71  C   UNL A   1      42.723  24.057  26.789  1.00  0.00     0.198 A 
ATOM     72  F   UNL A   1      41.414  24.290  28.734  1.00  0.00    -0.203 F 
ATOM     73  F   UNL A   1      44.736  26.483  24.997  1.00  0.00    -0.200 F 
ATOM     74  C   UNL A   1      43.571  24.608  25.837  1.00  0.00     0.200 A 
ATOM     75  F   UNL A   1      42.378  22.765  26.710  1.00  0.00    -0.200 F 
ATOM     76  F   UNL A   1      44.036  23.850  24.834  1.00  0.00    -0.200 F 
ENDBRANCH  52  66
BRANCH  53  77
ATOM     77  C   UNL A   1      39.209  31.951  35.339  1.00  0.00     0.064 A 
ATOM     78  C   UNL A   1      38.451  31.382  36.368  1.00  0.00     0.173 A 
ATOM     79  C   UNL A   1      39.494  33.323  35.411  1.00  0.00     0.173 A 
ATOM     80  F   UNL A   1      38.142  30.078  36.329  1.00  0.00    -0.203 F 
ATOM     81  C   UNL A   1      37.994  32.156  37.431  1.00  0.00     0.198 A 
ATOM     82  C   UNL A   1      39.056  34.091  36.486  1.00  0.00     0.198 A 
ATOM     83  F   UNL A   1      40.221  33.911  34.449  1.00  0.00    -0.203 F 
ATOM     84  F   UNL A   1      37.251  31.595  38.395  1.00  0.00    -0.200 F 
ATOM     85  C   UNL A   1      38.305  33.508  37.494  1.00  0.00     0.200 A 
ATOM     86  F   UNL A   1      39.371  35.392  36.550  1.00  0.00    -0.200 F 
ATOM     87  F   UNL A   1      37.876  34.248  38.526  1.00  0.00    -0.200 F 
ENDBRANCH  53  77
BRANCH  65  88
ATOM     88  C   UNL A   1      44.797  27.867  34.569  1.00  0.00     0.064 A 
ATOM     89  C   UNL A   1      44.725  26.740  35.400  1.00  0.00     0.173 A 
ATOM     90  C   UNL A   1      45.964  28.641  34.598  1.00  0.00     0.173 A 
ATOM     91  F   UNL A   1      43.620  25.981  35.416  1.00  0.00    -0.203 F 
ATOM     92  C   UNL A   1      45.783  26.409  36.242  1.00  0.00     0.198 A 
ATOM     93  C   UNL A   1      47.027  28.296  35.427  1.00  0.00     0.198 A 
ATOM     94  F   UNL A   1      46.075  29.727  33.817  1.00  0.00    -0.203 F 
ATOM     95  F   UNL A   1      45.684  25.347  37.054  1.00  0.00    -0.200 F 
ATOM     96  C   UNL A   1      46.934  27.184  36.251  1.00  0.00     0.200 A 
ATOM     97  F   UNL A   1      48.141  29.042  35.432  1.00  0.00    -0.200 F 
ATOM     98  F   UNL A   1      47.952  26.863  37.061  1.00  0.00    -0.200 F 
ENDBRANCH  65  88
ENDBRANCH  39  40
ENDBRANCH  32  34
ENDBRANCH  31  32
ENDBRANCH  30  31
ENDBRANCH  29  30
ENDBRANCH   1  29
TORSDOF 17
ENDMDL
MODEL 3
REMARK VINA RESULT:     -12.3      4.204      9.068
REMARK SMILES CCOc1cnc(C(=O)c2[nH]c3cc(Cl)ccc3c2CC(=O)OCCOC(=O)c2ccc(-c3c4nc(c(-c5c(F)c(F)c(F)c(F)c5F)c5ccc([nH]5)c(-c5c(F)c(F)c(F)c(F)c5F)c5nc(c(-c6c(F)c(F)c(F)c(F)c6F)c6ccc3[nH]6)C=C5)C=C4)cc2)cc1CC
REMARK SMILES IDX 23 1 21 2 22 3 20 4 19 5 10 6 11 7 12 8 18 10 13 11 17 12
REMARK SMILES IDX 14 13 16 14 15 15 8 16 9 17 7 18 4 19 5 20 93 21 6 22 92 23
REMARK SMILES IDX 3 24 2 25 1 26 94 27 95 28 24 29 25 30 26 31 27 32 28 33
REMARK SMILES IDX 29 34 30 35 91 36 31 37 90 38 32 39 33 40 34 41 84 42 35 43
REMARK SMILES IDX 89 44 83 45 85 46 36 47 88 48 82 49 81 50 37 52 69 53 49 54
REMARK SMILES IDX 68 55 50 56 53 57 67 58 86 59 51 60 52 61 66 63 87 64 54 65
REMARK SMILES IDX 38 66 39 67 47 68 40 69 41 70 45 71 48 72 42 73 43 74 46 75
REMARK SMILES IDX 44 76 70 77 71 78 79 79 72 80 73 81 77 82 80 83 74 84 75 85
REMARK SMILES IDX 78 86 76 87 55 88 56 89 64 90 57 91 58 92 62 93 65 94 59 95
REMARK SMILES IDX 60 96 63 97 61 98
REMARK H PARENT 11 9 85 51 53 62
REMARK Flexibility Score: inf
ROOT
ATOM      1  O   UNL A   1      35.410  23.277  25.440  1.00  0.00    -0.462 OA
ENDROOT
BRANCH   1   2
ATOM      2  C   UNL A   1      34.531  24.172  25.953  1.00  0.00     0.310 C 
ATOM      3  O   UNL A   1      33.697  23.899  26.816  1.00  0.00    -0.252 OA
BRANCH   2   4
ATOM      4  C   UNL A   1      34.730  25.603  25.496  1.00  0.00     0.161 C 
BRANCH   4   5
ATOM      5  C   UNL A   1      33.529  26.405  25.102  1.00  0.00     0.000 A 
ATOM      6  C   UNL A   1      32.679  26.211  24.014  1.00  0.00     0.093 A 
ATOM      7  N   UNL A   1      31.708  27.184  24.082  1.00  0.00    -0.351 N 
ATOM      8  C   UNL A   1      32.065  28.154  24.982  1.00  0.00     0.048 A 
ATOM      9  H   UNL A   1      30.875  27.183  23.558  1.00  0.00     0.167 HD
ATOM     10  C   UNL A   1      33.151  27.657  25.701  1.00  0.00     0.004 A 
ATOM     11  C   UNL A   1      31.510  29.417  25.208  1.00  0.00     0.047 A 
ATOM     12  C   UNL A   1      33.675  28.446  26.747  1.00  0.00     0.012 A 
ATOM     13  C   UNL A   1      32.081  30.194  26.218  1.00  0.00     0.043 A 
ATOM     14  C   UNL A   1      33.135  29.715  26.992  1.00  0.00     0.021 A 
ATOM     15  Cl  UNL A   1      31.472  31.779  26.500  1.00  0.00    -0.084 Cl
BRANCH   6  16
ATOM     16  C   UNL A   1      32.661  25.261  22.908  1.00  0.00     0.227 C 
ATOM     17  O   UNL A   1      33.227  25.514  21.846  1.00  0.00    -0.285 OA
BRANCH  16  18
ATOM     18  C   UNL A   1      32.261  23.831  23.203  1.00  0.00     0.113 A 
ATOM     19  C   UNL A   1      32.105  21.335  24.352  1.00  0.00     0.140 A 
ATOM     20  C   UNL A   1      32.952  21.625  23.288  1.00  0.00     0.158 A 
ATOM     21  C   UNL A   1      31.291  22.351  24.851  1.00  0.00    -0.002 A 
ATOM     22  N   UNL A   1      33.055  22.845  22.707  1.00  0.00    -0.249 NA
ATOM     23  C   UNL A   1      31.324  23.599  24.212  1.00  0.00     0.040 A 
BRANCH  19  24
ATOM     24  O   UNL A   1      32.209  20.141  25.007  1.00  0.00    -0.492 OA
BRANCH  24  25
ATOM     25  C   UNL A   1      32.604  19.068  24.147  1.00  0.00     0.226 C 
ATOM     26  C   UNL A   1      32.527  17.757  24.910  1.00  0.00     0.049 C 
ENDBRANCH  24  25
ENDBRANCH  19  24
BRANCH  21  27
ATOM     27  C   UNL A   1      30.498  22.203  26.126  1.00  0.00     0.036 C 
ATOM     28  C   UNL A   1      30.239  23.554  26.785  1.00  0.00     0.009 C 
ENDBRANCH  21  27
ENDBRANCH  16  18
ENDBRANCH   6  16
ENDBRANCH   4   5
ENDBRANCH   2   4
ENDBRANCH   1   2
BRANCH   1  29
ATOM     29  C   UNL A   1      35.452  21.981  26.076  1.00  0.00     0.274 C 
BRANCH  29  30
ATOM     30  C   UNL A   1      36.432  21.028  25.374  1.00  0.00     0.275 C 
BRANCH  30  31
ATOM     31  O   UNL A   1      37.687  21.664  25.025  1.00  0.00    -0.458 OA
BRANCH  31  32
ATOM     32  C   UNL A   1      38.673  21.415  25.896  1.00  0.00     0.338 C 
ATOM     33  O   UNL A   1      39.180  20.326  26.142  1.00  0.00    -0.246 OA
BRANCH  32  34
ATOM     34  C   UNL A   1      39.243  22.611  26.502  1.00  0.00     0.060 A 
ATOM     35  C   UNL A   1      38.762  23.850  26.063  1.00  0.00     0.016 A 
ATOM     36  C   UNL A   1      40.405  22.529  27.275  1.00  0.00     0.016 A 
ATOM     37  C   UNL A   1      39.470  25.005  26.348  1.00  0.00     0.010 A 
ATOM     38  C   UNL A   1      41.082  23.702  27.610  1.00  0.00     0.010 A 
ATOM     39  C   UNL A   1      40.630  24.944  27.132  1.00  0.00    -0.014 A 
BRANCH  39  40
ATOM     40  C   UNL A   1      41.319  26.203  27.493  1.00  0.00     0.031 A 
ATOM     41  C   UNL A   1      40.621  27.285  28.258  1.00  0.00     0.074 A 
ATOM     42  C   UNL A   1      42.609  26.343  27.136  1.00  0.00     0.049 A 
ATOM     43  N   UNL A   1      41.080  28.451  28.637  1.00  0.00    -0.248 NA
ATOM     44  C   UNL A   1      39.229  27.029  28.659  1.00  0.00     0.031 C 
ATOM     45  C   UNL A   1      43.391  25.342  26.407  1.00  0.00     0.029 A 
ATOM     46  N   UNL A   1      43.487  27.374  27.337  1.00  0.00    -0.354 N 
ATOM     47  C   UNL A   1      40.041  29.067  29.318  1.00  0.00     0.074 A 
ATOM     48  C   UNL A   1      38.916  28.158  29.284  1.00  0.00     0.031 C 
ATOM     49  C   UNL A   1      44.634  25.808  26.223  1.00  0.00     0.029 A 
ATOM     50  C   UNL A   1      44.719  27.156  26.774  1.00  0.00     0.049 A 
ATOM     51  H   UNL A   1      43.257  28.192  27.834  1.00  0.00     0.167 HD
ATOM     52  C   UNL A   1      40.037  30.278  29.923  1.00  0.00     0.037 A 
ATOM     53  C   UNL A   1      45.788  27.966  26.679  1.00  0.00     0.037 A 
ATOM     54  C   UNL A   1      41.153  31.185  29.944  1.00  0.00     0.049 A 
ATOM     55  C   UNL A   1      45.722  29.336  27.284  1.00  0.00     0.074 A 
ATOM     56  C   UNL A   1      41.244  32.428  30.545  1.00  0.00     0.029 A 
ATOM     57  N   UNL A   1      42.371  30.948  29.324  1.00  0.00    -0.354 N 
ATOM     58  N   UNL A   1      44.745  29.894  27.953  1.00  0.00    -0.248 NA
ATOM     59  C   UNL A   1      46.904  30.189  27.114  1.00  0.00     0.031 C 
ATOM     60  C   UNL A   1      42.510  32.957  30.263  1.00  0.00     0.029 A 
ATOM     61  C   UNL A   1      43.211  32.034  29.506  1.00  0.00     0.049 A 
ATOM     62  H   UNL A   1      42.604  30.130  28.830  1.00  0.00     0.167 HD
ATOM     63  C   UNL A   1      45.192  31.162  28.291  1.00  0.00     0.074 A 
ATOM     64  C   UNL A   1      46.538  31.285  27.766  1.00  0.00     0.031 C 
ATOM     65  C   UNL A   1      44.544  32.137  28.972  1.00  0.00     0.037 A 
BRANCH  52  66
ATOM     66  C   UNL A   1      38.787  30.698  30.627  1.00  0.00     0.064 A 
ATOM     67  C   UNL A   1      38.655  30.530  32.012  1.00  0.00     0.173 A 
ATOM     68  C   UNL A   1      37.746  31.329  29.935  1.00  0.00     0.173 A 
ATOM     69  F   UNL A   1      39.630  29.930  32.710  1.00  0.00    -0.203 F 
ATOM     70  C   UNL A   1      37.515  30.967  32.681  1.00  0.00     0.198 A 
ATOM     71  C   UNL A   1      36.612  31.777  30.608  1.00  0.00     0.198 A 
ATOM     72  F   UNL A   1      37.833  31.518  28.610  1.00  0.00    -0.203 F 
ATOM     73  F   UNL A   1      37.402  30.774  34.002  1.00  0.00    -0.200 F 
ATOM     74  C   UNL A   1      36.497  31.594  31.980  1.00  0.00     0.200 A 
ATOM     75  F   UNL A   1      35.630  32.388  29.931  1.00  0.00    -0.200 F 
ATOM     76  F   UNL A   1      35.401  32.019  32.624  1.00  0.00    -0.200 F 
ENDBRANCH  52  66
BRANCH  53  77
ATOM     77  C   UNL A   1      46.987  27.495  25.948  1.00  0.00     0.064 A 
ATOM     78  C   UNL A   1      47.103  27.663  24.563  1.00  0.00     0.173 A 
ATOM     79  C   UNL A   1      48.062  26.909  26.633  1.00  0.00     0.173 A 
ATOM     80  F   UNL A   1      46.092  28.203  23.868  1.00  0.00    -0.203 F 
ATOM     81  C   UNL A   1      48.253  27.261  23.888  1.00  0.00     0.198 A 
ATOM     82  C   UNL A   1      49.220  26.529  25.960  1.00  0.00     0.198 A 
ATOM     83  F   UNL A   1      47.997  26.733  27.961  1.00  0.00    -0.203 F 
ATOM     84  F   UNL A   1      48.334  27.411  22.559  1.00  0.00    -0.200 F 
ATOM     85  C   UNL A   1      49.314  26.703  24.588  1.00  0.00     0.200 A 
ATOM     86  F   UNL A   1      50.247  26.004  26.643  1.00  0.00    -0.200 F 
ATOM     87  F   UNL A   1      50.425  26.329  23.939  1.00  0.00    -0.200 F 
ENDBRANCH  53  77
BRANCH  65  88
ATOM     88  C   UNL A   1      45.288  33.418  29.192  1.00  0.00     0.064 A 
ATOM     89  C   UNL A   1      45.187  34.478  28.280  1.00  0.00     0.173 A 
ATOM     90  C   UNL A   1      46.080  33.595  30.334  1.00  0.00     0.173 A 
ATOM     91  F   UNL A   1      44.453  34.344  27.167  1.00  0.00    -0.203 F 
ATOM     92  C   UNL A   1      45.870  35.671  28.499  1.00  0.00     0.198 A 
ATOM     93  C   UNL A   1      46.746  34.796  30.558  1.00  0.00     0.198 A 
ATOM     94  F   UNL A   1      46.202  32.607  31.233  1.00  0.00    -0.203 F 
ATOM     95  F   UNL A   1      45.789  36.662  27.600  1.00  0.00    -0.200 F 
ATOM     96  C   UNL A   1      46.644  35.830  29.640  1.00  0.00     0.200 A 
ATOM     97  F   UNL A   1      47.490  34.953  31.663  1.00  0.00    -0.200 F 
ATOM     98  F   UNL A   1      47.300  36.980  29.849  1.00  0.00    -0.200 F 
ENDBRANCH  65  88
ENDBRANCH  39  40
ENDBRANCH  32  34
ENDBRANCH  31  32
ENDBRANCH  30  31
ENDBRANCH  29  30
ENDBRANCH   1  29
TORSDOF 17
ENDMDL
