MODEL 1
REMARK VINA RESULT:     -12.4      0.000      0.000
REMARK SMILES Cc1nc(SCc2cccc(Cl)c2)[nH]c(=O)c1CC(=O)OCCOC(=O)c1ccc(-c2c3nc(c(-c4c(F)c(F)c(F)c(F)c4F)c4ccc([nH]4)c(-c4c(F)c(F)c(F)c(F)c4F)c4nc(c(-c5c(F)c(F)c(F)c(F)c5F)c5ccc2[nH]5)C=C4)C=C3)cc1
REMARK SMILES IDX 22 1 21 2 19 3 20 4 18 5 17 6 1 7 2 8 3 9 4 10 15 11 14 12
REMARK SMILES IDX 16 13 5 15 6 16 7 17 8 18 13 19 9 20 11 21 10 22 12 23 23 24
REMARK SMILES IDX 24 25 25 26 26 27 27 28 28 29 89 30 29 31 88 32 30 33 31 34
REMARK SMILES IDX 32 35 82 36 33 37 87 38 81 39 83 40 34 41 86 42 80 43 79 44
REMARK SMILES IDX 35 46 67 47 47 48 66 49 48 50 51 51 65 52 84 53 49 54 50 55
REMARK SMILES IDX 64 57 85 58 52 59 36 60 37 61 45 62 38 63 39 64 43 65 46 66
REMARK SMILES IDX 40 67 41 68 44 69 42 70 68 71 69 72 77 73 70 74 71 75 75 76
REMARK SMILES IDX 78 77 72 78 73 79 76 80 74 81 53 82 54 83 62 84 55 85 56 86
REMARK SMILES IDX 60 87 63 88 57 89 58 90 61 91 59 92
REMARK H PARENT 14 14 83 45 51 56
REMARK Flexibility Score: inf
ROOT
ATOM      1  C   UNL A   1      31.287  29.457  24.344  1.00  0.00     0.274 C 
ENDROOT
BRANCH   1   2
ATOM      2  O   UNL A   1      31.630  28.057  24.242  1.00  0.00    -0.462 OA
BRANCH   2   3
ATOM      3  C   UNL A   1      30.707  27.198  24.749  1.00  0.00     0.310 C 
ATOM      4  O   UNL A   1      29.671  26.871  24.177  1.00  0.00    -0.252 OA
BRANCH   3   5
ATOM      5  C   UNL A   1      31.024  26.677  26.143  1.00  0.00     0.166 C 
BRANCH   5   6
ATOM      6  C   UNL A   1      31.830  25.419  26.242  1.00  0.00     0.050 A 
ATOM      7  C   UNL A   1      34.034  26.520  25.817  1.00  0.00     0.067 C 
ATOM      8  C   UNL A   1      33.168  25.328  26.130  1.00  0.00     0.050 A 
ATOM      9  N   UNL A   1      33.855  24.141  26.181  1.00  0.00    -0.229 NA
ATOM     10  C   UNL A   1      33.165  23.054  26.198  1.00  0.00     0.168 A 
ATOM     11  C   UNL A   1      31.109  24.155  26.524  1.00  0.00     0.255 A 
ATOM     12  N   UNL A   1      31.823  23.013  26.355  1.00  0.00    -0.301 N 
ATOM     13  O   UNL A   1      29.944  24.146  26.896  1.00  0.00    -0.269 OA
ATOM     14  H   UNL A   1      31.359  22.145  26.346  1.00  0.00     0.172 HD
BRANCH  10  15
ATOM     15  S   UNL A   1      33.880  21.492  25.975  1.00  0.00    -0.083 SA
BRANCH  15  16
ATOM     16  C   UNL A   1      32.633  20.696  24.921  1.00  0.00     0.113 C 
BRANCH  16  17
ATOM     17  C   UNL A   1      33.034  19.382  24.274  1.00  0.00    -0.036 A 
ATOM     18  C   UNL A   1      32.437  18.991  23.065  1.00  0.00     0.005 A 
ATOM     19  C   UNL A   1      33.899  18.466  24.894  1.00  0.00     0.025 A 
ATOM     20  C   UNL A   1      32.693  17.733  22.509  1.00  0.00     0.002 A 
ATOM     21  C   UNL A   1      34.151  17.211  24.342  1.00  0.00     0.041 A 
ATOM     22  C   UNL A   1      33.547  16.837  23.151  1.00  0.00     0.020 A 
ATOM     23  Cl  UNL A   1      35.195  16.117  25.167  1.00  0.00    -0.084 Cl
ENDBRANCH  16  17
ENDBRANCH  15  16
ENDBRANCH  10  15
ENDBRANCH   5   6
ENDBRANCH   3   5
ENDBRANCH   2   3
ENDBRANCH   1   2
BRANCH   1  24
ATOM     24  C   UNL A   1      31.533  29.991  25.755  1.00  0.00     0.275 C 
BRANCH  24  25
ATOM     25  O   UNL A   1      32.920  30.330  25.909  1.00  0.00    -0.458 OA
BRANCH  25  26
ATOM     26  C   UNL A   1      33.200  31.222  26.887  1.00  0.00     0.338 C 
ATOM     27  O   UNL A   1      32.515  32.163  27.250  1.00  0.00    -0.246 OA
BRANCH  26  28
ATOM     28  C   UNL A   1      34.524  30.917  27.462  1.00  0.00     0.060 A 
ATOM     29  C   UNL A   1      34.869  29.602  27.776  1.00  0.00     0.016 A 
ATOM     30  C   UNL A   1      35.380  31.962  27.802  1.00  0.00     0.016 A 
ATOM     31  C   UNL A   1      36.014  29.332  28.518  1.00  0.00     0.010 A 
ATOM     32  C   UNL A   1      36.580  31.682  28.462  1.00  0.00     0.010 A 
ATOM     33  C   UNL A   1      36.889  30.369  28.861  1.00  0.00    -0.014 A 
BRANCH  33  34
ATOM     34  C   UNL A   1      38.097  30.085  29.675  1.00  0.00     0.031 A 
ATOM     35  C   UNL A   1      39.182  29.200  29.128  1.00  0.00     0.074 A 
ATOM     36  C   UNL A   1      38.230  30.631  30.899  1.00  0.00     0.049 A 
ATOM     37  N   UNL A   1      40.239  28.712  29.730  1.00  0.00    -0.248 NA
ATOM     38  C   UNL A   1      39.059  28.801  27.716  1.00  0.00     0.031 C 
ATOM     39  C   UNL A   1      37.275  31.545  31.526  1.00  0.00     0.029 A 
ATOM     40  N   UNL A   1      39.226  30.497  31.834  1.00  0.00    -0.354 N 
ATOM     41  C   UNL A   1      40.876  27.916  28.788  1.00  0.00     0.074 A 
ATOM     42  C   UNL A   1      40.087  27.976  27.576  1.00  0.00     0.031 C 
ATOM     43  C   UNL A   1      37.740  31.907  32.732  1.00  0.00     0.029 A 
ATOM     44  C   UNL A   1      38.987  31.196  32.991  1.00  0.00     0.049 A 
ATOM     45  H   UNL A   1      40.033  29.953  31.689  1.00  0.00     0.167 HD
ATOM     46  C   UNL A   1      42.019  27.200  28.925  1.00  0.00     0.037 A 
ATOM     47  C   UNL A   1      39.675  31.231  34.147  1.00  0.00     0.037 A 
ATOM     48  C   UNL A   1      42.825  27.179  30.118  1.00  0.00     0.049 A 
ATOM     49  C   UNL A   1      40.922  30.403  34.283  1.00  0.00     0.074 A 
ATOM     50  C   UNL A   1      44.008  26.498  30.350  1.00  0.00     0.029 A 
ATOM     51  N   UNL A   1      42.537  27.885  31.277  1.00  0.00    -0.354 N 
ATOM     52  N   UNL A   1      41.497  29.622  33.402  1.00  0.00    -0.248 NA
ATOM     53  C   UNL A   1      41.610  30.456  35.580  1.00  0.00     0.031 C 
ATOM     54  C   UNL A   1      44.417  26.764  31.662  1.00  0.00     0.029 A 
ATOM     55  C   UNL A   1      43.513  27.644  32.232  1.00  0.00     0.049 A 
ATOM     56  H   UNL A   1      41.755  28.469  31.403  1.00  0.00     0.167 HD
ATOM     57  C   UNL A   1      42.620  29.103  34.030  1.00  0.00     0.074 A 
ATOM     58  C   UNL A   1      42.657  29.674  35.361  1.00  0.00     0.031 C 
ATOM     59  C   UNL A   1      43.535  28.225  33.550  1.00  0.00     0.037 A 
BRANCH  46  60
ATOM     60  C   UNL A   1      42.451  26.354  27.763  1.00  0.00     0.064 A 
ATOM     61  C   UNL A   1      41.984  25.043  27.586  1.00  0.00     0.173 A 
ATOM     62  C   UNL A   1      43.319  26.878  26.793  1.00  0.00     0.173 A 
ATOM     63  F   UNL A   1      41.164  24.490  28.493  1.00  0.00    -0.203 F 
ATOM     64  C   UNL A   1      42.389  24.281  26.493  1.00  0.00     0.198 A 
ATOM     65  C   UNL A   1      43.700  26.123  25.687  1.00  0.00     0.198 A 
ATOM     66  F   UNL A   1      43.790  28.129  26.912  1.00  0.00    -0.203 F 
ATOM     67  F   UNL A   1      41.964  23.016  26.366  1.00  0.00    -0.200 F 
ATOM     68  C   UNL A   1      43.240  24.824  25.542  1.00  0.00     0.200 A 
ATOM     69  F   UNL A   1      44.512  26.653  24.763  1.00  0.00    -0.200 F 
ATOM     70  F   UNL A   1      43.622  24.091  24.486  1.00  0.00    -0.200 F 
ENDBRANCH  46  60
BRANCH  47  71
ATOM     71  C   UNL A   1      39.181  32.061  35.276  1.00  0.00     0.064 A 
ATOM     72  C   UNL A   1      38.407  31.496  36.299  1.00  0.00     0.173 A 
ATOM     73  C   UNL A   1      39.472  33.430  35.354  1.00  0.00     0.173 A 
ATOM     74  F   UNL A   1      38.081  30.197  36.253  1.00  0.00    -0.203 F 
ATOM     75  C   UNL A   1      37.932  32.276  37.352  1.00  0.00     0.198 A 
ATOM     76  C   UNL A   1      39.022  34.201  36.423  1.00  0.00     0.198 A 
ATOM     77  F   UNL A   1      40.209  34.017  34.400  1.00  0.00    -0.203 F 
ATOM     78  F   UNL A   1      37.159  31.721  38.295  1.00  0.00    -0.200 F 
ATOM     79  C   UNL A   1      38.246  33.624  37.418  1.00  0.00     0.200 A 
ATOM     80  F   UNL A   1      39.339  35.501  36.490  1.00  0.00    -0.200 F 
ATOM     81  F   UNL A   1      37.795  34.371  38.435  1.00  0.00    -0.200 F 
ENDBRANCH  47  71
BRANCH  59  82
ATOM     82  C   UNL A   1      44.668  27.859  34.462  1.00  0.00     0.064 A 
ATOM     83  C   UNL A   1      44.595  26.749  35.316  1.00  0.00     0.173 A 
ATOM     84  C   UNL A   1      45.847  28.620  34.469  1.00  0.00     0.173 A 
ATOM     85  F   UNL A   1      43.481  26.002  35.356  1.00  0.00    -0.203 F 
ATOM     86  C   UNL A   1      45.650  26.430  36.165  1.00  0.00     0.198 A 
ATOM     87  C   UNL A   1      46.911  28.281  35.301  1.00  0.00     0.198 A 
ATOM     88  F   UNL A   1      45.968  29.688  33.667  1.00  0.00    -0.203 F 
ATOM     89  F   UNL A   1      45.538  25.395  37.010  1.00  0.00    -0.200 F 
ATOM     90  C   UNL A   1      46.809  27.194  36.154  1.00  0.00     0.200 A 
ATOM     91  F   UNL A   1      48.034  29.014  35.282  1.00  0.00    -0.200 F 
ATOM     92  F   UNL A   1      47.823  26.886  36.974  1.00  0.00    -0.200 F 
ENDBRANCH  59  82
ENDBRANCH  33  34
ENDBRANCH  26  28
ENDBRANCH  25  26
ENDBRANCH  24  25
ENDBRANCH   1  24
TORSDOF 15
ENDMDL
MODEL 2
REMARK VINA RESULT:     -12.3      4.783     10.041
REMARK SMILES Cc1nc(SCc2cccc(Cl)c2)[nH]c(=O)c1CC(=O)OCCOC(=O)c1ccc(-c2c3nc(c(-c4c(F)c(F)c(F)c(F)c4F)c4ccc([nH]4)c(-c4c(F)c(F)c(F)c(F)c4F)c4nc(c(-c5c(F)c(F)c(F)c(F)c5F)c5ccc2[nH]5)C=C4)C=C3)cc1
REMARK SMILES IDX 22 1 21 2 19 3 20 4 18 5 17 6 1 7 2 8 3 9 4 10 15 11 14 12
REMARK SMILES IDX 16 13 5 15 6 16 7 17 8 18 13 19 9 20 11 21 10 22 12 23 23 24
REMARK SMILES IDX 24 25 25 26 26 27 27 28 28 29 89 30 29 31 88 32 30 33 31 34
REMARK SMILES IDX 32 35 82 36 33 37 87 38 81 39 83 40 34 41 86 42 80 43 79 44
REMARK SMILES IDX 35 46 67 47 47 48 66 49 48 50 51 51 65 52 84 53 49 54 50 55
REMARK SMILES IDX 64 57 85 58 52 59 36 60 37 61 45 62 38 63 39 64 43 65 46 66
REMARK SMILES IDX 40 67 41 68 44 69 42 70 68 71 69 72 77 73 70 74 71 75 75 76
REMARK SMILES IDX 78 77 72 78 73 79 76 80 74 81 53 82 54 83 62 84 55 85 56 86
REMARK SMILES IDX 60 87 63 88 57 89 58 90 61 91 59 92
REMARK H PARENT 14 14 83 45 51 56
REMARK Flexibility Score: inf
ROOT
ATOM      1  C   UNL A   1      35.760  20.300  25.010  1.00  0.00     0.274 C 
ENDROOT
BRANCH   1   2
ATOM      2  O   UNL A   1      34.604  21.126  24.746  1.00  0.00    -0.462 OA
BRANCH   2   3
ATOM      3  C   UNL A   1      33.885  21.481  25.844  1.00  0.00     0.310 C 
ATOM      4  O   UNL A   1      34.339  21.547  26.983  1.00  0.00    -0.252 OA
BRANCH   3   5
ATOM      5  C   UNL A   1      32.413  21.761  25.575  1.00  0.00     0.166 C 
BRANCH   5   6
ATOM      6  C   UNL A   1      32.014  23.185  25.339  1.00  0.00     0.050 A 
ATOM      7  C   UNL A   1      32.254  23.085  22.853  1.00  0.00     0.067 C 
ATOM      8  C   UNL A   1      31.908  23.786  24.140  1.00  0.00     0.050 A 
ATOM      9  N   UNL A   1      31.585  25.110  23.981  1.00  0.00    -0.229 NA
ATOM     10  C   UNL A   1      31.517  25.838  25.041  1.00  0.00     0.168 A 
ATOM     11  C   UNL A   1      31.667  24.012  26.520  1.00  0.00     0.255 A 
ATOM     12  N   UNL A   1      31.561  25.346  26.300  1.00  0.00    -0.301 N 
ATOM     13  O   UNL A   1      31.478  23.515  27.621  1.00  0.00    -0.269 OA
ATOM     14  H   UNL A   1      31.517  25.964  27.065  1.00  0.00     0.172 HD
BRANCH  10  15
ATOM     15  S   UNL A   1      31.404  27.566  24.981  1.00  0.00    -0.083 SA
BRANCH  15  16
ATOM     16  C   UNL A   1      31.744  27.989  26.714  1.00  0.00     0.113 C 
BRANCH  16  17
ATOM     17  C   UNL A   1      32.882  28.963  26.961  1.00  0.00    -0.036 A 
ATOM     18  C   UNL A   1      34.196  28.483  27.079  1.00  0.00     0.005 A 
ATOM     19  C   UNL A   1      32.670  30.330  27.200  1.00  0.00     0.025 A 
ATOM     20  C   UNL A   1      35.247  29.338  27.429  1.00  0.00     0.002 A 
ATOM     21  C   UNL A   1      33.715  31.182  27.552  1.00  0.00     0.041 A 
ATOM     22  C   UNL A   1      35.006  30.690  27.673  1.00  0.00     0.020 A 
ATOM     23  Cl  UNL A   1      33.387  32.843  27.867  1.00  0.00    -0.084 Cl
ENDBRANCH  16  17
ENDBRANCH  15  16
ENDBRANCH  10  15
ENDBRANCH   5   6
ENDBRANCH   3   5
ENDBRANCH   2   3
ENDBRANCH   1   2
BRANCH   1  24
ATOM     24  C   UNL A   1      37.059  21.031  24.671  1.00  0.00     0.275 C 
BRANCH  24  25
ATOM     25  O   UNL A   1      37.546  21.716  25.835  1.00  0.00    -0.458 OA
BRANCH  25  26
ATOM     26  C   UNL A   1      38.856  21.529  26.119  1.00  0.00     0.338 C 
ATOM     27  O   UNL A   1      39.501  20.501  26.000  1.00  0.00    -0.246 OA
BRANCH  26  28
ATOM     28  C   UNL A   1      39.423  22.781  26.653  1.00  0.00     0.060 A 
ATOM     29  C   UNL A   1      38.993  24.015  26.164  1.00  0.00     0.016 A 
ATOM     30  C   UNL A   1      40.477  22.722  27.562  1.00  0.00     0.016 A 
ATOM     31  C   UNL A   1      39.673  25.181  26.496  1.00  0.00     0.010 A 
ATOM     32  C   UNL A   1      41.099  23.904  27.974  1.00  0.00     0.010 A 
ATOM     33  C   UNL A   1      40.729  25.140  27.414  1.00  0.00    -0.014 A 
BRANCH  33  34
ATOM     34  C   UNL A   1      41.472  26.381  27.749  1.00  0.00     0.031 A 
ATOM     35  C   UNL A   1      40.816  27.452  28.573  1.00  0.00     0.074 A 
ATOM     36  C   UNL A   1      42.741  26.542  27.327  1.00  0.00     0.049 A 
ATOM     37  N   UNL A   1      41.235  28.663  28.849  1.00  0.00    -0.248 NA
ATOM     38  C   UNL A   1      39.507  27.123  29.161  1.00  0.00     0.031 C 
ATOM     39  C   UNL A   1      43.510  25.559  26.562  1.00  0.00     0.029 A 
ATOM     40  N   UNL A   1      43.609  27.594  27.484  1.00  0.00    -0.354 N 
ATOM     41  C   UNL A   1      40.225  29.251  29.598  1.00  0.00     0.074 A 
ATOM     42  C   UNL A   1      39.167  28.272  29.729  1.00  0.00     0.031 C 
ATOM     43  C   UNL A   1      44.741  26.044  26.336  1.00  0.00     0.029 A 
ATOM     44  C   UNL A   1      44.823  27.397  26.875  1.00  0.00     0.049 A 
ATOM     45  H   UNL A   1      43.383  28.411  27.985  1.00  0.00     0.167 HD
ATOM     46  C   UNL A   1      40.187  30.498  30.129  1.00  0.00     0.037 A 
ATOM     47  C   UNL A   1      45.873  28.228  26.733  1.00  0.00     0.037 A 
ATOM     48  C   UNL A   1      41.261  31.453  30.035  1.00  0.00     0.049 A 
ATOM     49  C   UNL A   1      45.792  29.615  27.304  1.00  0.00     0.074 A 
ATOM     50  C   UNL A   1      41.325  32.735  30.552  1.00  0.00     0.029 A 
ATOM     51  N   UNL A   1      42.468  31.222  29.390  1.00  0.00    -0.354 N 
ATOM     52  N   UNL A   1      44.819  30.179  27.977  1.00  0.00    -0.248 NA
ATOM     53  C   UNL A   1      46.955  30.487  27.087  1.00  0.00     0.031 C 
ATOM     54  C   UNL A   1      42.556  33.294  30.190  1.00  0.00     0.029 A 
ATOM     55  C   UNL A   1      43.276  32.344  29.485  1.00  0.00     0.049 A 
ATOM     56  H   UNL A   1      42.712  30.387  28.932  1.00  0.00     0.167 HD
ATOM     57  C   UNL A   1      45.255  31.461  28.276  1.00  0.00     0.074 A 
ATOM     58  C   UNL A   1      46.590  31.587  27.729  1.00  0.00     0.031 C 
ATOM     59  C   UNL A   1      44.604  32.449  28.938  1.00  0.00     0.037 A 
BRANCH  46  60
ATOM     60  C   UNL A   1      38.929  30.913  30.834  1.00  0.00     0.064 A 
ATOM     61  C   UNL A   1      38.758  30.732  32.215  1.00  0.00     0.173 A 
ATOM     62  C   UNL A   1      37.894  31.537  30.121  1.00  0.00     0.173 A 
ATOM     63  F   UNL A   1      39.712  30.129  32.940  1.00  0.00    -0.203 F 
ATOM     64  C   UNL A   1      37.587  31.138  32.849  1.00  0.00     0.198 A 
ATOM     65  C   UNL A   1      36.736  31.966  30.764  1.00  0.00     0.198 A 
ATOM     66  F   UNL A   1      38.010  31.739  28.800  1.00  0.00    -0.203 F 
ATOM     67  F   UNL A   1      37.427  30.916  34.162  1.00  0.00    -0.200 F 
ATOM     68  C   UNL A   1      36.581  31.760  32.126  1.00  0.00     0.200 A 
ATOM     69  F   UNL A   1      35.770  32.578  30.065  1.00  0.00    -0.200 F 
ATOM     70  F   UNL A   1      35.458  32.157  32.741  1.00  0.00    -0.200 F 
ENDBRANCH  46  60
BRANCH  47  71
ATOM     71  C   UNL A   1      47.079  27.774  25.995  1.00  0.00     0.064 A 
ATOM     72  C   UNL A   1      47.128  27.827  24.595  1.00  0.00     0.173 A 
ATOM     73  C   UNL A   1      48.204  27.279  26.671  1.00  0.00     0.173 A 
ATOM     74  F   UNL A   1      46.067  28.267  23.904  1.00  0.00    -0.203 F 
ATOM     75  C   UNL A   1      48.254  27.390  23.900  1.00  0.00     0.198 A 
ATOM     76  C   UNL A   1      49.339  26.871  25.976  1.00  0.00     0.198 A 
ATOM     77  F   UNL A   1      48.206  27.208  28.010  1.00  0.00    -0.203 F 
ATOM     78  F   UNL A   1      48.260  27.412  22.560  1.00  0.00    -0.200 F 
ATOM     79  C   UNL A   1      49.360  26.921  24.590  1.00  0.00     0.200 A 
ATOM     80  F   UNL A   1      50.411  26.430  26.647  1.00  0.00    -0.200 F 
ATOM     81  F   UNL A   1      50.445  26.507  23.920  1.00  0.00    -0.200 F 
ENDBRANCH  47  71
BRANCH  59  82
ATOM     82  C   UNL A   1      45.347  33.738  29.133  1.00  0.00     0.064 A 
ATOM     83  C   UNL A   1      46.173  33.948  30.247  1.00  0.00     0.173 A 
ATOM     84  C   UNL A   1      45.241  34.768  28.186  1.00  0.00     0.173 A 
ATOM     85  F   UNL A   1      46.292  32.999  31.187  1.00  0.00    -0.203 F 
ATOM     86  C   UNL A   1      46.845  35.155  30.419  1.00  0.00     0.198 A 
ATOM     87  C   UNL A   1      45.937  35.962  28.350  1.00  0.00     0.198 A 
ATOM     88  F   UNL A   1      44.467  34.613  27.102  1.00  0.00    -0.203 F 
ATOM     89  F   UNL A   1      47.589  35.354  31.517  1.00  0.00    -0.200 F 
ATOM     90  C   UNL A   1      46.730  36.159  29.469  1.00  0.00     0.200 A 
ATOM     91  F   UNL A   1      45.833  36.928  27.425  1.00  0.00    -0.200 F 
ATOM     92  F   UNL A   1      47.377  37.320  29.638  1.00  0.00    -0.200 F 
ENDBRANCH  59  82
ENDBRANCH  33  34
ENDBRANCH  26  28
ENDBRANCH  25  26
ENDBRANCH  24  25
ENDBRANCH   1  24
TORSDOF 15
ENDMDL
MODEL 3
REMARK VINA RESULT:     -12.2      1.992      2.701
REMARK SMILES Cc1nc(SCc2cccc(Cl)c2)[nH]c(=O)c1CC(=O)OCCOC(=O)c1ccc(-c2c3nc(c(-c4c(F)c(F)c(F)c(F)c4F)c4ccc([nH]4)c(-c4c(F)c(F)c(F)c(F)c4F)c4nc(c(-c5c(F)c(F)c(F)c(F)c5F)c5ccc2[nH]5)C=C4)C=C3)cc1
REMARK SMILES IDX 22 1 21 2 19 3 20 4 18 5 17 6 1 7 2 8 3 9 4 10 15 11 14 12
REMARK SMILES IDX 16 13 5 15 6 16 7 17 8 18 13 19 9 20 11 21 10 22 12 23 23 24
REMARK SMILES IDX 24 25 25 26 26 27 27 28 28 29 89 30 29 31 88 32 30 33 31 34
REMARK SMILES IDX 32 35 82 36 33 37 87 38 81 39 83 40 34 41 86 42 80 43 79 44
REMARK SMILES IDX 35 46 67 47 47 48 66 49 48 50 51 51 65 52 84 53 49 54 50 55
REMARK SMILES IDX 64 57 85 58 52 59 36 60 37 61 45 62 38 63 39 64 43 65 46 66
REMARK SMILES IDX 40 67 41 68 44 69 42 70 68 71 69 72 77 73 70 74 71 75 75 76
REMARK SMILES IDX 78 77 72 78 73 79 76 80 74 81 53 82 54 83 62 84 55 85 56 86
REMARK SMILES IDX 60 87 63 88 57 89 58 90 61 91 59 92
REMARK H PARENT 14 14 83 45 51 56
REMARK Flexibility Score: inf
ROOT
ATOM      1  C   UNL A   1      31.416  29.180  25.226  1.00  0.00     0.274 C 
ENDROOT
BRANCH   1   2
ATOM      2  O   UNL A   1      31.618  29.283  23.799  1.00  0.00    -0.462 OA
BRANCH   2   3
ATOM      3  C   UNL A   1      30.595  28.817  23.035  1.00  0.00     0.310 C 
ATOM      4  O   UNL A   1      29.508  29.374  22.911  1.00  0.00    -0.252 OA
BRANCH   3   5
ATOM      5  C   UNL A   1      30.869  27.485  22.351  1.00  0.00     0.166 C 
BRANCH   5   6
ATOM      6  C   UNL A   1      31.541  26.420  23.161  1.00  0.00     0.050 A 
ATOM      7  C   UNL A   1      29.548  25.915  24.583  1.00  0.00     0.067 C 
ATOM      8  C   UNL A   1      30.969  25.690  24.136  1.00  0.00     0.050 A 
ATOM      9  N   UNL A   1      31.643  24.757  24.882  1.00  0.00    -0.229 NA
ATOM     10  C   UNL A   1      32.920  24.682  24.729  1.00  0.00     0.168 A 
ATOM     11  C   UNL A   1      32.956  26.103  22.851  1.00  0.00     0.255 A 
ATOM     12  N   UNL A   1      33.603  25.328  23.757  1.00  0.00    -0.301 N 
ATOM     13  O   UNL A   1      33.500  26.509  21.834  1.00  0.00    -0.269 OA
ATOM     14  H   UNL A   1      34.582  25.235  23.708  1.00  0.00     0.172 HD
BRANCH  10  15
ATOM     15  S   UNL A   1      33.936  23.767  25.793  1.00  0.00    -0.083 SA
BRANCH  15  16
ATOM     16  C   UNL A   1      35.574  24.395  25.322  1.00  0.00     0.113 C 
BRANCH  16  17
ATOM     17  C   UNL A   1      36.761  23.517  25.675  1.00  0.00    -0.036 A 
ATOM     18  C   UNL A   1      37.882  24.082  26.302  1.00  0.00     0.005 A 
ATOM     19  C   UNL A   1      36.845  22.169  25.292  1.00  0.00     0.025 A 
ATOM     20  C   UNL A   1      39.039  23.327  26.527  1.00  0.00     0.002 A 
ATOM     21  C   UNL A   1      37.998  21.417  25.512  1.00  0.00     0.041 A 
ATOM     22  C   UNL A   1      39.100  21.993  26.126  1.00  0.00     0.020 A 
ATOM     23  Cl  UNL A   1      38.054  19.777  24.989  1.00  0.00    -0.084 Cl
ENDBRANCH  16  17
ENDBRANCH  15  16
ENDBRANCH  10  15
ENDBRANCH   5   6
ENDBRANCH   3   5
ENDBRANCH   2   3
ENDBRANCH   1   2
BRANCH   1  24
ATOM     24  C   UNL A   1      31.785  30.481  25.939  1.00  0.00     0.275 C 
BRANCH  24  25
ATOM     25  O   UNL A   1      33.177  30.462  26.288  1.00  0.00    -0.458 OA
BRANCH  25  26
ATOM     26  C   UNL A   1      33.579  31.428  27.148  1.00  0.00     0.338 C 
ATOM     27  O   UNL A   1      33.009  32.475  27.404  1.00  0.00    -0.246 OA
BRANCH  26  28
ATOM     28  C   UNL A   1      34.878  31.049  27.735  1.00  0.00     0.060 A 
ATOM     29  C   UNL A   1      35.117  29.731  28.124  1.00  0.00     0.016 A 
ATOM     30  C   UNL A   1      35.818  32.039  28.011  1.00  0.00     0.016 A 
ATOM     31  C   UNL A   1      36.242  29.412  28.877  1.00  0.00     0.010 A 
ATOM     32  C   UNL A   1      36.997  31.701  28.681  1.00  0.00     0.010 A 
ATOM     33  C   UNL A   1      37.202  30.393  29.156  1.00  0.00    -0.014 A 
BRANCH  33  34
ATOM     34  C   UNL A   1      38.389  30.059  29.982  1.00  0.00     0.031 A 
ATOM     35  C   UNL A   1      39.466  29.169  29.426  1.00  0.00     0.074 A 
ATOM     36  C   UNL A   1      38.511  30.565  31.224  1.00  0.00     0.049 A 
ATOM     37  N   UNL A   1      40.502  28.642  30.030  1.00  0.00    -0.248 NA
ATOM     38  C   UNL A   1      39.360  28.817  28.001  1.00  0.00     0.031 C 
ATOM     39  C   UNL A   1      37.563  31.478  31.863  1.00  0.00     0.029 A 
ATOM     40  N   UNL A   1      39.487  30.382  32.172  1.00  0.00    -0.354 N 
ATOM     41  C   UNL A   1      41.140  27.862  29.076  1.00  0.00     0.074 A 
ATOM     42  C   UNL A   1      40.374  27.976  27.852  1.00  0.00     0.031 C 
ATOM     43  C   UNL A   1      38.014  31.793  33.087  1.00  0.00     0.029 A 
ATOM     44  C   UNL A   1      39.241  31.049  33.345  1.00  0.00     0.049 A 
ATOM     45  H   UNL A   1      40.286  29.825  32.024  1.00  0.00     0.167 HD
ATOM     46  C   UNL A   1      42.266  27.120  29.210  1.00  0.00     0.037 A 
ATOM     47  C   UNL A   1      39.910  31.034  34.514  1.00  0.00     0.037 A 
ATOM     48  C   UNL A   1      43.050  27.045  30.415  1.00  0.00     0.049 A 
ATOM     49  C   UNL A   1      41.137  30.178  34.646  1.00  0.00     0.074 A 
ATOM     50  C   UNL A   1      44.215  26.334  30.646  1.00  0.00     0.029 A 
ATOM     51  N   UNL A   1      42.755  27.721  31.591  1.00  0.00    -0.354 N 
ATOM     52  N   UNL A   1      41.712  29.412  33.751  1.00  0.00    -0.248 NA
ATOM     53  C   UNL A   1      41.803  30.176  35.955  1.00  0.00     0.031 C 
ATOM     54  C   UNL A   1      44.606  26.550  31.973  1.00  0.00     0.029 A 
ATOM     55  C   UNL A   1      43.709  27.431  32.554  1.00  0.00     0.049 A 
ATOM     56  H   UNL A   1      41.983  28.316  31.722  1.00  0.00     0.167 HD
ATOM     57  C   UNL A   1      42.813  28.851  34.381  1.00  0.00     0.074 A 
ATOM     58  C   UNL A   1      42.837  29.380  35.730  1.00  0.00     0.031 C 
ATOM     59  C   UNL A   1      43.719  27.970  33.889  1.00  0.00     0.037 A 
BRANCH  46  60
ATOM     60  C   UNL A   1      42.702  26.301  28.030  1.00  0.00     0.064 A 
ATOM     61  C   UNL A   1      42.262  24.983  27.839  1.00  0.00     0.173 A 
ATOM     62  C   UNL A   1      43.544  26.860  27.057  1.00  0.00     0.173 A 
ATOM     63  F   UNL A   1      41.467  24.397  28.747  1.00  0.00    -0.203 F 
ATOM     64  C   UNL A   1      42.670  24.247  26.729  1.00  0.00     0.198 A 
ATOM     65  C   UNL A   1      43.928  26.130  25.934  1.00  0.00     0.198 A 
ATOM     66  F   UNL A   1      43.988  28.119  27.189  1.00  0.00    -0.203 F 
ATOM     67  F   UNL A   1      42.273  22.974  26.588  1.00  0.00    -0.200 F 
ATOM     68  C   UNL A   1      43.496  24.823  25.776  1.00  0.00     0.200 A 
ATOM     69  F   UNL A   1      44.716  26.693  25.008  1.00  0.00    -0.200 F 
ATOM     70  F   UNL A   1      43.880  24.115  24.703  1.00  0.00    -0.200 F 
ENDBRANCH  46  60
BRANCH  47  71
ATOM     71  C   UNL A   1      39.412  31.839  35.659  1.00  0.00     0.064 A 
ATOM     72  C   UNL A   1      39.875  33.143  35.877  1.00  0.00     0.173 A 
ATOM     73  C   UNL A   1      38.465  31.322  36.555  1.00  0.00     0.173 A 
ATOM     74  F   UNL A   1      40.800  33.670  35.062  1.00  0.00    -0.203 F 
ATOM     75  C   UNL A   1      39.418  33.896  36.957  1.00  0.00     0.198 A 
ATOM     76  C   UNL A   1      37.987  32.086  37.617  1.00  0.00     0.198 A 
ATOM     77  F   UNL A   1      37.990  30.078  36.390  1.00  0.00    -0.203 F 
ATOM     78  F   UNL A   1      39.908  35.125  37.168  1.00  0.00    -0.200 F 
ATOM     79  C   UNL A   1      38.470  33.370  37.821  1.00  0.00     0.200 A 
ATOM     80  F   UNL A   1      37.061  31.579  38.442  1.00  0.00    -0.200 F 
ATOM     81  F   UNL A   1      38.026  34.097  38.856  1.00  0.00    -0.200 F 
ENDBRANCH  47  71
BRANCH  59  82
ATOM     82  C   UNL A   1      44.828  27.553  34.809  1.00  0.00     0.064 A 
ATOM     83  C   UNL A   1      44.703  26.440  35.653  1.00  0.00     0.173 A 
ATOM     84  C   UNL A   1      46.036  28.267  34.834  1.00  0.00     0.173 A 
ATOM     85  F   UNL A   1      43.562  25.736  35.676  1.00  0.00    -0.203 F 
ATOM     86  C   UNL A   1      45.738  26.074  36.509  1.00  0.00     0.198 A 
ATOM     87  C   UNL A   1      47.077  27.881  35.673  1.00  0.00     0.198 A 
ATOM     88  F   UNL A   1      46.206  29.337  34.043  1.00  0.00    -0.203 F 
ATOM     89  F   UNL A   1      45.577  25.037  37.345  1.00  0.00    -0.200 F 
ATOM     90  C   UNL A   1      46.925  26.792  36.516  1.00  0.00     0.200 A 
ATOM     91  F   UNL A   1      48.227  28.570  35.671  1.00  0.00    -0.200 F 
ATOM     92  F   UNL A   1      47.918  26.438  37.343  1.00  0.00    -0.200 F 
ENDBRANCH  59  82
ENDBRANCH  33  34
ENDBRANCH  26  28
ENDBRANCH  25  26
ENDBRANCH  24  25
ENDBRANCH   1  24
TORSDOF 15
ENDMDL
