MODEL 1
REMARK VINA RESULT:     -13.5      0.000      0.000
REMARK SMILES O=C(OCCOC(=O)[C@@H]1CCCN1S(=O)(=O)c1ccc2[nH]c(=O)c(=O)[nH]c2c1)c1ccc(-c2c3nc(c(-c4c(F)c(F)c(F)c(F)c4F)c4ccc([nH]4)c(-c4c(F)c(F)c(F)c(F)c4F)c4nc(c(-c5c(F)c(F)c(F)c(F)c5F)c5ccc2[nH]5)C=C4)C=C3)cc1
REMARK SMILES IDX 4 1 3 2 2 3 1 4 29 5 30 6 91 7 31 8 90 9 32 10 33 11 34 12
REMARK SMILES IDX 84 13 35 14 89 15 83 16 85 17 36 18 88 19 82 20 81 21 37 23
REMARK SMILES IDX 69 24 49 25 68 26 50 27 53 28 67 29 86 30 51 31 52 32 66 34
REMARK SMILES IDX 87 35 54 36 38 37 39 38 47 39 40 40 41 41 45 42 48 43 42 44
REMARK SMILES IDX 43 45 46 46 44 47 70 48 71 49 79 50 72 51 73 52 77 53 80 54
REMARK SMILES IDX 74 55 75 56 78 57 76 58 55 59 56 60 64 61 57 62 58 63 62 64
REMARK SMILES IDX 65 65 59 66 60 67 63 68 61 69 5 70 6 71 7 72 8 73 9 74 10 75
REMARK SMILES IDX 13 76 11 77 12 78 14 79 15 80 16 81 17 82 18 83 28 84 19 85
REMARK SMILES IDX 27 86 20 87 26 88 21 89 24 90 22 92 25 94 23 95
REMARK H PARENT 85 22 53 33 26 91 21 93
REMARK Flexibility Score: inf
ROOT
ATOM      1  C   UNL A   1      38.753  19.967  25.083  1.00  0.00     0.275 C 
ENDROOT
BRANCH   1   2
ATOM      2  O   UNL A   1      39.747  19.204  25.781  1.00  0.00    -0.458 OA
BRANCH   2   3
ATOM      3  C   UNL A   1      41.048  19.502  25.977  1.00  0.00     0.338 C 
ATOM      4  O   UNL A   1      41.882  18.625  25.752  1.00  0.00    -0.246 OA
BRANCH   3   5
ATOM      5  C   UNL A   1      41.557  20.836  26.452  1.00  0.00     0.060 A 
ATOM      6  C   UNL A   1      41.755  21.235  27.781  1.00  0.00     0.016 A 
ATOM      7  C   UNL A   1      41.982  21.717  25.439  1.00  0.00     0.016 A 
ATOM      8  C   UNL A   1      42.439  22.411  28.097  1.00  0.00     0.010 A 
ATOM      9  C   UNL A   1      42.653  22.903  25.746  1.00  0.00     0.010 A 
ATOM     10  C   UNL A   1      42.894  23.247  27.082  1.00  0.00    -0.014 A 
BRANCH  10  11
ATOM     11  C   UNL A   1      43.438  24.577  27.412  1.00  0.00     0.031 A 
ATOM     12  C   UNL A   1      42.466  25.619  27.853  1.00  0.00     0.074 A 
ATOM     13  C   UNL A   1      44.754  24.841  27.346  1.00  0.00     0.049 A 
ATOM     14  N   UNL A   1      42.676  26.877  28.117  1.00  0.00    -0.248 NA
ATOM     15  C   UNL A   1      41.080  25.171  28.076  1.00  0.00     0.031 C 
ATOM     16  C   UNL A   1      45.796  23.851  27.120  1.00  0.00     0.029 A 
ATOM     17  N   UNL A   1      45.442  26.025  27.420  1.00  0.00    -0.354 N 
ATOM     18  C   UNL A   1      41.463  27.360  28.575  1.00  0.00     0.074 A 
ATOM     19  C   UNL A   1      40.504  26.282  28.505  1.00  0.00     0.031 C 
ATOM     20  C   UNL A   1      46.973  24.472  26.923  1.00  0.00     0.029 A 
ATOM     21  C   UNL A   1      46.762  25.906  27.045  1.00  0.00     0.049 A 
ATOM     22  H   UNL A   1      45.034  26.872  27.710  1.00  0.00     0.167 HD
ATOM     23  C   UNL A   1      41.194  28.599  29.039  1.00  0.00     0.037 A 
ATOM     24  C   UNL A   1      47.677  26.862  26.802  1.00  0.00     0.037 A 
ATOM     25  C   UNL A   1      42.162  29.657  29.067  1.00  0.00     0.049 A 
ATOM     26  C   UNL A   1      47.292  28.283  27.117  1.00  0.00     0.074 A 
ATOM     27  C   UNL A   1      42.006  30.957  29.504  1.00  0.00     0.029 A 
ATOM     28  N   UNL A   1      43.469  29.535  28.610  1.00  0.00    -0.354 N 
ATOM     29  N   UNL A   1      46.154  28.737  27.588  1.00  0.00    -0.248 NA
ATOM     30  C   UNL A   1      48.315  29.315  26.919  1.00  0.00     0.031 C 
ATOM     31  C   UNL A   1      43.196  31.643  29.242  1.00  0.00     0.029 A 
ATOM     32  C   UNL A   1      44.116  30.755  28.703  1.00  0.00     0.049 A 
ATOM     33  H   UNL A   1      43.875  28.704  28.273  1.00  0.00     0.167 HD
ATOM     34  C   UNL A   1      46.343  30.093  27.802  1.00  0.00     0.074 A 
ATOM     35  C   UNL A   1      47.706  30.388  27.405  1.00  0.00     0.031 C 
ATOM     36  C   UNL A   1      45.475  31.009  28.298  1.00  0.00     0.037 A 
BRANCH  23  37
ATOM     37  C   UNL A   1      39.797  28.868  29.497  1.00  0.00     0.064 A 
ATOM     38  C   UNL A   1      39.405  28.675  30.830  1.00  0.00     0.173 A 
ATOM     39  C   UNL A   1      38.835  29.322  28.585  1.00  0.00     0.173 A 
ATOM     40  F   UNL A   1      40.281  28.203  31.731  1.00  0.00    -0.203 F 
ATOM     41  C   UNL A   1      38.095  28.920  31.232  1.00  0.00     0.198 A 
ATOM     42  C   UNL A   1      37.533  29.591  28.996  1.00  0.00     0.198 A 
ATOM     43  F   UNL A   1      39.158  29.501  27.296  1.00  0.00    -0.203 F 
ATOM     44  F   UNL A   1      37.729  28.686  32.500  1.00  0.00    -0.200 F 
ATOM     45  C   UNL A   1      37.163  29.386  30.316  1.00  0.00     0.200 A 
ATOM     46  F   UNL A   1      36.634  30.039  28.108  1.00  0.00    -0.200 F 
ATOM     47  F   UNL A   1      35.903  29.628  30.704  1.00  0.00    -0.200 F 
ENDBRANCH  23  37
BRANCH  24  48
ATOM     48  C   UNL A   1      49.011  26.529  26.229  1.00  0.00     0.064 A 
ATOM     49  C   UNL A   1      50.069  26.094  27.037  1.00  0.00     0.173 A 
ATOM     50  C   UNL A   1      49.276  26.716  24.862  1.00  0.00     0.173 A 
ATOM     51  F   UNL A   1      49.876  25.916  28.353  1.00  0.00    -0.203 F 
ATOM     52  C   UNL A   1      51.349  25.905  26.515  1.00  0.00     0.198 A 
ATOM     53  C   UNL A   1      50.550  26.503  24.336  1.00  0.00     0.198 A 
ATOM     54  F   UNL A   1      48.302  27.129  24.037  1.00  0.00    -0.203 F 
ATOM     55  F   UNL A   1      52.357  25.561  27.328  1.00  0.00    -0.200 F 
ATOM     56  C   UNL A   1      51.590  26.112  25.165  1.00  0.00     0.200 A 
ATOM     57  F   UNL A   1      50.776  26.702  23.030  1.00  0.00    -0.200 F 
ATOM     58  F   UNL A   1      52.825  25.957  24.670  1.00  0.00    -0.200 F 
ENDBRANCH  24  48
BRANCH  36  59
ATOM     59  C   UNL A   1      45.988  32.408  28.461  1.00  0.00     0.064 A 
ATOM     60  C   UNL A   1      45.844  33.364  27.446  1.00  0.00     0.173 A 
ATOM     61  C   UNL A   1      46.581  32.806  29.668  1.00  0.00     0.173 A 
ATOM     62  F   UNL A   1      45.299  33.022  26.269  1.00  0.00    -0.203 F 
ATOM     63  C   UNL A   1      46.298  34.666  27.626  1.00  0.00     0.198 A 
ATOM     64  C   UNL A   1      46.998  34.118  29.858  1.00  0.00     0.198 A 
ATOM     65  F   UNL A   1      46.734  31.927  30.670  1.00  0.00    -0.203 F 
ATOM     66  F   UNL A   1      46.198  35.551  26.625  1.00  0.00    -0.200 F 
ATOM     67  C   UNL A   1      46.863  35.045  28.835  1.00  0.00     0.200 A 
ATOM     68  F   UNL A   1      47.525  34.488  31.033  1.00  0.00    -0.200 F 
ATOM     69  F   UNL A   1      47.284  36.304  29.012  1.00  0.00    -0.200 F 
ENDBRANCH  36  59
ENDBRANCH  10  11
ENDBRANCH   3   5
ENDBRANCH   2   3
ENDBRANCH   1   2
BRANCH   1  70
ATOM     70  C   UNL A   1      38.401  21.299  25.751  1.00  0.00     0.274 C 
BRANCH  70  71
ATOM     71  O   UNL A   1      36.986  21.571  25.760  1.00  0.00    -0.461 OA
BRANCH  71  72
ATOM     72  C   UNL A   1      36.576  22.875  25.861  1.00  0.00     0.324 C 
ATOM     73  O   UNL A   1      37.267  23.840  25.568  1.00  0.00    -0.250 OA
BRANCH  72  74
ATOM     74  C   UNL A   1      35.144  22.936  26.340  1.00  0.00     0.183 C 
ATOM     75  C   UNL A   1      34.743  21.757  27.222  1.00  0.00     0.034 C 
ATOM     76  N   UNL A   1      33.966  23.154  25.444  1.00  0.00    -0.184 NA
ATOM     77  C   UNL A   1      33.304  22.094  27.549  1.00  0.00     0.019 C 
ATOM     78  C   UNL A   1      32.766  22.696  26.259  1.00  0.00     0.103 C 
BRANCH  76  79
ATOM     79  S   UNL A   1      33.939  22.501  23.864  1.00  0.00     0.243 S 
ATOM     80  O   UNL A   1      32.844  23.135  23.157  1.00  0.00    -0.207 OA
ATOM     81  O   UNL A   1      35.290  22.585  23.356  1.00  0.00    -0.207 OA
BRANCH  79  82
ATOM     82  C   UNL A   1      33.565  20.764  24.003  1.00  0.00     0.084 A 
ATOM     83  C   UNL A   1      32.369  20.283  23.458  1.00  0.00     0.024 A 
ATOM     84  C   UNL A   1      34.519  19.866  24.506  1.00  0.00     0.050 A 
ATOM     85  C   UNL A   1      32.031  18.936  23.590  1.00  0.00     0.030 A 
ATOM     86  C   UNL A   1      34.196  18.507  24.583  1.00  0.00     0.066 A 
ATOM     87  C   UNL A   1      32.924  18.062  24.197  1.00  0.00     0.065 A 
ATOM     88  N   UNL A   1      35.143  17.571  25.013  1.00  0.00    -0.316 N 
ATOM     89  N   UNL A   1      32.534  16.747  24.454  1.00  0.00    -0.316 N 
ATOM     90  C   UNL A   1      34.863  16.224  25.148  1.00  0.00     0.314 A 
ATOM     91  H   UNL A   1      36.051  17.885  25.227  1.00  0.00     0.170 HD
ATOM     92  C   UNL A   1      33.377  15.811  25.008  1.00  0.00     0.314 A 
ATOM     93  H   UNL A   1      31.614  16.477  24.230  1.00  0.00     0.170 HD
ATOM     94  O   UNL A   1      35.735  15.397  25.376  1.00  0.00    -0.263 OA
ATOM     95  O   UNL A   1      32.973  14.717  25.375  1.00  0.00    -0.263 OA
ENDBRANCH  79  82
ENDBRANCH  76  79
ENDBRANCH  72  74
ENDBRANCH  71  72
ENDBRANCH  70  71
ENDBRANCH   1  70
TORSDOF 13
ENDMDL
MODEL 2
REMARK VINA RESULT:     -13.5      0.070      1.116
REMARK SMILES O=C(OCCOC(=O)[C@@H]1CCCN1S(=O)(=O)c1ccc2[nH]c(=O)c(=O)[nH]c2c1)c1ccc(-c2c3nc(c(-c4c(F)c(F)c(F)c(F)c4F)c4ccc([nH]4)c(-c4c(F)c(F)c(F)c(F)c4F)c4nc(c(-c5c(F)c(F)c(F)c(F)c5F)c5ccc2[nH]5)C=C4)C=C3)cc1
REMARK SMILES IDX 4 1 3 2 2 3 1 4 29 5 30 6 91 7 31 8 90 9 32 10 33 11 34 12
REMARK SMILES IDX 84 13 35 14 89 15 83 16 85 17 36 18 88 19 82 20 81 21 37 23
REMARK SMILES IDX 69 24 49 25 68 26 50 27 53 28 67 29 86 30 51 31 52 32 66 34
REMARK SMILES IDX 87 35 54 36 38 37 39 38 47 39 40 40 41 41 45 42 48 43 42 44
REMARK SMILES IDX 43 45 46 46 44 47 70 48 71 49 79 50 72 51 73 52 77 53 80 54
REMARK SMILES IDX 74 55 75 56 78 57 76 58 55 59 56 60 64 61 57 62 58 63 62 64
REMARK SMILES IDX 65 65 59 66 60 67 63 68 61 69 5 70 6 71 7 72 8 73 9 74 10 75
REMARK SMILES IDX 13 76 11 77 12 78 14 79 15 80 16 81 17 82 18 83 28 84 19 85
REMARK SMILES IDX 27 86 20 87 26 88 21 89 24 90 22 92 25 94 23 95
REMARK H PARENT 85 22 53 33 26 91 21 93
REMARK Flexibility Score: inf
ROOT
ATOM      1  C   UNL A   1      38.768  19.970  25.062  1.00  0.00     0.275 C 
ENDROOT
BRANCH   1   2
ATOM      2  O   UNL A   1      39.759  19.197  25.753  1.00  0.00    -0.458 OA
BRANCH   2   3
ATOM      3  C   UNL A   1      41.058  19.493  25.962  1.00  0.00     0.338 C 
ATOM      4  O   UNL A   1      41.892  18.612  25.751  1.00  0.00    -0.246 OA
BRANCH   3   5
ATOM      5  C   UNL A   1      41.566  20.828  26.435  1.00  0.00     0.060 A 
ATOM      6  C   UNL A   1      41.770  21.227  27.763  1.00  0.00     0.016 A 
ATOM      7  C   UNL A   1      41.983  21.711  25.421  1.00  0.00     0.016 A 
ATOM      8  C   UNL A   1      42.451  22.405  28.076  1.00  0.00     0.010 A 
ATOM      9  C   UNL A   1      42.652  22.898  25.724  1.00  0.00     0.010 A 
ATOM     10  C   UNL A   1      42.899  23.243  27.059  1.00  0.00    -0.014 A 
BRANCH  10  11
ATOM     11  C   UNL A   1      43.441  24.574  27.387  1.00  0.00     0.031 A 
ATOM     12  C   UNL A   1      42.468  25.614  27.829  1.00  0.00     0.074 A 
ATOM     13  C   UNL A   1      44.756  24.841  27.317  1.00  0.00     0.049 A 
ATOM     14  N   UNL A   1      42.675  26.873  28.092  1.00  0.00    -0.248 NA
ATOM     15  C   UNL A   1      41.083  25.163  28.057  1.00  0.00     0.031 C 
ATOM     16  C   UNL A   1      45.800  23.854  27.088  1.00  0.00     0.029 A 
ATOM     17  N   UNL A   1      45.441  26.027  27.388  1.00  0.00    -0.354 N 
ATOM     18  C   UNL A   1      41.462  27.354  28.553  1.00  0.00     0.074 A 
ATOM     19  C   UNL A   1      40.506  26.273  28.486  1.00  0.00     0.031 C 
ATOM     20  C   UNL A   1      46.974  24.477  26.888  1.00  0.00     0.029 A 
ATOM     21  C   UNL A   1      46.761  25.911  27.010  1.00  0.00     0.049 A 
ATOM     22  H   UNL A   1      45.032  26.873  27.679  1.00  0.00     0.167 HD
ATOM     23  C   UNL A   1      41.191  28.592  29.017  1.00  0.00     0.037 A 
ATOM     24  C   UNL A   1      47.673  26.869  26.764  1.00  0.00     0.037 A 
ATOM     25  C   UNL A   1      42.157  29.652  29.041  1.00  0.00     0.049 A 
ATOM     26  C   UNL A   1      47.285  28.289  27.079  1.00  0.00     0.074 A 
ATOM     27  C   UNL A   1      41.999  30.952  29.478  1.00  0.00     0.029 A 
ATOM     28  N   UNL A   1      43.463  29.533  28.582  1.00  0.00    -0.354 N 
ATOM     29  N   UNL A   1      46.148  28.741  27.553  1.00  0.00    -0.248 NA
ATOM     30  C   UNL A   1      48.306  29.324  26.878  1.00  0.00     0.031 C 
ATOM     31  C   UNL A   1      43.187  31.641  29.212  1.00  0.00     0.029 A 
ATOM     32  C   UNL A   1      44.107  30.754  28.672  1.00  0.00     0.049 A 
ATOM     33  H   UNL A   1      43.870  28.703  28.243  1.00  0.00     0.167 HD
ATOM     34  C   UNL A   1      46.333  30.097  27.765  1.00  0.00     0.074 A 
ATOM     35  C   UNL A   1      47.695  30.395  27.364  1.00  0.00     0.031 C 
ATOM     36  C   UNL A   1      45.465  31.012  28.263  1.00  0.00     0.037 A 
BRANCH  23  37
ATOM     37  C   UNL A   1      39.795  28.858  29.479  1.00  0.00     0.064 A 
ATOM     38  C   UNL A   1      39.408  28.670  30.814  1.00  0.00     0.173 A 
ATOM     39  C   UNL A   1      38.828  29.305  28.568  1.00  0.00     0.173 A 
ATOM     40  F   UNL A   1      40.289  28.205  31.714  1.00  0.00    -0.203 F 
ATOM     41  C   UNL A   1      38.098  28.911  31.219  1.00  0.00     0.198 A 
ATOM     42  C   UNL A   1      37.527  29.571  28.982  1.00  0.00     0.198 A 
ATOM     43  F   UNL A   1      39.146  29.479  27.277  1.00  0.00    -0.203 F 
ATOM     44  F   UNL A   1      37.738  28.682  32.489  1.00  0.00    -0.200 F 
ATOM     45  C   UNL A   1      37.162  29.371  30.304  1.00  0.00     0.200 A 
ATOM     46  F   UNL A   1      36.624  30.012  28.095  1.00  0.00    -0.200 F 
ATOM     47  F   UNL A   1      35.903  29.609  30.695  1.00  0.00    -0.200 F 
ENDBRANCH  23  37
BRANCH  24  48
ATOM     48  C   UNL A   1      49.006  26.539  26.188  1.00  0.00     0.064 A 
ATOM     49  C   UNL A   1      50.067  26.105  26.993  1.00  0.00     0.173 A 
ATOM     50  C   UNL A   1      49.268  26.726  24.820  1.00  0.00     0.173 A 
ATOM     51  F   UNL A   1      49.877  25.926  28.309  1.00  0.00    -0.203 F 
ATOM     52  C   UNL A   1      51.346  25.919  26.468  1.00  0.00     0.198 A 
ATOM     53  C   UNL A   1      50.541  26.516  24.291  1.00  0.00     0.198 A 
ATOM     54  F   UNL A   1      48.291  27.138  23.998  1.00  0.00    -0.203 F 
ATOM     55  F   UNL A   1      52.356  25.576  27.279  1.00  0.00    -0.200 F 
ATOM     56  C   UNL A   1      51.583  26.126  25.118  1.00  0.00     0.200 A 
ATOM     57  F   UNL A   1      50.763  26.716  22.984  1.00  0.00    -0.200 F 
ATOM     58  F   UNL A   1      52.817  25.974  24.620  1.00  0.00    -0.200 F 
ENDBRANCH  24  48
BRANCH  36  59
ATOM     59  C   UNL A   1      45.975  32.411  28.424  1.00  0.00     0.064 A 
ATOM     60  C   UNL A   1      46.640  32.820  29.588  1.00  0.00     0.173 A 
ATOM     61  C   UNL A   1      45.841  33.337  27.378  1.00  0.00     0.173 A 
ATOM     62  F   UNL A   1      46.776  31.974  30.620  1.00  0.00    -0.203 F 
ATOM     63  C   UNL A   1      47.134  34.114  29.708  1.00  0.00     0.198 A 
ATOM     64  C   UNL A   1      46.370  34.617  27.486  1.00  0.00     0.198 A 
ATOM     65  F   UNL A   1      45.216  32.990  26.242  1.00  0.00    -0.203 F 
ATOM     66  F   UNL A   1      47.721  34.500  30.848  1.00  0.00    -0.200 F 
ATOM     67  C   UNL A   1      47.009  35.007  28.653  1.00  0.00     0.200 A 
ATOM     68  F   UNL A   1      46.266  35.472  26.460  1.00  0.00    -0.200 F 
ATOM     69  F   UNL A   1      47.501  36.248  28.765  1.00  0.00    -0.200 F 
ENDBRANCH  36  59
ENDBRANCH  10  11
ENDBRANCH   3   5
ENDBRANCH   2   3
ENDBRANCH   1   2
BRANCH   1  70
ATOM     70  C   UNL A   1      38.410  21.290  25.750  1.00  0.00     0.274 C 
BRANCH  70  71
ATOM     71  O   UNL A   1      36.994  21.561  25.752  1.00  0.00    -0.461 OA
BRANCH  71  72
ATOM     72  C   UNL A   1      36.583  22.864  25.848  1.00  0.00     0.324 C 
ATOM     73  O   UNL A   1      37.269  23.829  25.544  1.00  0.00    -0.250 OA
BRANCH  72  74
ATOM     74  C   UNL A   1      35.153  22.925  26.336  1.00  0.00     0.183 C 
ATOM     75  C   UNL A   1      34.757  21.745  27.218  1.00  0.00     0.034 C 
ATOM     76  N   UNL A   1      33.970  23.145  25.448  1.00  0.00    -0.184 NA
ATOM     77  C   UNL A   1      33.321  22.082  27.555  1.00  0.00     0.019 C 
ATOM     78  C   UNL A   1      32.774  22.687  26.269  1.00  0.00     0.103 C 
BRANCH  76  79
ATOM     79  S   UNL A   1      33.932  22.495  23.867  1.00  0.00     0.243 S 
ATOM     80  O   UNL A   1      32.833  23.131  23.168  1.00  0.00    -0.207 OA
ATOM     81  O   UNL A   1      35.280  22.579  23.351  1.00  0.00    -0.207 OA
BRANCH  79  82
ATOM     82  C   UNL A   1      33.559  20.758  24.005  1.00  0.00     0.084 A 
ATOM     83  C   UNL A   1      32.363  20.277  23.461  1.00  0.00     0.024 A 
ATOM     84  C   UNL A   1      34.513  19.859  24.508  1.00  0.00     0.050 A 
ATOM     85  C   UNL A   1      32.025  18.931  23.592  1.00  0.00     0.030 A 
ATOM     86  C   UNL A   1      34.190  18.501  24.584  1.00  0.00     0.066 A 
ATOM     87  C   UNL A   1      32.918  18.056  24.198  1.00  0.00     0.065 A 
ATOM     88  N   UNL A   1      35.138  17.564  25.013  1.00  0.00    -0.316 N 
ATOM     89  N   UNL A   1      32.528  16.741  24.456  1.00  0.00    -0.316 N 
ATOM     90  C   UNL A   1      34.858  16.217  25.148  1.00  0.00     0.314 A 
ATOM     91  H   UNL A   1      36.045  17.879  25.227  1.00  0.00     0.170 HD
ATOM     92  C   UNL A   1      33.372  15.804  25.009  1.00  0.00     0.314 A 
ATOM     93  H   UNL A   1      31.608  16.471  24.232  1.00  0.00     0.170 HD
ATOM     94  O   UNL A   1      35.729  15.390  25.375  1.00  0.00    -0.263 OA
ATOM     95  O   UNL A   1      32.968  14.710  25.375  1.00  0.00    -0.263 OA
ENDBRANCH  79  82
ENDBRANCH  76  79
ENDBRANCH  72  74
ENDBRANCH  71  72
ENDBRANCH  70  71
ENDBRANCH   1  70
TORSDOF 13
ENDMDL
MODEL 3
REMARK VINA RESULT:     -13.4      6.644     11.826
REMARK SMILES O=C(OCCOC(=O)[C@@H]1CCCN1S(=O)(=O)c1ccc2[nH]c(=O)c(=O)[nH]c2c1)c1ccc(-c2c3nc(c(-c4c(F)c(F)c(F)c(F)c4F)c4ccc([nH]4)c(-c4c(F)c(F)c(F)c(F)c4F)c4nc(c(-c5c(F)c(F)c(F)c(F)c5F)c5ccc2[nH]5)C=C4)C=C3)cc1
REMARK SMILES IDX 4 1 3 2 2 3 1 4 29 5 30 6 91 7 31 8 90 9 32 10 33 11 34 12
REMARK SMILES IDX 84 13 35 14 89 15 83 16 85 17 36 18 88 19 82 20 81 21 37 23
REMARK SMILES IDX 69 24 49 25 68 26 50 27 53 28 67 29 86 30 51 31 52 32 66 34
REMARK SMILES IDX 87 35 54 36 38 37 39 38 47 39 40 40 41 41 45 42 48 43 42 44
REMARK SMILES IDX 43 45 46 46 44 47 70 48 71 49 79 50 72 51 73 52 77 53 80 54
REMARK SMILES IDX 74 55 75 56 78 57 76 58 55 59 56 60 64 61 57 62 58 63 62 64
REMARK SMILES IDX 65 65 59 66 60 67 63 68 61 69 5 70 6 71 7 72 8 73 9 74 10 75
REMARK SMILES IDX 13 76 11 77 12 78 14 79 15 80 16 81 17 82 18 83 28 84 19 85
REMARK SMILES IDX 27 86 20 87 26 88 21 89 24 90 22 92 25 94 23 95
REMARK H PARENT 85 22 53 33 26 91 21 93
REMARK Flexibility Score: inf
ROOT
ATOM      1  C   UNL A   1      32.039  32.529  26.539  1.00  0.00     0.275 C 
ENDROOT
BRANCH   1   2
ATOM      2  O   UNL A   1      31.900  33.370  27.692  1.00  0.00    -0.458 OA
BRANCH   2   3
ATOM      3  C   UNL A   1      32.824  34.169  28.264  1.00  0.00     0.338 C 
ATOM      4  O   UNL A   1      32.585  35.375  28.328  1.00  0.00    -0.246 OA
BRANCH   3   5
ATOM      5  C   UNL A   1      34.131  33.691  28.833  1.00  0.00     0.060 A 
ATOM      6  C   UNL A   1      35.410  34.176  28.526  1.00  0.00     0.016 A 
ATOM      7  C   UNL A   1      34.030  32.738  29.865  1.00  0.00     0.016 A 
ATOM      8  C   UNL A   1      36.530  33.812  29.276  1.00  0.00     0.010 A 
ATOM      9  C   UNL A   1      35.147  32.356  30.611  1.00  0.00     0.010 A 
ATOM     10  C   UNL A   1      36.403  32.905  30.323  1.00  0.00    -0.014 A 
BRANCH  10  11
ATOM     11  C   UNL A   1      37.608  32.371  30.985  1.00  0.00     0.031 A 
ATOM     12  C   UNL A   1      38.278  31.205  30.341  1.00  0.00     0.074 A 
ATOM     13  C   UNL A   1      38.103  32.922  32.107  1.00  0.00     0.049 A 
ATOM     14  N   UNL A   1      39.292  30.505  30.764  1.00  0.00    -0.248 NA
ATOM     15  C   UNL A   1      37.769  30.805  29.017  1.00  0.00     0.031 C 
ATOM     16  C   UNL A   1      37.644  34.168  32.701  1.00  0.00     0.029 A 
ATOM     17  N   UNL A   1      39.070  32.486  32.975  1.00  0.00    -0.354 N 
ATOM     18  C   UNL A   1      39.568  29.612  29.743  1.00  0.00     0.074 A 
ATOM     19  C   UNL A   1      38.587  29.814  28.703  1.00  0.00     0.031 C 
ATOM     20  C   UNL A   1      38.215  34.331  33.907  1.00  0.00     0.029 A 
ATOM     21  C   UNL A   1      39.107  33.207  34.148  1.00  0.00     0.049 A 
ATOM     22  H   UNL A   1      39.677  31.736  32.780  1.00  0.00     0.167 HD
ATOM     23  C   UNL A   1      40.579  28.720  29.684  1.00  0.00     0.037 A 
ATOM     24  C   UNL A   1      39.769  32.955  35.293  1.00  0.00     0.037 A 
ATOM     25  C   UNL A   1      41.520  28.523  30.750  1.00  0.00     0.049 A 
ATOM     26  C   UNL A   1      40.745  31.809  35.288  1.00  0.00     0.074 A 
ATOM     27  C   UNL A   1      42.580  27.641  30.811  1.00  0.00     0.029 A 
ATOM     28  N   UNL A   1      41.489  29.208  31.958  1.00  0.00    -0.354 N 
ATOM     29  N   UNL A   1      41.035  30.986  34.309  1.00  0.00    -0.248 NA
ATOM     30  C   UNL A   1      41.518  31.582  36.514  1.00  0.00     0.031 C 
ATOM     31  C   UNL A   1      43.147  27.741  32.086  1.00  0.00     0.029 A 
ATOM     32  C   UNL A   1      42.481  28.730  32.796  1.00  0.00     0.049 A 
ATOM     33  H   UNL A   1      40.857  29.929  32.184  1.00  0.00     0.167 HD
ATOM     34  C   UNL A   1      42.065  30.184  34.775  1.00  0.00     0.074 A 
ATOM     35  C   UNL A   1      42.346  30.620  36.130  1.00  0.00     0.031 C 
ATOM     36  C   UNL A   1      42.731  29.190  34.138  1.00  0.00     0.037 A 
BRANCH  23  37
ATOM     37  C   UNL A   1      40.673  27.875  28.455  1.00  0.00     0.064 A 
ATOM     38  C   UNL A   1      40.010  26.644  28.349  1.00  0.00     0.173 A 
ATOM     39  C   UNL A   1      41.443  28.306  27.366  1.00  0.00     0.173 A 
ATOM     40  F   UNL A   1      39.293  26.171  29.381  1.00  0.00    -0.203 F 
ATOM     41  C   UNL A   1      40.123  25.868  27.199  1.00  0.00     0.198 A 
ATOM     42  C   UNL A   1      41.533  27.540  26.208  1.00  0.00     0.198 A 
ATOM     43  F   UNL A   1      42.112  29.467  27.429  1.00  0.00    -0.203 F 
ATOM     44  F   UNL A   1      39.518  24.673  27.135  1.00  0.00    -0.200 F 
ATOM     45  C   UNL A   1      40.877  26.322  26.126  1.00  0.00     0.200 A 
ATOM     46  F   UNL A   1      42.263  27.980  25.173  1.00  0.00    -0.200 F 
ATOM     47  F   UNL A   1      40.980  25.578  25.016  1.00  0.00    -0.200 F 
ENDBRANCH  23  37
BRANCH  24  48
ATOM     48  C   UNL A   1      39.533  33.768  36.518  1.00  0.00     0.064 A 
ATOM     49  C   UNL A   1      40.210  34.975  36.740  1.00  0.00     0.173 A 
ATOM     50  C   UNL A   1      38.677  33.312  37.534  1.00  0.00     0.173 A 
ATOM     51  F   UNL A   1      41.053  35.449  35.811  1.00  0.00    -0.203 F 
ATOM     52  C   UNL A   1      40.079  35.667  37.944  1.00  0.00     0.198 A 
ATOM     53  C   UNL A   1      38.528  34.017  38.728  1.00  0.00     0.198 A 
ATOM     54  F   UNL A   1      38.000  32.164  37.378  1.00  0.00    -0.203 F 
ATOM     55  F   UNL A   1      40.798  36.779  38.155  1.00  0.00    -0.200 F 
ATOM     56  C   UNL A   1      39.241  35.187  38.938  1.00  0.00     0.200 A 
ATOM     57  F   UNL A   1      37.714  33.549  39.684  1.00  0.00    -0.200 F 
ATOM     58  F   UNL A   1      39.138  35.838  40.105  1.00  0.00    -0.200 F 
ENDBRANCH  24  48
BRANCH  36  59
ATOM     59  C   UNL A   1      43.843  28.528  34.893  1.00  0.00     0.064 A 
ATOM     60  C   UNL A   1      43.626  27.369  35.651  1.00  0.00     0.173 A 
ATOM     61  C   UNL A   1      45.149  29.032  34.812  1.00  0.00     0.173 A 
ATOM     62  F   UNL A   1      42.390  26.861  35.770  1.00  0.00    -0.203 F 
ATOM     63  C   UNL A   1      44.676  26.750  36.320  1.00  0.00     0.198 A 
ATOM     64  C   UNL A   1      46.203  28.389  35.451  1.00  0.00     0.198 A 
ATOM     65  F   UNL A   1      45.406  30.137  34.094  1.00  0.00    -0.203 F 
ATOM     66  F   UNL A   1      44.439  25.673  37.080  1.00  0.00    -0.200 F 
ATOM     67  C   UNL A   1      45.965  27.253  36.210  1.00  0.00     0.200 A 
ATOM     68  F   UNL A   1      47.449  28.864  35.327  1.00  0.00    -0.200 F 
ATOM     69  F   UNL A   1      46.977  26.646  36.842  1.00  0.00    -0.200 F 
ENDBRANCH  36  59
ENDBRANCH  10  11
ENDBRANCH   3   5
ENDBRANCH   2   3
ENDBRANCH   1   2
BRANCH   1  70
ATOM     70  C   UNL A   1      32.427  31.084  26.860  1.00  0.00     0.274 C 
BRANCH  70  71
ATOM     71  O   UNL A   1      33.109  30.426  25.774  1.00  0.00    -0.461 OA
BRANCH  71  72
ATOM     72  C   UNL A   1      33.640  29.183  25.999  1.00  0.00     0.324 C 
ATOM     73  O   UNL A   1      34.025  28.784  27.088  1.00  0.00    -0.250 OA
BRANCH  72  74
ATOM     74  C   UNL A   1      33.634  28.374  24.722  1.00  0.00     0.183 C 
ATOM     75  C   UNL A   1      33.543  29.226  23.459  1.00  0.00     0.034 C 
ATOM     76  N   UNL A   1      32.722  27.217  24.463  1.00  0.00    -0.184 NA
ATOM     77  C   UNL A   1      33.572  28.171  22.375  1.00  0.00     0.019 C 
ATOM     78  C   UNL A   1      32.753  27.026  22.954  1.00  0.00     0.103 C 
BRANCH  76  79
ATOM     79  S   UNL A   1      31.121  27.216  25.064  1.00  0.00     0.243 S 
ATOM     80  O   UNL A   1      30.590  25.882  24.866  1.00  0.00    -0.207 OA
ATOM     81  O   UNL A   1      31.173  27.800  26.386  1.00  0.00    -0.207 OA
BRANCH  79  82
ATOM     82  C   UNL A   1      30.167  28.338  24.061  1.00  0.00     0.084 A 
ATOM     83  C   UNL A   1      29.190  27.817  23.205  1.00  0.00     0.024 A 
ATOM     84  C   UNL A   1      30.278  29.726  24.237  1.00  0.00     0.050 A 
ATOM     85  C   UNL A   1      28.457  28.668  22.377  1.00  0.00     0.030 A 
ATOM     86  C   UNL A   1      29.498  30.574  23.444  1.00  0.00     0.066 A 
ATOM     87  C   UNL A   1      28.650  30.041  22.464  1.00  0.00     0.065 A 
ATOM     88  N   UNL A   1      29.528  31.960  23.637  1.00  0.00    -0.316 N 
ATOM     89  N   UNL A   1      28.024  30.884  21.545  1.00  0.00    -0.316 N 
ATOM     90  C   UNL A   1      28.812  32.846  22.854  1.00  0.00     0.314 A 
ATOM     91  H   UNL A   1      30.083  32.322  24.365  1.00  0.00     0.170 HD
ATOM     92  C   UNL A   1      28.128  32.256  21.595  1.00  0.00     0.314 A 
ATOM     93  H   UNL A   1      27.483  30.480  20.829  1.00  0.00     0.170 HD
ATOM     94  O   UNL A   1      28.726  34.034  23.126  1.00  0.00    -0.263 OA
ATOM     95  O   UNL A   1      27.710  32.967  20.693  1.00  0.00    -0.263 OA
ENDBRANCH  79  82
ENDBRANCH  76  79
ENDBRANCH  72  74
ENDBRANCH  71  72
ENDBRANCH  70  71
ENDBRANCH   1  70
TORSDOF 13
ENDMDL
