MODEL 1
REMARK VINA RESULT:     -10.6      0.000      0.000
REMARK SMILES C=CC[N@@H+](CC(=O)OCCOC(=O)c1ccc(-c2c3nc(c(-c4c(F)c(F)c(F)c(F)c4F)c4ccc([nH]4)c(-c4c(F)c(F)c(F)c(F)c4F)c4nc(c(-c5c(F)c(F)c(F)c(F)c5F)c5ccc2[nH]5)C=C4)C=C3)cc1)Cc1ccc([N+](=O)[O-])o1
REMARK SMILES IDX 9 1 8 2 6 3 7 4 5 5 4 6 3 8 2 9 1 10 77 11 78 12 79 13 85 14
REMARK SMILES IDX 80 15 81 16 82 17 83 18 84 19 10 20 11 21 12 22 13 23 14 24
REMARK SMILES IDX 15 25 76 26 16 27 75 28 17 29 18 30 19 31 69 32 20 33 74 34
REMARK SMILES IDX 68 35 70 36 21 37 73 38 67 39 66 40 22 42 54 43 34 44 53 45
REMARK SMILES IDX 35 46 38 47 52 48 71 49 36 50 37 51 51 53 72 54 39 55 23 56
REMARK SMILES IDX 24 57 32 58 25 59 26 60 30 61 33 62 27 63 28 64 31 65 29 66
REMARK SMILES IDX 55 67 56 68 64 69 57 70 58 71 62 72 65 73 59 74 60 75 63 76
REMARK SMILES IDX 61 77 40 78 41 79 49 80 42 81 43 82 47 83 50 84 44 85 45 86
REMARK SMILES IDX 48 87 46 88
REMARK H PARENT 4 7 70 41 38 52
REMARK Flexibility Score: inf
ROOT
ATOM      1  C   UNL A   1      31.582  31.010  26.823  1.00  0.00     0.274 C 
ENDROOT
BRANCH   1   2
ATOM      2  O   UNL A   1      31.489  30.409  25.511  1.00  0.00    -0.458 OA
BRANCH   2   3
ATOM      3  C   UNL A   1      32.498  29.556  25.199  1.00  0.00     0.361 C 
ATOM      4  O   UNL A   1      33.611  29.597  25.723  1.00  0.00    -0.245 OA
BRANCH   3   5
ATOM      5  C   UNL A   1      32.197  28.519  24.128  1.00  0.00     0.387 C 
BRANCH   5   6
ATOM      6  N   UNL A   1      30.851  28.442  23.577  1.00  0.00    -0.316 N 
ATOM      7  H   UNL A   1      30.352  29.150  24.114  1.00  0.00     0.349 HD
BRANCH   6   8
ATOM      8  C   UNL A   1      29.981  27.392  24.051  1.00  0.00     0.291 C 
BRANCH   8   9
ATOM      9  C   UNL A   1      30.741  26.355  24.828  1.00  0.00     0.025 C 
ATOM     10  C   UNL A   1      30.786  26.276  26.164  1.00  0.00     0.010 C 
ENDBRANCH   8   9
ENDBRANCH   6   8
BRANCH   6  11
ATOM     11  C   UNL A   1      30.517  29.234  22.402  1.00  0.00     0.339 C 
BRANCH  11  12
ATOM     12  C   UNL A   1      29.537  30.342  22.579  1.00  0.00     0.165 A 
ATOM     13  C   UNL A   1      28.803  30.865  23.632  1.00  0.00     0.059 A 
ATOM     14  O   UNL A   1      29.271  31.062  21.441  1.00  0.00    -0.400 OA
ATOM     15  C   UNL A   1      27.960  31.872  23.094  1.00  0.00     0.134 A 
ATOM     16  C   UNL A   1      28.265  31.921  21.756  1.00  0.00     0.433 A 
BRANCH  16  17
ATOM     17  N   UNL A   1      27.637  32.592  20.662  1.00  0.00     0.102 N 
ATOM     18  O   UNL A   1      27.389  33.795  20.826  1.00  0.00    -0.256 OA
ATOM     19  O   UNL A   1      27.395  31.940  19.635  1.00  0.00    -0.256 OA
ENDBRANCH  16  17
ENDBRANCH  11  12
ENDBRANCH   6  11
ENDBRANCH   5   6
ENDBRANCH   3   5
ENDBRANCH   2   3
ENDBRANCH   1   2
BRANCH   1  20
ATOM     20  C   UNL A   1      31.635  32.539  26.775  1.00  0.00     0.275 C 
BRANCH  20  21
ATOM     21  O   UNL A   1      32.995  33.021  26.766  1.00  0.00    -0.458 OA
BRANCH  21  22
ATOM     22  C   UNL A   1      33.327  33.677  27.897  1.00  0.00     0.338 C 
ATOM     23  O   UNL A   1      32.781  34.674  28.335  1.00  0.00    -0.246 OA
BRANCH  22  24
ATOM     24  C   UNL A   1      34.483  33.110  28.585  1.00  0.00     0.060 A 
ATOM     25  C   UNL A   1      35.679  33.825  28.670  1.00  0.00     0.016 A 
ATOM     26  C   UNL A   1      34.422  31.766  28.962  1.00  0.00     0.016 A 
ATOM     27  C   UNL A   1      36.824  33.189  29.143  1.00  0.00     0.010 A 
ATOM     28  C   UNL A   1      35.557  31.144  29.478  1.00  0.00     0.010 A 
ATOM     29  C   UNL A   1      36.762  31.854  29.575  1.00  0.00    -0.014 A 
BRANCH  29  30
ATOM     30  C   UNL A   1      37.916  31.255  30.281  1.00  0.00     0.031 A 
ATOM     31  C   UNL A   1      38.828  30.270  29.619  1.00  0.00     0.074 A 
ATOM     32  C   UNL A   1      38.099  31.609  31.566  1.00  0.00     0.049 A 
ATOM     33  N   UNL A   1      39.851  29.631  30.128  1.00  0.00    -0.248 NA
ATOM     34  C   UNL A   1      38.560  29.955  28.208  1.00  0.00     0.031 C 
ATOM     35  C   UNL A   1      37.253  32.553  32.300  1.00  0.00     0.029 A 
ATOM     36  N   UNL A   1      39.042  31.222  32.479  1.00  0.00    -0.354 N 
ATOM     37  C   UNL A   1      40.348  28.833  29.109  1.00  0.00     0.074 A 
ATOM     38  C   UNL A   1      39.507  29.060  27.950  1.00  0.00     0.031 C 
ATOM     39  C   UNL A   1      37.724  32.684  33.547  1.00  0.00     0.029 A 
ATOM     40  C   UNL A   1      38.873  31.801  33.711  1.00  0.00     0.049 A 
ATOM     41  H   UNL A   1      39.767  30.590  32.273  1.00  0.00     0.167 HD
ATOM     42  C   UNL A   1      41.408  27.990  29.147  1.00  0.00     0.037 A 
ATOM     43  C   UNL A   1      39.557  31.629  34.853  1.00  0.00     0.037 A 
ATOM     44  C   UNL A   1      42.234  27.774  30.309  1.00  0.00     0.049 A 
ATOM     45  C   UNL A   1      40.715  30.679  34.869  1.00  0.00     0.074 A 
ATOM     46  C   UNL A   1      43.352  26.967  30.439  1.00  0.00     0.029 A 
ATOM     47  N   UNL A   1      42.026  28.366  31.547  1.00  0.00    -0.354 N 
ATOM     48  N   UNL A   1      41.190  29.946  33.893  1.00  0.00    -0.248 NA
ATOM     49  C   UNL A   1      41.427  30.528  36.143  1.00  0.00     0.031 C 
ATOM     50  C   UNL A   1      43.800  27.045  31.763  1.00  0.00     0.029 A 
ATOM     51  C   UNL A   1      42.980  27.927  32.451  1.00  0.00     0.049 A 
ATOM     52  H   UNL A   1      41.306  29.006  31.753  1.00  0.00     0.167 HD
ATOM     53  C   UNL A   1      42.255  29.244  34.429  1.00  0.00     0.074 A 
ATOM     54  C   UNL A   1      42.372  29.656  35.815  1.00  0.00     0.031 C 
ATOM     55  C   UNL A   1      43.062  28.334  33.830  1.00  0.00     0.037 A 
BRANCH  42  56
ATOM     56  C   UNL A   1      41.731  27.218  27.904  1.00  0.00     0.064 A 
ATOM     57  C   UNL A   1      42.607  27.725  26.934  1.00  0.00     0.173 A 
ATOM     58  C   UNL A   1      41.211  25.929  27.712  1.00  0.00     0.173 A 
ATOM     59  F   UNL A   1      43.126  28.954  27.070  1.00  0.00    -0.203 F 
ATOM     60  C   UNL A   1      42.944  26.973  25.811  1.00  0.00     0.198 A 
ATOM     61  C   UNL A   1      41.562  25.173  26.596  1.00  0.00     0.198 A 
ATOM     62  F   UNL A   1      40.374  25.397  28.616  1.00  0.00    -0.203 F 
ATOM     63  F   UNL A   1      43.770  27.482  24.887  1.00  0.00    -0.200 F 
ATOM     64  C   UNL A   1      42.427  25.695  25.647  1.00  0.00     0.200 A 
ATOM     65  F   UNL A   1      41.070  23.936  26.444  1.00  0.00    -0.200 F 
ATOM     66  F   UNL A   1      42.761  24.968  24.571  1.00  0.00    -0.200 F 
ENDBRANCH  42  56
BRANCH  43  67
ATOM     67  C   UNL A   1      39.145  32.382  36.060  1.00  0.00     0.064 A 
ATOM     68  C   UNL A   1      38.277  31.813  36.999  1.00  0.00     0.173 A 
ATOM     69  C   UNL A   1      39.673  33.652  36.335  1.00  0.00     0.173 A 
ATOM     70  F   UNL A   1      37.741  30.605  36.769  1.00  0.00    -0.203 F 
ATOM     71  C   UNL A   1      37.954  32.486  38.174  1.00  0.00     0.198 A 
ATOM     72  C   UNL A   1      39.366  34.314  37.519  1.00  0.00     0.198 A 
ATOM     73  F   UNL A   1      40.518  34.230  35.468  1.00  0.00    -0.203 F 
ATOM     74  F   UNL A   1      37.111  31.927  39.053  1.00  0.00    -0.200 F 
ATOM     75  C   UNL A   1      38.505  33.732  38.438  1.00  0.00     0.200 A 
ATOM     76  F   UNL A   1      39.914  35.509  37.778  1.00  0.00    -0.200 F 
ATOM     77  F   UNL A   1      38.210  34.370  39.578  1.00  0.00    -0.200 F 
ENDBRANCH  43  67
BRANCH  55  78
ATOM     78  C   UNL A   1      44.129  27.725  34.684  1.00  0.00     0.064 A 
ATOM     79  C   UNL A   1      43.907  26.526  35.374  1.00  0.00     0.173 A 
ATOM     80  C   UNL A   1      45.380  28.343  34.813  1.00  0.00     0.173 A 
ATOM     81  F   UNL A   1      42.716  25.911  35.295  1.00  0.00    -0.203 F 
ATOM     82  C   UNL A   1      44.896  25.975  36.184  1.00  0.00     0.198 A 
ATOM     83  C   UNL A   1      46.374  27.780  35.609  1.00  0.00     0.198 A 
ATOM     84  F   UNL A   1      45.636  29.493  34.172  1.00  0.00    -0.203 F 
ATOM     85  F   UNL A   1      44.650  24.851  36.869  1.00  0.00    -0.200 F 
ATOM     86  C   UNL A   1      46.129  26.601  36.298  1.00  0.00     0.200 A 
ATOM     87  F   UNL A   1      47.565  28.385  35.719  1.00  0.00    -0.200 F 
ATOM     88  F   UNL A   1      47.079  26.074  37.083  1.00  0.00    -0.200 F 
ENDBRANCH  55  78
ENDBRANCH  29  30
ENDBRANCH  22  24
ENDBRANCH  21  22
ENDBRANCH  20  21
ENDBRANCH   1  20
TORSDOF 17
ENDMDL
MODEL 2
REMARK VINA RESULT:     -10.3      2.378      3.848
REMARK SMILES C=CC[N@@H+](CC(=O)OCCOC(=O)c1ccc(-c2c3nc(c(-c4c(F)c(F)c(F)c(F)c4F)c4ccc([nH]4)c(-c4c(F)c(F)c(F)c(F)c4F)c4nc(c(-c5c(F)c(F)c(F)c(F)c5F)c5ccc2[nH]5)C=C4)C=C3)cc1)Cc1ccc([N+](=O)[O-])o1
REMARK SMILES IDX 9 1 8 2 6 3 7 4 5 5 4 6 3 8 2 9 1 10 77 11 78 12 79 13 85 14
REMARK SMILES IDX 80 15 81 16 82 17 83 18 84 19 10 20 11 21 12 22 13 23 14 24
REMARK SMILES IDX 15 25 76 26 16 27 75 28 17 29 18 30 19 31 69 32 20 33 74 34
REMARK SMILES IDX 68 35 70 36 21 37 73 38 67 39 66 40 22 42 54 43 34 44 53 45
REMARK SMILES IDX 35 46 38 47 52 48 71 49 36 50 37 51 51 53 72 54 39 55 23 56
REMARK SMILES IDX 24 57 32 58 25 59 26 60 30 61 33 62 27 63 28 64 31 65 29 66
REMARK SMILES IDX 55 67 56 68 64 69 57 70 58 71 62 72 65 73 59 74 60 75 63 76
REMARK SMILES IDX 61 77 40 78 41 79 49 80 42 81 43 82 47 83 50 84 44 85 45 86
REMARK SMILES IDX 48 87 46 88
REMARK H PARENT 4 7 70 41 38 52
REMARK Flexibility Score: inf
ROOT
ATOM      1  C   UNL A   1      31.471  29.236  24.412  1.00  0.00     0.274 C 
ENDROOT
BRANCH   1   2
ATOM      2  O   UNL A   1      31.844  27.843  24.300  1.00  0.00    -0.458 OA
BRANCH   2   3
ATOM      3  C   UNL A   1      32.945  27.605  23.543  1.00  0.00     0.361 C 
ATOM      4  O   UNL A   1      33.775  28.468  23.256  1.00  0.00    -0.245 OA
BRANCH   3   5
ATOM      5  C   UNL A   1      33.115  26.184  23.029  1.00  0.00     0.387 C 
BRANCH   5   6
ATOM      6  N   UNL A   1      33.921  25.245  23.800  1.00  0.00    -0.316 N 
ATOM      7  H   UNL A   1      34.850  25.662  23.751  1.00  0.00     0.349 HD
BRANCH   6   8
ATOM      8  C   UNL A   1      34.369  24.038  23.146  1.00  0.00     0.291 C 
BRANCH   8   9
ATOM      9  C   UNL A   1      33.216  23.244  22.604  1.00  0.00     0.025 C 
ATOM     10  C   UNL A   1      32.697  22.150  23.178  1.00  0.00     0.010 C 
ENDBRANCH   8   9
ENDBRANCH   6   8
BRANCH   6  11
ATOM     11  C   UNL A   1      34.023  25.412  25.242  1.00  0.00     0.339 C 
BRANCH  11  12
ATOM     12  C   UNL A   1      33.485  24.318  26.098  1.00  0.00     0.165 A 
ATOM     13  C   UNL A   1      34.022  23.299  26.868  1.00  0.00     0.059 A 
ATOM     14  O   UNL A   1      32.116  24.277  26.185  1.00  0.00    -0.400 OA
ATOM     15  C   UNL A   1      32.936  22.524  27.353  1.00  0.00     0.134 A 
ATOM     16  C   UNL A   1      31.809  23.147  26.877  1.00  0.00     0.433 A 
BRANCH  16  17
ATOM     17  N   UNL A   1      30.436  22.750  26.868  1.00  0.00     0.102 N 
ATOM     18  O   UNL A   1      30.136  21.828  26.095  1.00  0.00    -0.256 OA
ATOM     19  O   UNL A   1      29.652  23.335  27.630  1.00  0.00    -0.256 OA
ENDBRANCH  16  17
ENDBRANCH  11  12
ENDBRANCH   6  11
ENDBRANCH   5   6
ENDBRANCH   3   5
ENDBRANCH   2   3
ENDBRANCH   1   2
BRANCH   1  20
ATOM     20  C   UNL A   1      31.775  29.825  25.791  1.00  0.00     0.275 C 
BRANCH  20  21
ATOM     21  O   UNL A   1      33.062  30.477  25.816  1.00  0.00    -0.458 OA
BRANCH  21  22
ATOM     22  C   UNL A   1      33.233  31.259  26.900  1.00  0.00     0.338 C 
ATOM     23  O   UNL A   1      32.505  32.171  27.251  1.00  0.00    -0.246 OA
BRANCH  22  24
ATOM     24  C   UNL A   1      34.448  30.958  27.653  1.00  0.00     0.060 A 
ATOM     25  C   UNL A   1      35.403  31.950  27.883  1.00  0.00     0.016 A 
ATOM     26  C   UNL A   1      34.719  29.619  27.945  1.00  0.00     0.016 A 
ATOM     27  C   UNL A   1      36.640  31.597  28.418  1.00  0.00     0.010 A 
ATOM     28  C   UNL A   1      35.939  29.273  28.521  1.00  0.00     0.010 A 
ATOM     29  C   UNL A   1      36.904  30.261  28.765  1.00  0.00    -0.014 A 
BRANCH  29  30
ATOM     30  C   UNL A   1      38.123  29.927  29.532  1.00  0.00     0.031 A 
ATOM     31  C   UNL A   1      39.170  29.002  28.998  1.00  0.00     0.074 A 
ATOM     32  C   UNL A   1      38.242  30.468  30.759  1.00  0.00     0.049 A 
ATOM     33  N   UNL A   1      40.268  28.586  29.578  1.00  0.00    -0.248 NA
ATOM     34  C   UNL A   1      38.964  28.471  27.643  1.00  0.00     0.031 C 
ATOM     35  C   UNL A   1      37.265  31.372  31.370  1.00  0.00     0.029 A 
ATOM     36  N   UNL A   1      39.220  30.340  31.707  1.00  0.00    -0.354 N 
ATOM     37  C   UNL A   1      40.882  27.739  28.667  1.00  0.00     0.074 A 
ATOM     38  C   UNL A   1      40.029  27.691  27.495  1.00  0.00     0.031 C 
ATOM     39  C   UNL A   1      37.700  31.730  32.586  1.00  0.00     0.029 A 
ATOM     40  C   UNL A   1      38.960  31.046  32.853  1.00  0.00     0.049 A 
ATOM     41  H   UNL A   1      40.030  29.795  31.579  1.00  0.00     0.167 HD
ATOM     42  C   UNL A   1      42.049  27.065  28.806  1.00  0.00     0.037 A 
ATOM     43  C   UNL A   1      39.650  31.122  34.003  1.00  0.00     0.037 A 
ATOM     44  C   UNL A   1      42.886  27.121  29.980  1.00  0.00     0.049 A 
ATOM     45  C   UNL A   1      40.929  30.355  34.133  1.00  0.00     0.074 A 
ATOM     46  C   UNL A   1      44.105  26.502  30.204  1.00  0.00     0.029 A 
ATOM     47  N   UNL A   1      42.585  27.835  31.131  1.00  0.00    -0.354 N 
ATOM     48  N   UNL A   1      41.512  29.575  33.257  1.00  0.00    -0.248 NA
ATOM     49  C   UNL A   1      41.643  30.474  35.409  1.00  0.00     0.031 C 
ATOM     50  C   UNL A   1      44.524  26.816  31.503  1.00  0.00     0.029 A 
ATOM     51  C   UNL A   1      43.582  27.656  32.076  1.00  0.00     0.049 A 
ATOM     52  H   UNL A   1      41.780  28.388  31.257  1.00  0.00     0.167 HD
ATOM     53  C   UNL A   1      42.660  29.105  33.872  1.00  0.00     0.074 A 
ATOM     54  C   UNL A   1      42.704  29.708  35.190  1.00  0.00     0.031 C 
ATOM     55  C   UNL A   1      43.592  28.247  33.389  1.00  0.00     0.037 A 
BRANCH  42  56
ATOM     56  C   UNL A   1      42.490  26.190  27.672  1.00  0.00     0.064 A 
ATOM     57  C   UNL A   1      43.432  26.629  26.731  1.00  0.00     0.173 A 
ATOM     58  C   UNL A   1      42.015  24.874  27.563  1.00  0.00     0.173 A 
ATOM     59  F   UNL A   1      43.911  27.880  26.790  1.00  0.00    -0.203 F 
ATOM     60  C   UNL A   1      43.876  25.786  25.715  1.00  0.00     0.198 A 
ATOM     61  C   UNL A   1      42.473  24.028  26.556  1.00  0.00     0.198 A 
ATOM     62  F   UNL A   1      41.119  24.405  28.445  1.00  0.00    -0.203 F 
ATOM     63  F   UNL A   1      44.764  26.231  24.815  1.00  0.00    -0.200 F 
ATOM     64  C   UNL A   1      43.402  24.484  25.633  1.00  0.00     0.200 A 
ATOM     65  F   UNL A   1      42.022  22.768  26.484  1.00  0.00    -0.200 F 
ATOM     66  F   UNL A   1      43.838  23.670  24.662  1.00  0.00    -0.200 F 
ENDBRANCH  42  56
BRANCH  43  67
ATOM     67  C   UNL A   1      39.124  31.962  35.104  1.00  0.00     0.064 A 
ATOM     68  C   UNL A   1      38.417  31.389  36.167  1.00  0.00     0.173 A 
ATOM     69  C   UNL A   1      39.388  33.339  35.152  1.00  0.00     0.173 A 
ATOM     70  F   UNL A   1      38.134  30.078  36.154  1.00  0.00    -0.203 F 
ATOM     71  C   UNL A   1      37.993  32.164  37.244  1.00  0.00     0.198 A 
ATOM     72  C   UNL A   1      38.982  34.107  36.240  1.00  0.00     0.198 A 
ATOM     73  F   UNL A   1      40.072  33.927  34.161  1.00  0.00    -0.203 F 
ATOM     74  F   UNL A   1      37.307  31.596  38.245  1.00  0.00    -0.200 F 
ATOM     75  C   UNL A   1      38.284  33.519  37.285  1.00  0.00     0.200 A 
ATOM     76  F   UNL A   1      39.280  35.413  36.282  1.00  0.00    -0.200 F 
ATOM     77  F   UNL A   1      37.895  34.260  38.331  1.00  0.00    -0.200 F 
ENDBRANCH  43  67
BRANCH  55  78
ATOM     78  C   UNL A   1      44.726  27.911  34.307  1.00  0.00     0.064 A 
ATOM     79  C   UNL A   1      44.659  26.803  35.163  1.00  0.00     0.173 A 
ATOM     80  C   UNL A   1      45.883  28.700  34.330  1.00  0.00     0.173 A 
ATOM     81  F   UNL A   1      43.560  26.033  35.188  1.00  0.00    -0.203 F 
ATOM     82  C   UNL A   1      45.708  26.508  36.029  1.00  0.00     0.198 A 
ATOM     83  C   UNL A   1      46.939  28.390  35.184  1.00  0.00     0.198 A 
ATOM     84  F   UNL A   1      45.989  29.771  33.529  1.00  0.00    -0.203 F 
ATOM     85  F   UNL A   1      45.609  25.470  36.869  1.00  0.00    -0.200 F 
ATOM     86  C   UNL A   1      46.847  27.300  36.036  1.00  0.00     0.200 A 
ATOM     87  F   UNL A   1      48.039  29.156  35.191  1.00  0.00    -0.200 F 
ATOM     88  F   UNL A   1      47.854  27.019  36.876  1.00  0.00    -0.200 F 
ENDBRANCH  55  78
ENDBRANCH  29  30
ENDBRANCH  22  24
ENDBRANCH  21  22
ENDBRANCH  20  21
ENDBRANCH   1  20
TORSDOF 17
ENDMDL
MODEL 3
REMARK VINA RESULT:     -10.3      0.907      1.937
REMARK SMILES C=CC[N@@H+](CC(=O)OCCOC(=O)c1ccc(-c2c3nc(c(-c4c(F)c(F)c(F)c(F)c4F)c4ccc([nH]4)c(-c4c(F)c(F)c(F)c(F)c4F)c4nc(c(-c5c(F)c(F)c(F)c(F)c5F)c5ccc2[nH]5)C=C4)C=C3)cc1)Cc1ccc([N+](=O)[O-])o1
REMARK SMILES IDX 9 1 8 2 6 3 7 4 5 5 4 6 3 8 2 9 1 10 77 11 78 12 79 13 85 14
REMARK SMILES IDX 80 15 81 16 82 17 83 18 84 19 10 20 11 21 12 22 13 23 14 24
REMARK SMILES IDX 15 25 76 26 16 27 75 28 17 29 18 30 19 31 69 32 20 33 74 34
REMARK SMILES IDX 68 35 70 36 21 37 73 38 67 39 66 40 22 42 54 43 34 44 53 45
REMARK SMILES IDX 35 46 38 47 52 48 71 49 36 50 37 51 51 53 72 54 39 55 23 56
REMARK SMILES IDX 24 57 32 58 25 59 26 60 30 61 33 62 27 63 28 64 31 65 29 66
REMARK SMILES IDX 55 67 56 68 64 69 57 70 58 71 62 72 65 73 59 74 60 75 63 76
REMARK SMILES IDX 61 77 40 78 41 79 49 80 42 81 43 82 47 83 50 84 44 85 45 86
REMARK SMILES IDX 48 87 46 88
REMARK H PARENT 4 7 70 41 38 52
REMARK Flexibility Score: inf
ROOT
ATOM      1  C   UNL A   1      32.131  29.688  26.275  1.00  0.00     0.274 C 
ENDROOT
BRANCH   1   2
ATOM      2  O   UNL A   1      32.053  29.695  24.831  1.00  0.00    -0.458 OA
BRANCH   2   3
ATOM      3  C   UNL A   1      32.852  28.790  24.210  1.00  0.00     0.361 C 
ATOM      4  O   UNL A   1      34.080  28.799  24.287  1.00  0.00    -0.245 OA
BRANCH   3   5
ATOM      5  C   UNL A   1      32.149  27.733  23.372  1.00  0.00     0.387 C 
BRANCH   5   6
ATOM      6  N   UNL A   1      30.693  27.671  23.388  1.00  0.00    -0.316 N 
ATOM      7  H   UNL A   1      30.444  28.495  23.935  1.00  0.00     0.349 HD
BRANCH   6   8
ATOM      8  C   UNL A   1      30.061  26.784  24.337  1.00  0.00     0.291 C 
BRANCH   8   9
ATOM      9  C   UNL A   1      29.767  25.444  23.727  1.00  0.00     0.025 C 
ATOM     10  C   UNL A   1      30.606  24.400  23.723  1.00  0.00     0.010 C 
ENDBRANCH   8   9
ENDBRANCH   6   8
BRANCH   6  11
ATOM     11  C   UNL A   1      29.943  28.281  22.301  1.00  0.00     0.339 C 
BRANCH  11  12
ATOM     12  C   UNL A   1      29.418  29.659  22.520  1.00  0.00     0.165 A 
ATOM     13  C   UNL A   1      29.188  30.476  23.615  1.00  0.00     0.059 A 
ATOM     14  O   UNL A   1      29.076  30.332  21.374  1.00  0.00    -0.400 OA
ATOM     15  C   UNL A   1      28.565  31.656  23.133  1.00  0.00     0.134 A 
ATOM     16  C   UNL A   1      28.493  31.494  21.771  1.00  0.00     0.433 A 
BRANCH  16  17
ATOM     17  N   UNL A   1      27.815  32.244  20.760  1.00  0.00     0.102 N 
ATOM     18  O   UNL A   1      27.486  31.619  19.741  1.00  0.00    -0.256 OA
ATOM     19  O   UNL A   1      27.594  33.446  20.971  1.00  0.00    -0.256 OA
ENDBRANCH  16  17
ENDBRANCH  11  12
ENDBRANCH   6  11
ENDBRANCH   5   6
ENDBRANCH   3   5
ENDBRANCH   2   3
ENDBRANCH   1   2
BRANCH   1  20
ATOM     20  C   UNL A   1      32.190  31.095  26.874  1.00  0.00     0.275 C 
BRANCH  20  21
ATOM     21  O   UNL A   1      33.461  31.727  26.617  1.00  0.00    -0.458 OA
BRANCH  21  22
ATOM     22  C   UNL A   1      33.851  32.547  27.614  1.00  0.00     0.338 C 
ATOM     23  O   UNL A   1      33.340  33.614  27.908  1.00  0.00    -0.246 OA
BRANCH  22  24
ATOM     24  C   UNL A   1      35.026  32.070  28.338  1.00  0.00     0.060 A 
ATOM     25  C   UNL A   1      36.189  32.841  28.388  1.00  0.00     0.016 A 
ATOM     26  C   UNL A   1      35.021  30.748  28.789  1.00  0.00     0.016 A 
ATOM     27  C   UNL A   1      37.357  32.284  28.902  1.00  0.00     0.010 A 
ATOM     28  C   UNL A   1      36.178  30.206  29.344  1.00  0.00     0.010 A 
ATOM     29  C   UNL A   1      37.351  30.973  29.408  1.00  0.00    -0.014 A 
BRANCH  29  30
ATOM     30  C   UNL A   1      38.525  30.466  30.151  1.00  0.00     0.031 A 
ATOM     31  C   UNL A   1      39.488  29.493  29.547  1.00  0.00     0.074 A 
ATOM     32  C   UNL A   1      38.678  30.892  31.418  1.00  0.00     0.049 A 
ATOM     33  N   UNL A   1      40.535  28.931  30.095  1.00  0.00    -0.248 NA
ATOM     34  C   UNL A   1      39.249  29.097  28.152  1.00  0.00     0.031 C 
ATOM     35  C   UNL A   1      37.782  31.830  32.097  1.00  0.00     0.029 A 
ATOM     36  N   UNL A   1      39.629  30.596  32.357  1.00  0.00    -0.354 N 
ATOM     37  C   UNL A   1      41.079  28.107  29.121  1.00  0.00     0.074 A 
ATOM     38  C   UNL A   1      40.240  28.235  27.945  1.00  0.00     0.031 C 
ATOM     39  C   UNL A   1      38.233  32.045  33.340  1.00  0.00     0.029 A 
ATOM     40  C   UNL A   1      39.421  31.228  33.556  1.00  0.00     0.049 A 
ATOM     41  H   UNL A   1      40.386  29.990  32.188  1.00  0.00     0.167 HD
ATOM     42  C   UNL A   1      42.177  27.318  29.209  1.00  0.00     0.037 A 
ATOM     43  C   UNL A   1      40.101  31.145  34.711  1.00  0.00     0.037 A 
ATOM     44  C   UNL A   1      43.001  27.201  30.387  1.00  0.00     0.049 A 
ATOM     45  C   UNL A   1      41.302  30.253  34.783  1.00  0.00     0.074 A 
ATOM     46  C   UNL A   1      44.155  26.455  30.565  1.00  0.00     0.029 A 
ATOM     47  N   UNL A   1      42.754  27.843  31.591  1.00  0.00    -0.354 N 
ATOM     48  N   UNL A   1      41.821  29.496  33.849  1.00  0.00    -0.248 NA
ATOM     49  C   UNL A   1      42.008  30.201  36.068  1.00  0.00     0.031 C 
ATOM     50  C   UNL A   1      44.585  26.620  31.887  1.00  0.00     0.029 A 
ATOM     51  C   UNL A   1      43.719  27.495  32.524  1.00  0.00     0.049 A 
ATOM     52  H   UNL A   1      42.002  28.457  31.760  1.00  0.00     0.167 HD
ATOM     53  C   UNL A   1      42.913  28.873  34.428  1.00  0.00     0.074 A 
ATOM     54  C   UNL A   1      42.996  29.359  35.791  1.00  0.00     0.031 C 
ATOM     55  C   UNL A   1      43.767  27.974  33.881  1.00  0.00     0.037 A 
BRANCH  42  56
ATOM     56  C   UNL A   1      42.549  26.502  28.009  1.00  0.00     0.064 A 
ATOM     57  C   UNL A   1      41.977  25.243  27.774  1.00  0.00     0.173 A 
ATOM     58  C   UNL A   1      43.435  27.012  27.048  1.00  0.00     0.173 A 
ATOM     59  F   UNL A   1      41.129  24.710  28.665  1.00  0.00    -0.203 F 
ATOM     60  C   UNL A   1      42.287  24.519  26.624  1.00  0.00     0.198 A 
ATOM     61  C   UNL A   1      43.730  26.293  25.892  1.00  0.00     0.198 A 
ATOM     62  F   UNL A   1      44.001  28.215  27.224  1.00  0.00    -0.203 F 
ATOM     63  F   UNL A   1      41.743  23.310  26.427  1.00  0.00    -0.200 F 
ATOM     64  C   UNL A   1      43.157  25.048  25.681  1.00  0.00     0.200 A 
ATOM     65  F   UNL A   1      44.563  26.810  24.978  1.00  0.00    -0.200 F 
ATOM     66  F   UNL A   1      43.446  24.356  24.570  1.00  0.00    -0.200 F 
ENDBRANCH  42  56
BRANCH  43  67
ATOM     67  C   UNL A   1      39.642  31.937  35.876  1.00  0.00     0.064 A 
ATOM     68  C   UNL A   1      40.184  33.199  36.142  1.00  0.00     0.173 A 
ATOM     69  C   UNL A   1      38.600  31.479  36.695  1.00  0.00     0.173 A 
ATOM     70  F   UNL A   1      41.190  33.669  35.390  1.00  0.00    -0.203 F 
ATOM     71  C   UNL A   1      39.696  33.980  37.187  1.00  0.00     0.198 A 
ATOM     72  C   UNL A   1      38.099  32.270  37.726  1.00  0.00     0.198 A 
ATOM     73  F   UNL A   1      38.044  30.280  36.469  1.00  0.00    -0.203 F 
ATOM     74  F   UNL A   1      40.238  35.181  37.432  1.00  0.00    -0.200 F 
ATOM     75  C   UNL A   1      38.648  33.520  37.972  1.00  0.00     0.200 A 
ATOM     76  F   UNL A   1      37.076  31.828  38.470  1.00  0.00    -0.200 F 
ATOM     77  F   UNL A   1      38.166  34.280  38.963  1.00  0.00    -0.200 F 
ENDBRANCH  43  67
BRANCH  55  78
ATOM     78  C   UNL A   1      44.854  27.460  34.772  1.00  0.00     0.064 A 
ATOM     79  C   UNL A   1      44.688  26.278  35.507  1.00  0.00     0.173 A 
ATOM     80  C   UNL A   1      46.066  28.152  34.894  1.00  0.00     0.173 A 
ATOM     81  F   UNL A   1      43.535  25.595  35.437  1.00  0.00    -0.203 F 
ATOM     82  C   UNL A   1      45.694  25.816  36.351  1.00  0.00     0.198 A 
ATOM     83  C   UNL A   1      47.077  27.677  35.724  1.00  0.00     0.198 A 
ATOM     84  F   UNL A   1      46.267  29.289  34.211  1.00  0.00    -0.203 F 
ATOM     85  F   UNL A   1      45.500  24.707  37.077  1.00  0.00    -0.200 F 
ATOM     86  C   UNL A   1      46.888  26.514  36.456  1.00  0.00     0.200 A 
ATOM     87  F   UNL A   1      48.231  28.352  35.825  1.00  0.00    -0.200 F 
ATOM     88  F   UNL A   1      47.853  26.073  37.274  1.00  0.00    -0.200 F 
ENDBRANCH  55  78
ENDBRANCH  29  30
ENDBRANCH  22  24
ENDBRANCH  21  22
ENDBRANCH  20  21
ENDBRANCH   1  20
TORSDOF 17
ENDMDL
