MODEL 1
REMARK VINA RESULT:     -12.3      0.000      0.000
REMARK SMILES C[C@H]1[C@@H](C(=O)OCCOC(=O)c2ccc(-c3c4nc(c(-c5c(F)c(F)c(F)c(F)c5F)c5ccc([nH]5)c(-c5c(F)c(F)c(F)c(F)c5F)c5nc(c(-c6c(F)c(F)c(F)c(F)c6F)c6ccc3[nH]6)C=C5)C=C4)cc2)CCN1C(=O)/C=C/c1cccc(F)c1
REMARK SMILES IDX 7 1 6 2 4 3 5 4 3 5 1 6 2 7 77 8 75 9 76 10 78 11 79 12
REMARK SMILES IDX 80 13 81 14 82 15 83 16 88 17 84 18 86 19 85 20 87 21 8 22
REMARK SMILES IDX 9 23 10 24 11 25 12 26 13 27 74 28 14 29 73 30 15 31 16 32
REMARK SMILES IDX 17 33 67 34 18 35 72 36 66 37 68 38 19 39 71 40 65 41 64 42
REMARK SMILES IDX 20 44 52 45 32 46 51 47 33 48 36 49 50 50 69 51 34 52 35 53
REMARK SMILES IDX 49 55 70 56 37 57 21 58 22 59 30 60 23 61 24 62 28 63 31 64
REMARK SMILES IDX 25 65 26 66 29 67 27 68 53 69 54 70 62 71 55 72 56 73 60 74
REMARK SMILES IDX 63 75 57 76 58 77 61 78 59 79 38 80 39 81 47 82 40 83 41 84
REMARK SMILES IDX 45 85 48 86 42 87 43 88 46 89 44 90
REMARK H PARENT 68 43 36 54
REMARK Flexibility Score: inf
ROOT
ATOM      1  C   UNL A   1      31.570  28.537  24.918  1.00  0.00     0.274 C 
ENDROOT
BRANCH   1   2
ATOM      2  O   UNL A   1      31.418  28.652  23.489  1.00  0.00    -0.462 OA
BRANCH   2   3
ATOM      3  C   UNL A   1      30.651  27.745  22.851  1.00  0.00     0.311 C 
ATOM      4  O   UNL A   1      29.431  27.829  22.750  1.00  0.00    -0.252 OA
BRANCH   3   5
ATOM      5  C   UNL A   1      31.419  26.601  22.213  1.00  0.00     0.123 C 
ATOM      6  C   UNL A   1      30.861  24.932  24.178  1.00  0.00     0.032 C 
ATOM      7  C   UNL A   1      31.409  25.161  22.773  1.00  0.00     0.096 C 
ATOM      8  N   UNL A   1      32.813  24.727  22.676  1.00  0.00    -0.336 N 
ATOM      9  C   UNL A   1      32.899  26.954  21.998  1.00  0.00     0.039 C 
ATOM     10  C   UNL A   1      33.695  25.867  22.681  1.00  0.00     0.121 C 
BRANCH   8  11
ATOM     11  C   UNL A   1      33.339  23.452  22.685  1.00  0.00     0.246 C 
ATOM     12  O   UNL A   1      32.746  22.460  22.273  1.00  0.00    -0.270 OA
BRANCH  11  13
ATOM     13  C   UNL A   1      34.742  23.323  23.122  1.00  0.00     0.072 C 
ATOM     14  C   UNL A   1      35.077  22.537  24.156  1.00  0.00     0.014 C 
BRANCH  14  15
ATOM     15  C   UNL A   1      36.397  22.533  24.802  1.00  0.00    -0.023 A 
ATOM     16  C   UNL A   1      37.127  21.333  24.815  1.00  0.00     0.008 A 
ATOM     17  C   UNL A   1      36.940  23.653  25.445  1.00  0.00     0.047 A 
ATOM     18  C   UNL A   1      38.358  21.247  25.476  1.00  0.00     0.004 A 
ATOM     19  C   UNL A   1      38.162  23.554  26.103  1.00  0.00     0.123 A 
ATOM     20  C   UNL A   1      38.873  22.362  26.127  1.00  0.00     0.039 A 
ATOM     21  F   UNL A   1      38.655  24.628  26.733  1.00  0.00    -0.207 F 
ENDBRANCH  14  15
ENDBRANCH  11  13
ENDBRANCH   8  11
ENDBRANCH   3   5
ENDBRANCH   2   3
ENDBRANCH   1   2
BRANCH   1  22
ATOM     22  C   UNL A   1      31.746  29.919  25.542  1.00  0.00     0.275 C 
BRANCH  22  23
ATOM     23  O   UNL A   1      33.114  30.103  25.941  1.00  0.00    -0.458 OA
BRANCH  23  24
ATOM     24  C   UNL A   1      33.314  31.051  26.882  1.00  0.00     0.338 C 
ATOM     25  O   UNL A   1      32.551  31.923  27.249  1.00  0.00    -0.246 OA
BRANCH  24  26
ATOM     26  C   UNL A   1      34.623  30.823  27.502  1.00  0.00     0.060 A 
ATOM     27  C   UNL A   1      34.935  29.539  27.945  1.00  0.00     0.016 A 
ATOM     28  C   UNL A   1      35.476  31.893  27.752  1.00  0.00     0.016 A 
ATOM     29  C   UNL A   1      36.060  29.333  28.733  1.00  0.00     0.010 A 
ATOM     30  C   UNL A   1      36.661  31.664  28.453  1.00  0.00     0.010 A 
ATOM     31  C   UNL A   1      36.951  30.387  28.972  1.00  0.00    -0.014 A 
BRANCH  31  32
ATOM     32  C   UNL A   1      38.191  30.170  29.758  1.00  0.00     0.031 A 
ATOM     33  C   UNL A   1      39.286  29.307  29.202  1.00  0.00     0.074 A 
ATOM     34  C   UNL A   1      38.320  30.718  30.982  1.00  0.00     0.049 A 
ATOM     35  N   UNL A   1      40.296  28.751  29.819  1.00  0.00    -0.248 NA
ATOM     36  C   UNL A   1      39.228  29.019  27.760  1.00  0.00     0.031 C 
ATOM     37  C   UNL A   1      37.362  31.629  31.609  1.00  0.00     0.029 A 
ATOM     38  N   UNL A   1      39.307  30.572  31.924  1.00  0.00    -0.354 N 
ATOM     39  C   UNL A   1      40.954  27.994  28.860  1.00  0.00     0.074 A 
ATOM     40  C   UNL A   1      40.243  28.178  27.612  1.00  0.00     0.031 C 
ATOM     41  C   UNL A   1      37.813  31.973  32.824  1.00  0.00     0.029 A 
ATOM     42  C   UNL A   1      39.035  31.228  33.100  1.00  0.00     0.049 A 
ATOM     43  H   UNL A   1      40.128  30.050  31.773  1.00  0.00     0.167 HD
ATOM     44  C   UNL A   1      42.043  27.206  29.021  1.00  0.00     0.037 A 
ATOM     45  C   UNL A   1      39.661  31.184  34.290  1.00  0.00     0.037 A 
ATOM     46  C   UNL A   1      42.769  27.077  30.257  1.00  0.00     0.049 A 
ATOM     47  C   UNL A   1      40.850  30.283  34.454  1.00  0.00     0.074 A 
ATOM     48  C   UNL A   1      43.884  26.306  30.531  1.00  0.00     0.029 A 
ATOM     49  N   UNL A   1      42.457  27.759  31.424  1.00  0.00    -0.354 N 
ATOM     50  N   UNL A   1      41.414  29.496  33.571  1.00  0.00    -0.248 NA
ATOM     51  C   UNL A   1      41.470  30.240  35.784  1.00  0.00     0.031 C 
ATOM     52  C   UNL A   1      44.233  26.504  31.871  1.00  0.00     0.029 A 
ATOM     53  C   UNL A   1      43.356  27.425  32.422  1.00  0.00     0.049 A 
ATOM     54  H   UNL A   1      41.706  28.388  31.528  1.00  0.00     0.167 HD
ATOM     55  C   UNL A   1      42.460  28.871  34.233  1.00  0.00     0.074 A 
ATOM     56  C   UNL A   1      42.461  29.379  35.589  1.00  0.00     0.031 C 
ATOM     57  C   UNL A   1      43.339  27.955  33.759  1.00  0.00     0.037 A 
BRANCH  44  58
ATOM     58  C   UNL A   1      42.491  26.389  27.847  1.00  0.00     0.064 A 
ATOM     59  C   UNL A   1      41.966  25.117  27.583  1.00  0.00     0.173 A 
ATOM     60  C   UNL A   1      43.435  26.911  26.948  1.00  0.00     0.173 A 
ATOM     61  F   UNL A   1      41.074  24.567  28.421  1.00  0.00    -0.203 F 
ATOM     62  C   UNL A   1      42.382  24.390  26.469  1.00  0.00     0.198 A 
ATOM     63  C   UNL A   1      43.830  26.192  25.824  1.00  0.00     0.198 A 
ATOM     64  F   UNL A   1      43.964  28.126  27.155  1.00  0.00    -0.203 F 
ATOM     65  F   UNL A   1      41.892  23.161  26.252  1.00  0.00    -0.200 F 
ATOM     66  C   UNL A   1      43.307  24.930  25.588  1.00  0.00     0.200 A 
ATOM     67  F   UNL A   1      44.717  26.720  24.970  1.00  0.00    -0.200 F 
ATOM     68  F   UNL A   1      43.699  24.232  24.512  1.00  0.00    -0.200 F 
ENDBRANCH  44  58
BRANCH  45  69
ATOM     69  C   UNL A   1      39.127  31.976  35.426  1.00  0.00     0.064 A 
ATOM     70  C   UNL A   1      38.308  31.383  36.394  1.00  0.00     0.173 A 
ATOM     71  C   UNL A   1      39.461  33.330  35.590  1.00  0.00     0.173 A 
ATOM     72  F   UNL A   1      37.944  30.098  36.267  1.00  0.00    -0.203 F 
ATOM     73  C   UNL A   1      37.844  32.112  37.486  1.00  0.00     0.198 A 
ATOM     74  C   UNL A   1      39.019  34.050  36.696  1.00  0.00     0.198 A 
ATOM     75  F   UNL A   1      40.246  33.942  34.691  1.00  0.00    -0.203 F 
ATOM     76  F   UNL A   1      37.041  31.528  38.387  1.00  0.00    -0.200 F 
ATOM     77  C   UNL A   1      38.208  33.443  37.642  1.00  0.00     0.200 A 
ATOM     78  F   UNL A   1      39.387  35.329  36.851  1.00  0.00    -0.200 F 
ATOM     79  F   UNL A   1      37.775  34.138  38.702  1.00  0.00    -0.200 F 
ENDBRANCH  45  69
BRANCH  57  80
ATOM     80  C   UNL A   1      44.392  27.472  34.706  1.00  0.00     0.064 A 
ATOM     81  C   UNL A   1      45.602  28.161  34.864  1.00  0.00     0.173 A 
ATOM     82  C   UNL A   1      44.164  26.339  35.499  1.00  0.00     0.173 A 
ATOM     83  F   UNL A   1      45.868  29.240  34.113  1.00  0.00    -0.203 F 
ATOM     84  C   UNL A   1      46.555  27.724  35.780  1.00  0.00     0.198 A 
ATOM     85  C   UNL A   1      45.111  25.915  36.426  1.00  0.00     0.198 A 
ATOM     86  F   UNL A   1      43.019  25.651  35.381  1.00  0.00    -0.203 F 
ATOM     87  F   UNL A   1      47.717  28.380  35.899  1.00  0.00    -0.200 F 
ATOM     88  C   UNL A   1      46.306  26.607  36.564  1.00  0.00     0.200 A 
ATOM     89  F   UNL A   1      44.867  24.840  37.187  1.00  0.00    -0.200 F 
ATOM     90  F   UNL A   1      47.221  26.192  37.451  1.00  0.00    -0.200 F 
ENDBRANCH  57  80
ENDBRANCH  31  32
ENDBRANCH  24  26
ENDBRANCH  23  24
ENDBRANCH  22  23
ENDBRANCH   1  22
TORSDOF 14
ENDMDL
MODEL 2
REMARK VINA RESULT:     -12.3      1.899      2.579
REMARK SMILES C[C@H]1[C@@H](C(=O)OCCOC(=O)c2ccc(-c3c4nc(c(-c5c(F)c(F)c(F)c(F)c5F)c5ccc([nH]5)c(-c5c(F)c(F)c(F)c(F)c5F)c5nc(c(-c6c(F)c(F)c(F)c(F)c6F)c6ccc3[nH]6)C=C5)C=C4)cc2)CCN1C(=O)/C=C/c1cccc(F)c1
REMARK SMILES IDX 7 1 6 2 4 3 5 4 3 5 1 6 2 7 77 8 75 9 76 10 78 11 79 12
REMARK SMILES IDX 80 13 81 14 82 15 83 16 88 17 84 18 86 19 85 20 87 21 8 22
REMARK SMILES IDX 9 23 10 24 11 25 12 26 13 27 74 28 14 29 73 30 15 31 16 32
REMARK SMILES IDX 17 33 67 34 18 35 72 36 66 37 68 38 19 39 71 40 65 41 64 42
REMARK SMILES IDX 20 44 52 45 32 46 51 47 33 48 36 49 50 50 69 51 34 52 35 53
REMARK SMILES IDX 49 55 70 56 37 57 21 58 22 59 30 60 23 61 24 62 28 63 31 64
REMARK SMILES IDX 25 65 26 66 29 67 27 68 53 69 54 70 62 71 55 72 56 73 60 74
REMARK SMILES IDX 63 75 57 76 58 77 61 78 59 79 38 80 39 81 47 82 40 83 41 84
REMARK SMILES IDX 45 85 48 86 42 87 43 88 46 89 44 90
REMARK H PARENT 68 43 36 54
REMARK Flexibility Score: inf
ROOT
ATOM      1  C   UNL A   1      31.241  29.331  24.697  1.00  0.00     0.274 C 
ENDROOT
BRANCH   1   2
ATOM      2  O   UNL A   1      32.053  28.414  23.935  1.00  0.00    -0.462 OA
BRANCH   2   3
ATOM      3  C   UNL A   1      31.443  27.396  23.296  1.00  0.00     0.311 C 
ATOM      4  O   UNL A   1      30.638  27.544  22.381  1.00  0.00    -0.252 OA
BRANCH   3   5
ATOM      5  C   UNL A   1      31.856  26.012  23.766  1.00  0.00     0.123 C 
ATOM      6  C   UNL A   1      29.951  25.898  25.587  1.00  0.00     0.032 C 
ATOM      7  C   UNL A   1      31.042  25.190  24.789  1.00  0.00     0.096 C 
ATOM      8  N   UNL A   1      32.062  24.615  25.683  1.00  0.00    -0.336 N 
ATOM      9  C   UNL A   1      33.307  25.990  24.273  1.00  0.00     0.039 C 
ATOM     10  C   UNL A   1      33.255  25.424  25.673  1.00  0.00     0.121 C 
BRANCH   8  11
ATOM     11  C   UNL A   1      31.971  23.536  26.537  1.00  0.00     0.246 C 
ATOM     12  O   UNL A   1      31.403  23.565  27.624  1.00  0.00    -0.270 OA
BRANCH  11  13
ATOM     13  C   UNL A   1      32.506  22.255  26.036  1.00  0.00     0.072 C 
ATOM     14  C   UNL A   1      32.048  21.709  24.900  1.00  0.00     0.014 C 
BRANCH  14  15
ATOM     15  C   UNL A   1      32.347  20.339  24.459  1.00  0.00    -0.023 A 
ATOM     16  C   UNL A   1      32.907  19.449  25.390  1.00  0.00     0.008 A 
ATOM     17  C   UNL A   1      32.146  19.895  23.147  1.00  0.00     0.047 A 
ATOM     18  C   UNL A   1      33.280  18.154  25.013  1.00  0.00     0.004 A 
ATOM     19  C   UNL A   1      32.525  18.607  22.781  1.00  0.00     0.123 A 
ATOM     20  C   UNL A   1      33.093  17.734  23.700  1.00  0.00     0.039 A 
ATOM     21  F   UNL A   1      32.347  18.206  21.516  1.00  0.00    -0.207 F 
ENDBRANCH  14  15
ENDBRANCH  11  13
ENDBRANCH   8  11
ENDBRANCH   3   5
ENDBRANCH   2   3
ENDBRANCH   1   2
BRANCH   1  22
ATOM     22  C   UNL A   1      31.789  29.466  26.115  1.00  0.00     0.275 C 
BRANCH  22  23
ATOM     23  O   UNL A   1      33.111  30.026  26.073  1.00  0.00    -0.458 OA
BRANCH  23  24
ATOM     24  C   UNL A   1      33.335  31.035  26.943  1.00  0.00     0.338 C 
ATOM     25  O   UNL A   1      32.588  31.941  27.256  1.00  0.00    -0.246 OA
BRANCH  24  26
ATOM     26  C   UNL A   1      34.648  30.833  27.563  1.00  0.00     0.060 A 
ATOM     27  C   UNL A   1      35.037  29.535  27.890  1.00  0.00     0.016 A 
ATOM     28  C   UNL A   1      35.426  31.927  27.929  1.00  0.00     0.016 A 
ATOM     29  C   UNL A   1      36.164  29.328  28.676  1.00  0.00     0.010 A 
ATOM     30  C   UNL A   1      36.614  31.708  28.628  1.00  0.00     0.010 A 
ATOM     31  C   UNL A   1      36.980  30.409  29.030  1.00  0.00    -0.014 A 
BRANCH  31  32
ATOM     32  C   UNL A   1      38.222  30.198  29.816  1.00  0.00     0.031 A 
ATOM     33  C   UNL A   1      39.321  29.342  29.258  1.00  0.00     0.074 A 
ATOM     34  C   UNL A   1      38.348  30.744  31.041  1.00  0.00     0.049 A 
ATOM     35  N   UNL A   1      40.335  28.791  29.875  1.00  0.00    -0.248 NA
ATOM     36  C   UNL A   1      39.266  29.057  27.816  1.00  0.00     0.031 C 
ATOM     37  C   UNL A   1      37.384  31.649  31.669  1.00  0.00     0.029 A 
ATOM     38  N   UNL A   1      39.335  30.603  31.983  1.00  0.00    -0.354 N 
ATOM     39  C   UNL A   1      40.998  28.040  28.913  1.00  0.00     0.074 A 
ATOM     40  C   UNL A   1      40.286  28.222  27.666  1.00  0.00     0.031 C 
ATOM     41  C   UNL A   1      37.832  31.993  32.886  1.00  0.00     0.029 A 
ATOM     42  C   UNL A   1      39.060  31.255  33.160  1.00  0.00     0.049 A 
ATOM     43  H   UNL A   1      40.159  30.085  31.831  1.00  0.00     0.167 HD
ATOM     44  C   UNL A   1      42.091  27.259  29.073  1.00  0.00     0.037 A 
ATOM     45  C   UNL A   1      39.686  31.212  34.349  1.00  0.00     0.037 A 
ATOM     46  C   UNL A   1      42.818  27.132  30.309  1.00  0.00     0.049 A 
ATOM     47  C   UNL A   1      40.880  30.318  34.512  1.00  0.00     0.074 A 
ATOM     48  C   UNL A   1      43.938  26.367  30.581  1.00  0.00     0.029 A 
ATOM     49  N   UNL A   1      42.501  27.810  31.478  1.00  0.00    -0.354 N 
ATOM     50  N   UNL A   1      41.448  29.536  33.628  1.00  0.00    -0.248 NA
ATOM     51  C   UNL A   1      41.500  30.276  35.842  1.00  0.00     0.031 C 
ATOM     52  C   UNL A   1      44.286  26.565  31.922  1.00  0.00     0.029 A 
ATOM     53  C   UNL A   1      43.403  27.478  32.474  1.00  0.00     0.049 A 
ATOM     54  H   UNL A   1      41.747  28.434  31.583  1.00  0.00     0.167 HD
ATOM     55  C   UNL A   1      42.499  28.916  34.288  1.00  0.00     0.074 A 
ATOM     56  C   UNL A   1      42.496  29.422  35.646  1.00  0.00     0.031 C 
ATOM     57  C   UNL A   1      43.383  28.006  33.813  1.00  0.00     0.037 A 
BRANCH  44  58
ATOM     58  C   UNL A   1      42.544  26.446  27.898  1.00  0.00     0.064 A 
ATOM     59  C   UNL A   1      42.023  25.174  27.629  1.00  0.00     0.173 A 
ATOM     60  C   UNL A   1      43.489  26.974  27.003  1.00  0.00     0.173 A 
ATOM     61  F   UNL A   1      41.130  24.619  28.462  1.00  0.00    -0.203 F 
ATOM     62  C   UNL A   1      42.443  24.452  26.513  1.00  0.00     0.198 A 
ATOM     63  C   UNL A   1      43.889  26.260  25.878  1.00  0.00     0.198 A 
ATOM     64  F   UNL A   1      44.015  28.190  27.215  1.00  0.00    -0.203 F 
ATOM     65  F   UNL A   1      41.957  23.222  26.291  1.00  0.00    -0.200 F 
ATOM     66  C   UNL A   1      43.369  24.997  25.636  1.00  0.00     0.200 A 
ATOM     67  F   UNL A   1      44.777  26.792  25.027  1.00  0.00    -0.200 F 
ATOM     68  F   UNL A   1      43.766  24.303  24.559  1.00  0.00    -0.200 F 
ENDBRANCH  44  58
BRANCH  45  69
ATOM     69  C   UNL A   1      39.146  31.999  35.487  1.00  0.00     0.064 A 
ATOM     70  C   UNL A   1      38.352  31.393  36.468  1.00  0.00     0.173 A 
ATOM     71  C   UNL A   1      39.452  33.361  35.640  1.00  0.00     0.173 A 
ATOM     72  F   UNL A   1      38.016  30.100  36.352  1.00  0.00    -0.203 F 
ATOM     73  C   UNL A   1      37.884  32.119  37.561  1.00  0.00     0.198 A 
ATOM     74  C   UNL A   1      39.007  34.078  36.746  1.00  0.00     0.198 A 
ATOM     75  F   UNL A   1      40.213  33.985  34.729  1.00  0.00    -0.203 F 
ATOM     76  F   UNL A   1      37.105  31.522  38.474  1.00  0.00    -0.200 F 
ATOM     77  C   UNL A   1      38.220  33.458  37.705  1.00  0.00     0.200 A 
ATOM     78  F   UNL A   1      39.348  35.365  36.890  1.00  0.00    -0.200 F 
ATOM     79  F   UNL A   1      37.784  34.149  38.766  1.00  0.00    -0.200 F 
ENDBRANCH  45  69
BRANCH  57  80
ATOM     80  C   UNL A   1      44.439  27.528  34.759  1.00  0.00     0.064 A 
ATOM     81  C   UNL A   1      44.256  26.375  35.534  1.00  0.00     0.173 A 
ATOM     82  C   UNL A   1      45.665  28.202  34.849  1.00  0.00     0.173 A 
ATOM     83  F   UNL A   1      43.093  25.710  35.491  1.00  0.00    -0.203 F 
ATOM     84  C   UNL A   1      45.265  25.918  36.377  1.00  0.00     0.198 A 
ATOM     85  C   UNL A   1      46.677  27.732  35.679  1.00  0.00     0.198 A 
ATOM     86  F   UNL A   1      45.883  29.309  34.122  1.00  0.00    -0.203 F 
ATOM     87  F   UNL A   1      45.063  24.829  37.131  1.00  0.00    -0.200 F 
ATOM     88  C   UNL A   1      46.476  26.592  36.444  1.00  0.00     0.200 A 
ATOM     89  F   UNL A   1      47.849  28.381  35.738  1.00  0.00    -0.200 F 
ATOM     90  F   UNL A   1      47.449  26.146  37.251  1.00  0.00    -0.200 F 
ENDBRANCH  57  80
ENDBRANCH  31  32
ENDBRANCH  24  26
ENDBRANCH  23  24
ENDBRANCH  22  23
ENDBRANCH   1  22
TORSDOF 14
ENDMDL
MODEL 3
REMARK VINA RESULT:     -12.2      0.522      1.393
REMARK SMILES C[C@H]1[C@@H](C(=O)OCCOC(=O)c2ccc(-c3c4nc(c(-c5c(F)c(F)c(F)c(F)c5F)c5ccc([nH]5)c(-c5c(F)c(F)c(F)c(F)c5F)c5nc(c(-c6c(F)c(F)c(F)c(F)c6F)c6ccc3[nH]6)C=C5)C=C4)cc2)CCN1C(=O)/C=C/c1cccc(F)c1
REMARK SMILES IDX 7 1 6 2 4 3 5 4 3 5 1 6 2 7 77 8 75 9 76 10 78 11 79 12
REMARK SMILES IDX 80 13 81 14 82 15 83 16 88 17 84 18 86 19 85 20 87 21 8 22
REMARK SMILES IDX 9 23 10 24 11 25 12 26 13 27 74 28 14 29 73 30 15 31 16 32
REMARK SMILES IDX 17 33 67 34 18 35 72 36 66 37 68 38 19 39 71 40 65 41 64 42
REMARK SMILES IDX 20 44 52 45 32 46 51 47 33 48 36 49 50 50 69 51 34 52 35 53
REMARK SMILES IDX 49 55 70 56 37 57 21 58 22 59 30 60 23 61 24 62 28 63 31 64
REMARK SMILES IDX 25 65 26 66 29 67 27 68 53 69 54 70 62 71 55 72 56 73 60 74
REMARK SMILES IDX 63 75 57 76 58 77 61 78 59 79 38 80 39 81 47 82 40 83 41 84
REMARK SMILES IDX 45 85 48 86 42 87 43 88 46 89 44 90
REMARK H PARENT 68 43 36 54
REMARK Flexibility Score: inf
ROOT
ATOM      1  C   UNL A   1      32.026  29.302  24.642  1.00  0.00     0.274 C 
ENDROOT
BRANCH   1   2
ATOM      2  O   UNL A   1      30.766  29.007  24.006  1.00  0.00    -0.462 OA
BRANCH   2   3
ATOM      3  C   UNL A   1      30.699  27.946  23.177  1.00  0.00     0.311 C 
ATOM      4  O   UNL A   1      30.245  27.995  22.037  1.00  0.00    -0.252 OA
BRANCH   3   5
ATOM      5  C   UNL A   1      31.274  26.660  23.743  1.00  0.00     0.123 C 
ATOM      6  C   UNL A   1      32.891  26.303  21.689  1.00  0.00     0.032 C 
ATOM      7  C   UNL A   1      32.465  25.914  23.101  1.00  0.00     0.096 C 
ATOM      8  N   UNL A   1      32.076  24.494  23.163  1.00  0.00    -0.336 N 
ATOM      9  C   UNL A   1      30.188  25.597  23.967  1.00  0.00     0.039 C 
ATOM     10  C   UNL A   1      30.641  24.366  23.217  1.00  0.00     0.121 C 
BRANCH   8  11
ATOM     11  C   UNL A   1      32.863  23.365  23.077  1.00  0.00     0.246 C 
ATOM     12  O   UNL A   1      32.720  22.489  22.230  1.00  0.00    -0.270 OA
BRANCH  11  13
ATOM     13  C   UNL A   1      34.006  23.289  24.008  1.00  0.00     0.072 C 
ATOM     14  C   UNL A   1      35.267  23.246  23.555  1.00  0.00     0.014 C 
BRANCH  14  15
ATOM     15  C   UNL A   1      36.437  22.932  24.387  1.00  0.00    -0.023 A 
ATOM     16  C   UNL A   1      36.953  21.626  24.344  1.00  0.00     0.008 A 
ATOM     17  C   UNL A   1      37.032  23.856  25.254  1.00  0.00     0.047 A 
ATOM     18  C   UNL A   1      38.020  21.245  25.165  1.00  0.00     0.004 A 
ATOM     19  C   UNL A   1      38.090  23.466  26.070  1.00  0.00     0.123 A 
ATOM     20  C   UNL A   1      38.586  22.170  26.036  1.00  0.00     0.039 A 
ATOM     21  F   UNL A   1      38.631  24.357  26.911  1.00  0.00    -0.207 F 
ENDBRANCH  14  15
ENDBRANCH  11  13
ENDBRANCH   8  11
ENDBRANCH   3   5
ENDBRANCH   2   3
ENDBRANCH   1   2
BRANCH   1  22
ATOM     22  C   UNL A   1      31.808  30.218  25.843  1.00  0.00     0.275 C 
BRANCH  22  23
ATOM     23  O   UNL A   1      32.910  30.093  26.756  1.00  0.00    -0.458 OA
BRANCH  23  24
ATOM     24  C   UNL A   1      33.421  31.262  27.202  1.00  0.00     0.338 C 
ATOM     25  O   UNL A   1      32.891  32.356  27.227  1.00  0.00    -0.246 OA
BRANCH  24  26
ATOM     26  C   UNL A   1      34.749  31.006  27.765  1.00  0.00     0.060 A 
ATOM     27  C   UNL A   1      35.060  29.712  28.178  1.00  0.00     0.016 A 
ATOM     28  C   UNL A   1      35.628  32.061  27.995  1.00  0.00     0.016 A 
ATOM     29  C   UNL A   1      36.213  29.479  28.916  1.00  0.00     0.010 A 
ATOM     30  C   UNL A   1      36.837  31.804  28.644  1.00  0.00     0.010 A 
ATOM     31  C   UNL A   1      37.128  30.516  29.134  1.00  0.00    -0.014 A 
BRANCH  31  32
ATOM     32  C   UNL A   1      38.396  30.269  29.865  1.00  0.00     0.031 A 
ATOM     33  C   UNL A   1      39.442  29.376  29.266  1.00  0.00     0.074 A 
ATOM     34  C   UNL A   1      38.592  30.818  31.080  1.00  0.00     0.049 A 
ATOM     35  N   UNL A   1      40.464  28.796  29.841  1.00  0.00    -0.248 NA
ATOM     36  C   UNL A   1      39.314  29.085  27.830  1.00  0.00     0.031 C 
ATOM     37  C   UNL A   1      37.686  31.756  31.744  1.00  0.00     0.029 A 
ATOM     38  N   UNL A   1      39.615  30.650  31.979  1.00  0.00    -0.354 N 
ATOM     39  C   UNL A   1      41.060  28.020  28.857  1.00  0.00     0.074 A 
ATOM     40  C   UNL A   1      40.300  28.217  27.641  1.00  0.00     0.031 C 
ATOM     41  C   UNL A   1      38.198  32.093  32.937  1.00  0.00     0.029 A 
ATOM     42  C   UNL A   1      39.412  31.318  33.162  1.00  0.00     0.049 A 
ATOM     43  H   UNL A   1      40.415  30.106  31.795  1.00  0.00     0.167 HD
ATOM     44  C   UNL A   1      42.134  27.204  28.975  1.00  0.00     0.037 A 
ATOM     45  C   UNL A   1      40.088  31.261  34.324  1.00  0.00     0.037 A 
ATOM     46  C   UNL A   1      42.909  27.061  30.178  1.00  0.00     0.049 A 
ATOM     47  C   UNL A   1      41.259  30.330  34.441  1.00  0.00     0.074 A 
ATOM     48  C   UNL A   1      44.015  26.262  30.407  1.00  0.00     0.029 A 
ATOM     49  N   UNL A   1      42.666  27.755  31.355  1.00  0.00    -0.354 N 
ATOM     50  N   UNL A   1      41.764  29.525  33.537  1.00  0.00    -0.248 NA
ATOM     51  C   UNL A   1      41.936  30.276  35.742  1.00  0.00     0.031 C 
ATOM     52  C   UNL A   1      44.428  26.456  31.729  1.00  0.00     0.029 A 
ATOM     53  C   UNL A   1      43.600  27.401  32.314  1.00  0.00     0.049 A 
ATOM     54  H   UNL A   1      41.938  28.404  31.489  1.00  0.00     0.167 HD
ATOM     55  C   UNL A   1      42.822  28.876  34.156  1.00  0.00     0.074 A 
ATOM     56  C   UNL A   1      42.895  29.389  35.508  1.00  0.00     0.031 C 
ATOM     57  C   UNL A   1      43.655  27.936  33.648  1.00  0.00     0.037 A 
BRANCH  44  58
ATOM     58  C   UNL A   1      42.509  26.371  27.786  1.00  0.00     0.064 A 
ATOM     59  C   UNL A   1      41.925  25.122  27.540  1.00  0.00     0.173 A 
ATOM     60  C   UNL A   1      43.443  26.857  26.856  1.00  0.00     0.173 A 
ATOM     61  F   UNL A   1      41.039  24.608  28.407  1.00  0.00    -0.203 F 
ATOM     62  C   UNL A   1      42.273  24.381  26.412  1.00  0.00     0.198 A 
ATOM     63  C   UNL A   1      43.770  26.124  25.720  1.00  0.00     0.198 A 
ATOM     64  F   UNL A   1      44.027  28.049  27.046  1.00  0.00    -0.203 F 
ATOM     65  F   UNL A   1      41.727  23.173  26.211  1.00  0.00    -0.200 F 
ATOM     66  C   UNL A   1      43.189  24.885  25.500  1.00  0.00     0.200 A 
ATOM     67  F   UNL A   1      44.649  26.617  24.836  1.00  0.00    -0.200 F 
ATOM     68  F   UNL A   1      43.516  24.173  24.412  1.00  0.00    -0.200 F 
ENDBRANCH  44  58
BRANCH  45  69
ATOM     69  C   UNL A   1      39.625  32.071  35.479  1.00  0.00     0.064 A 
ATOM     70  C   UNL A   1      40.093  33.375  35.677  1.00  0.00     0.173 A 
ATOM     71  C   UNL A   1      38.672  31.573  36.381  1.00  0.00     0.173 A 
ATOM     72  F   UNL A   1      41.021  33.885  34.853  1.00  0.00    -0.203 F 
ATOM     73  C   UNL A   1      39.625  34.153  36.733  1.00  0.00     0.198 A 
ATOM     74  C   UNL A   1      38.184  32.360  37.419  1.00  0.00     0.198 A 
ATOM     75  F   UNL A   1      38.190  30.330  36.231  1.00  0.00    -0.203 F 
ATOM     76  F   UNL A   1      40.106  35.391  36.916  1.00  0.00    -0.200 F 
ATOM     77  C   UNL A   1      38.663  33.649  37.598  1.00  0.00     0.200 A 
ATOM     78  F   UNL A   1      37.243  31.875  38.241  1.00  0.00    -0.200 F 
ATOM     79  F   UNL A   1      38.200  34.405  38.602  1.00  0.00    -0.200 F 
ENDBRANCH  45  69
BRANCH  57  80
ATOM     80  C   UNL A   1      44.736  27.429  34.550  1.00  0.00     0.064 A 
ATOM     81  C   UNL A   1      45.971  28.084  34.648  1.00  0.00     0.173 A 
ATOM     82  C   UNL A   1      44.512  26.308  35.362  1.00  0.00     0.173 A 
ATOM     83  F   UNL A   1      46.233  29.150  33.877  1.00  0.00    -0.203 F 
ATOM     84  C   UNL A   1      46.951  27.626  35.524  1.00  0.00     0.198 A 
ATOM     85  C   UNL A   1      45.487  25.864  36.249  1.00  0.00     0.198 A 
ATOM     86  F   UNL A   1      43.343  25.653  35.302  1.00  0.00    -0.203 F 
ATOM     87  F   UNL A   1      48.136  28.249  35.584  1.00  0.00    -0.200 F 
ATOM     88  C   UNL A   1      46.707  26.522  36.327  1.00  0.00     0.200 A 
ATOM     89  F   UNL A   1      45.248  24.801  37.029  1.00  0.00    -0.200 F 
ATOM     90  F   UNL A   1      47.649  26.087  37.175  1.00  0.00    -0.200 F 
ENDBRANCH  57  80
ENDBRANCH  31  32
ENDBRANCH  24  26
ENDBRANCH  23  24
ENDBRANCH  22  23
ENDBRANCH   1  22
TORSDOF 14
ENDMDL
