MODEL 1
REMARK VINA RESULT:     -12.7      0.000      0.000
REMARK SMILES CC(C)c1cc(C#N)cc2nc(-c3ccc(C(=O)OCCOC(=O)c4ccc(-c5c6nc(c(-c7c(F)c(F)c(F)c(F)c7F)c7ccc([nH]7)c(-c7c(F)c(F)c(F)c(F)c7F)c7nc(c(-c8c(F)c(F)c(F)c(F)c8F)c8ccc5[nH]8)C=C7)C=C6)cc4)cc3)oc12
REMARK SMILES IDX 20 1 19 2 17 3 18 4 16 5 13 6 14 7 89 8 15 9 88 10 12 11
REMARK SMILES IDX 4 12 5 13 91 14 6 15 10 16 90 17 9 18 11 19 2 20 1 21 3 22
REMARK SMILES IDX 7 23 8 24 21 25 22 26 23 27 24 28 25 29 26 30 87 31 27 32
REMARK SMILES IDX 86 33 28 34 29 35 30 36 80 37 31 38 85 39 79 40 81 41 32 42
REMARK SMILES IDX 84 43 78 44 77 45 33 47 65 48 45 49 64 50 46 51 49 52 63 53
REMARK SMILES IDX 82 54 47 55 48 56 62 58 83 59 50 60 34 61 35 62 43 63 36 64
REMARK SMILES IDX 37 65 41 66 44 67 38 68 39 69 42 70 40 71 66 72 67 73 75 74
REMARK SMILES IDX 68 75 69 76 73 77 76 78 70 79 71 80 74 81 72 82 51 83 52 84
REMARK SMILES IDX 60 85 53 86 54 87 58 88 61 89 55 90 56 91 59 92 57 93
REMARK H PARENT 81 46 49 57
REMARK Flexibility Score: inf
ROOT
ATOM      1  C   UNL A   1      42.989  18.696  26.073  1.00  0.00     0.275 C 
ENDROOT
BRANCH   1   2
ATOM      2  O   UNL A   1      42.030  19.566  25.412  1.00  0.00    -0.458 OA
BRANCH   2   3
ATOM      3  C   UNL A   1      41.657  20.647  26.137  1.00  0.00     0.338 C 
ATOM      4  O   UNL A   1      42.446  21.372  26.719  1.00  0.00    -0.246 OA
BRANCH   3   5
ATOM      5  C   UNL A   1      40.195  20.950  26.047  1.00  0.00     0.060 A 
ATOM      6  C   UNL A   1      37.527  21.897  25.809  1.00  0.00     0.037 A 
ATOM      7  C   UNL A   1      38.476  22.663  26.457  1.00  0.00     0.014 A 
ATOM      8  C   UNL A   1      37.901  20.616  25.356  1.00  0.00     0.014 A 
ATOM      9  C   UNL A   1      39.758  22.148  26.608  1.00  0.00     0.016 A 
ATOM     10  C   UNL A   1      39.235  20.153  25.448  1.00  0.00     0.016 A 
BRANCH   6  11
ATOM     11  C   UNL A   1      36.150  22.356  25.821  1.00  0.00     0.227 A 
ATOM     12  C   UNL A   1      33.654  24.790  25.092  1.00  0.00     0.001 A 
ATOM     13  C   UNL A   1      32.333  24.648  25.600  1.00  0.00     0.027 A 
ATOM     14  C   UNL A   1      34.514  23.749  25.501  1.00  0.00     0.158 A 
ATOM     15  C   UNL A   1      31.935  23.598  26.448  1.00  0.00     0.055 A 
ATOM     16  C   UNL A   1      34.138  22.695  26.327  1.00  0.00     0.111 A 
ATOM     17  O   UNL A   1      35.844  23.544  25.191  1.00  0.00    -0.436 OA
ATOM     18  C   UNL A   1      32.845  22.619  26.839  1.00  0.00     0.052 A 
ATOM     19  N   UNL A   1      35.169  21.826  26.513  1.00  0.00    -0.209 NA
BRANCH  12  20
ATOM     20  C   UNL A   1      34.040  25.922  24.147  1.00  0.00     0.017 C 
ATOM     21  C   UNL A   1      33.579  25.735  22.688  1.00  0.00     0.012 C 
ATOM     22  C   UNL A   1      33.523  27.278  24.638  1.00  0.00     0.012 C 
ENDBRANCH  12  20
BRANCH  15  23
ATOM     23  C   UNL A   1      30.582  23.503  26.894  1.00  0.00     0.099 C 
ATOM     24  N   UNL A   1      29.478  23.432  27.273  1.00  0.00    -0.192 NA
ENDBRANCH  15  23
ENDBRANCH   6  11
ENDBRANCH   3   5
ENDBRANCH   2   3
ENDBRANCH   1   2
BRANCH   1  25
ATOM     25  C   UNL A   1      44.305  18.605  25.289  1.00  0.00     0.275 C 
BRANCH  25  26
ATOM     26  O   UNL A   1      44.931  19.897  25.252  1.00  0.00    -0.458 OA
BRANCH  26  27
ATOM     27  C   UNL A   1      44.961  20.511  24.046  1.00  0.00     0.338 C 
ATOM     28  O   UNL A   1      44.598  20.052  22.976  1.00  0.00    -0.246 OA
BRANCH  27  29
ATOM     29  C   UNL A   1      45.124  21.953  24.325  1.00  0.00     0.060 A 
ATOM     30  C   UNL A   1      46.187  22.480  25.072  1.00  0.00     0.016 A 
ATOM     31  C   UNL A   1      44.018  22.738  24.070  1.00  0.00     0.016 A 
ATOM     32  C   UNL A   1      45.973  23.614  25.871  1.00  0.00     0.010 A 
ATOM     33  C   UNL A   1      43.895  23.927  24.761  1.00  0.00     0.010 A 
ATOM     34  C   UNL A   1      44.729  24.234  25.856  1.00  0.00    -0.014 A 
BRANCH  34  35
ATOM     35  C   UNL A   1      44.307  25.314  26.804  1.00  0.00     0.031 A 
ATOM     36  C   UNL A   1      45.188  26.487  26.608  1.00  0.00     0.074 A 
ATOM     37  C   UNL A   1      43.214  25.443  27.623  1.00  0.00     0.049 A 
ATOM     38  N   UNL A   1      46.252  26.731  27.299  1.00  0.00    -0.248 NA
ATOM     39  C   UNL A   1      45.077  27.289  25.376  1.00  0.00     0.031 C 
ATOM     40  C   UNL A   1      42.076  24.553  27.884  1.00  0.00     0.029 A 
ATOM     41  N   UNL A   1      42.835  26.547  28.374  1.00  0.00    -0.354 N 
ATOM     42  C   UNL A   1      46.807  27.846  26.698  1.00  0.00     0.074 A 
ATOM     43  C   UNL A   1      46.266  27.894  25.370  1.00  0.00     0.031 C 
ATOM     44  C   UNL A   1      41.031  25.224  28.430  1.00  0.00     0.029 A 
ATOM     45  C   UNL A   1      41.482  26.548  28.792  1.00  0.00     0.049 A 
ATOM     46  H   UNL A   1      43.460  27.274  28.599  1.00  0.00     0.167 HD
ATOM     47  C   UNL A   1      47.361  28.838  27.443  1.00  0.00     0.037 A 
ATOM     48  C   UNL A   1      40.814  27.520  29.486  1.00  0.00     0.037 A 
ATOM     49  C   UNL A   1      47.563  28.407  28.804  1.00  0.00     0.049 A 
ATOM     50  C   UNL A   1      41.851  28.338  30.163  1.00  0.00     0.074 A 
ATOM     51  C   UNL A   1      48.255  27.362  29.389  1.00  0.00     0.029 A 
ATOM     52  N   UNL A   1      46.642  28.813  29.741  1.00  0.00    -0.354 N 
ATOM     53  N   UNL A   1      42.612  27.869  31.115  1.00  0.00    -0.248 NA
ATOM     54  C   UNL A   1      42.397  29.442  29.388  1.00  0.00     0.031 C 
ATOM     55  C   UNL A   1      47.396  26.880  30.420  1.00  0.00     0.029 A 
ATOM     56  C   UNL A   1      46.284  27.719  30.489  1.00  0.00     0.049 A 
ATOM     57  H   UNL A   1      46.299  29.730  29.854  1.00  0.00     0.167 HD
ATOM     58  C   UNL A   1      43.886  28.285  30.761  1.00  0.00     0.074 A 
ATOM     59  C   UNL A   1      43.685  29.258  29.683  1.00  0.00     0.031 C 
ATOM     60  C   UNL A   1      44.995  27.579  31.125  1.00  0.00     0.037 A 
BRANCH  47  61
ATOM     61  C   UNL A   1      47.354  30.286  27.035  1.00  0.00     0.064 A 
ATOM     62  C   UNL A   1      48.554  31.012  27.103  1.00  0.00     0.173 A 
ATOM     63  C   UNL A   1      46.189  31.056  26.805  1.00  0.00     0.173 A 
ATOM     64  F   UNL A   1      49.712  30.388  27.362  1.00  0.00    -0.203 F 
ATOM     65  C   UNL A   1      48.580  32.403  26.984  1.00  0.00     0.198 A 
ATOM     66  C   UNL A   1      46.227  32.435  26.622  1.00  0.00     0.198 A 
ATOM     67  F   UNL A   1      44.957  30.539  26.859  1.00  0.00    -0.203 F 
ATOM     68  F   UNL A   1      49.732  33.062  27.166  1.00  0.00    -0.200 F 
ATOM     69  C   UNL A   1      47.418  33.113  26.737  1.00  0.00     0.200 A 
ATOM     70  F   UNL A   1      45.082  33.101  26.411  1.00  0.00    -0.200 F 
ATOM     71  F   UNL A   1      47.436  34.449  26.662  1.00  0.00    -0.200 F 
ENDBRANCH  47  61
BRANCH  48  72
ATOM     72  C   UNL A   1      39.418  28.036  29.304  1.00  0.00     0.064 A 
ATOM     73  C   UNL A   1      38.529  28.206  30.388  1.00  0.00     0.173 A 
ATOM     74  C   UNL A   1      39.037  28.666  28.104  1.00  0.00     0.173 A 
ATOM     75  F   UNL A   1      38.822  27.688  31.591  1.00  0.00    -0.203 F 
ATOM     76  C   UNL A   1      37.357  28.975  30.282  1.00  0.00     0.198 A 
ATOM     77  C   UNL A   1      37.871  29.436  27.999  1.00  0.00     0.198 A 
ATOM     78  F   UNL A   1      39.842  28.628  27.033  1.00  0.00    -0.203 F 
ATOM     79  F   UNL A   1      36.570  29.160  31.353  1.00  0.00    -0.200 F 
ATOM     80  C   UNL A   1      37.038  29.601  29.090  1.00  0.00     0.200 A 
ATOM     81  F   UNL A   1      37.596  30.073  26.852  1.00  0.00    -0.200 F 
ATOM     82  F   UNL A   1      35.958  30.392  29.001  1.00  0.00    -0.200 F 
ENDBRANCH  48  72
BRANCH  60  83
ATOM     83  C   UNL A   1      44.847  26.442  32.106  1.00  0.00     0.064 A 
ATOM     84  C   UNL A   1      44.540  25.116  31.748  1.00  0.00     0.173 A 
ATOM     85  C   UNL A   1      45.237  26.671  33.431  1.00  0.00     0.173 A 
ATOM     86  F   UNL A   1      44.235  24.794  30.487  1.00  0.00    -0.203 F 
ATOM     87  C   UNL A   1      44.614  24.076  32.680  1.00  0.00     0.198 A 
ATOM     88  C   UNL A   1      45.341  25.629  34.350  1.00  0.00     0.198 A 
ATOM     89  F   UNL A   1      45.585  27.907  33.820  1.00  0.00    -0.203 F 
ATOM     90  F   UNL A   1      44.332  22.818  32.311  1.00  0.00    -0.200 F 
ATOM     91  C   UNL A   1      45.029  24.334  33.977  1.00  0.00     0.200 A 
ATOM     92  F   UNL A   1      45.790  25.880  35.587  1.00  0.00    -0.200 F 
ATOM     93  F   UNL A   1      45.155  23.331  34.857  1.00  0.00    -0.200 F 
ENDBRANCH  60  83
ENDBRANCH  34  35
ENDBRANCH  27  29
ENDBRANCH  26  27
ENDBRANCH  25  26
ENDBRANCH   1  25
TORSDOF 14
ENDMDL
MODEL 2
REMARK VINA RESULT:     -12.7      2.915      4.255
REMARK SMILES CC(C)c1cc(C#N)cc2nc(-c3ccc(C(=O)OCCOC(=O)c4ccc(-c5c6nc(c(-c7c(F)c(F)c(F)c(F)c7F)c7ccc([nH]7)c(-c7c(F)c(F)c(F)c(F)c7F)c7nc(c(-c8c(F)c(F)c(F)c(F)c8F)c8ccc5[nH]8)C=C7)C=C6)cc4)cc3)oc12
REMARK SMILES IDX 20 1 19 2 17 3 18 4 16 5 13 6 14 7 89 8 15 9 88 10 12 11
REMARK SMILES IDX 4 12 5 13 91 14 6 15 10 16 90 17 9 18 11 19 2 20 1 21 3 22
REMARK SMILES IDX 7 23 8 24 21 25 22 26 23 27 24 28 25 29 26 30 87 31 27 32
REMARK SMILES IDX 86 33 28 34 29 35 30 36 80 37 31 38 85 39 79 40 81 41 32 42
REMARK SMILES IDX 84 43 78 44 77 45 33 47 65 48 45 49 64 50 46 51 49 52 63 53
REMARK SMILES IDX 82 54 47 55 48 56 62 58 83 59 50 60 34 61 35 62 43 63 36 64
REMARK SMILES IDX 37 65 41 66 44 67 38 68 39 69 42 70 40 71 66 72 67 73 75 74
REMARK SMILES IDX 68 75 69 76 73 77 76 78 70 79 71 80 74 81 72 82 51 83 52 84
REMARK SMILES IDX 60 85 53 86 54 87 58 88 61 89 55 90 56 91 59 92 57 93
REMARK H PARENT 81 46 49 57
REMARK Flexibility Score: inf
ROOT
ATOM      1  C   UNL A   1      40.800  20.444  26.515  1.00  0.00     0.275 C 
ENDROOT
BRANCH   1   2
ATOM      2  O   UNL A   1      39.711  21.342  26.167  1.00  0.00    -0.458 OA
BRANCH   2   3
ATOM      3  C   UNL A   1      38.688  20.756  25.501  1.00  0.00     0.338 C 
ATOM      4  O   UNL A   1      38.621  19.557  25.289  1.00  0.00    -0.246 OA
BRANCH   3   5
ATOM      5  C   UNL A   1      37.578  21.700  25.163  1.00  0.00     0.060 A 
ATOM      6  C   UNL A   1      35.739  23.776  24.550  1.00  0.00     0.037 A 
ATOM      7  C   UNL A   1      36.706  23.974  25.515  1.00  0.00     0.014 A 
ATOM      8  C   UNL A   1      35.642  22.503  23.955  1.00  0.00     0.014 A 
ATOM      9  C   UNL A   1      37.554  22.920  25.834  1.00  0.00     0.016 A 
ATOM     10  C   UNL A   1      36.573  21.476  24.237  1.00  0.00     0.016 A 
BRANCH   6  11
ATOM     11  C   UNL A   1      34.740  24.812  24.358  1.00  0.00     0.227 A 
ATOM     12  C   UNL A   1      32.560  27.332  25.617  1.00  0.00     0.001 A 
ATOM     13  C   UNL A   1      31.592  27.941  24.772  1.00  0.00     0.027 A 
ATOM     14  C   UNL A   1      33.317  26.341  24.959  1.00  0.00     0.158 A 
ATOM     15  C   UNL A   1      31.389  27.571  23.429  1.00  0.00     0.055 A 
ATOM     16  C   UNL A   1      33.142  25.968  23.630  1.00  0.00     0.111 A 
ATOM     17  O   UNL A   1      34.347  25.561  25.447  1.00  0.00    -0.436 OA
ATOM     18  C   UNL A   1      32.152  26.560  22.849  1.00  0.00     0.052 A 
ATOM     19  N   UNL A   1      34.044  25.017  23.264  1.00  0.00    -0.209 NA
BRANCH  12  20
ATOM     20  C   UNL A   1      32.774  27.783  27.058  1.00  0.00     0.017 C 
ATOM     21  C   UNL A   1      33.910  28.806  27.253  1.00  0.00     0.012 C 
ATOM     22  C   UNL A   1      31.498  28.369  27.670  1.00  0.00     0.012 C 
ENDBRANCH  12  20
BRANCH  15  23
ATOM     23  C   UNL A   1      30.418  28.250  22.631  1.00  0.00     0.099 C 
ATOM     24  N   UNL A   1      29.632  28.801  21.966  1.00  0.00    -0.192 NA
ENDBRANCH  15  23
ENDBRANCH   6  11
ENDBRANCH   3   5
ENDBRANCH   2   3
ENDBRANCH   1   2
BRANCH   1  25
ATOM     25  C   UNL A   1      42.165  21.045  26.157  1.00  0.00     0.275 C 
BRANCH  25  26
ATOM     26  O   UNL A   1      41.976  22.221  25.354  1.00  0.00    -0.458 OA
BRANCH  26  27
ATOM     27  C   UNL A   1      42.682  23.315  25.725  1.00  0.00     0.338 C 
ATOM     28  O   UNL A   1      43.650  23.794  25.159  1.00  0.00    -0.246 OA
BRANCH  27  29
ATOM     29  C   UNL A   1      41.828  24.046  26.684  1.00  0.00     0.060 A 
ATOM     30  C   UNL A   1      40.673  24.748  26.312  1.00  0.00     0.016 A 
ATOM     31  C   UNL A   1      42.380  24.260  27.930  1.00  0.00     0.016 A 
ATOM     32  C   UNL A   1      40.318  25.913  27.009  1.00  0.00     0.010 A 
ATOM     33  C   UNL A   1      41.915  25.330  28.670  1.00  0.00     0.010 A 
ATOM     34  C   UNL A   1      41.082  26.314  28.099  1.00  0.00    -0.014 A 
BRANCH  34  35
ATOM     35  C   UNL A   1      40.940  27.632  28.797  1.00  0.00     0.031 A 
ATOM     36  C   UNL A   1      41.983  28.551  28.289  1.00  0.00     0.074 A 
ATOM     37  C   UNL A   1      39.966  28.135  29.623  1.00  0.00     0.049 A 
ATOM     38  N   UNL A   1      43.134  28.737  28.848  1.00  0.00    -0.248 NA
ATOM     39  C   UNL A   1      41.893  29.075  26.915  1.00  0.00     0.031 C 
ATOM     40  C   UNL A   1      38.724  27.549  30.141  1.00  0.00     0.029 A 
ATOM     41  N   UNL A   1      39.852  29.425  30.120  1.00  0.00    -0.354 N 
ATOM     42  C   UNL A   1      43.809  29.573  27.978  1.00  0.00     0.074 A 
ATOM     43  C   UNL A   1      43.161  29.434  26.706  1.00  0.00     0.031 C 
ATOM     44  C   UNL A   1      37.864  28.504  30.576  1.00  0.00     0.029 A 
ATOM     45  C   UNL A   1      38.564  29.766  30.600  1.00  0.00     0.049 A 
ATOM     46  H   UNL A   1      40.609  30.055  30.139  1.00  0.00     0.167 HD
ATOM     47  C   UNL A   1      44.591  30.582  28.445  1.00  0.00     0.037 A 
ATOM     48  C   UNL A   1      38.138  30.972  31.088  1.00  0.00     0.037 A 
ATOM     49  C   UNL A   1      44.844  30.424  29.856  1.00  0.00     0.049 A 
ATOM     50  C   UNL A   1      39.357  31.710  31.503  1.00  0.00     0.074 A 
ATOM     51  C   UNL A   1      45.402  29.421  30.626  1.00  0.00     0.029 A 
ATOM     52  N   UNL A   1      44.098  31.187  30.723  1.00  0.00    -0.354 N 
ATOM     53  N   UNL A   1      40.115  31.324  32.494  1.00  0.00    -0.248 NA
ATOM     54  C   UNL A   1      40.005  32.500  30.467  1.00  0.00     0.031 C 
ATOM     55  C   UNL A   1      44.576  29.340  31.785  1.00  0.00     0.029 A 
ATOM     56  C   UNL A   1      43.633  30.365  31.720  1.00  0.00     0.049 A 
ATOM     57  H   UNL A   1      43.926  32.153  30.642  1.00  0.00     0.167 HD
ATOM     58  C   UNL A   1      41.402  31.410  31.985  1.00  0.00     0.074 A 
ATOM     59  C   UNL A   1      41.266  32.149  30.727  1.00  0.00     0.031 C 
ATOM     60  C   UNL A   1      42.405  30.607  32.441  1.00  0.00     0.037 A 
BRANCH  47  61
ATOM     61  C   UNL A   1      44.788  31.885  27.718  1.00  0.00     0.064 A 
ATOM     62  C   UNL A   1      45.987  32.088  27.015  1.00  0.00     0.173 A 
ATOM     63  C   UNL A   1      43.968  33.027  27.866  1.00  0.00     0.173 A 
ATOM     64  F   UNL A   1      46.860  31.084  26.854  1.00  0.00    -0.203 F 
ATOM     65  C   UNL A   1      46.350  33.347  26.530  1.00  0.00     0.198 A 
ATOM     66  C   UNL A   1      44.302  34.265  27.326  1.00  0.00     0.198 A 
ATOM     67  F   UNL A   1      42.871  33.036  28.631  1.00  0.00    -0.203 F 
ATOM     68  F   UNL A   1      47.552  33.517  25.964  1.00  0.00    -0.200 F 
ATOM     69  C   UNL A   1      45.504  34.432  26.679  1.00  0.00     0.200 A 
ATOM     70  F   UNL A   1      43.476  35.306  27.509  1.00  0.00    -0.200 F 
ATOM     71  F   UNL A   1      45.868  35.646  26.250  1.00  0.00    -0.200 F 
ENDBRANCH  47  61
BRANCH  48  72
ATOM     72  C   UNL A   1      36.838  31.686  30.869  1.00  0.00     0.064 A 
ATOM     73  C   UNL A   1      35.958  31.995  31.930  1.00  0.00     0.173 A 
ATOM     74  C   UNL A   1      36.582  32.355  29.657  1.00  0.00     0.173 A 
ATOM     75  F   UNL A   1      36.143  31.451  33.143  1.00  0.00    -0.203 F 
ATOM     76  C   UNL A   1      34.915  32.927  31.791  1.00  0.00     0.198 A 
ATOM     77  C   UNL A   1      35.545  33.287  29.520  1.00  0.00     0.198 A 
ATOM     78  F   UNL A   1      37.397  32.189  28.606  1.00  0.00    -0.203 F 
ATOM     79  F   UNL A   1      34.139  33.236  32.842  1.00  0.00    -0.200 F 
ATOM     80  C   UNL A   1      34.720  33.583  30.589  1.00  0.00     0.200 A 
ATOM     81  F   UNL A   1      35.394  33.948  28.363  1.00  0.00    -0.200 F 
ATOM     82  F   UNL A   1      33.771  34.524  30.469  1.00  0.00    -0.200 F 
ENDBRANCH  48  72
BRANCH  60  83
ATOM     83  C   UNL A   1      42.161  29.755  33.662  1.00  0.00     0.064 A 
ATOM     84  C   UNL A   1      41.683  28.431  33.629  1.00  0.00     0.173 A 
ATOM     85  C   UNL A   1      42.628  30.234  34.892  1.00  0.00     0.173 A 
ATOM     86  F   UNL A   1      41.292  27.868  32.481  1.00  0.00    -0.203 F 
ATOM     87  C   UNL A   1      41.669  27.635  34.778  1.00  0.00     0.198 A 
ATOM     88  C   UNL A   1      42.643  29.428  36.029  1.00  0.00     0.198 A 
ATOM     89  F   UNL A   1      43.136  31.473  34.978  1.00  0.00    -0.203 F 
ATOM     90  F   UNL A   1      41.224  26.371  34.717  1.00  0.00    -0.200 F 
ATOM     91  C   UNL A   1      42.163  28.131  35.973  1.00  0.00     0.200 A 
ATOM     92  F   UNL A   1      43.167  29.900  37.168  1.00  0.00    -0.200 F 
ATOM     93  F   UNL A   1      42.203  27.351  37.062  1.00  0.00    -0.200 F 
ENDBRANCH  60  83
ENDBRANCH  34  35
ENDBRANCH  27  29
ENDBRANCH  26  27
ENDBRANCH  25  26
ENDBRANCH   1  25
TORSDOF 14
ENDMDL
MODEL 3
REMARK VINA RESULT:     -12.6      3.446      9.243
REMARK SMILES CC(C)c1cc(C#N)cc2nc(-c3ccc(C(=O)OCCOC(=O)c4ccc(-c5c6nc(c(-c7c(F)c(F)c(F)c(F)c7F)c7ccc([nH]7)c(-c7c(F)c(F)c(F)c(F)c7F)c7nc(c(-c8c(F)c(F)c(F)c(F)c8F)c8ccc5[nH]8)C=C7)C=C6)cc4)cc3)oc12
REMARK SMILES IDX 20 1 19 2 17 3 18 4 16 5 13 6 14 7 89 8 15 9 88 10 12 11
REMARK SMILES IDX 4 12 5 13 91 14 6 15 10 16 90 17 9 18 11 19 2 20 1 21 3 22
REMARK SMILES IDX 7 23 8 24 21 25 22 26 23 27 24 28 25 29 26 30 87 31 27 32
REMARK SMILES IDX 86 33 28 34 29 35 30 36 80 37 31 38 85 39 79 40 81 41 32 42
REMARK SMILES IDX 84 43 78 44 77 45 33 47 65 48 45 49 64 50 46 51 49 52 63 53
REMARK SMILES IDX 82 54 47 55 48 56 62 58 83 59 50 60 34 61 35 62 43 63 36 64
REMARK SMILES IDX 37 65 41 66 44 67 38 68 39 69 42 70 40 71 66 72 67 73 75 74
REMARK SMILES IDX 68 75 69 76 73 77 76 78 70 79 71 80 74 81 72 82 51 83 52 84
REMARK SMILES IDX 60 85 53 86 54 87 58 88 61 89 55 90 56 91 59 92 57 93
REMARK H PARENT 81 46 49 57
REMARK Flexibility Score: inf
ROOT
ATOM      1  C   UNL A   1      33.402  33.164  28.061  1.00  0.00     0.275 C 
ENDROOT
BRANCH   1   2
ATOM      2  O   UNL A   1      33.718  31.829  27.583  1.00  0.00    -0.458 OA
BRANCH   2   3
ATOM      3  C   UNL A   1      32.653  31.124  27.133  1.00  0.00     0.338 C 
ATOM      4  O   UNL A   1      31.573  31.627  26.877  1.00  0.00    -0.246 OA
BRANCH   3   5
ATOM      5  C   UNL A   1      32.963  29.688  26.853  1.00  0.00     0.060 A 
ATOM      6  C   UNL A   1      33.175  26.927  26.218  1.00  0.00     0.037 A 
ATOM      7  C   UNL A   1      32.050  27.402  26.862  1.00  0.00     0.014 A 
ATOM      8  C   UNL A   1      34.232  27.826  25.971  1.00  0.00     0.014 A 
ATOM      9  C   UNL A   1      32.001  28.747  27.210  1.00  0.00     0.016 A 
ATOM     10  C   UNL A   1      34.118  29.206  26.260  1.00  0.00     0.016 A 
BRANCH   6  11
ATOM     11  C   UNL A   1      33.302  25.494  26.027  1.00  0.00     0.227 A 
ATOM     12  C   UNL A   1      35.088  22.633  24.881  1.00  0.00     0.001 A 
ATOM     13  C   UNL A   1      34.467  21.354  24.854  1.00  0.00     0.027 A 
ATOM     14  C   UNL A   1      34.227  23.651  25.339  1.00  0.00     0.158 A 
ATOM     15  C   UNL A   1      33.125  21.133  25.214  1.00  0.00     0.055 A 
ATOM     16  C   UNL A   1      32.901  23.454  25.713  1.00  0.00     0.111 A 
ATOM     17  O   UNL A   1      34.483  24.997  25.516  1.00  0.00    -0.436 OA
ATOM     18  C   UNL A   1      32.319  22.191  25.629  1.00  0.00     0.052 A 
ATOM     19  N   UNL A   1      32.337  24.613  26.149  1.00  0.00    -0.209 NA
BRANCH  12  20
ATOM     20  C   UNL A   1      36.555  22.828  24.515  1.00  0.00     0.017 C 
ATOM     21  C   UNL A   1      37.515  21.775  25.104  1.00  0.00     0.012 C 
ATOM     22  C   UNL A   1      36.767  22.867  22.998  1.00  0.00     0.012 C 
ENDBRANCH  12  20
BRANCH  15  23
ATOM     23  C   UNL A   1      32.577  19.814  25.192  1.00  0.00     0.099 C 
ATOM     24  N   UNL A   1      32.142  18.730  25.167  1.00  0.00    -0.192 NA
ENDBRANCH  15  23
ENDBRANCH   6  11
ENDBRANCH   3   5
ENDBRANCH   2   3
ENDBRANCH   1   2
BRANCH   1  25
ATOM     25  C   UNL A   1      34.234  33.535  29.296  1.00  0.00     0.275 C 
BRANCH  25  26
ATOM     26  O   UNL A   1      34.277  32.418  30.198  1.00  0.00    -0.458 OA
BRANCH  26  27
ATOM     27  C   UNL A   1      35.426  32.258  30.896  1.00  0.00     0.338 C 
ATOM     28  O   UNL A   1      35.564  32.297  32.107  1.00  0.00    -0.246 OA
BRANCH  27  29
ATOM     29  C   UNL A   1      36.386  31.630  29.965  1.00  0.00     0.060 A 
ATOM     30  C   UNL A   1      36.206  30.353  29.416  1.00  0.00     0.016 A 
ATOM     31  C   UNL A   1      37.624  32.234  29.888  1.00  0.00     0.016 A 
ATOM     32  C   UNL A   1      37.327  29.549  29.155  1.00  0.00     0.010 A 
ATOM     33  C   UNL A   1      38.697  31.462  29.487  1.00  0.00     0.010 A 
ATOM     34  C   UNL A   1      38.599  30.060  29.385  1.00  0.00    -0.014 A 
BRANCH  34  35
ATOM     35  C   UNL A   1      39.859  29.250  29.347  1.00  0.00     0.031 A 
ATOM     36  C   UNL A   1      40.264  28.938  30.736  1.00  0.00     0.074 A 
ATOM     37  C   UNL A   1      40.534  28.647  28.315  1.00  0.00     0.049 A 
ATOM     38  N   UNL A   1      41.106  29.632  31.429  1.00  0.00    -0.248 NA
ATOM     39  C   UNL A   1      39.473  27.985  31.534  1.00  0.00     0.031 C 
ATOM     40  C   UNL A   1      40.276  28.604  26.870  1.00  0.00     0.029 A 
ATOM     41  N   UNL A   1      41.629  27.799  28.391  1.00  0.00    -0.354 N 
ATOM     42  C   UNL A   1      41.085  29.049  32.682  1.00  0.00     0.074 A 
ATOM     43  C   UNL A   1      39.848  28.329  32.767  1.00  0.00     0.031 C 
ATOM     44  C   UNL A   1      40.935  27.578  26.275  1.00  0.00     0.029 A 
ATOM     45  C   UNL A   1      41.860  27.019  27.232  1.00  0.00     0.049 A 
ATOM     46  H   UNL A   1      42.202  27.744  29.190  1.00  0.00     0.167 HD
ATOM     47  C   UNL A   1      42.230  28.888  33.396  1.00  0.00     0.037 A 
ATOM     48  C   UNL A   1      42.818  26.060  27.038  1.00  0.00     0.037 A 
ATOM     49  C   UNL A   1      43.303  29.668  32.829  1.00  0.00     0.049 A 
ATOM     50  C   UNL A   1      43.882  26.323  28.039  1.00  0.00     0.074 A 
ATOM     51  C   UNL A   1      43.472  31.013  32.555  1.00  0.00     0.029 A 
ATOM     52  N   UNL A   1      44.217  29.010  32.042  1.00  0.00    -0.354 N 
ATOM     53  N   UNL A   1      44.629  27.394  28.013  1.00  0.00    -0.248 NA
ATOM     54  C   UNL A   1      43.699  25.698  29.340  1.00  0.00     0.031 C 
ATOM     55  C   UNL A   1      44.110  31.054  31.281  1.00  0.00     0.029 A 
ATOM     56  C   UNL A   1      44.400  29.745  30.897  1.00  0.00     0.049 A 
ATOM     57  H   UNL A   1      44.663  28.160  32.262  1.00  0.00     0.167 HD
ATOM     58  C   UNL A   1      44.620  27.841  29.324  1.00  0.00     0.074 A 
ATOM     59  C   UNL A   1      44.030  26.745  30.098  1.00  0.00     0.031 C 
ATOM     60  C   UNL A   1      44.777  29.161  29.630  1.00  0.00     0.037 A 
BRANCH  47  61
ATOM     61  C   UNL A   1      42.463  27.747  34.349  1.00  0.00     0.064 A 
ATOM     62  C   UNL A   1      43.058  26.573  33.860  1.00  0.00     0.173 A 
ATOM     63  C   UNL A   1      41.923  27.658  35.653  1.00  0.00     0.173 A 
ATOM     64  F   UNL A   1      43.562  26.532  32.618  1.00  0.00    -0.203 F 
ATOM     65  C   UNL A   1      43.080  25.393  34.607  1.00  0.00     0.198 A 
ATOM     66  C   UNL A   1      42.004  26.500  36.420  1.00  0.00     0.198 A 
ATOM     67  F   UNL A   1      41.197  28.636  36.204  1.00  0.00    -0.203 F 
ATOM     68  F   UNL A   1      43.559  24.270  34.058  1.00  0.00    -0.200 F 
ATOM     69  C   UNL A   1      42.559  25.360  35.889  1.00  0.00     0.200 A 
ATOM     70  F   UNL A   1      41.467  26.488  37.649  1.00  0.00    -0.200 F 
ATOM     71  F   UNL A   1      42.544  24.220  36.591  1.00  0.00    -0.200 F 
ENDBRANCH  47  61
BRANCH  48  72
ATOM     72  C   UNL A   1      42.716  24.734  26.346  1.00  0.00     0.064 A 
ATOM     73  C   UNL A   1      43.630  24.332  25.346  1.00  0.00     0.173 A 
ATOM     74  C   UNL A   1      41.908  23.710  26.875  1.00  0.00     0.173 A 
ATOM     75  F   UNL A   1      44.482  25.220  24.812  1.00  0.00    -0.203 F 
ATOM     76  C   UNL A   1      43.741  22.994  24.928  1.00  0.00     0.198 A 
ATOM     77  C   UNL A   1      42.022  22.376  26.460  1.00  0.00     0.198 A 
ATOM     78  F   UNL A   1      41.056  23.968  27.876  1.00  0.00    -0.203 F 
ATOM     79  F   UNL A   1      44.663  22.645  24.018  1.00  0.00    -0.200 F 
ATOM     80  C   UNL A   1      42.946  22.016  25.498  1.00  0.00     0.200 A 
ATOM     81  F   UNL A   1      41.277  21.431  27.050  1.00  0.00    -0.200 F 
ATOM     82  F   UNL A   1      43.095  20.728  25.153  1.00  0.00    -0.200 F 
ENDBRANCH  48  72
BRANCH  60  83
ATOM     83  C   UNL A   1      45.174  30.122  28.537  1.00  0.00     0.064 A 
ATOM     84  C   UNL A   1      44.267  30.877  27.770  1.00  0.00     0.173 A 
ATOM     85  C   UNL A   1      46.533  30.437  28.410  1.00  0.00     0.173 A 
ATOM     86  F   UNL A   1      42.947  30.695  27.887  1.00  0.00    -0.203 F 
ATOM     87  C   UNL A   1      44.706  31.891  26.914  1.00  0.00     0.198 A 
ATOM     88  C   UNL A   1      46.966  31.470  27.581  1.00  0.00     0.198 A 
ATOM     89  F   UNL A   1      47.442  29.782  29.149  1.00  0.00    -0.203 F 
ATOM     90  F   UNL A   1      43.821  32.607  26.205  1.00  0.00    -0.200 F 
ATOM     91  C   UNL A   1      46.055  32.195  26.832  1.00  0.00     0.200 A 
ATOM     92  F   UNL A   1      48.267  31.788  27.546  1.00  0.00    -0.200 F 
ATOM     93  F   UNL A   1      46.475  33.203  26.056  1.00  0.00    -0.200 F 
ENDBRANCH  60  83
ENDBRANCH  34  35
ENDBRANCH  27  29
ENDBRANCH  26  27
ENDBRANCH  25  26
ENDBRANCH   1  25
TORSDOF 14
ENDMDL
