MODEL 1
REMARK VINA RESULT:     -11.2      0.000      0.000
REMARK SMILES COc1ncccc1Cn1ccc(C(=O)OCCOC(=O)c2ccc(-c3c4nc(c(-c5c(F)c(F)c(F)c(F)c5F)c5ccc([nH]5)c(-c5c(F)c(F)c(F)c(F)c5F)c5nc(c(-c6c(F)c(F)c(F)c(F)c6F)c6ccc3[nH]6)C=C5)C=C4)cc2)n1
REMARK SMILES IDX 17 1 16 2 14 3 15 4 13 5 10 6 11 7 85 8 12 9 9 10 8 11 3 12
REMARK SMILES IDX 4 13 5 14 7 15 6 16 2 17 1 18 18 19 19 20 20 21 21 22 22 23
REMARK SMILES IDX 23 24 84 25 24 26 83 27 25 28 26 29 27 30 77 31 28 32 82 33
REMARK SMILES IDX 76 34 78 35 29 36 81 37 75 38 74 39 30 41 62 42 42 43 61 44
REMARK SMILES IDX 43 45 46 46 60 47 79 48 44 49 45 50 59 52 80 53 47 54 31 55
REMARK SMILES IDX 32 56 40 57 33 58 34 59 38 60 41 61 35 62 36 63 39 64 37 65
REMARK SMILES IDX 63 66 64 67 72 68 65 69 66 70 70 71 73 72 67 73 68 74 71 75
REMARK SMILES IDX 69 76 48 77 49 78 57 79 50 80 51 81 55 82 58 83 52 84 53 85
REMARK SMILES IDX 56 86 54 87
REMARK H PARENT 78 40 46 51
REMARK Flexibility Score: inf
ROOT
ATOM      1  C   UNL A   1      42.354  19.316  26.335  1.00  0.00     0.275 C 
ENDROOT
BRANCH   1   2
ATOM      2  O   UNL A   1      42.809  19.448  24.981  1.00  0.00    -0.457 OA
BRANCH   2   3
ATOM      3  C   UNL A   1      44.172  19.443  24.823  1.00  0.00     0.358 C 
ATOM      4  O   UNL A   1      44.827  18.453  24.543  1.00  0.00    -0.244 OA
BRANCH   3   5
ATOM      5  C   UNL A   1      44.740  20.797  24.821  1.00  0.00     0.170 A 
ATOM      6  N   UNL A   1      44.942  22.915  24.699  1.00  0.00    -0.267 N 
ATOM      7  C   UNL A   1      46.207  22.428  24.529  1.00  0.00     0.110 A 
ATOM      8  N   UNL A   1      44.019  21.933  24.833  1.00  0.00    -0.165 NA
ATOM      9  C   UNL A   1      46.128  21.075  24.721  1.00  0.00     0.057 A 
BRANCH   6  10
ATOM     10  C   UNL A   1      44.510  24.306  24.850  1.00  0.00     0.185 C 
BRANCH  10  11
ATOM     11  C   UNL A   1      45.264  25.072  25.899  1.00  0.00     0.036 A 
ATOM     12  C   UNL A   1      46.229  26.018  25.556  1.00  0.00     0.218 A 
ATOM     13  N   UNL A   1      46.911  26.768  26.447  1.00  0.00    -0.222 NA
ATOM     14  C   UNL A   1      46.626  26.562  27.752  1.00  0.00     0.115 A 
ATOM     15  C   UNL A   1      44.994  24.895  27.260  1.00  0.00     0.013 A 
ATOM     16  C   UNL A   1      45.692  25.642  28.203  1.00  0.00     0.021 A 
BRANCH  12  17
ATOM     17  O   UNL A   1      46.603  26.123  24.239  1.00  0.00    -0.481 OA
ATOM     18  C   UNL A   1      48.006  26.321  24.103  1.00  0.00     0.280 C 
ENDBRANCH  12  17
ENDBRANCH  10  11
ENDBRANCH   6  10
ENDBRANCH   3   5
ENDBRANCH   2   3
ENDBRANCH   1   2
BRANCH   1  19
ATOM     19  C   UNL A   1      40.987  19.971  26.523  1.00  0.00     0.275 C 
BRANCH  19  20
ATOM     20  O   UNL A   1      41.079  21.253  27.155  1.00  0.00    -0.458 OA
BRANCH  20  21
ATOM     21  C   UNL A   1      40.196  22.177  26.717  1.00  0.00     0.338 C 
ATOM     22  O   UNL A   1      39.175  21.969  26.080  1.00  0.00    -0.246 OA
BRANCH  21  23
ATOM     23  C   UNL A   1      40.716  23.532  26.956  1.00  0.00     0.060 A 
ATOM     24  C   UNL A   1      41.720  23.692  27.919  1.00  0.00     0.016 A 
ATOM     25  C   UNL A   1      40.047  24.637  26.415  1.00  0.00     0.016 A 
ATOM     26  C   UNL A   1      41.959  24.953  28.441  1.00  0.00     0.010 A 
ATOM     27  C   UNL A   1      40.279  25.892  26.943  1.00  0.00     0.010 A 
ATOM     28  C   UNL A   1      41.184  26.029  27.998  1.00  0.00    -0.014 A 
BRANCH  28  29
ATOM     29  C   UNL A   1      41.327  27.314  28.668  1.00  0.00     0.031 A 
ATOM     30  C   UNL A   1      42.527  28.105  28.311  1.00  0.00     0.074 A 
ATOM     31  C   UNL A   1      40.338  27.822  29.431  1.00  0.00     0.049 A 
ATOM     32  N   UNL A   1      43.398  28.643  29.103  1.00  0.00    -0.248 NA
ATOM     33  C   UNL A   1      42.818  28.292  26.880  1.00  0.00     0.031 C 
ATOM     34  C   UNL A   1      38.987  27.276  29.597  1.00  0.00     0.029 A 
ATOM     35  N   UNL A   1      40.291  28.999  30.123  1.00  0.00    -0.354 N 
ATOM     36  C   UNL A   1      44.258  29.367  28.282  1.00  0.00     0.074 A 
ATOM     37  C   UNL A   1      43.923  29.033  26.923  1.00  0.00     0.031 C 
ATOM     38  C   UNL A   1      38.197  28.214  30.159  1.00  0.00     0.029 A 
ATOM     39  C   UNL A   1      39.011  29.367  30.505  1.00  0.00     0.049 A 
ATOM     40  H   UNL A   1      41.090  29.535  30.330  1.00  0.00     0.167 HD
ATOM     41  C   UNL A   1      45.039  30.364  28.773  1.00  0.00     0.037 A 
ATOM     42  C   UNL A   1      38.621  30.557  31.018  1.00  0.00     0.037 A 
ATOM     43  C   UNL A   1      45.185  30.287  30.199  1.00  0.00     0.049 A 
ATOM     44  C   UNL A   1      39.807  31.241  31.581  1.00  0.00     0.074 A 
ATOM     45  C   UNL A   1      45.883  29.498  31.084  1.00  0.00     0.029 A 
ATOM     46  N   UNL A   1      44.259  30.989  30.921  1.00  0.00    -0.354 N 
ATOM     47  N   UNL A   1      40.458  30.829  32.632  1.00  0.00    -0.248 NA
ATOM     48  C   UNL A   1      40.469  32.287  30.809  1.00  0.00     0.031 C 
ATOM     49  C   UNL A   1      45.179  29.573  32.322  1.00  0.00     0.029 A 
ATOM     50  C   UNL A   1      44.068  30.396  32.142  1.00  0.00     0.049 A 
ATOM     51  H   UNL A   1      43.798  31.800  30.610  1.00  0.00     0.167 HD
ATOM     52  C   UNL A   1      41.756  31.249  32.418  1.00  0.00     0.074 A 
ATOM     53  C   UNL A   1      41.664  32.287  31.406  1.00  0.00     0.031 C 
ATOM     54  C   UNL A   1      42.808  30.494  32.841  1.00  0.00     0.037 A 
BRANCH  41  55
ATOM     55  C   UNL A   1      45.339  31.640  28.026  1.00  0.00     0.064 A 
ATOM     56  C   UNL A   1      44.276  32.471  27.617  1.00  0.00     0.173 A 
ATOM     57  C   UNL A   1      46.590  31.907  27.428  1.00  0.00     0.173 A 
ATOM     58  F   UNL A   1      43.038  32.279  28.096  1.00  0.00    -0.203 F 
ATOM     59  C   UNL A   1      44.445  33.457  26.642  1.00  0.00     0.198 A 
ATOM     60  C   UNL A   1      46.766  32.929  26.496  1.00  0.00     0.198 A 
ATOM     61  F   UNL A   1      47.653  31.120  27.633  1.00  0.00    -0.203 F 
ATOM     62  F   UNL A   1      43.385  34.146  26.200  1.00  0.00    -0.200 F 
ATOM     63  C   UNL A   1      45.690  33.685  26.082  1.00  0.00     0.200 A 
ATOM     64  F   UNL A   1      47.974  33.117  25.945  1.00  0.00    -0.200 F 
ATOM     65  F   UNL A   1      45.843  34.593  25.109  1.00  0.00    -0.200 F 
ENDBRANCH  41  55
BRANCH  42  66
ATOM     66  C   UNL A   1      37.308  31.224  30.880  1.00  0.00     0.064 A 
ATOM     67  C   UNL A   1      36.521  31.521  32.002  1.00  0.00     0.173 A 
ATOM     68  C   UNL A   1      36.913  31.809  29.662  1.00  0.00     0.173 A 
ATOM     69  F   UNL A   1      36.855  31.040  33.209  1.00  0.00    -0.203 F 
ATOM     70  C   UNL A   1      35.413  32.370  31.915  1.00  0.00     0.198 A 
ATOM     71  C   UNL A   1      35.799  32.643  29.572  1.00  0.00     0.198 A 
ATOM     72  F   UNL A   1      37.649  31.653  28.552  1.00  0.00    -0.203 F 
ATOM     73  F   UNL A   1      34.721  32.681  33.020  1.00  0.00    -0.200 F 
ATOM     74  C   UNL A   1      35.058  32.935  30.701  1.00  0.00     0.200 A 
ATOM     75  F   UNL A   1      35.486  33.209  28.397  1.00  0.00    -0.200 F 
ATOM     76  F   UNL A   1      34.030  33.792  30.627  1.00  0.00    -0.200 F 
ENDBRANCH  42  66
BRANCH  54  77
ATOM     77  C   UNL A   1      42.543  29.531  33.955  1.00  0.00     0.064 A 
ATOM     78  C   UNL A   1      41.951  28.271  33.775  1.00  0.00     0.173 A 
ATOM     79  C   UNL A   1      42.964  29.876  35.246  1.00  0.00     0.173 A 
ATOM     80  F   UNL A   1      41.607  27.841  32.554  1.00  0.00    -0.203 F 
ATOM     81  C   UNL A   1      41.737  27.418  34.856  1.00  0.00     0.198 A 
ATOM     82  C   UNL A   1      42.784  29.007  36.316  1.00  0.00     0.198 A 
ATOM     83  F   UNL A   1      43.583  31.047  35.461  1.00  0.00    -0.203 F 
ATOM     84  F   UNL A   1      41.144  26.230  34.667  1.00  0.00    -0.200 F 
ATOM     85  C   UNL A   1      42.156  27.785  36.124  1.00  0.00     0.200 A 
ATOM     86  F   UNL A   1      43.232  29.345  37.533  1.00  0.00    -0.200 F 
ATOM     87  F   UNL A   1      41.978  26.952  37.159  1.00  0.00    -0.200 F 
ENDBRANCH  54  77
ENDBRANCH  28  29
ENDBRANCH  21  23
ENDBRANCH  20  21
ENDBRANCH  19  20
ENDBRANCH   1  19
TORSDOF 14
ENDMDL
MODEL 2
REMARK VINA RESULT:     -11.1      0.731      1.768
REMARK SMILES COc1ncccc1Cn1ccc(C(=O)OCCOC(=O)c2ccc(-c3c4nc(c(-c5c(F)c(F)c(F)c(F)c5F)c5ccc([nH]5)c(-c5c(F)c(F)c(F)c(F)c5F)c5nc(c(-c6c(F)c(F)c(F)c(F)c6F)c6ccc3[nH]6)C=C5)C=C4)cc2)n1
REMARK SMILES IDX 17 1 16 2 14 3 15 4 13 5 10 6 11 7 85 8 12 9 9 10 8 11 3 12
REMARK SMILES IDX 4 13 5 14 7 15 6 16 2 17 1 18 18 19 19 20 20 21 21 22 22 23
REMARK SMILES IDX 23 24 84 25 24 26 83 27 25 28 26 29 27 30 77 31 28 32 82 33
REMARK SMILES IDX 76 34 78 35 29 36 81 37 75 38 74 39 30 41 62 42 42 43 61 44
REMARK SMILES IDX 43 45 46 46 60 47 79 48 44 49 45 50 59 52 80 53 47 54 31 55
REMARK SMILES IDX 32 56 40 57 33 58 34 59 38 60 41 61 35 62 36 63 39 64 37 65
REMARK SMILES IDX 63 66 64 67 72 68 65 69 66 70 70 71 73 72 67 73 68 74 71 75
REMARK SMILES IDX 69 76 48 77 49 78 57 79 50 80 51 81 55 82 58 83 52 84 53 85
REMARK SMILES IDX 56 86 54 87
REMARK H PARENT 78 40 46 51
REMARK Flexibility Score: inf
ROOT
ATOM      1  C   UNL A   1      41.910  19.212  26.350  1.00  0.00     0.275 C 
ENDROOT
BRANCH   1   2
ATOM      2  O   UNL A   1      42.577  19.869  25.263  1.00  0.00    -0.457 OA
BRANCH   2   3
ATOM      3  C   UNL A   1      43.946  19.875  25.340  1.00  0.00     0.358 C 
ATOM      4  O   UNL A   1      44.637  18.869  25.368  1.00  0.00    -0.244 OA
BRANCH   3   5
ATOM      5  C   UNL A   1      44.511  21.220  25.172  1.00  0.00     0.170 A 
ATOM      6  N   UNL A   1      44.698  23.323  24.884  1.00  0.00    -0.267 N 
ATOM      7  C   UNL A   1      45.929  22.814  24.580  1.00  0.00     0.110 A 
ATOM      8  N   UNL A   1      43.800  22.362  25.204  1.00  0.00    -0.165 NA
ATOM      9  C   UNL A   1      45.874  21.477  24.871  1.00  0.00     0.057 A 
BRANCH   6  10
ATOM     10  C   UNL A   1      44.292  24.726  24.998  1.00  0.00     0.185 C 
BRANCH  10  11
ATOM     11  C   UNL A   1      45.077  25.512  26.008  1.00  0.00     0.036 A 
ATOM     12  C   UNL A   1      46.014  26.468  25.618  1.00  0.00     0.218 A 
ATOM     13  N   UNL A   1      46.721  27.235  26.473  1.00  0.00    -0.222 NA
ATOM     14  C   UNL A   1      46.494  27.036  27.790  1.00  0.00     0.115 A 
ATOM     15  C   UNL A   1      44.868  25.343  27.381  1.00  0.00     0.013 A 
ATOM     16  C   UNL A   1      45.593  26.107  28.288  1.00  0.00     0.021 A 
BRANCH  12  17
ATOM     17  O   UNL A   1      46.330  26.567  24.285  1.00  0.00    -0.481 OA
ATOM     18  C   UNL A   1      46.935  27.819  23.979  1.00  0.00     0.280 C 
ENDBRANCH  12  17
ENDBRANCH  10  11
ENDBRANCH   6  10
ENDBRANCH   3   5
ENDBRANCH   2   3
ENDBRANCH   1   2
BRANCH   1  19
ATOM     19  C   UNL A   1      40.792  20.083  26.918  1.00  0.00     0.275 C 
BRANCH  19  20
ATOM     20  O   UNL A   1      41.192  21.449  27.081  1.00  0.00    -0.458 OA
BRANCH  20  21
ATOM     21  C   UNL A   1      40.213  22.363  26.900  1.00  0.00     0.338 C 
ATOM     22  O   UNL A   1      39.080  22.151  26.499  1.00  0.00    -0.246 OA
BRANCH  21  23
ATOM     23  C   UNL A   1      40.745  23.721  27.087  1.00  0.00     0.060 A 
ATOM     24  C   UNL A   1      41.603  23.950  28.170  1.00  0.00     0.016 A 
ATOM     25  C   UNL A   1      40.205  24.784  26.352  1.00  0.00     0.016 A 
ATOM     26  C   UNL A   1      41.812  25.250  28.602  1.00  0.00     0.010 A 
ATOM     27  C   UNL A   1      40.406  26.078  26.790  1.00  0.00     0.010 A 
ATOM     28  C   UNL A   1      41.152  26.296  27.950  1.00  0.00    -0.014 A 
BRANCH  28  29
ATOM     29  C   UNL A   1      41.245  27.636  28.511  1.00  0.00     0.031 A 
ATOM     30  C   UNL A   1      42.410  28.444  28.080  1.00  0.00     0.074 A 
ATOM     31  C   UNL A   1      40.241  28.164  29.239  1.00  0.00     0.049 A 
ATOM     32  N   UNL A   1      43.262  29.080  28.816  1.00  0.00    -0.248 NA
ATOM     33  C   UNL A   1      42.684  28.524  26.636  1.00  0.00     0.031 C 
ATOM     34  C   UNL A   1      38.915  27.579  29.462  1.00  0.00     0.029 A 
ATOM     35  N   UNL A   1      40.149  29.391  29.833  1.00  0.00    -0.354 N 
ATOM     36  C   UNL A   1      44.087  29.769  27.931  1.00  0.00     0.074 A 
ATOM     37  C   UNL A   1      43.758  29.310  26.607  1.00  0.00     0.031 C 
ATOM     38  C   UNL A   1      38.090  28.526  29.952  1.00  0.00     0.029 A 
ATOM     39  C   UNL A   1      38.857  29.737  30.196  1.00  0.00     0.049 A 
ATOM     40  H   UNL A   1      40.926  29.975  29.987  1.00  0.00     0.167 HD
ATOM     41  C   UNL A   1      44.829  30.834  28.331  1.00  0.00     0.037 A 
ATOM     42  C   UNL A   1      38.421  30.947  30.612  1.00  0.00     0.037 A 
ATOM     43  C   UNL A   1      44.985  30.881  29.757  1.00  0.00     0.049 A 
ATOM     44  C   UNL A   1      39.581  31.724  31.107  1.00  0.00     0.074 A 
ATOM     45  C   UNL A   1      45.721  30.196  30.697  1.00  0.00     0.029 A 
ATOM     46  N   UNL A   1      44.036  31.601  30.428  1.00  0.00    -0.354 N 
ATOM     47  N   UNL A   1      40.254  31.427  32.182  1.00  0.00    -0.248 NA
ATOM     48  C   UNL A   1      40.194  32.729  30.245  1.00  0.00     0.031 C 
ATOM     49  C   UNL A   1      45.022  30.344  31.931  1.00  0.00     0.029 A 
ATOM     50  C   UNL A   1      43.877  31.104  31.695  1.00  0.00     0.049 A 
ATOM     51  H   UNL A   1      43.539  32.365  30.056  1.00  0.00     0.167 HD
ATOM     52  C   UNL A   1      41.533  31.881  31.922  1.00  0.00     0.074 A 
ATOM     53  C   UNL A   1      41.392  32.828  30.829  1.00  0.00     0.031 C 
ATOM     54  C   UNL A   1      42.618  31.207  32.395  1.00  0.00     0.037 A 
BRANCH  41  55
ATOM     55  C   UNL A   1      45.070  32.056  27.480  1.00  0.00     0.064 A 
ATOM     56  C   UNL A   1      46.352  32.281  26.938  1.00  0.00     0.173 A 
ATOM     57  C   UNL A   1      44.189  33.158  27.446  1.00  0.00     0.173 A 
ATOM     58  F   UNL A   1      47.278  31.311  26.953  1.00  0.00    -0.203 F 
ATOM     59  C   UNL A   1      46.736  33.533  26.450  1.00  0.00     0.198 A 
ATOM     60  C   UNL A   1      44.558  34.390  26.908  1.00  0.00     0.198 A 
ATOM     61  F   UNL A   1      42.987  33.120  28.035  1.00  0.00    -0.203 F 
ATOM     62  F   UNL A   1      47.998  33.734  26.051  1.00  0.00    -0.200 F 
ATOM     63  C   UNL A   1      45.838  34.587  26.436  1.00  0.00     0.200 A 
ATOM     64  F   UNL A   1      43.683  35.407  26.928  1.00  0.00    -0.200 F 
ATOM     65  F   UNL A   1      46.220  35.801  26.019  1.00  0.00    -0.200 F 
ENDBRANCH  41  55
BRANCH  42  66
ATOM     66  C   UNL A   1      37.081  31.548  30.433  1.00  0.00     0.064 A 
ATOM     67  C   UNL A   1      36.212  31.728  31.519  1.00  0.00     0.173 A 
ATOM     68  C   UNL A   1      36.724  32.184  29.229  1.00  0.00     0.173 A 
ATOM     69  F   UNL A   1      36.504  31.191  32.713  1.00  0.00    -0.203 F 
ATOM     70  C   UNL A   1      35.062  32.516  31.413  1.00  0.00     0.198 A 
ATOM     71  C   UNL A   1      35.569  32.958  29.119  1.00  0.00     0.198 A 
ATOM     72  F   UNL A   1      37.532  32.140  28.161  1.00  0.00    -0.203 F 
ATOM     73  F   UNL A   1      34.289  32.718  32.489  1.00  0.00    -0.200 F 
ATOM     74  C   UNL A   1      34.746  33.136  30.216  1.00  0.00     0.200 A 
ATOM     75  F   UNL A   1      35.293  33.579  27.963  1.00  0.00    -0.200 F 
ATOM     76  F   UNL A   1      33.675  33.937  30.128  1.00  0.00    -0.200 F 
ENDBRANCH  42  66
BRANCH  54  77
ATOM     77  C   UNL A   1      42.400  30.329  33.587  1.00  0.00     0.064 A 
ATOM     78  C   UNL A   1      42.457  30.783  34.914  1.00  0.00     0.173 A 
ATOM     79  C   UNL A   1      42.057  28.987  33.371  1.00  0.00     0.173 A 
ATOM     80  F   UNL A   1      42.690  32.073  35.189  1.00  0.00    -0.203 F 
ATOM     81  C   UNL A   1      42.238  29.913  35.980  1.00  0.00     0.198 A 
ATOM     82  C   UNL A   1      41.802  28.131  34.436  1.00  0.00     0.198 A 
ATOM     83  F   UNL A   1      41.937  28.517  32.120  1.00  0.00    -0.203 F 
ATOM     84  F   UNL A   1      42.326  30.361  37.241  1.00  0.00    -0.200 F 
ATOM     85  C   UNL A   1      41.907  28.590  35.740  1.00  0.00     0.200 A 
ATOM     86  F   UNL A   1      41.437  26.863  34.200  1.00  0.00    -0.200 F 
ATOM     87  F   UNL A   1      41.667  27.760  36.765  1.00  0.00    -0.200 F 
ENDBRANCH  54  77
ENDBRANCH  28  29
ENDBRANCH  21  23
ENDBRANCH  20  21
ENDBRANCH  19  20
ENDBRANCH   1  19
TORSDOF 14
ENDMDL
MODEL 3
REMARK VINA RESULT:     -11.0      4.456     11.328
REMARK SMILES COc1ncccc1Cn1ccc(C(=O)OCCOC(=O)c2ccc(-c3c4nc(c(-c5c(F)c(F)c(F)c(F)c5F)c5ccc([nH]5)c(-c5c(F)c(F)c(F)c(F)c5F)c5nc(c(-c6c(F)c(F)c(F)c(F)c6F)c6ccc3[nH]6)C=C5)C=C4)cc2)n1
REMARK SMILES IDX 17 1 16 2 14 3 15 4 13 5 10 6 11 7 85 8 12 9 9 10 8 11 3 12
REMARK SMILES IDX 4 13 5 14 7 15 6 16 2 17 1 18 18 19 19 20 20 21 21 22 22 23
REMARK SMILES IDX 23 24 84 25 24 26 83 27 25 28 26 29 27 30 77 31 28 32 82 33
REMARK SMILES IDX 76 34 78 35 29 36 81 37 75 38 74 39 30 41 62 42 42 43 61 44
REMARK SMILES IDX 43 45 46 46 60 47 79 48 44 49 45 50 59 52 80 53 47 54 31 55
REMARK SMILES IDX 32 56 40 57 33 58 34 59 38 60 41 61 35 62 36 63 39 64 37 65
REMARK SMILES IDX 63 66 64 67 72 68 65 69 66 70 70 71 73 72 67 73 68 74 71 75
REMARK SMILES IDX 69 76 48 77 49 78 57 79 50 80 51 81 55 82 58 83 52 84 53 85
REMARK SMILES IDX 56 86 54 87
REMARK H PARENT 78 40 46 51
REMARK Flexibility Score: inf
ROOT
ATOM      1  C   UNL A   1      33.299  35.068  28.687  1.00  0.00     0.275 C 
ENDROOT
BRANCH   1   2
ATOM      2  O   UNL A   1      32.588  35.000  29.931  1.00  0.00    -0.457 OA
BRANCH   2   3
ATOM      3  C   UNL A   1      32.967  35.925  30.869  1.00  0.00     0.358 C 
ATOM      4  O   UNL A   1      32.528  37.062  30.929  1.00  0.00    -0.244 OA
BRANCH   3   5
ATOM      5  C   UNL A   1      33.804  35.341  31.925  1.00  0.00     0.170 A 
ATOM      6  N   UNL A   1      34.835  33.943  33.160  1.00  0.00    -0.267 N 
ATOM      7  C   UNL A   1      34.780  35.093  33.896  1.00  0.00     0.110 A 
ATOM      8  N   UNL A   1      34.203  34.057  31.968  1.00  0.00    -0.165 NA
ATOM      9  C   UNL A   1      34.228  36.046  33.082  1.00  0.00     0.057 A 
BRANCH   6  10
ATOM     10  C   UNL A   1      35.554  32.702  33.455  1.00  0.00     0.185 C 
BRANCH  10  11
ATOM     11  C   UNL A   1      37.049  32.843  33.452  1.00  0.00     0.036 A 
ATOM     12  C   UNL A   1      37.793  32.724  34.625  1.00  0.00     0.218 A 
ATOM     13  N   UNL A   1      39.139  32.798  34.685  1.00  0.00    -0.222 NA
ATOM     14  C   UNL A   1      39.782  33.012  33.516  1.00  0.00     0.115 A 
ATOM     15  C   UNL A   1      37.755  33.057  32.264  1.00  0.00     0.013 A 
ATOM     16  C   UNL A   1      39.141  33.154  32.295  1.00  0.00     0.021 A 
BRANCH  12  17
ATOM     17  O   UNL A   1      37.121  32.639  35.821  1.00  0.00    -0.481 OA
ATOM     18  C   UNL A   1      37.846  31.876  36.780  1.00  0.00     0.280 C 
ENDBRANCH  12  17
ENDBRANCH  10  11
ENDBRANCH   6  10
ENDBRANCH   3   5
ENDBRANCH   2   3
ENDBRANCH   1   2
BRANCH   1  19
ATOM     19  C   UNL A   1      33.352  33.702  28.006  1.00  0.00     0.275 C 
BRANCH  19  20
ATOM     20  O   UNL A   1      34.685  33.183  27.925  1.00  0.00    -0.458 OA
BRANCH  20  21
ATOM     21  C   UNL A   1      34.777  31.836  27.855  1.00  0.00     0.338 C 
ATOM     22  O   UNL A   1      33.969  31.074  27.349  1.00  0.00    -0.246 OA
BRANCH  21  23
ATOM     23  C   UNL A   1      35.925  31.364  28.642  1.00  0.00     0.060 A 
ATOM     24  C   UNL A   1      37.069  32.170  28.690  1.00  0.00     0.016 A 
ATOM     25  C   UNL A   1      35.949  30.045  29.111  1.00  0.00     0.016 A 
ATOM     26  C   UNL A   1      38.274  31.610  29.081  1.00  0.00     0.010 A 
ATOM     27  C   UNL A   1      37.152  29.484  29.492  1.00  0.00     0.010 A 
ATOM     28  C   UNL A   1      38.316  30.251  29.409  1.00  0.00    -0.014 A 
BRANCH  28  29
ATOM     29  C   UNL A   1      39.611  29.634  29.657  1.00  0.00     0.031 A 
ATOM     30  C   UNL A   1      40.080  29.645  31.063  1.00  0.00     0.074 A 
ATOM     31  C   UNL A   1      40.256  28.944  28.696  1.00  0.00     0.049 A 
ATOM     32  N   UNL A   1      41.221  30.044  31.524  1.00  0.00    -0.248 NA
ATOM     33  C   UNL A   1      39.139  29.185  32.097  1.00  0.00     0.031 C 
ATOM     34  C   UNL A   1      39.741  28.599  27.366  1.00  0.00     0.029 A 
ATOM     35  N   UNL A   1      41.460  28.299  28.746  1.00  0.00    -0.354 N 
ATOM     36  C   UNL A   1      41.204  29.741  32.883  1.00  0.00     0.074 A 
ATOM     37  C   UNL A   1      39.868  29.315  33.203  1.00  0.00     0.031 C 
ATOM     38  C   UNL A   1      40.524  27.643  26.823  1.00  0.00     0.029 A 
ATOM     39  C   UNL A   1      41.656  27.406  27.704  1.00  0.00     0.049 A 
ATOM     40  H   UNL A   1      42.125  28.454  29.455  1.00  0.00     0.167 HD
ATOM     41  C   UNL A   1      42.351  29.649  33.606  1.00  0.00     0.037 A 
ATOM     42  C   UNL A   1      42.642  26.488  27.589  1.00  0.00     0.037 A 
ATOM     43  C   UNL A   1      43.458  30.285  32.950  1.00  0.00     0.049 A 
ATOM     44  C   UNL A   1      43.766  26.888  28.467  1.00  0.00     0.074 A 
ATOM     45  C   UNL A   1      43.870  31.580  32.730  1.00  0.00     0.029 A 
ATOM     46  N   UNL A   1      44.198  29.477  32.131  1.00  0.00    -0.354 N 
ATOM     47  N   UNL A   1      44.511  27.937  28.267  1.00  0.00    -0.248 NA
ATOM     48  C   UNL A   1      43.923  26.251  29.770  1.00  0.00     0.031 C 
ATOM     49  C   UNL A   1      44.708  31.538  31.577  1.00  0.00     0.029 A 
ATOM     50  C   UNL A   1      44.767  30.219  31.129  1.00  0.00     0.049 A 
ATOM     51  H   UNL A   1      44.306  28.506  32.245  1.00  0.00     0.167 HD
ATOM     52  C   UNL A   1      44.903  28.326  29.533  1.00  0.00     0.074 A 
ATOM     53  C   UNL A   1      44.683  27.165  30.378  1.00  0.00     0.031 C 
ATOM     54  C   UNL A   1      45.060  29.644  29.836  1.00  0.00     0.037 A 
BRANCH  41  55
ATOM     55  C   UNL A   1      42.571  28.639  34.704  1.00  0.00     0.064 A 
ATOM     56  C   UNL A   1      43.212  29.037  35.895  1.00  0.00     0.173 A 
ATOM     57  C   UNL A   1      42.467  27.245  34.502  1.00  0.00     0.173 A 
ATOM     58  F   UNL A   1      43.396  30.338  36.167  1.00  0.00    -0.203 F 
ATOM     59  C   UNL A   1      43.754  28.108  36.786  1.00  0.00     0.198 A 
ATOM     60  C   UNL A   1      42.962  26.321  35.421  1.00  0.00     0.198 A 
ATOM     61  F   UNL A   1      41.993  26.730  33.361  1.00  0.00    -0.203 F 
ATOM     62  F   UNL A   1      44.454  28.532  37.847  1.00  0.00    -0.200 F 
ATOM     63  C   UNL A   1      43.629  26.750  36.548  1.00  0.00     0.200 A 
ATOM     64  F   UNL A   1      42.854  25.010  35.160  1.00  0.00    -0.200 F 
ATOM     65  F   UNL A   1      44.195  25.859  37.373  1.00  0.00    -0.200 F 
ENDBRANCH  41  55
BRANCH  42  66
ATOM     66  C   UNL A   1      42.594  25.177  26.905  1.00  0.00     0.064 A 
ATOM     67  C   UNL A   1      43.272  24.962  25.696  1.00  0.00     0.173 A 
ATOM     68  C   UNL A   1      42.086  24.035  27.553  1.00  0.00     0.173 A 
ATOM     69  F   UNL A   1      43.824  25.992  25.038  1.00  0.00    -0.203 F 
ATOM     70  C   UNL A   1      43.448  23.677  25.175  1.00  0.00     0.198 A 
ATOM     71  C   UNL A   1      42.249  22.755  27.026  1.00  0.00     0.198 A 
ATOM     72  F   UNL A   1      41.498  24.130  28.754  1.00  0.00    -0.203 F 
ATOM     73  F   UNL A   1      44.154  23.503  24.049  1.00  0.00    -0.200 F 
ATOM     74  C   UNL A   1      42.942  22.574  25.844  1.00  0.00     0.200 A 
ATOM     75  F   UNL A   1      41.783  21.695  27.701  1.00  0.00    -0.200 F 
ATOM     76  F   UNL A   1      43.158  21.337  25.375  1.00  0.00    -0.200 F 
ENDBRANCH  42  66
BRANCH  54  77
ATOM     77  C   UNL A   1      45.315  30.574  28.693  1.00  0.00     0.064 A 
ATOM     78  C   UNL A   1      46.580  30.785  28.124  1.00  0.00     0.173 A 
ATOM     79  C   UNL A   1      44.221  31.229  28.111  1.00  0.00     0.173 A 
ATOM     80  F   UNL A   1      47.655  30.122  28.572  1.00  0.00    -0.203 F 
ATOM     81  C   UNL A   1      46.749  31.662  27.054  1.00  0.00     0.198 A 
ATOM     82  C   UNL A   1      44.387  32.075  27.020  1.00  0.00     0.198 A 
ATOM     83  F   UNL A   1      42.983  31.020  28.585  1.00  0.00    -0.203 F 
ATOM     84  F   UNL A   1      47.972  31.871  26.543  1.00  0.00    -0.200 F 
ATOM     85  C   UNL A   1      45.653  32.303  26.501  1.00  0.00     0.200 A 
ATOM     86  F   UNL A   1      43.318  32.656  26.458  1.00  0.00    -0.200 F 
ATOM     87  F   UNL A   1      45.810  33.123  25.453  1.00  0.00    -0.200 F 
ENDBRANCH  54  77
ENDBRANCH  28  29
ENDBRANCH  21  23
ENDBRANCH  20  21
ENDBRANCH  19  20
ENDBRANCH   1  19
TORSDOF 14
ENDMDL
