MODEL 1
REMARK VINA RESULT:     -12.3      0.000      0.000
REMARK SMILES CN1CC(=O)N(CC(=O)N2CCCC[C@H]2C(=O)OCCOC(=O)c2ccc(-c3c4nc(c(-c5c(F)c(F)c(F)c(F)c5F)c5ccc([nH]5)c(-c5c(F)c(F)c(F)c(F)c5F)c5nc(c(-c6c(F)c(F)c(F)c(F)c6F)c6ccc3[nH]6)C=C5)C=C4)cc2)C1=O
REMARK SMILES IDX 19 1 18 2 16 3 17 4 15 5 10 6 11 7 12 8 14 9 13 10 8 11 9 12
REMARK SMILES IDX 7 13 6 14 1 15 2 16 3 17 87 18 4 19 88 20 5 21 20 22 21 23
REMARK SMILES IDX 22 24 23 25 24 26 25 27 86 28 26 29 85 30 27 31 28 32 29 33
REMARK SMILES IDX 79 34 30 35 84 36 78 37 80 38 31 39 83 40 77 41 76 42 32 44
REMARK SMILES IDX 64 45 44 46 63 47 45 48 48 49 62 50 81 51 46 52 47 53 61 55
REMARK SMILES IDX 82 56 49 57 33 58 34 59 42 60 35 61 36 62 40 63 43 64 37 65
REMARK SMILES IDX 38 66 41 67 39 68 65 69 66 70 74 71 67 72 68 73 72 74 75 75
REMARK SMILES IDX 69 76 70 77 73 78 71 79 50 80 51 81 59 82 52 83 53 84 57 85
REMARK SMILES IDX 60 86 54 87 55 88 58 89 56 90
REMARK H PARENT 80 43 48 54
REMARK Flexibility Score: inf
ROOT
ATOM      1  C   UNL A   1      31.422  29.516  24.073  1.00  0.00     0.274 C 
ENDROOT
BRANCH   1   2
ATOM      2  O   UNL A   1      30.511  28.396  24.098  1.00  0.00    -0.461 OA
BRANCH   2   3
ATOM      3  C   UNL A   1      30.786  27.404  23.211  1.00  0.00     0.328 C 
ATOM      4  O   UNL A   1      30.633  27.508  22.002  1.00  0.00    -0.250 OA
BRANCH   3   5
ATOM      5  C   UNL A   1      31.253  26.093  23.871  1.00  0.00     0.195 C 
ATOM      6  N   UNL A   1      32.710  25.890  23.677  1.00  0.00    -0.327 N 
ATOM      7  C   UNL A   1      33.587  26.512  24.682  1.00  0.00     0.120 C 
ATOM      8  C   UNL A   1      33.148  26.296  26.120  1.00  0.00     0.022 C 
ATOM      9  C   UNL A   1      30.828  25.910  25.336  1.00  0.00     0.037 C 
ATOM     10  C   UNL A   1      31.696  26.697  26.305  1.00  0.00     0.005 C 
BRANCH   6  11
ATOM     11  C   UNL A   1      33.338  25.400  22.528  1.00  0.00     0.243 C 
ATOM     12  O   UNL A   1      33.655  26.192  21.624  1.00  0.00    -0.273 OA
BRANCH  11  13
ATOM     13  C   UNL A   1      33.487  23.902  22.184  1.00  0.00     0.230 C 
BRANCH  13  14
ATOM     14  N   UNL A   1      33.938  22.963  23.177  1.00  0.00    -0.253 N 
ATOM     15  C   UNL A   1      33.415  20.518  25.767  1.00  0.00     0.149 C 
ATOM     16  N   UNL A   1      33.926  21.373  24.725  1.00  0.00    -0.318 N 
ATOM     17  C   UNL A   1      35.322  21.705  24.591  1.00  0.00     0.221 C 
ATOM     18  C   UNL A   1      33.134  22.073  23.833  1.00  0.00     0.327 C 
ATOM     19  C   UNL A   1      35.250  22.754  23.493  1.00  0.00     0.250 C 
ATOM     20  O   UNL A   1      31.938  21.917  23.694  1.00  0.00    -0.248 OA
ATOM     21  O   UNL A   1      36.214  23.331  23.015  1.00  0.00    -0.272 OA
ENDBRANCH  13  14
ENDBRANCH  11  13
ENDBRANCH   6  11
ENDBRANCH   3   5
ENDBRANCH   2   3
ENDBRANCH   1   2
BRANCH   1  22
ATOM     22  C   UNL A   1      31.393  30.298  25.386  1.00  0.00     0.275 C 
BRANCH  22  23
ATOM     23  O   UNL A   1      32.589  30.050  26.149  1.00  0.00    -0.458 OA
BRANCH  23  24
ATOM     24  C   UNL A   1      33.031  31.081  26.902  1.00  0.00     0.338 C 
ATOM     25  O   UNL A   1      32.415  32.095  27.194  1.00  0.00    -0.246 OA
BRANCH  24  26
ATOM     26  C   UNL A   1      34.401  30.833  27.395  1.00  0.00     0.060 A 
ATOM     27  C   UNL A   1      34.841  29.535  27.651  1.00  0.00     0.016 A 
ATOM     28  C   UNL A   1      35.181  31.917  27.797  1.00  0.00     0.016 A 
ATOM     29  C   UNL A   1      35.985  29.320  28.414  1.00  0.00     0.010 A 
ATOM     30  C   UNL A   1      36.395  31.695  28.455  1.00  0.00     0.010 A 
ATOM     31  C   UNL A   1      36.793  30.393  28.804  1.00  0.00    -0.014 A 
BRANCH  31  32
ATOM     32  C   UNL A   1      38.047  30.166  29.572  1.00  0.00     0.031 A 
ATOM     33  C   UNL A   1      39.133  29.291  29.009  1.00  0.00     0.074 A 
ATOM     34  C   UNL A   1      38.201  30.717  30.791  1.00  0.00     0.049 A 
ATOM     35  N   UNL A   1      40.153  28.738  29.618  1.00  0.00    -0.248 NA
ATOM     36  C   UNL A   1      39.052  28.979  27.574  1.00  0.00     0.031 C 
ATOM     37  C   UNL A   1      37.261  31.635  31.435  1.00  0.00     0.029 A 
ATOM     38  N   UNL A   1      39.205  30.572  31.716  1.00  0.00    -0.354 N 
ATOM     39  C   UNL A   1      40.795  27.966  28.659  1.00  0.00     0.074 A 
ATOM     40  C   UNL A   1      40.056  28.125  27.424  1.00  0.00     0.031 C 
ATOM     41  C   UNL A   1      37.738  31.986  32.637  1.00  0.00     0.029 A 
ATOM     42  C   UNL A   1      38.962  31.238  32.893  1.00  0.00     0.049 A 
ATOM     43  H   UNL A   1      40.020  30.043  31.553  1.00  0.00     0.167 HD
ATOM     44  C   UNL A   1      41.895  27.189  28.808  1.00  0.00     0.037 A 
ATOM     45  C   UNL A   1      39.609  31.204  34.071  1.00  0.00     0.037 A 
ATOM     46  C   UNL A   1      42.657  27.090  30.027  1.00  0.00     0.049 A 
ATOM     47  C   UNL A   1      40.803  30.311  34.223  1.00  0.00     0.074 A 
ATOM     48  C   UNL A   1      43.800  26.348  30.275  1.00  0.00     0.029 A 
ATOM     49  N   UNL A   1      42.362  27.771  31.199  1.00  0.00    -0.354 N 
ATOM     50  N   UNL A   1      41.359  29.517  33.339  1.00  0.00    -0.248 NA
ATOM     51  C   UNL A   1      41.447  30.289  35.542  1.00  0.00     0.031 C 
ATOM     52  C   UNL A   1      44.175  26.552  31.607  1.00  0.00     0.029 A 
ATOM     53  C   UNL A   1      43.293  27.456  32.177  1.00  0.00     0.049 A 
ATOM     54  H   UNL A   1      41.604  28.387  31.318  1.00  0.00     0.167 HD
ATOM     55  C   UNL A   1      42.423  28.910  33.990  1.00  0.00     0.074 A 
ATOM     56  C   UNL A   1      42.445  29.440  35.337  1.00  0.00     0.031 C 
ATOM     57  C   UNL A   1      43.298  27.992  33.513  1.00  0.00     0.037 A 
BRANCH  44  58
ATOM     58  C   UNL A   1      42.328  26.352  27.639  1.00  0.00     0.064 A 
ATOM     59  C   UNL A   1      43.324  26.771  26.746  1.00  0.00     0.173 A 
ATOM     60  C   UNL A   1      41.770  25.076  27.446  1.00  0.00     0.173 A 
ATOM     61  F   UNL A   1      43.881  27.983  26.877  1.00  0.00    -0.203 F 
ATOM     62  C   UNL A   1      43.734  25.953  25.695  1.00  0.00     0.198 A 
ATOM     63  C   UNL A   1      42.202  24.251  26.411  1.00  0.00     0.198 A 
ATOM     64  F   UNL A   1      40.818  24.623  28.274  1.00  0.00    -0.203 F 
ATOM     65  F   UNL A   1      44.663  26.388  24.833  1.00  0.00    -0.200 F 
ATOM     66  C   UNL A   1      43.179  24.692  25.533  1.00  0.00     0.200 A 
ATOM     67  F   UNL A   1      41.673  23.028  26.266  1.00  0.00    -0.200 F 
ATOM     68  F   UNL A   1      43.584  23.901  24.529  1.00  0.00    -0.200 F 
ENDBRANCH  44  58
BRANCH  45  69
ATOM     69  C   UNL A   1      39.092  32.005  35.211  1.00  0.00     0.064 A 
ATOM     70  C   UNL A   1      38.338  31.406  36.227  1.00  0.00     0.173 A 
ATOM     71  C   UNL A   1      39.378  33.375  35.325  1.00  0.00     0.173 A 
ATOM     72  F   UNL A   1      38.018  30.107  36.146  1.00  0.00    -0.203 F 
ATOM     73  C   UNL A   1      37.887  32.148  37.316  1.00  0.00     0.198 A 
ATOM     74  C   UNL A   1      38.953  34.107  36.430  1.00  0.00     0.198 A 
ATOM     75  F   UNL A   1      40.098  33.993  34.378  1.00  0.00    -0.203 F 
ATOM     76  F   UNL A   1      37.139  31.560  38.260  1.00  0.00    -0.200 F 
ATOM     77  C   UNL A   1      38.203  33.494  37.422  1.00  0.00     0.200 A 
ATOM     78  F   UNL A   1      39.276  35.403  36.537  1.00  0.00    -0.200 F 
ATOM     79  F   UNL A   1      37.783  34.202  38.480  1.00  0.00    -0.200 F 
ENDBRANCH  45  69
BRANCH  57  80
ATOM     80  C   UNL A   1      44.370  27.530  34.452  1.00  0.00     0.064 A 
ATOM     81  C   UNL A   1      44.217  26.371  35.226  1.00  0.00     0.173 A 
ATOM     82  C   UNL A   1      45.569  28.248  34.568  1.00  0.00     0.173 A 
ATOM     83  F   UNL A   1      43.080  25.662  35.162  1.00  0.00    -0.203 F 
ATOM     84  C   UNL A   1      45.219  25.961  36.102  1.00  0.00     0.198 A 
ATOM     85  C   UNL A   1      46.578  27.822  35.426  1.00  0.00     0.198 A 
ATOM     86  F   UNL A   1      45.764  29.362  33.846  1.00  0.00    -0.203 F 
ATOM     87  F   UNL A   1      45.033  24.877  36.868  1.00  0.00    -0.200 F 
ATOM     88  C   UNL A   1      46.398  26.683  36.198  1.00  0.00     0.200 A 
ATOM     89  F   UNL A   1      47.721  28.515  35.512  1.00  0.00    -0.200 F 
ATOM     90  F   UNL A   1      47.361  26.287  37.043  1.00  0.00    -0.200 F 
ENDBRANCH  57  80
ENDBRANCH  31  32
ENDBRANCH  24  26
ENDBRANCH  23  24
ENDBRANCH  22  23
ENDBRANCH   1  22
TORSDOF 14
ENDMDL
MODEL 2
REMARK VINA RESULT:     -12.2      0.562      1.900
REMARK SMILES CN1CC(=O)N(CC(=O)N2CCCC[C@H]2C(=O)OCCOC(=O)c2ccc(-c3c4nc(c(-c5c(F)c(F)c(F)c(F)c5F)c5ccc([nH]5)c(-c5c(F)c(F)c(F)c(F)c5F)c5nc(c(-c6c(F)c(F)c(F)c(F)c6F)c6ccc3[nH]6)C=C5)C=C4)cc2)C1=O
REMARK SMILES IDX 19 1 18 2 16 3 17 4 15 5 10 6 11 7 12 8 14 9 13 10 8 11 9 12
REMARK SMILES IDX 7 13 6 14 1 15 2 16 3 17 87 18 4 19 88 20 5 21 20 22 21 23
REMARK SMILES IDX 22 24 23 25 24 26 25 27 86 28 26 29 85 30 27 31 28 32 29 33
REMARK SMILES IDX 79 34 30 35 84 36 78 37 80 38 31 39 83 40 77 41 76 42 32 44
REMARK SMILES IDX 64 45 44 46 63 47 45 48 48 49 62 50 81 51 46 52 47 53 61 55
REMARK SMILES IDX 82 56 49 57 33 58 34 59 42 60 35 61 36 62 40 63 43 64 37 65
REMARK SMILES IDX 38 66 41 67 39 68 65 69 66 70 74 71 67 72 68 73 72 74 75 75
REMARK SMILES IDX 69 76 70 77 73 78 71 79 50 80 51 81 59 82 52 83 53 84 57 85
REMARK SMILES IDX 60 86 54 87 55 88 58 89 56 90
REMARK H PARENT 80 43 48 54
REMARK Flexibility Score: inf
ROOT
ATOM      1  C   UNL A   1      31.700  29.096  24.536  1.00  0.00     0.274 C 
ENDROOT
BRANCH   1   2
ATOM      2  O   UNL A   1      32.114  28.194  23.487  1.00  0.00    -0.461 OA
BRANCH   2   3
ATOM      3  C   UNL A   1      31.110  27.512  22.877  1.00  0.00     0.328 C 
ATOM      4  O   UNL A   1      30.330  28.014  22.080  1.00  0.00    -0.250 OA
BRANCH   3   5
ATOM      5  C   UNL A   1      30.992  26.044  23.328  1.00  0.00     0.195 C 
ATOM      6  N   UNL A   1      32.332  25.452  23.563  1.00  0.00    -0.327 N 
ATOM      7  C   UNL A   1      32.895  25.646  24.910  1.00  0.00     0.120 C 
ATOM      8  C   UNL A   1      31.923  25.373  26.044  1.00  0.00     0.022 C 
ATOM      9  C   UNL A   1      30.030  25.795  24.500  1.00  0.00     0.037 C 
ATOM     10  C   UNL A   1      30.635  26.153  25.848  1.00  0.00     0.005 C 
BRANCH   6  11
ATOM     11  C   UNL A   1      33.210  24.962  22.592  1.00  0.00     0.243 C 
ATOM     12  O   UNL A   1      33.652  25.736  21.727  1.00  0.00    -0.273 OA
BRANCH  11  13
ATOM     13  C   UNL A   1      33.520  23.465  22.369  1.00  0.00     0.230 C 
BRANCH  13  14
ATOM     14  N   UNL A   1      34.269  22.718  23.345  1.00  0.00    -0.253 N 
ATOM     15  C   UNL A   1      37.311  21.395  24.743  1.00  0.00     0.149 C 
ATOM     16  N   UNL A   1      35.971  21.856  24.478  1.00  0.00    -0.318 N 
ATOM     17  C   UNL A   1      34.813  21.357  25.175  1.00  0.00     0.221 C 
ATOM     18  C   UNL A   1      35.633  22.714  23.447  1.00  0.00     0.327 C 
ATOM     19  C   UNL A   1      33.705  22.022  24.376  1.00  0.00     0.250 C 
ATOM     20  O   UNL A   1      36.426  23.324  22.760  1.00  0.00    -0.248 OA
ATOM     21  O   UNL A   1      32.511  21.909  24.608  1.00  0.00    -0.272 OA
ENDBRANCH  13  14
ENDBRANCH  11  13
ENDBRANCH   6  11
ENDBRANCH   3   5
ENDBRANCH   2   3
ENDBRANCH   1   2
BRANCH   1  22
ATOM     22  C   UNL A   1      32.897  29.701  25.268  1.00  0.00     0.275 C 
BRANCH  22  23
ATOM     23  O   UNL A   1      32.545  30.036  26.624  1.00  0.00    -0.458 OA
BRANCH  23  24
ATOM     24  C   UNL A   1      33.141  31.137  27.132  1.00  0.00     0.338 C 
ATOM     25  O   UNL A   1      32.654  32.252  27.242  1.00  0.00    -0.246 OA
BRANCH  24  26
ATOM     26  C   UNL A   1      34.508  30.835  27.601  1.00  0.00     0.060 A 
ATOM     27  C   UNL A   1      34.853  29.545  28.003  1.00  0.00     0.016 A 
ATOM     28  C   UNL A   1      35.392  31.889  27.832  1.00  0.00     0.016 A 
ATOM     29  C   UNL A   1      36.012  29.329  28.744  1.00  0.00     0.010 A 
ATOM     30  C   UNL A   1      36.614  31.646  28.467  1.00  0.00     0.010 A 
ATOM     31  C   UNL A   1      36.922  30.369  28.963  1.00  0.00    -0.014 A 
BRANCH  31  32
ATOM     32  C   UNL A   1      38.189  30.131  29.706  1.00  0.00     0.031 A 
ATOM     33  C   UNL A   1      39.262  29.257  29.117  1.00  0.00     0.074 A 
ATOM     34  C   UNL A   1      38.368  30.673  30.926  1.00  0.00     0.049 A 
ATOM     35  N   UNL A   1      40.290  28.696  29.704  1.00  0.00    -0.248 NA
ATOM     36  C   UNL A   1      39.152  28.956  27.682  1.00  0.00     0.031 C 
ATOM     37  C   UNL A   1      37.443  31.589  31.594  1.00  0.00     0.029 A 
ATOM     38  N   UNL A   1      39.388  30.517  31.832  1.00  0.00    -0.354 N 
ATOM     39  C   UNL A   1      40.911  27.928  28.727  1.00  0.00     0.074 A 
ATOM     40  C   UNL A   1      40.150  28.100  27.507  1.00  0.00     0.031 C 
ATOM     41  C   UNL A   1      37.943  31.930  32.790  1.00  0.00     0.029 A 
ATOM     42  C   UNL A   1      39.169  31.176  33.018  1.00  0.00     0.049 A 
ATOM     43  H   UNL A   1      40.197  29.986  31.650  1.00  0.00     0.167 HD
ATOM     44  C   UNL A   1      42.012  27.146  28.849  1.00  0.00     0.037 A 
ATOM     45  C   UNL A   1      39.837  31.130  34.184  1.00  0.00     0.037 A 
ATOM     46  C   UNL A   1      42.796  27.035  30.053  1.00  0.00     0.049 A 
ATOM     47  C   UNL A   1      41.031  30.231  34.307  1.00  0.00     0.074 A 
ATOM     48  C   UNL A   1      43.940  26.288  30.275  1.00  0.00     0.029 A 
ATOM     49  N   UNL A   1      42.524  27.709  31.236  1.00  0.00    -0.354 N 
ATOM     50  N   UNL A   1      41.567  29.442  33.407  1.00  0.00    -0.248 NA
ATOM     51  C   UNL A   1      41.699  30.197  35.614  1.00  0.00     0.031 C 
ATOM     52  C   UNL A   1      44.340  26.480  31.602  1.00  0.00     0.029 A 
ATOM     53  C   UNL A   1      43.472  27.383  32.195  1.00  0.00     0.049 A 
ATOM     54  H   UNL A   1      41.771  28.327  31.374  1.00  0.00     0.167 HD
ATOM     55  C   UNL A   1      42.641  28.827  34.033  1.00  0.00     0.074 A 
ATOM     56  C   UNL A   1      42.690  29.347  35.384  1.00  0.00     0.031 C 
ATOM     57  C   UNL A   1      43.504  27.909  33.534  1.00  0.00     0.037 A 
BRANCH  44  58
ATOM     58  C   UNL A   1      42.419  26.316  27.666  1.00  0.00     0.064 A 
ATOM     59  C   UNL A   1      43.410  26.732  26.766  1.00  0.00     0.173 A 
ATOM     60  C   UNL A   1      41.844  25.050  27.468  1.00  0.00     0.173 A 
ATOM     61  F   UNL A   1      43.983  27.936  26.903  1.00  0.00    -0.203 F 
ATOM     62  C   UNL A   1      43.797  25.921  25.701  1.00  0.00     0.198 A 
ATOM     63  C   UNL A   1      42.253  24.231  26.419  1.00  0.00     0.198 A 
ATOM     64  F   UNL A   1      40.896  24.599  28.303  1.00  0.00    -0.203 F 
ATOM     65  F   UNL A   1      44.721  26.353  24.832  1.00  0.00    -0.200 F 
ATOM     66  C   UNL A   1      43.225  24.668  25.534  1.00  0.00     0.200 A 
ATOM     67  F   UNL A   1      41.707  23.015  26.267  1.00  0.00    -0.200 F 
ATOM     68  F   UNL A   1      43.608  23.884  24.516  1.00  0.00    -0.200 F 
ENDBRANCH  44  58
BRANCH  45  69
ATOM     69  C   UNL A   1      39.345  31.925  35.338  1.00  0.00     0.064 A 
ATOM     70  C   UNL A   1      39.688  33.275  35.480  1.00  0.00     0.173 A 
ATOM     71  C   UNL A   1      38.490  31.360  36.298  1.00  0.00     0.173 A 
ATOM     72  F   UNL A   1      40.522  33.850  34.603  1.00  0.00    -0.203 F 
ATOM     73  C   UNL A   1      39.194  34.031  36.541  1.00  0.00     0.198 A 
ATOM     74  C   UNL A   1      37.973  32.126  37.339  1.00  0.00     0.198 A 
ATOM     75  F   UNL A   1      38.132  30.071  36.204  1.00  0.00    -0.203 F 
ATOM     76  F   UNL A   1      39.562  35.313  36.673  1.00  0.00    -0.200 F 
ATOM     77  C   UNL A   1      38.329  33.460  37.462  1.00  0.00     0.200 A 
ATOM     78  F   UNL A   1      37.125  31.574  38.216  1.00  0.00    -0.200 F 
ATOM     79  F   UNL A   1      37.842  34.194  38.472  1.00  0.00    -0.200 F 
ENDBRANCH  45  69
BRANCH  57  80
ATOM     80  C   UNL A   1      44.591  27.437  34.450  1.00  0.00     0.064 A 
ATOM     81  C   UNL A   1      45.816  28.113  34.543  1.00  0.00     0.173 A 
ATOM     82  C   UNL A   1      44.401  26.303  35.252  1.00  0.00     0.173 A 
ATOM     83  F   UNL A   1      46.051  29.192  33.780  1.00  0.00    -0.203 F 
ATOM     84  C   UNL A   1      46.821  27.656  35.391  1.00  0.00     0.198 A 
ATOM     85  C   UNL A   1      45.398  25.862  36.117  1.00  0.00     0.198 A 
ATOM     86  F   UNL A   1      43.244  25.624  35.201  1.00  0.00    -0.203 F 
ATOM     87  F   UNL A   1      48.002  28.289  35.429  1.00  0.00    -0.200 F 
ATOM     88  C   UNL A   1      46.610  26.535  36.179  1.00  0.00     0.200 A 
ATOM     89  F   UNL A   1      45.190  24.785  36.885  1.00  0.00    -0.200 F 
ATOM     90  F   UNL A   1      47.579  26.095  36.994  1.00  0.00    -0.200 F 
ENDBRANCH  57  80
ENDBRANCH  31  32
ENDBRANCH  24  26
ENDBRANCH  23  24
ENDBRANCH  22  23
ENDBRANCH   1  22
TORSDOF 14
ENDMDL
MODEL 3
REMARK VINA RESULT:     -12.2      4.041      9.625
REMARK SMILES CN1CC(=O)N(CC(=O)N2CCCC[C@H]2C(=O)OCCOC(=O)c2ccc(-c3c4nc(c(-c5c(F)c(F)c(F)c(F)c5F)c5ccc([nH]5)c(-c5c(F)c(F)c(F)c(F)c5F)c5nc(c(-c6c(F)c(F)c(F)c(F)c6F)c6ccc3[nH]6)C=C5)C=C4)cc2)C1=O
REMARK SMILES IDX 19 1 18 2 16 3 17 4 15 5 10 6 11 7 12 8 14 9 13 10 8 11 9 12
REMARK SMILES IDX 7 13 6 14 1 15 2 16 3 17 87 18 4 19 88 20 5 21 20 22 21 23
REMARK SMILES IDX 22 24 23 25 24 26 25 27 86 28 26 29 85 30 27 31 28 32 29 33
REMARK SMILES IDX 79 34 30 35 84 36 78 37 80 38 31 39 83 40 77 41 76 42 32 44
REMARK SMILES IDX 64 45 44 46 63 47 45 48 48 49 62 50 81 51 46 52 47 53 61 55
REMARK SMILES IDX 82 56 49 57 33 58 34 59 42 60 35 61 36 62 40 63 43 64 37 65
REMARK SMILES IDX 38 66 41 67 39 68 65 69 66 70 74 71 67 72 68 73 72 74 75 75
REMARK SMILES IDX 69 76 70 77 73 78 71 79 50 80 51 81 59 82 52 83 53 84 57 85
REMARK SMILES IDX 60 86 54 87 55 88 58 89 56 90
REMARK H PARENT 80 43 48 54
REMARK Flexibility Score: inf
ROOT
ATOM      1  C   UNL A   1      34.780  20.565  25.401  1.00  0.00     0.274 C 
ENDROOT
BRANCH   1   2
ATOM      2  O   UNL A   1      33.968  20.979  24.281  1.00  0.00    -0.461 OA
BRANCH   2   3
ATOM      3  C   UNL A   1      32.736  21.452  24.600  1.00  0.00     0.328 C 
ATOM      4  O   UNL A   1      31.813  20.747  24.986  1.00  0.00    -0.250 OA
BRANCH   3   5
ATOM      5  C   UNL A   1      32.572  22.966  24.371  1.00  0.00     0.195 C 
ATOM      6  N   UNL A   1      32.574  23.701  25.659  1.00  0.00    -0.327 N 
ATOM      7  C   UNL A   1      33.895  24.092  26.177  1.00  0.00     0.120 C 
ATOM      8  C   UNL A   1      34.819  24.713  25.143  1.00  0.00     0.022 C 
ATOM      9  C   UNL A   1      33.538  23.581  23.347  1.00  0.00     0.037 C 
ATOM     10  C   UNL A   1      34.927  23.824  23.917  1.00  0.00     0.005 C 
BRANCH   6  11
ATOM     11  C   UNL A   1      31.500  23.837  26.544  1.00  0.00     0.243 C 
ATOM     12  O   UNL A   1      31.284  22.942  27.379  1.00  0.00    -0.273 OA
BRANCH  11  13
ATOM     13  C   UNL A   1      30.409  24.924  26.434  1.00  0.00     0.230 C 
BRANCH  13  14
ATOM     14  N   UNL A   1      30.653  26.137  25.699  1.00  0.00    -0.253 N 
ATOM     15  C   UNL A   1      31.559  29.611  25.432  1.00  0.00     0.149 C 
ATOM     16  N   UNL A   1      31.257  28.217  25.218  1.00  0.00    -0.318 N 
ATOM     17  C   UNL A   1      30.815  27.692  23.951  1.00  0.00     0.221 C 
ATOM     18  C   UNL A   1      31.222  27.266  26.222  1.00  0.00     0.327 C 
ATOM     19  C   UNL A   1      30.467  26.267  24.353  1.00  0.00     0.250 C 
ATOM     20  O   UNL A   1      31.614  27.437  27.357  1.00  0.00    -0.248 OA
ATOM     21  O   UNL A   1      30.054  25.408  23.590  1.00  0.00    -0.272 OA
ENDBRANCH  13  14
ENDBRANCH  11  13
ENDBRANCH   6  11
ENDBRANCH   3   5
ENDBRANCH   2   3
ENDBRANCH   1   2
BRANCH   1  22
ATOM     22  C   UNL A   1      36.265  20.535  25.043  1.00  0.00     0.275 C 
BRANCH  22  23
ATOM     23  O   UNL A   1      36.966  21.611  25.698  1.00  0.00    -0.458 OA
BRANCH  23  24
ATOM     24  C   UNL A   1      38.304  21.459  25.810  1.00  0.00     0.338 C 
ATOM     25  O   UNL A   1      38.975  20.524  25.401  1.00  0.00    -0.246 OA
BRANCH  24  26
ATOM     26  C   UNL A   1      38.917  22.620  26.486  1.00  0.00     0.060 A 
ATOM     27  C   UNL A   1      38.499  23.917  26.191  1.00  0.00     0.016 A 
ATOM     28  C   UNL A   1      40.055  22.423  27.268  1.00  0.00     0.016 A 
ATOM     29  C   UNL A   1      39.280  25.007  26.564  1.00  0.00     0.010 A 
ATOM     30  C   UNL A   1      40.769  23.526  27.747  1.00  0.00     0.010 A 
ATOM     31  C   UNL A   1      40.411  24.831  27.370  1.00  0.00    -0.014 A 
BRANCH  31  32
ATOM     32  C   UNL A   1      41.219  25.997  27.818  1.00  0.00     0.031 A 
ATOM     33  C   UNL A   1      40.595  27.071  28.666  1.00  0.00     0.074 A 
ATOM     34  C   UNL A   1      42.505  26.113  27.439  1.00  0.00     0.049 A 
ATOM     35  N   UNL A   1      41.022  28.284  28.917  1.00  0.00    -0.248 NA
ATOM     36  C   UNL A   1      39.308  26.746  29.301  1.00  0.00     0.031 C 
ATOM     37  C   UNL A   1      43.259  25.120  26.671  1.00  0.00     0.029 A 
ATOM     38  N   UNL A   1      43.407  27.129  27.638  1.00  0.00    -0.354 N 
ATOM     39  C   UNL A   1      40.030  28.884  29.683  1.00  0.00     0.074 A 
ATOM     40  C   UNL A   1      38.982  27.902  29.863  1.00  0.00     0.031 C 
ATOM     41  C   UNL A   1      44.508  25.564  26.480  1.00  0.00     0.029 A 
ATOM     42  C   UNL A   1      44.614  26.914  27.018  1.00  0.00     0.049 A 
ATOM     43  H   UNL A   1      43.209  27.933  28.171  1.00  0.00     0.167 HD
ATOM     44  C   UNL A   1      40.003  30.146  30.177  1.00  0.00     0.037 A 
ATOM     45  C   UNL A   1      45.668  27.731  26.841  1.00  0.00     0.037 A 
ATOM     46  C   UNL A   1      41.082  31.092  30.043  1.00  0.00     0.049 A 
ATOM     47  C   UNL A   1      45.601  29.134  27.366  1.00  0.00     0.074 A 
ATOM     48  C   UNL A   1      41.162  32.387  30.526  1.00  0.00     0.029 A 
ATOM     49  N   UNL A   1      42.280  30.835  29.391  1.00  0.00    -0.354 N 
ATOM     50  N   UNL A   1      44.629  29.727  28.017  1.00  0.00    -0.248 NA
ATOM     51  C   UNL A   1      46.766  29.990  27.112  1.00  0.00     0.031 C 
ATOM     52  C   UNL A   1      42.393  32.926  30.135  1.00  0.00     0.029 A 
ATOM     53  C   UNL A   1      43.100  31.952  29.448  1.00  0.00     0.049 A 
ATOM     54  H   UNL A   1      42.513  29.984  28.954  1.00  0.00     0.167 HD
ATOM     55  C   UNL A   1      45.068  31.019  28.260  1.00  0.00     0.074 A 
ATOM     56  C   UNL A   1      46.401  31.119  27.702  1.00  0.00     0.031 C 
ATOM     57  C   UNL A   1      44.422  32.033  28.885  1.00  0.00     0.037 A 
BRANCH  44  58
ATOM     58  C   UNL A   1      38.755  30.599  30.879  1.00  0.00     0.064 A 
ATOM     59  C   UNL A   1      38.632  30.577  32.275  1.00  0.00     0.173 A 
ATOM     60  C   UNL A   1      37.683  31.120  30.135  1.00  0.00     0.173 A 
ATOM     61  F   UNL A   1      39.621  30.080  33.032  1.00  0.00    -0.203 F 
ATOM     62  C   UNL A   1      37.477  31.044  32.900  1.00  0.00     0.198 A 
ATOM     63  C   UNL A   1      36.542  31.610  30.765  1.00  0.00     0.198 A 
ATOM     64  F   UNL A   1      37.750  31.170  28.797  1.00  0.00    -0.203 F 
ATOM     65  F   UNL A   1      37.367  30.982  34.234  1.00  0.00    -0.200 F 
ATOM     66  C   UNL A   1      36.438  31.568  32.146  1.00  0.00     0.200 A 
ATOM     67  F   UNL A   1      35.544  32.127  30.033  1.00  0.00    -0.200 F 
ATOM     68  F   UNL A   1      35.333  32.028  32.749  1.00  0.00    -0.200 F 
ENDBRANCH  44  58
BRANCH  45  69
ATOM     69  C   UNL A   1      46.848  27.246  26.080  1.00  0.00     0.064 A 
ATOM     70  C   UNL A   1      46.986  27.526  24.714  1.00  0.00     0.173 A 
ATOM     71  C   UNL A   1      47.876  26.529  26.711  1.00  0.00     0.173 A 
ATOM     72  F   UNL A   1      46.018  28.184  24.063  1.00  0.00    -0.203 F 
ATOM     73  C   UNL A   1      48.112  27.105  24.009  1.00  0.00     0.198 A 
ATOM     74  C   UNL A   1      49.014  26.137  26.011  1.00  0.00     0.198 A 
ATOM     75  F   UNL A   1      47.789  26.238  28.017  1.00  0.00    -0.203 F 
ATOM     76  F   UNL A   1      48.207  27.357  22.695  1.00  0.00    -0.200 F 
ATOM     77  C   UNL A   1      49.128  26.421  24.659  1.00  0.00     0.200 A 
ATOM     78  F   UNL A   1      50.000  25.493  26.647  1.00  0.00    -0.200 F 
ATOM     79  F   UNL A   1      50.217  26.033  23.981  1.00  0.00    -0.200 F 
ENDBRANCH  45  69
BRANCH  57  80
ATOM     80  C   UNL A   1      45.166  33.326  29.022  1.00  0.00     0.064 A 
ATOM     81  C   UNL A   1      46.017  33.570  30.111  1.00  0.00     0.173 A 
ATOM     82  C   UNL A   1      45.038  34.326  28.047  1.00  0.00     0.173 A 
ATOM     83  F   UNL A   1      46.156  32.651  31.078  1.00  0.00    -0.203 F 
ATOM     84  C   UNL A   1      46.693  34.781  30.229  1.00  0.00     0.198 A 
ATOM     85  C   UNL A   1      45.734  35.525  28.156  1.00  0.00     0.198 A 
ATOM     86  F   UNL A   1      44.239  34.137  26.986  1.00  0.00    -0.203 F 
ATOM     87  F   UNL A   1      47.463  35.013  31.301  1.00  0.00    -0.200 F 
ATOM     88  C   UNL A   1      46.555  35.754  29.251  1.00  0.00     0.200 A 
ATOM     89  F   UNL A   1      45.608  36.461  27.207  1.00  0.00    -0.200 F 
ATOM     90  F   UNL A   1      47.207  36.920  29.368  1.00  0.00    -0.200 F 
ENDBRANCH  57  80
ENDBRANCH  31  32
ENDBRANCH  24  26
ENDBRANCH  23  24
ENDBRANCH  22  23
ENDBRANCH   1  22
TORSDOF 14
ENDMDL
