MODEL 1
REMARK VINA RESULT:     -11.1      0.000      0.000
REMARK SMILES NC(=O)c1c(F)cccc1O[C@@H](F)C(=O)OCCOC(=O)c1ccc(-c2c3nc(c(-c4c(F)c(F)c(F)c(F)c4F)c4ccc([nH]4)c(-c4c(F)c(F)c(F)c(F)c4F)c4nc(c(-c5c(F)c(F)c(F)c(F)c5F)c5ccc2[nH]5)C=C4)C=C3)cc1
REMARK SMILES IDX 17 1 16 2 14 3 15 4 12 5 13 6 11 7 10 8 4 9 5 10 6 11 7 12
REMARK SMILES IDX 9 13 8 14 2 15 1 16 3 19 18 20 19 21 20 22 21 23 22 24 23 25
REMARK SMILES IDX 84 26 24 27 83 28 25 29 26 30 27 31 77 32 28 33 82 34 76 35
REMARK SMILES IDX 78 36 29 37 81 38 75 39 74 40 30 42 62 43 42 44 61 45 43 46
REMARK SMILES IDX 46 47 60 48 79 49 44 50 45 51 59 53 80 54 47 55 31 56 32 57
REMARK SMILES IDX 40 58 33 59 34 60 38 61 41 62 35 63 36 64 39 65 37 66 63 67
REMARK SMILES IDX 64 68 72 69 65 70 66 71 70 72 73 73 67 74 68 75 71 76 69 77
REMARK SMILES IDX 48 78 49 79 57 80 50 81 51 82 55 83 58 84 52 85 53 86 56 87
REMARK SMILES IDX 54 88
REMARK H PARENT 1 17 1 18 78 41 46 52
REMARK Flexibility Score: inf
ROOT
ATOM      1  C   UNL A   1      32.212  29.602  25.012  1.00  0.00     0.274 C 
ENDROOT
BRANCH   1   2
ATOM      2  O   UNL A   1      31.498  28.350  25.071  1.00  0.00    -0.457 OA
BRANCH   2   3
ATOM      3  C   UNL A   1      31.840  27.486  26.077  1.00  0.00     0.381 C 
ATOM      4  O   UNL A   1      31.049  27.092  26.928  1.00  0.00    -0.244 OA
BRANCH   3   5
ATOM      5  C   UNL A   1      33.289  26.927  25.889  1.00  0.00     0.461 C 
ATOM      6  F   UNL A   1      34.168  27.768  26.536  1.00  0.00    -0.189 F 
BRANCH   5   7
ATOM      7  O   UNL A   1      33.918  26.655  24.652  1.00  0.00    -0.450 OA
BRANCH   7   8
ATOM      8  C   UNL A   1      33.924  25.344  24.279  1.00  0.00     0.139 A 
ATOM      9  C   UNL A   1      33.531  24.951  22.991  1.00  0.00     0.117 A 
ATOM     10  C   UNL A   1      33.662  23.610  22.631  1.00  0.00     0.139 A 
ATOM     11  F   UNL A   1      33.283  23.184  21.416  1.00  0.00    -0.206 F 
ATOM     12  C   UNL A   1      34.194  22.674  23.517  1.00  0.00     0.040 A 
ATOM     13  C   UNL A   1      34.459  24.409  25.174  1.00  0.00     0.047 A 
ATOM     14  C   UNL A   1      34.591  23.073  24.793  1.00  0.00     0.007 A 
BRANCH   9  15
ATOM     15  C   UNL A   1      32.962  25.944  22.050  1.00  0.00     0.255 C 
ATOM     16  N   UNL A   1      31.878  26.659  22.470  1.00  0.00    -0.365 N 
ATOM     17  H   UNL A   1      31.470  27.330  21.875  1.00  0.00     0.159 HD
ATOM     18  H   UNL A   1      31.504  26.505  23.367  1.00  0.00     0.159 HD
ATOM     19  O   UNL A   1      33.481  26.196  20.970  1.00  0.00    -0.269 OA
ENDBRANCH   9  15
ENDBRANCH   7   8
ENDBRANCH   5   7
ENDBRANCH   3   5
ENDBRANCH   2   3
ENDBRANCH   1   2
BRANCH   1  20
ATOM     20  C   UNL A   1      31.750  30.542  26.132  1.00  0.00     0.275 C 
BRANCH  20  21
ATOM     21  O   UNL A   1      32.653  30.512  27.255  1.00  0.00    -0.458 OA
BRANCH  21  22
ATOM     22  C   UNL A   1      33.439  31.604  27.382  1.00  0.00     0.338 C 
ATOM     23  O   UNL A   1      33.126  32.768  27.201  1.00  0.00    -0.246 OA
BRANCH  22  24
ATOM     24  C   UNL A   1      34.742  31.219  27.938  1.00  0.00     0.060 A 
ATOM     25  C   UNL A   1      34.886  29.909  28.403  1.00  0.00     0.016 A 
ATOM     26  C   UNL A   1      35.769  32.150  28.094  1.00  0.00     0.016 A 
ATOM     27  C   UNL A   1      36.043  29.532  29.068  1.00  0.00     0.010 A 
ATOM     28  C   UNL A   1      36.943  31.764  28.747  1.00  0.00     0.010 A 
ATOM     29  C   UNL A   1      37.073  30.460  29.257  1.00  0.00    -0.014 A 
BRANCH  29  30
ATOM     30  C   UNL A   1      38.257  30.067  30.050  1.00  0.00     0.031 A 
ATOM     31  C   UNL A   1      39.281  29.151  29.450  1.00  0.00     0.074 A 
ATOM     32  C   UNL A   1      38.431  30.578  31.280  1.00  0.00     0.049 A 
ATOM     33  N   UNL A   1      40.352  28.636  29.995  1.00  0.00    -0.248 NA
ATOM     34  C   UNL A   1      39.069  28.757  28.047  1.00  0.00     0.031 C 
ATOM     35  C   UNL A   1      37.525  31.525  31.931  1.00  0.00     0.029 A 
ATOM     36  N   UNL A   1      39.432  30.384  32.196  1.00  0.00    -0.354 N 
ATOM     37  C   UNL A   1      40.924  27.836  29.017  1.00  0.00     0.074 A 
ATOM     38  C   UNL A   1      40.079  27.923  27.846  1.00  0.00     0.031 C 
ATOM     39  C   UNL A   1      38.020  31.841  33.137  1.00  0.00     0.029 A 
ATOM     40  C   UNL A   1      39.246  31.081  33.363  1.00  0.00     0.049 A 
ATOM     41  H   UNL A   1      40.207  29.800  32.033  1.00  0.00     0.167 HD
ATOM     42  C   UNL A   1      42.057  27.099  29.096  1.00  0.00     0.037 A 
ATOM     43  C   UNL A   1      39.973  31.087  34.495  1.00  0.00     0.037 A 
ATOM     44  C   UNL A   1      42.905  27.048  30.258  1.00  0.00     0.049 A 
ATOM     45  C   UNL A   1      41.207  30.233  34.573  1.00  0.00     0.074 A 
ATOM     46  C   UNL A   1      44.083  26.346  30.438  1.00  0.00     0.029 A 
ATOM     47  N   UNL A   1      42.663  27.736  31.440  1.00  0.00    -0.354 N 
ATOM     48  N   UNL A   1      41.727  29.454  33.656  1.00  0.00    -0.248 NA
ATOM     49  C   UNL A   1      41.948  30.250  35.840  1.00  0.00     0.031 C 
ATOM     50  C   UNL A   1      44.532  26.578  31.742  1.00  0.00     0.029 A 
ATOM     51  C   UNL A   1      43.660  27.459  32.360  1.00  0.00     0.049 A 
ATOM     52  H   UNL A   1      41.896  28.334  31.599  1.00  0.00     0.167 HD
ATOM     53  C   UNL A   1      42.857  28.891  34.229  1.00  0.00     0.074 A 
ATOM     54  C   UNL A   1      42.958  29.432  35.569  1.00  0.00     0.031 C 
ATOM     55  C   UNL A   1      43.732  28.005  33.692  1.00  0.00     0.037 A 
BRANCH  42  56
ATOM     56  C   UNL A   1      42.423  26.259  27.908  1.00  0.00     0.064 A 
ATOM     57  C   UNL A   1      41.843  24.993  27.735  1.00  0.00     0.173 A 
ATOM     58  C   UNL A   1      43.364  26.687  26.960  1.00  0.00     0.173 A 
ATOM     59  F   UNL A   1      40.939  24.538  28.615  1.00  0.00    -0.203 F 
ATOM     60  C   UNL A   1      42.193  24.185  26.657  1.00  0.00     0.198 A 
ATOM     61  C   UNL A   1      43.692  25.886  25.868  1.00  0.00     0.198 A 
ATOM     62  F   UNL A   1      43.933  27.896  27.071  1.00  0.00    -0.203 F 
ATOM     63  F   UNL A   1      41.638  22.973  26.521  1.00  0.00    -0.200 F 
ATOM     64  C   UNL A   1      43.113  24.634  25.721  1.00  0.00     0.200 A 
ATOM     65  F   UNL A   1      44.560  26.332  24.950  1.00  0.00    -0.200 F 
ATOM     66  F   UNL A   1      43.434  23.864  24.672  1.00  0.00    -0.200 F 
ENDBRANCH  42  56
BRANCH  43  67
ATOM     67  C   UNL A   1      39.529  31.926  35.634  1.00  0.00     0.064 A 
ATOM     68  C   UNL A   1      38.548  31.473  36.529  1.00  0.00     0.173 A 
ATOM     69  C   UNL A   1      40.023  33.225  35.809  1.00  0.00     0.173 A 
ATOM     70  F   UNL A   1      38.043  30.237  36.401  1.00  0.00    -0.203 F 
ATOM     71  C   UNL A   1      38.054  32.299  37.536  1.00  0.00     0.198 A 
ATOM     72  C   UNL A   1      39.545  34.044  36.831  1.00  0.00     0.198 A 
ATOM     73  F   UNL A   1      40.977  33.694  34.992  1.00  0.00    -0.203 F 
ATOM     74  F   UNL A   1      37.086  31.856  38.350  1.00  0.00    -0.200 F 
ATOM     75  C   UNL A   1      38.553  33.584  37.686  1.00  0.00     0.200 A 
ATOM     76  F   UNL A   1      40.043  35.277  36.988  1.00  0.00    -0.200 F 
ATOM     77  F   UNL A   1      38.078  34.379  38.655  1.00  0.00    -0.200 F 
ENDBRANCH  43  67
BRANCH  55  78
ATOM     78  C   UNL A   1      44.878  27.564  34.553  1.00  0.00     0.064 A 
ATOM     79  C   UNL A   1      46.096  28.259  34.525  1.00  0.00     0.173 A 
ATOM     80  C   UNL A   1      44.793  26.408  35.341  1.00  0.00     0.173 A 
ATOM     81  F   UNL A   1      46.227  29.365  33.779  1.00  0.00    -0.203 F 
ATOM     82  C   UNL A   1      47.194  27.802  35.248  1.00  0.00     0.198 A 
ATOM     83  C   UNL A   1      45.887  25.968  36.081  1.00  0.00     0.198 A 
ATOM     84  F   UNL A   1      43.644  25.718  35.406  1.00  0.00    -0.203 F 
ATOM     85  F   UNL A   1      48.358  28.464  35.184  1.00  0.00    -0.200 F 
ATOM     86  C   UNL A   1      47.088  26.659  36.026  1.00  0.00     0.200 A 
ATOM     87  F   UNL A   1      45.778  24.875  36.849  1.00  0.00    -0.200 F 
ATOM     88  F   UNL A   1      48.145  26.225  36.727  1.00  0.00    -0.200 F 
ENDBRANCH  55  78
ENDBRANCH  29  30
ENDBRANCH  22  24
ENDBRANCH  21  22
ENDBRANCH  20  21
ENDBRANCH   1  20
TORSDOF 14
ENDMDL
MODEL 2
REMARK VINA RESULT:     -11.0      1.053      1.628
REMARK SMILES NC(=O)c1c(F)cccc1O[C@@H](F)C(=O)OCCOC(=O)c1ccc(-c2c3nc(c(-c4c(F)c(F)c(F)c(F)c4F)c4ccc([nH]4)c(-c4c(F)c(F)c(F)c(F)c4F)c4nc(c(-c5c(F)c(F)c(F)c(F)c5F)c5ccc2[nH]5)C=C4)C=C3)cc1
REMARK SMILES IDX 17 1 16 2 14 3 15 4 12 5 13 6 11 7 10 8 4 9 5 10 6 11 7 12
REMARK SMILES IDX 9 13 8 14 2 15 1 16 3 19 18 20 19 21 20 22 21 23 22 24 23 25
REMARK SMILES IDX 84 26 24 27 83 28 25 29 26 30 27 31 77 32 28 33 82 34 76 35
REMARK SMILES IDX 78 36 29 37 81 38 75 39 74 40 30 42 62 43 42 44 61 45 43 46
REMARK SMILES IDX 46 47 60 48 79 49 44 50 45 51 59 53 80 54 47 55 31 56 32 57
REMARK SMILES IDX 40 58 33 59 34 60 38 61 41 62 35 63 36 64 39 65 37 66 63 67
REMARK SMILES IDX 64 68 72 69 65 70 66 71 70 72 73 73 67 74 68 75 71 76 69 77
REMARK SMILES IDX 48 78 49 79 57 80 50 81 51 82 55 83 58 84 52 85 53 86 56 87
REMARK SMILES IDX 54 88
REMARK H PARENT 1 17 1 18 78 41 46 52
REMARK Flexibility Score: inf
ROOT
ATOM      1  C   UNL A   1      31.760  29.456  24.585  1.00  0.00     0.274 C 
ENDROOT
BRANCH   1   2
ATOM      2  O   UNL A   1      30.457  28.932  24.254  1.00  0.00    -0.457 OA
BRANCH   2   3
ATOM      3  C   UNL A   1      30.414  27.893  23.362  1.00  0.00     0.381 C 
ATOM      4  O   UNL A   1      30.305  28.047  22.150  1.00  0.00    -0.244 OA
BRANCH   3   5
ATOM      5  C   UNL A   1      30.712  26.523  24.057  1.00  0.00     0.461 C 
ATOM      6  F   UNL A   1      30.188  26.558  25.330  1.00  0.00    -0.189 F 
BRANCH   5   7
ATOM      7  O   UNL A   1      31.990  25.941  24.226  1.00  0.00    -0.450 OA
BRANCH   7   8
ATOM      8  C   UNL A   1      32.117  24.671  23.744  1.00  0.00     0.139 A 
ATOM      9  C   UNL A   1      32.607  24.428  22.453  1.00  0.00     0.117 A 
ATOM     10  C   UNL A   1      32.819  23.107  22.056  1.00  0.00     0.139 A 
ATOM     11  F   UNL A   1      33.271  22.824  20.824  1.00  0.00    -0.206 F 
ATOM     12  C   UNL A   1      32.576  22.045  22.925  1.00  0.00     0.040 A 
ATOM     13  C   UNL A   1      31.869  23.609  24.623  1.00  0.00     0.047 A 
ATOM     14  C   UNL A   1      32.097  22.295  24.211  1.00  0.00     0.007 A 
BRANCH   9  15
ATOM     15  C   UNL A   1      32.863  25.556  21.528  1.00  0.00     0.255 C 
ATOM     16  N   UNL A   1      31.900  25.844  20.605  1.00  0.00    -0.365 N 
ATOM     17  H   UNL A   1      32.030  26.587  19.972  1.00  0.00     0.159 HD
ATOM     18  H   UNL A   1      31.074  25.310  20.573  1.00  0.00     0.159 HD
ATOM     19  O   UNL A   1      33.851  26.273  21.626  1.00  0.00    -0.269 OA
ENDBRANCH   9  15
ENDBRANCH   7   8
ENDBRANCH   5   7
ENDBRANCH   3   5
ENDBRANCH   2   3
ENDBRANCH   1   2
BRANCH   1  20
ATOM     20  C   UNL A   1      31.649  30.550  25.653  1.00  0.00     0.275 C 
BRANCH  20  21
ATOM     21  O   UNL A   1      32.618  30.366  26.703  1.00  0.00    -0.458 OA
BRANCH  21  22
ATOM     22  C   UNL A   1      33.207  31.502  27.139  1.00  0.00     0.338 C 
ATOM     23  O   UNL A   1      32.721  32.620  27.182  1.00  0.00    -0.246 OA
BRANCH  22  24
ATOM     24  C   UNL A   1      34.516  31.193  27.726  1.00  0.00     0.060 A 
ATOM     25  C   UNL A   1      34.770  29.864  28.078  1.00  0.00     0.016 A 
ATOM     26  C   UNL A   1      35.437  32.198  28.020  1.00  0.00     0.016 A 
ATOM     27  C   UNL A   1      35.929  29.538  28.767  1.00  0.00     0.010 A 
ATOM     28  C   UNL A   1      36.614  31.866  28.696  1.00  0.00     0.010 A 
ATOM     29  C   UNL A   1      36.851  30.538  29.092  1.00  0.00    -0.014 A 
BRANCH  29  30
ATOM     30  C   UNL A   1      38.033  30.187  29.908  1.00  0.00     0.031 A 
ATOM     31  C   UNL A   1      39.108  29.322  29.322  1.00  0.00     0.074 A 
ATOM     32  C   UNL A   1      38.158  30.690  31.148  1.00  0.00     0.049 A 
ATOM     33  N   UNL A   1      40.188  28.846  29.886  1.00  0.00    -0.248 NA
ATOM     34  C   UNL A   1      38.946  28.936  27.911  1.00  0.00     0.031 C 
ATOM     35  C   UNL A   1      37.197  31.589  31.787  1.00  0.00     0.029 A 
ATOM     36  N   UNL A   1      39.144  30.528  32.084  1.00  0.00    -0.354 N 
ATOM     37  C   UNL A   1      40.816  28.084  28.913  1.00  0.00     0.074 A 
ATOM     38  C   UNL A   1      39.995  28.148  27.724  1.00  0.00     0.031 C 
ATOM     39  C   UNL A   1      37.650  31.913  33.008  1.00  0.00     0.029 A 
ATOM     40  C   UNL A   1      38.903  31.203  33.253  1.00  0.00     0.049 A 
ATOM     41  H   UNL A   1      39.948  29.980  31.933  1.00  0.00     0.167 HD
ATOM     42  C   UNL A   1      41.977  27.394  29.011  1.00  0.00     0.037 A 
ATOM     43  C   UNL A   1      39.603  31.227  34.402  1.00  0.00     0.037 A 
ATOM     44  C   UNL A   1      42.800  27.366  30.191  1.00  0.00     0.049 A 
ATOM     45  C   UNL A   1      40.870  30.426  34.500  1.00  0.00     0.074 A 
ATOM     46  C   UNL A   1      44.003  26.713  30.390  1.00  0.00     0.029 A 
ATOM     47  N   UNL A   1      42.503  28.030  31.374  1.00  0.00    -0.354 N 
ATOM     48  N   UNL A   1      41.444  29.680  33.587  1.00  0.00    -0.248 NA
ATOM     49  C   UNL A   1      41.582  30.458  35.784  1.00  0.00     0.031 C 
ATOM     50  C   UNL A   1      44.412  26.948  31.706  1.00  0.00     0.029 A 
ATOM     51  C   UNL A   1      43.489  27.785  32.314  1.00  0.00     0.049 A 
ATOM     52  H   UNL A   1      41.707  28.592  31.522  1.00  0.00     0.167 HD
ATOM     53  C   UNL A   1      42.584  29.159  34.179  1.00  0.00     0.074 A 
ATOM     54  C   UNL A   1      42.631  29.688  35.527  1.00  0.00     0.031 C 
ATOM     55  C   UNL A   1      43.508  28.317  33.653  1.00  0.00     0.037 A 
BRANCH  42  56
ATOM     56  C   UNL A   1      42.406  26.585  27.822  1.00  0.00     0.064 A 
ATOM     57  C   UNL A   1      41.977  25.256  27.683  1.00  0.00     0.173 A 
ATOM     58  C   UNL A   1      43.260  27.106  26.839  1.00  0.00     0.173 A 
ATOM     59  F   UNL A   1      41.159  24.711  28.596  1.00  0.00    -0.203 F 
ATOM     60  C   UNL A   1      42.388  24.478  26.605  1.00  0.00     0.198 A 
ATOM     61  C   UNL A   1      43.650  26.333  25.748  1.00  0.00     0.198 A 
ATOM     62  F   UNL A   1      43.684  28.376  26.918  1.00  0.00    -0.203 F 
ATOM     63  F   UNL A   1      41.978  23.206  26.502  1.00  0.00    -0.200 F 
ATOM     64  C   UNL A   1      43.220  25.018  25.636  1.00  0.00     0.200 A 
ATOM     65  F   UNL A   1      44.431  26.864  24.798  1.00  0.00    -0.200 F 
ATOM     66  F   UNL A   1      43.599  24.275  24.587  1.00  0.00    -0.200 F 
ENDBRANCH  42  56
BRANCH  43  67
ATOM     67  C   UNL A   1      39.098  32.033  35.540  1.00  0.00     0.064 A 
ATOM     68  C   UNL A   1      39.443  33.386  35.680  1.00  0.00     0.173 A 
ATOM     69  C   UNL A   1      38.317  31.450  36.546  1.00  0.00     0.173 A 
ATOM     70  F   UNL A   1      40.190  33.987  34.742  1.00  0.00    -0.203 F 
ATOM     71  C   UNL A   1      39.056  34.116  36.801  1.00  0.00     0.198 A 
ATOM     72  C   UNL A   1      37.910  32.188  37.657  1.00  0.00     0.198 A 
ATOM     73  F   UNL A   1      37.944  30.166  36.445  1.00  0.00    -0.203 F 
ATOM     74  F   UNL A   1      39.437  35.394  36.930  1.00  0.00    -0.200 F 
ATOM     75  C   UNL A   1      38.290  33.517  37.788  1.00  0.00     0.200 A 
ATOM     76  F   UNL A   1      37.153  31.613  38.600  1.00  0.00    -0.200 F 
ATOM     77  F   UNL A   1      37.917  34.218  38.868  1.00  0.00    -0.200 F 
ENDBRANCH  43  67
BRANCH  55  78
ATOM     78  C   UNL A   1      44.652  27.915  34.535  1.00  0.00     0.064 A 
ATOM     79  C   UNL A   1      45.840  28.660  34.541  1.00  0.00     0.173 A 
ATOM     80  C   UNL A   1      44.597  26.749  35.311  1.00  0.00     0.173 A 
ATOM     81  F   UNL A   1      45.942  29.778  33.808  1.00  0.00    -0.203 F 
ATOM     82  C   UNL A   1      46.941  28.241  35.284  1.00  0.00     0.198 A 
ATOM     83  C   UNL A   1      45.692  26.348  36.071  1.00  0.00     0.198 A 
ATOM     84  F   UNL A   1      43.477  26.012  35.345  1.00  0.00    -0.203 F 
ATOM     85  F   UNL A   1      48.077  28.952  35.251  1.00  0.00    -0.200 F 
ATOM     86  C   UNL A   1      46.865  27.088  36.050  1.00  0.00     0.200 A 
ATOM     87  F   UNL A   1      45.612  25.244  36.827  1.00  0.00    -0.200 F 
ATOM     88  F   UNL A   1      47.923  26.691  36.770  1.00  0.00    -0.200 F 
ENDBRANCH  55  78
ENDBRANCH  29  30
ENDBRANCH  22  24
ENDBRANCH  21  22
ENDBRANCH  20  21
ENDBRANCH   1  20
TORSDOF 14
ENDMDL
MODEL 3
REMARK VINA RESULT:     -11.0      1.648      2.824
REMARK SMILES NC(=O)c1c(F)cccc1O[C@@H](F)C(=O)OCCOC(=O)c1ccc(-c2c3nc(c(-c4c(F)c(F)c(F)c(F)c4F)c4ccc([nH]4)c(-c4c(F)c(F)c(F)c(F)c4F)c4nc(c(-c5c(F)c(F)c(F)c(F)c5F)c5ccc2[nH]5)C=C4)C=C3)cc1
REMARK SMILES IDX 17 1 16 2 14 3 15 4 12 5 13 6 11 7 10 8 4 9 5 10 6 11 7 12
REMARK SMILES IDX 9 13 8 14 2 15 1 16 3 19 18 20 19 21 20 22 21 23 22 24 23 25
REMARK SMILES IDX 84 26 24 27 83 28 25 29 26 30 27 31 77 32 28 33 82 34 76 35
REMARK SMILES IDX 78 36 29 37 81 38 75 39 74 40 30 42 62 43 42 44 61 45 43 46
REMARK SMILES IDX 46 47 60 48 79 49 44 50 45 51 59 53 80 54 47 55 31 56 32 57
REMARK SMILES IDX 40 58 33 59 34 60 38 61 41 62 35 63 36 64 39 65 37 66 63 67
REMARK SMILES IDX 64 68 72 69 65 70 66 71 70 72 73 73 67 74 68 75 71 76 69 77
REMARK SMILES IDX 48 78 49 79 57 80 50 81 51 82 55 83 58 84 52 85 53 86 56 87
REMARK SMILES IDX 54 88
REMARK H PARENT 1 17 1 18 78 41 46 52
REMARK Flexibility Score: inf
ROOT
ATOM      1  C   UNL A   1      31.634  29.161  24.314  1.00  0.00     0.274 C 
ENDROOT
BRANCH   1   2
ATOM      2  O   UNL A   1      30.299  28.621  24.224  1.00  0.00    -0.457 OA
BRANCH   2   3
ATOM      3  C   UNL A   1      30.047  27.758  23.192  1.00  0.00     0.381 C 
ATOM      4  O   UNL A   1      30.122  28.077  22.009  1.00  0.00    -0.244 OA
BRANCH   3   5
ATOM      5  C   UNL A   1      29.845  26.292  23.701  1.00  0.00     0.461 C 
ATOM      6  F   UNL A   1      28.530  26.140  24.080  1.00  0.00    -0.189 F 
BRANCH   5   7
ATOM      7  O   UNL A   1      30.577  25.668  24.737  1.00  0.00    -0.450 OA
BRANCH   7   8
ATOM      8  C   UNL A   1      31.177  24.491  24.396  1.00  0.00     0.139 A 
ATOM      9  C   UNL A   1      31.205  23.405  25.282  1.00  0.00     0.117 A 
ATOM     10  C   UNL A   1      31.735  22.193  24.838  1.00  0.00     0.139 A 
ATOM     11  F   UNL A   1      31.799  21.130  25.655  1.00  0.00    -0.206 F 
ATOM     12  C   UNL A   1      32.206  22.047  23.534  1.00  0.00     0.040 A 
ATOM     13  C   UNL A   1      31.649  24.352  23.086  1.00  0.00     0.047 A 
ATOM     14  C   UNL A   1      32.166  23.129  22.656  1.00  0.00     0.007 A 
BRANCH   9  15
ATOM     15  C   UNL A   1      30.708  23.560  26.669  1.00  0.00     0.255 C 
ATOM     16  N   UNL A   1      29.363  23.713  26.841  1.00  0.00    -0.365 N 
ATOM     17  H   UNL A   1      28.991  23.819  27.747  1.00  0.00     0.159 HD
ATOM     18  H   UNL A   1      28.764  23.718  26.060  1.00  0.00     0.159 HD
ATOM     19  O   UNL A   1      31.443  23.468  27.644  1.00  0.00    -0.269 OA
ENDBRANCH   9  15
ENDBRANCH   7   8
ENDBRANCH   5   7
ENDBRANCH   3   5
ENDBRANCH   2   3
ENDBRANCH   1   2
BRANCH   1  20
ATOM     20  C   UNL A   1      31.765  30.087  25.529  1.00  0.00     0.275 C 
BRANCH  20  21
ATOM     21  O   UNL A   1      33.143  30.304  25.884  1.00  0.00    -0.458 OA
BRANCH  21  22
ATOM     22  C   UNL A   1      33.339  31.173  26.901  1.00  0.00     0.338 C 
ATOM     23  O   UNL A   1      32.537  31.969  27.360  1.00  0.00    -0.246 OA
BRANCH  22  24
ATOM     24  C   UNL A   1      34.647  30.931  27.521  1.00  0.00     0.060 A 
ATOM     25  C   UNL A   1      35.016  29.604  27.758  1.00  0.00     0.016 A 
ATOM     26  C   UNL A   1      35.454  31.985  27.951  1.00  0.00     0.016 A 
ATOM     27  C   UNL A   1      36.172  29.322  28.470  1.00  0.00     0.010 A 
ATOM     28  C   UNL A   1      36.629  31.699  28.651  1.00  0.00     0.010 A 
ATOM     29  C   UNL A   1      36.979  30.367  28.932  1.00  0.00    -0.014 A 
BRANCH  29  30
ATOM     30  C   UNL A   1      38.156  30.049  29.768  1.00  0.00     0.031 A 
ATOM     31  C   UNL A   1      39.243  29.176  29.218  1.00  0.00     0.074 A 
ATOM     32  C   UNL A   1      38.265  30.590  30.994  1.00  0.00     0.049 A 
ATOM     33  N   UNL A   1      40.321  28.727  29.806  1.00  0.00    -0.248 NA
ATOM     34  C   UNL A   1      39.097  28.748  27.817  1.00  0.00     0.031 C 
ATOM     35  C   UNL A   1      37.291  31.499  31.599  1.00  0.00     0.029 A 
ATOM     36  N   UNL A   1      39.244  30.463  31.944  1.00  0.00    -0.354 N 
ATOM     37  C   UNL A   1      40.965  27.941  28.860  1.00  0.00     0.074 A 
ATOM     38  C   UNL A   1      40.154  27.964  27.663  1.00  0.00     0.031 C 
ATOM     39  C   UNL A   1      37.730  31.861  32.813  1.00  0.00     0.029 A 
ATOM     40  C   UNL A   1      38.986  31.170  33.091  1.00  0.00     0.049 A 
ATOM     41  H   UNL A   1      40.053  29.917  31.816  1.00  0.00     0.167 HD
ATOM     42  C   UNL A   1      42.130  27.264  28.989  1.00  0.00     0.037 A 
ATOM     43  C   UNL A   1      39.676  31.232  34.244  1.00  0.00     0.037 A 
ATOM     44  C   UNL A   1      42.942  27.278  30.177  1.00  0.00     0.049 A 
ATOM     45  C   UNL A   1      40.948  30.445  34.377  1.00  0.00     0.074 A 
ATOM     46  C   UNL A   1      44.148  26.641  30.407  1.00  0.00     0.029 A 
ATOM     47  N   UNL A   1      42.629  27.973  31.337  1.00  0.00    -0.354 N 
ATOM     48  N   UNL A   1      41.537  29.678  33.491  1.00  0.00    -0.248 NA
ATOM     49  C   UNL A   1      41.647  30.521  35.666  1.00  0.00     0.031 C 
ATOM     50  C   UNL A   1      44.544  26.917  31.719  1.00  0.00     0.029 A 
ATOM     51  C   UNL A   1      43.608  27.763  32.293  1.00  0.00     0.049 A 
ATOM     52  H   UNL A   1      41.828  28.533  31.462  1.00  0.00     0.167 HD
ATOM     53  C   UNL A   1      42.675  29.184  34.109  1.00  0.00     0.074 A 
ATOM     54  C   UNL A   1      42.705  29.752  35.441  1.00  0.00     0.031 C 
ATOM     55  C   UNL A   1      43.610  28.335  33.616  1.00  0.00     0.037 A 
BRANCH  42  56
ATOM     56  C   UNL A   1      42.577  26.424  27.829  1.00  0.00     0.064 A 
ATOM     57  C   UNL A   1      43.440  26.962  26.862  1.00  0.00     0.173 A 
ATOM     58  C   UNL A   1      42.134  25.105  27.654  1.00  0.00     0.173 A 
ATOM     59  F   UNL A   1      43.892  28.219  26.982  1.00  0.00    -0.203 F 
ATOM     60  C   UNL A   1      43.842  26.210  25.761  1.00  0.00     0.198 A 
ATOM     61  C   UNL A   1      42.558  24.347  26.565  1.00  0.00     0.198 A 
ATOM     62  F   UNL A   1      41.322  24.540  28.560  1.00  0.00    -0.203 F 
ATOM     63  F   UNL A   1      44.653  26.750  24.842  1.00  0.00    -0.200 F 
ATOM     64  C   UNL A   1      43.405  24.902  25.616  1.00  0.00     0.200 A 
ATOM     65  F   UNL A   1      42.158  23.074  26.441  1.00  0.00    -0.200 F 
ATOM     66  F   UNL A   1      43.808  24.172  24.567  1.00  0.00    -0.200 F 
ENDBRANCH  42  56
BRANCH  43  67
ATOM     67  C   UNL A   1      39.153  32.067  35.353  1.00  0.00     0.064 A 
ATOM     68  C   UNL A   1      39.459  33.434  35.439  1.00  0.00     0.173 A 
ATOM     69  C   UNL A   1      38.396  31.502  36.388  1.00  0.00     0.173 A 
ATOM     70  F   UNL A   1      40.182  34.020  34.473  1.00  0.00    -0.203 F 
ATOM     71  C   UNL A   1      39.057  34.196  36.532  1.00  0.00     0.198 A 
ATOM     72  C   UNL A   1      37.974  32.270  37.472  1.00  0.00     0.198 A 
ATOM     73  F   UNL A   1      38.061  30.204  36.339  1.00  0.00    -0.203 F 
ATOM     74  F   UNL A   1      39.401  35.489  36.610  1.00  0.00    -0.200 F 
ATOM     75  C   UNL A   1      38.315  33.614  37.548  1.00  0.00     0.200 A 
ATOM     76  F   UNL A   1      37.240  31.711  38.442  1.00  0.00    -0.200 F 
ATOM     77  F   UNL A   1      37.928  34.346  38.602  1.00  0.00    -0.200 F 
ENDBRANCH  43  67
BRANCH  55  78
ATOM     78  C   UNL A   1      44.749  27.968  34.520  1.00  0.00     0.064 A 
ATOM     79  C   UNL A   1      44.640  26.874  35.392  1.00  0.00     0.173 A 
ATOM     80  C   UNL A   1      45.912  28.748  34.579  1.00  0.00     0.173 A 
ATOM     81  F   UNL A   1      43.542  26.104  35.378  1.00  0.00    -0.203 F 
ATOM     82  C   UNL A   1      45.653  26.583  36.301  1.00  0.00     0.198 A 
ATOM     83  C   UNL A   1      46.933  28.438  35.473  1.00  0.00     0.198 A 
ATOM     84  F   UNL A   1      46.064  29.796  33.756  1.00  0.00    -0.203 F 
ATOM     85  F   UNL A   1      45.516  25.551  37.146  1.00  0.00    -0.200 F 
ATOM     86  C   UNL A   1      46.799  27.363  36.339  1.00  0.00     0.200 A 
ATOM     87  F   UNL A   1      48.049  29.180  35.496  1.00  0.00    -0.200 F 
ATOM     88  F   UNL A   1      47.776  27.077  37.210  1.00  0.00    -0.200 F 
ENDBRANCH  55  78
ENDBRANCH  29  30
ENDBRANCH  22  24
ENDBRANCH  21  22
ENDBRANCH  20  21
ENDBRANCH   1  20
TORSDOF 14
ENDMDL
