MODEL 1
REMARK VINA RESULT:     -12.1      0.000      0.000
REMARK SMILES COCC[C@@H](C)NC(=O)N1Cc2nc[nH]c2C[C@@H]1C(=O)OCCOC(=O)c1ccc(-c2c3nc(c(-c4c(F)c(F)c(F)c(F)c4F)c4ccc([nH]4)c(-c4c(F)c(F)c(F)c(F)c4F)c4nc(c(-c5c(F)c(F)c(F)c(F)c5F)c5ccc2[nH]5)C=C4)C=C3)cc1
REMARK SMILES IDX 21 1 19 2 20 3 18 4 10 5 11 6 12 7 17 8 13 9 16 10 14 11
REMARK SMILES IDX 15 12 8 14 7 15 9 17 5 18 6 19 4 20 3 21 2 22 1 23 22 24
REMARK SMILES IDX 23 25 24 26 25 27 26 28 27 29 28 30 89 31 29 32 88 33 30 34
REMARK SMILES IDX 31 35 32 36 82 37 33 38 87 39 81 40 83 41 34 42 86 43 80 44
REMARK SMILES IDX 79 45 35 47 67 48 47 49 66 50 48 51 51 52 65 53 84 54 49 55
REMARK SMILES IDX 50 56 64 58 85 59 52 60 36 61 37 62 45 63 38 64 39 65 43 66
REMARK SMILES IDX 46 67 40 68 41 69 44 70 42 71 68 72 69 73 77 74 70 75 71 76
REMARK SMILES IDX 75 77 78 78 72 79 73 80 76 81 74 82 53 83 54 84 62 85 55 86
REMARK SMILES IDX 56 87 60 88 63 89 57 90 58 91 61 92 59 93
REMARK H PARENT 15 13 7 16 83 46 51 57
REMARK Flexibility Score: inf
ROOT
ATOM      1  O   UNL A   1      32.474  28.540  26.016  1.00  0.00    -0.461 OA
ENDROOT
BRANCH   1   2
ATOM      2  C   UNL A   1      33.115  28.044  24.931  1.00  0.00     0.329 C 
ATOM      3  O   UNL A   1      33.711  28.803  24.165  1.00  0.00    -0.250 OA
BRANCH   2   4
ATOM      4  C   UNL A   1      32.791  26.542  24.571  1.00  0.00     0.203 C 
ATOM      5  N   UNL A   1      32.111  25.863  23.354  1.00  0.00    -0.305 N 
ATOM      6  C   UNL A   1      31.840  24.399  23.447  1.00  0.00     0.180 C 
ATOM      7  C   UNL A   1      31.423  23.990  24.806  1.00  0.00     0.081 A 
ATOM      8  C   UNL A   1      32.059  26.146  25.916  1.00  0.00     0.093 C 
ATOM      9  N   UNL A   1      30.848  22.794  25.153  1.00  0.00    -0.240 NA
ATOM     10  C   UNL A   1      31.558  24.777  25.910  1.00  0.00     0.042 A 
ATOM     11  C   UNL A   1      30.610  22.887  26.446  1.00  0.00     0.197 A 
ATOM     12  N   UNL A   1      31.039  24.082  26.957  1.00  0.00    -0.348 N 
ATOM     13  H   UNL A   1      30.984  24.378  27.894  1.00  0.00     0.167 HD
BRANCH   5  14
ATOM     14  C   UNL A   1      31.642  26.353  22.166  1.00  0.00     0.318 C 
ATOM     15  N   UNL A   1      30.886  27.477  22.112  1.00  0.00    -0.335 N 
ATOM     16  H   UNL A   1      30.816  27.879  21.216  1.00  0.00     0.165 HD
ATOM     17  O   UNL A   1      32.107  25.977  21.085  1.00  0.00    -0.249 OA
BRANCH  15  18
ATOM     18  C   UNL A   1      30.168  28.185  23.143  1.00  0.00     0.083 C 
ATOM     19  C   UNL A   1      28.946  27.364  23.478  1.00  0.00     0.031 C 
BRANCH  18  20
ATOM     20  C   UNL A   1      29.668  29.579  22.762  1.00  0.00     0.053 C 
BRANCH  20  21
ATOM     21  C   UNL A   1      28.216  29.528  22.257  1.00  0.00     0.162 C 
BRANCH  21  22
ATOM     22  O   UNL A   1      28.075  30.176  20.993  1.00  0.00    -0.385 OA
ATOM     23  C   UNL A   1      28.257  31.586  21.005  1.00  0.00     0.194 C 
ENDBRANCH  21  22
ENDBRANCH  20  21
ENDBRANCH  18  20
ENDBRANCH  15  18
ENDBRANCH   5  14
ENDBRANCH   2   4
ENDBRANCH   1   2
BRANCH   1  24
ATOM     24  C   UNL A   1      32.125  29.950  25.947  1.00  0.00     0.274 C 
BRANCH  24  25
ATOM     25  C   UNL A   1      32.901  30.813  26.957  1.00  0.00     0.275 C 
BRANCH  25  26
ATOM     26  O   UNL A   1      34.283  30.446  27.173  1.00  0.00    -0.458 OA
BRANCH  26  27
ATOM     27  C   UNL A   1      35.152  31.383  27.614  1.00  0.00     0.338 C 
ATOM     28  O   UNL A   1      34.883  32.580  27.663  1.00  0.00    -0.246 OA
BRANCH  27  29
ATOM     29  C   UNL A   1      36.443  30.865  28.132  1.00  0.00     0.060 A 
ATOM     30  C   UNL A   1      36.713  29.503  27.946  1.00  0.00     0.016 A 
ATOM     31  C   UNL A   1      37.359  31.660  28.827  1.00  0.00     0.016 A 
ATOM     32  C   UNL A   1      37.847  28.923  28.499  1.00  0.00     0.010 A 
ATOM     33  C   UNL A   1      38.532  31.096  29.324  1.00  0.00     0.010 A 
ATOM     34  C   UNL A   1      38.783  29.728  29.160  1.00  0.00    -0.014 A 
BRANCH  34  35
ATOM     35  C   UNL A   1      40.149  29.197  29.309  1.00  0.00     0.031 A 
ATOM     36  C   UNL A   1      40.522  28.993  30.755  1.00  0.00     0.074 A 
ATOM     37  C   UNL A   1      40.897  28.720  28.290  1.00  0.00     0.049 A 
ATOM     38  N   UNL A   1      41.569  29.414  31.389  1.00  0.00    -0.248 NA
ATOM     39  C   UNL A   1      39.516  28.365  31.639  1.00  0.00     0.031 C 
ATOM     40  C   UNL A   1      40.530  28.648  26.873  1.00  0.00     0.029 A 
ATOM     41  N   UNL A   1      42.108  28.084  28.314  1.00  0.00    -0.354 N 
ATOM     42  C   UNL A   1      41.421  28.980  32.711  1.00  0.00     0.074 A 
ATOM     43  C   UNL A   1      40.082  28.485  32.839  1.00  0.00     0.031 C 
ATOM     44  C   UNL A   1      41.367  27.803  26.229  1.00  0.00     0.029 A 
ATOM     45  C   UNL A   1      42.407  27.381  27.149  1.00  0.00     0.049 A 
ATOM     46  H   UNL A   1      42.716  28.121  29.088  1.00  0.00     0.167 HD
ATOM     47  C   UNL A   1      42.495  28.828  33.532  1.00  0.00     0.037 A 
ATOM     48  C   UNL A   1      43.411  26.484  26.966  1.00  0.00     0.037 A 
ATOM     49  C   UNL A   1      43.622  29.570  33.040  1.00  0.00     0.049 A 
ATOM     50  C   UNL A   1      44.407  26.716  28.031  1.00  0.00     0.074 A 
ATOM     51  C   UNL A   1      43.993  30.893  32.979  1.00  0.00     0.029 A 
ATOM     52  N   UNL A   1      44.395  28.886  32.143  1.00  0.00    -0.354 N 
ATOM     53  N   UNL A   1      45.140  27.791  28.104  1.00  0.00    -0.248 NA
ATOM     54  C   UNL A   1      44.341  25.918  29.246  1.00  0.00     0.031 C 
ATOM     55  C   UNL A   1      44.808  31.011  31.813  1.00  0.00     0.029 A 
ATOM     56  C   UNL A   1      44.946  29.747  31.238  1.00  0.00     0.049 A 
ATOM     57  H   UNL A   1      44.534  27.911  32.149  1.00  0.00     0.167 HD
ATOM     58  C   UNL A   1      45.261  28.030  29.459  1.00  0.00     0.074 A 
ATOM     59  C   UNL A   1      44.907  26.770  30.104  1.00  0.00     0.031 C 
ATOM     60  C   UNL A   1      45.341  29.311  29.920  1.00  0.00     0.037 A 
BRANCH  47  61
ATOM     61  C   UNL A   1      42.684  27.637  34.456  1.00  0.00     0.064 A 
ATOM     62  C   UNL A   1      43.068  26.394  33.905  1.00  0.00     0.173 A 
ATOM     63  C   UNL A   1      42.181  27.580  35.775  1.00  0.00     0.173 A 
ATOM     64  F   UNL A   1      43.541  26.318  32.652  1.00  0.00    -0.203 F 
ATOM     65  C   UNL A   1      42.882  25.190  34.594  1.00  0.00     0.198 A 
ATOM     66  C   UNL A   1      42.042  26.382  36.474  1.00  0.00     0.198 A 
ATOM     67  F   UNL A   1      41.691  28.654  36.401  1.00  0.00    -0.203 F 
ATOM     68  F   UNL A   1      43.143  24.025  33.984  1.00  0.00    -0.200 F 
ATOM     69  C   UNL A   1      42.362  25.184  35.875  1.00  0.00     0.200 A 
ATOM     70  F   UNL A   1      41.511  26.398  37.706  1.00  0.00    -0.200 F 
ATOM     71  F   UNL A   1      42.119  24.030  36.511  1.00  0.00    -0.200 F 
ENDBRANCH  47  61
BRANCH  48  72
ATOM     72  C   UNL A   1      43.468  25.285  26.094  1.00  0.00     0.064 A 
ATOM     73  C   UNL A   1      44.563  25.032  25.249  1.00  0.00     0.173 A 
ATOM     74  C   UNL A   1      42.575  24.216  26.293  1.00  0.00     0.173 A 
ATOM     75  F   UNL A   1      45.489  25.980  25.043  1.00  0.00    -0.203 F 
ATOM     76  C   UNL A   1      44.763  23.778  24.656  1.00  0.00     0.198 A 
ATOM     77  C   UNL A   1      42.775  22.966  25.703  1.00  0.00     0.198 A 
ATOM     78  F   UNL A   1      41.546  24.337  27.144  1.00  0.00    -0.203 F 
ATOM     79  F   UNL A   1      45.849  23.558  23.901  1.00  0.00    -0.200 F 
ATOM     80  C   UNL A   1      43.874  22.743  24.893  1.00  0.00     0.200 A 
ATOM     81  F   UNL A   1      41.931  21.960  25.974  1.00  0.00    -0.200 F 
ATOM     82  F   UNL A   1      44.096  21.525  24.379  1.00  0.00    -0.200 F 
ENDBRANCH  48  72
BRANCH  60  83
ATOM     83  C   UNL A   1      45.690  30.371  28.919  1.00  0.00     0.064 A 
ATOM     84  C   UNL A   1      46.998  30.652  28.490  1.00  0.00     0.173 A 
ATOM     85  C   UNL A   1      44.642  31.060  28.302  1.00  0.00     0.173 A 
ATOM     86  F   UNL A   1      48.045  29.975  28.975  1.00  0.00    -0.203 F 
ATOM     87  C   UNL A   1      47.243  31.614  27.512  1.00  0.00     0.198 A 
ATOM     88  C   UNL A   1      44.886  31.992  27.300  1.00  0.00     0.198 A 
ATOM     89  F   UNL A   1      43.372  30.796  28.645  1.00  0.00    -0.203 F 
ATOM     90  F   UNL A   1      48.502  31.878  27.129  1.00  0.00    -0.200 F 
ATOM     91  C   UNL A   1      46.186  32.277  26.913  1.00  0.00     0.200 A 
ATOM     92  F   UNL A   1      43.857  32.601  26.694  1.00  0.00    -0.200 F 
ATOM     93  F   UNL A   1      46.417  33.176  25.946  1.00  0.00    -0.200 F 
ENDBRANCH  60  83
ENDBRANCH  34  35
ENDBRANCH  27  29
ENDBRANCH  26  27
ENDBRANCH  25  26
ENDBRANCH  24  25
ENDBRANCH   1  24
TORSDOF 16
ENDMDL
MODEL 2
REMARK VINA RESULT:     -11.9      2.219      4.121
REMARK SMILES COCC[C@@H](C)NC(=O)N1Cc2nc[nH]c2C[C@@H]1C(=O)OCCOC(=O)c1ccc(-c2c3nc(c(-c4c(F)c(F)c(F)c(F)c4F)c4ccc([nH]4)c(-c4c(F)c(F)c(F)c(F)c4F)c4nc(c(-c5c(F)c(F)c(F)c(F)c5F)c5ccc2[nH]5)C=C4)C=C3)cc1
REMARK SMILES IDX 21 1 19 2 20 3 18 4 10 5 11 6 12 7 17 8 13 9 16 10 14 11
REMARK SMILES IDX 15 12 8 14 7 15 9 17 5 18 6 19 4 20 3 21 2 22 1 23 22 24
REMARK SMILES IDX 23 25 24 26 25 27 26 28 27 29 28 30 89 31 29 32 88 33 30 34
REMARK SMILES IDX 31 35 32 36 82 37 33 38 87 39 81 40 83 41 34 42 86 43 80 44
REMARK SMILES IDX 79 45 35 47 67 48 47 49 66 50 48 51 51 52 65 53 84 54 49 55
REMARK SMILES IDX 50 56 64 58 85 59 52 60 36 61 37 62 45 63 38 64 39 65 43 66
REMARK SMILES IDX 46 67 40 68 41 69 44 70 42 71 68 72 69 73 77 74 70 75 71 76
REMARK SMILES IDX 75 77 78 78 72 79 73 80 76 81 74 82 53 83 54 84 62 85 55 86
REMARK SMILES IDX 56 87 60 88 63 89 57 90 58 91 61 92 59 93
REMARK H PARENT 15 13 7 16 83 46 51 57
REMARK Flexibility Score: inf
ROOT
ATOM      1  O   UNL A   1      33.181  29.339  26.390  1.00  0.00    -0.461 OA
ENDROOT
BRANCH   1   2
ATOM      2  C   UNL A   1      32.952  28.052  26.035  1.00  0.00     0.329 C 
ATOM      3  O   UNL A   1      33.696  27.158  26.443  1.00  0.00    -0.250 OA
BRANCH   2   4
ATOM      4  C   UNL A   1      31.910  27.837  24.871  1.00  0.00     0.203 C 
ATOM      5  N   UNL A   1      31.974  27.096  23.510  1.00  0.00    -0.305 N 
ATOM      6  C   UNL A   1      30.809  27.248  22.590  1.00  0.00     0.180 C 
ATOM      7  C   UNL A   1      30.241  28.615  22.622  1.00  0.00     0.081 A 
ATOM      8  C   UNL A   1      31.492  29.349  24.667  1.00  0.00     0.093 C 
ATOM      9  N   UNL A   1      29.362  29.150  21.716  1.00  0.00    -0.240 NA
ATOM     10  C   UNL A   1      30.537  29.535  23.582  1.00  0.00     0.042 A 
ATOM     11  C   UNL A   1      29.167  30.391  22.115  1.00  0.00     0.197 A 
ATOM     12  N   UNL A   1      29.859  30.670  23.262  1.00  0.00    -0.348 N 
ATOM     13  H   UNL A   1      29.863  31.521  23.758  1.00  0.00     0.167 HD
BRANCH   5  14
ATOM     14  C   UNL A   1      32.938  26.325  22.922  1.00  0.00     0.318 C 
ATOM     15  N   UNL A   1      33.152  25.043  23.309  1.00  0.00    -0.335 N 
ATOM     16  H   UNL A   1      33.676  24.507  22.670  1.00  0.00     0.165 HD
ATOM     17  O   UNL A   1      33.455  26.645  21.847  1.00  0.00    -0.249 OA
BRANCH  15  18
ATOM     18  C   UNL A   1      32.742  24.331  24.493  1.00  0.00     0.083 C 
ATOM     19  C   UNL A   1      33.984  23.725  25.101  1.00  0.00     0.031 C 
BRANCH  18  20
ATOM     20  C   UNL A   1      31.761  23.179  24.266  1.00  0.00     0.053 C 
BRANCH  20  21
ATOM     21  C   UNL A   1      31.701  22.252  25.491  1.00  0.00     0.162 C 
BRANCH  21  22
ATOM     22  O   UNL A   1      31.735  20.876  25.112  1.00  0.00    -0.385 OA
ATOM     23  C   UNL A   1      32.458  20.587  23.922  1.00  0.00     0.194 C 
ENDBRANCH  21  22
ENDBRANCH  20  21
ENDBRANCH  18  20
ENDBRANCH  15  18
ENDBRANCH   5  14
ENDBRANCH   2   4
ENDBRANCH   1   2
BRANCH   1  24
ATOM     24  C   UNL A   1      34.230  29.540  27.376  1.00  0.00     0.274 C 
BRANCH  24  25
ATOM     25  C   UNL A   1      34.513  31.025  27.662  1.00  0.00     0.275 C 
BRANCH  25  26
ATOM     26  O   UNL A   1      35.907  31.410  27.693  1.00  0.00    -0.458 OA
BRANCH  26  27
ATOM     27  C   UNL A   1      36.599  31.286  28.848  1.00  0.00     0.338 C 
ATOM     28  O   UNL A   1      36.259  31.827  29.896  1.00  0.00    -0.246 OA
BRANCH  27  29
ATOM     29  C   UNL A   1      37.764  30.368  28.800  1.00  0.00     0.060 A 
ATOM     30  C   UNL A   1      38.994  30.862  29.256  1.00  0.00     0.016 A 
ATOM     31  C   UNL A   1      37.692  29.071  28.284  1.00  0.00     0.016 A 
ATOM     32  C   UNL A   1      40.150  30.102  29.140  1.00  0.00     0.010 A 
ATOM     33  C   UNL A   1      38.837  28.280  28.229  1.00  0.00     0.010 A 
ATOM     34  C   UNL A   1      40.069  28.790  28.659  1.00  0.00    -0.014 A 
BRANCH  34  35
ATOM     35  C   UNL A   1      41.180  27.878  28.984  1.00  0.00     0.031 A 
ATOM     36  C   UNL A   1      41.539  27.924  30.447  1.00  0.00     0.074 A 
ATOM     37  C   UNL A   1      41.666  26.937  28.145  1.00  0.00     0.049 A 
ATOM     38  N   UNL A   1      42.699  28.106  30.991  1.00  0.00    -0.248 NA
ATOM     39  C   UNL A   1      40.429  27.918  31.425  1.00  0.00     0.031 C 
ATOM     40  C   UNL A   1      41.221  26.646  26.779  1.00  0.00     0.029 A 
ATOM     41  N   UNL A   1      42.589  25.953  28.371  1.00  0.00    -0.354 N 
ATOM     42  C   UNL A   1      42.484  28.091  32.374  1.00  0.00     0.074 A 
ATOM     43  C   UNL A   1      41.066  28.131  32.575  1.00  0.00     0.031 C 
ATOM     44  C   UNL A   1      41.685  25.434  26.398  1.00  0.00     0.029 A 
ATOM     45  C   UNL A   1      42.568  24.924  27.432  1.00  0.00     0.049 A 
ATOM     46  H   UNL A   1      43.214  25.971  29.132  1.00  0.00     0.167 HD
ATOM     47  C   UNL A   1      43.486  27.790  33.244  1.00  0.00     0.037 A 
ATOM     48  C   UNL A   1      43.196  23.723  27.515  1.00  0.00     0.037 A 
ATOM     49  C   UNL A   1      44.769  27.955  32.622  1.00  0.00     0.049 A 
ATOM     50  C   UNL A   1      44.268  23.857  28.522  1.00  0.00     0.074 A 
ATOM     51  C   UNL A   1      45.563  29.013  32.243  1.00  0.00     0.029 A 
ATOM     52  N   UNL A   1      45.215  26.849  31.953  1.00  0.00    -0.354 N 
ATOM     53  N   UNL A   1      45.326  24.598  28.348  1.00  0.00    -0.248 NA
ATOM     54  C   UNL A   1      44.001  23.457  29.896  1.00  0.00     0.031 C 
ATOM     55  C   UNL A   1      46.306  28.552  31.114  1.00  0.00     0.029 A 
ATOM     56  C   UNL A   1      45.976  27.216  30.881  1.00  0.00     0.049 A 
ATOM     57  H   UNL A   1      45.015  25.919  32.209  1.00  0.00     0.167 HD
ATOM     58  C   UNL A   1      45.593  25.110  29.603  1.00  0.00     0.074 A 
ATOM     59  C   UNL A   1      44.868  24.250  30.531  1.00  0.00     0.031 C 
ATOM     60  C   UNL A   1      46.127  26.359  29.730  1.00  0.00     0.037 A 
BRANCH  47  61
ATOM     61  C   UNL A   1      43.309  26.874  34.444  1.00  0.00     0.064 A 
ATOM     62  C   UNL A   1      43.453  27.408  35.743  1.00  0.00     0.173 A 
ATOM     63  C   UNL A   1      43.347  25.464  34.366  1.00  0.00     0.173 A 
ATOM     64  F   UNL A   1      43.454  28.735  35.941  1.00  0.00    -0.203 F 
ATOM     65  C   UNL A   1      43.698  26.595  36.856  1.00  0.00     0.198 A 
ATOM     66  C   UNL A   1      43.544  24.655  35.485  1.00  0.00     0.198 A 
ATOM     67  F   UNL A   1      43.318  24.810  33.201  1.00  0.00    -0.203 F 
ATOM     68  F   UNL A   1      43.954  27.153  38.047  1.00  0.00    -0.200 F 
ATOM     69  C   UNL A   1      43.751  25.220  36.724  1.00  0.00     0.200 A 
ATOM     70  F   UNL A   1      43.619  23.325  35.330  1.00  0.00    -0.200 F 
ATOM     71  F   UNL A   1      44.053  24.442  37.773  1.00  0.00    -0.200 F 
ENDBRANCH  47  61
BRANCH  48  72
ATOM     72  C   UNL A   1      42.796  22.400  26.976  1.00  0.00     0.064 A 
ATOM     73  C   UNL A   1      43.536  21.754  25.969  1.00  0.00     0.173 A 
ATOM     74  C   UNL A   1      41.840  21.616  27.647  1.00  0.00     0.173 A 
ATOM     75  F   UNL A   1      44.501  22.413  25.313  1.00  0.00    -0.203 F 
ATOM     76  C   UNL A   1      43.343  20.398  25.668  1.00  0.00     0.198 A 
ATOM     77  C   UNL A   1      41.649  20.265  27.347  1.00  0.00     0.198 A 
ATOM     78  F   UNL A   1      41.143  22.123  28.673  1.00  0.00    -0.203 F 
ATOM     79  F   UNL A   1      44.106  19.802  24.741  1.00  0.00    -0.200 F 
ATOM     80  C   UNL A   1      42.408  19.653  26.366  1.00  0.00     0.200 A 
ATOM     81  F   UNL A   1      40.770  19.545  28.058  1.00  0.00    -0.200 F 
ATOM     82  F   UNL A   1      42.265  18.342  26.124  1.00  0.00    -0.200 F 
ENDBRANCH  48  72
BRANCH  60  83
ATOM     83  C   UNL A   1      46.761  26.952  28.508  1.00  0.00     0.064 A 
ATOM     84  C   UNL A   1      46.100  27.806  27.610  1.00  0.00     0.173 A 
ATOM     85  C   UNL A   1      48.124  26.717  28.298  1.00  0.00     0.173 A 
ATOM     86  F   UNL A   1      44.818  28.142  27.793  1.00  0.00    -0.203 F 
ATOM     87  C   UNL A   1      46.771  28.367  26.525  1.00  0.00     0.198 A 
ATOM     88  C   UNL A   1      48.799  27.308  27.236  1.00  0.00     0.198 A 
ATOM     89  F   UNL A   1      48.811  25.945  29.152  1.00  0.00    -0.203 F 
ATOM     90  F   UNL A   1      46.115  29.167  25.670  1.00  0.00    -0.200 F 
ATOM     91  C   UNL A   1      48.121  28.124  26.344  1.00  0.00     0.200 A 
ATOM     92  F   UNL A   1      50.116  27.102  27.089  1.00  0.00    -0.200 F 
ATOM     93  F   UNL A   1      48.776  28.692  25.321  1.00  0.00    -0.200 F 
ENDBRANCH  60  83
ENDBRANCH  34  35
ENDBRANCH  27  29
ENDBRANCH  26  27
ENDBRANCH  25  26
ENDBRANCH  24  25
ENDBRANCH   1  24
TORSDOF 16
ENDMDL
MODEL 3
REMARK VINA RESULT:     -11.8      3.575      8.581
REMARK SMILES COCC[C@@H](C)NC(=O)N1Cc2nc[nH]c2C[C@@H]1C(=O)OCCOC(=O)c1ccc(-c2c3nc(c(-c4c(F)c(F)c(F)c(F)c4F)c4ccc([nH]4)c(-c4c(F)c(F)c(F)c(F)c4F)c4nc(c(-c5c(F)c(F)c(F)c(F)c5F)c5ccc2[nH]5)C=C4)C=C3)cc1
REMARK SMILES IDX 21 1 19 2 20 3 18 4 10 5 11 6 12 7 17 8 13 9 16 10 14 11
REMARK SMILES IDX 15 12 8 14 7 15 9 17 5 18 6 19 4 20 3 21 2 22 1 23 22 24
REMARK SMILES IDX 23 25 24 26 25 27 26 28 27 29 28 30 89 31 29 32 88 33 30 34
REMARK SMILES IDX 31 35 32 36 82 37 33 38 87 39 81 40 83 41 34 42 86 43 80 44
REMARK SMILES IDX 79 45 35 47 67 48 47 49 66 50 48 51 51 52 65 53 84 54 49 55
REMARK SMILES IDX 50 56 64 58 85 59 52 60 36 61 37 62 45 63 38 64 39 65 43 66
REMARK SMILES IDX 46 67 40 68 41 69 44 70 42 71 68 72 69 73 77 74 70 75 71 76
REMARK SMILES IDX 75 77 78 78 72 79 73 80 76 81 74 82 53 83 54 84 62 85 55 86
REMARK SMILES IDX 56 87 60 88 63 89 57 90 58 91 61 92 59 93
REMARK H PARENT 15 13 7 16 83 46 51 57
REMARK Flexibility Score: inf
ROOT
ATOM      1  O   UNL A   1      36.892  22.202  26.054  1.00  0.00    -0.461 OA
ENDROOT
BRANCH   1   2
ATOM      2  C   UNL A   1      36.017  22.813  25.219  1.00  0.00     0.329 C 
ATOM      3  O   UNL A   1      36.229  23.966  24.839  1.00  0.00    -0.250 OA
BRANCH   2   4
ATOM      4  C   UNL A   1      34.627  22.091  25.035  1.00  0.00     0.203 C 
ATOM      5  N   UNL A   1      33.273  22.183  25.785  1.00  0.00    -0.305 N 
ATOM      6  C   UNL A   1      32.210  21.208  25.407  1.00  0.00     0.180 C 
ATOM      7  C   UNL A   1      32.759  19.866  25.106  1.00  0.00     0.081 A 
ATOM      8  C   UNL A   1      35.154  20.599  25.010  1.00  0.00     0.093 C 
ATOM      9  N   UNL A   1      32.042  18.702  24.998  1.00  0.00    -0.240 NA
ATOM     10  C   UNL A   1      34.083  19.618  24.901  1.00  0.00     0.042 A 
ATOM     11  C   UNL A   1      32.940  17.764  24.766  1.00  0.00     0.197 A 
ATOM     12  N   UNL A   1      34.205  18.280  24.687  1.00  0.00    -0.348 N 
ATOM     13  H   UNL A   1      35.036  17.783  24.510  1.00  0.00     0.167 HD
BRANCH   5  14
ATOM     14  C   UNL A   1      32.834  22.983  26.804  1.00  0.00     0.318 C 
ATOM     15  N   UNL A   1      32.395  24.245  26.573  1.00  0.00    -0.335 N 
ATOM     16  H   UNL A   1      31.875  24.637  27.312  1.00  0.00     0.165 HD
ATOM     17  O   UNL A   1      32.549  22.519  27.912  1.00  0.00    -0.249 OA
BRANCH  15  18
ATOM     18  C   UNL A   1      32.559  25.110  25.431  1.00  0.00     0.083 C 
ATOM     19  C   UNL A   1      33.540  26.187  25.826  1.00  0.00     0.031 C 
BRANCH  18  20
ATOM     20  C   UNL A   1      31.292  25.825  24.958  1.00  0.00     0.053 C 
BRANCH  20  21
ATOM     21  C   UNL A   1      31.420  27.349  25.126  1.00  0.00     0.162 C 
BRANCH  21  22
ATOM     22  O   UNL A   1      31.430  28.020  23.866  1.00  0.00    -0.385 OA
ATOM     23  C   UNL A   1      30.620  29.186  23.789  1.00  0.00     0.194 C 
ENDBRANCH  21  22
ENDBRANCH  20  21
ENDBRANCH  18  20
ENDBRANCH  15  18
ENDBRANCH   5  14
ENDBRANCH   2   4
ENDBRANCH   1   2
BRANCH   1  24
ATOM     24  C   UNL A   1      38.265  22.673  25.976  1.00  0.00     0.274 C 
BRANCH  24  25
ATOM     25  C   UNL A   1      39.293  21.529  25.913  1.00  0.00     0.275 C 
BRANCH  25  26
ATOM     26  O   UNL A   1      40.467  21.685  26.743  1.00  0.00    -0.458 OA
BRANCH  26  27
ATOM     27  C   UNL A   1      41.521  22.384  26.266  1.00  0.00     0.338 C 
ATOM     28  O   UNL A   1      42.214  21.999  25.329  1.00  0.00    -0.246 OA
BRANCH  27  29
ATOM     29  C   UNL A   1      41.745  23.711  26.892  1.00  0.00     0.060 A 
ATOM     30  C   UNL A   1      41.020  24.795  26.383  1.00  0.00     0.016 A 
ATOM     31  C   UNL A   1      42.670  23.923  27.919  1.00  0.00     0.016 A 
ATOM     32  C   UNL A   1      41.255  26.085  26.840  1.00  0.00     0.010 A 
ATOM     33  C   UNL A   1      42.860  25.205  28.429  1.00  0.00     0.010 A 
ATOM     34  C   UNL A   1      42.153  26.290  27.895  1.00  0.00    -0.014 A 
BRANCH  34  35
ATOM     35  C   UNL A   1      42.032  27.547  28.654  1.00  0.00     0.031 A 
ATOM     36  C   UNL A   1      43.159  28.501  28.354  1.00  0.00     0.074 A 
ATOM     37  C   UNL A   1      40.933  27.915  29.348  1.00  0.00     0.049 A 
ATOM     38  N   UNL A   1      43.945  29.112  29.180  1.00  0.00    -0.248 NA
ATOM     39  C   UNL A   1      43.553  28.670  26.938  1.00  0.00     0.031 C 
ATOM     40  C   UNL A   1      39.683  27.164  29.504  1.00  0.00     0.029 A 
ATOM     41  N   UNL A   1      40.646  29.098  29.974  1.00  0.00    -0.354 N 
ATOM     42  C   UNL A   1      44.833  29.853  28.393  1.00  0.00     0.074 A 
ATOM     43  C   UNL A   1      44.648  29.422  27.039  1.00  0.00     0.031 C 
ATOM     44  C   UNL A   1      38.710  27.989  29.953  1.00  0.00     0.029 A 
ATOM     45  C   UNL A   1      39.292  29.286  30.247  1.00  0.00     0.049 A 
ATOM     46  H   UNL A   1      41.337  29.759  30.210  1.00  0.00     0.167 HD
ATOM     47  C   UNL A   1      45.475  30.947  28.886  1.00  0.00     0.037 A 
ATOM     48  C   UNL A   1      38.687  30.434  30.646  1.00  0.00     0.037 A 
ATOM     49  C   UNL A   1      45.477  30.933  30.321  1.00  0.00     0.049 A 
ATOM     50  C   UNL A   1      39.737  31.319  31.190  1.00  0.00     0.074 A 
ATOM     51  C   UNL A   1      46.134  30.237  31.310  1.00  0.00     0.029 A 
ATOM     52  N   UNL A   1      44.373  31.506  30.889  1.00  0.00    -0.354 N 
ATOM     53  N   UNL A   1      40.384  31.068  32.292  1.00  0.00    -0.248 NA
ATOM     54  C   UNL A   1      40.345  32.313  30.318  1.00  0.00     0.031 C 
ATOM     55  C   UNL A   1      45.226  30.183  32.410  1.00  0.00     0.029 A 
ATOM     56  C   UNL A   1      44.074  30.892  32.071  1.00  0.00     0.049 A 
ATOM     57  H   UNL A   1      43.866  32.255  30.500  1.00  0.00     0.167 HD
ATOM     58  C   UNL A   1      41.664  31.529  32.049  1.00  0.00     0.074 A 
ATOM     59  C   UNL A   1      41.536  32.429  30.909  1.00  0.00     0.031 C 
ATOM     60  C   UNL A   1      42.734  30.895  32.608  1.00  0.00     0.037 A 
BRANCH  47  61
ATOM     61  C   UNL A   1      45.634  32.246  28.114  1.00  0.00     0.064 A 
ATOM     62  C   UNL A   1      44.479  32.934  27.682  1.00  0.00     0.173 A 
ATOM     63  C   UNL A   1      46.840  32.650  27.499  1.00  0.00     0.173 A 
ATOM     64  F   UNL A   1      43.272  32.624  28.180  1.00  0.00    -0.203 F 
ATOM     65  C   UNL A   1      44.524  33.888  26.659  1.00  0.00     0.198 A 
ATOM     66  C   UNL A   1      46.886  33.634  26.512  1.00  0.00     0.198 A 
ATOM     67  F   UNL A   1      48.004  32.035  27.730  1.00  0.00    -0.203 F 
ATOM     68  F   UNL A   1      43.386  34.423  26.194  1.00  0.00    -0.200 F 
ATOM     69  C   UNL A   1      45.726  34.231  26.069  1.00  0.00     0.200 A 
ATOM     70  F   UNL A   1      48.060  33.932  25.936  1.00  0.00    -0.200 F 
ATOM     71  F   UNL A   1      45.765  35.092  25.043  1.00  0.00    -0.200 F 
ENDBRANCH  47  61
BRANCH  48  72
ATOM     72  C   UNL A   1      37.315  30.929  30.376  1.00  0.00     0.064 A 
ATOM     73  C   UNL A   1      36.450  31.323  31.413  1.00  0.00     0.173 A 
ATOM     74  C   UNL A   1      36.933  31.299  29.073  1.00  0.00     0.173 A 
ATOM     75  F   UNL A   1      36.761  31.056  32.689  1.00  0.00    -0.203 F 
ATOM     76  C   UNL A   1      35.284  32.060  31.161  1.00  0.00     0.198 A 
ATOM     77  C   UNL A   1      35.772  32.033  28.822  1.00  0.00     0.198 A 
ATOM     78  F   UNL A   1      37.733  31.037  28.030  1.00  0.00    -0.203 F 
ATOM     79  F   UNL A   1      34.513  32.465  32.180  1.00  0.00    -0.200 F 
ATOM     80  C   UNL A   1      34.953  32.423  29.866  1.00  0.00     0.200 A 
ATOM     81  F   UNL A   1      35.485  32.415  27.569  1.00  0.00    -0.200 F 
ATOM     82  F   UNL A   1      33.873  33.181  29.628  1.00  0.00    -0.200 F 
ENDBRANCH  48  72
BRANCH  60  83
ATOM     83  C   UNL A   1      42.454  29.984  33.765  1.00  0.00     0.064 A 
ATOM     84  C   UNL A   1      42.149  28.618  33.639  1.00  0.00     0.173 A 
ATOM     85  C   UNL A   1      42.596  30.501  35.056  1.00  0.00     0.173 A 
ATOM     86  F   UNL A   1      42.078  28.034  32.437  1.00  0.00    -0.203 F 
ATOM     87  C   UNL A   1      41.957  27.817  34.764  1.00  0.00     0.198 A 
ATOM     88  C   UNL A   1      42.440  29.692  36.176  1.00  0.00     0.198 A 
ATOM     89  F   UNL A   1      42.930  31.789  35.230  1.00  0.00    -0.203 F 
ATOM     90  F   UNL A   1      41.650  26.519  34.620  1.00  0.00    -0.200 F 
ATOM     91  C   UNL A   1      42.110  28.354  36.030  1.00  0.00     0.200 A 
ATOM     92  F   UNL A   1      42.631  30.206  37.399  1.00  0.00    -0.200 F 
ATOM     93  F   UNL A   1      41.961  27.577  37.113  1.00  0.00    -0.200 F 
ENDBRANCH  60  83
ENDBRANCH  34  35
ENDBRANCH  27  29
ENDBRANCH  26  27
ENDBRANCH  25  26
ENDBRANCH  24  25
ENDBRANCH   1  24
TORSDOF 16
ENDMDL
