MODEL 1
REMARK VINA RESULT:     -11.8      0.000      0.000
REMARK SMILES O=C(OCCOC(=O)[C@H](C[NH+]1CCCC1)c1ccc(Br)cc1)c1ccc(-c2c3nc(c(-c4c(F)c(F)c(F)c(F)c4F)c4ccc([nH]4)c(-c4c(F)c(F)c(F)c(F)c4F)c4nc(c(-c5c(F)c(F)c(F)c(F)c5F)c5ccc2[nH]5)C=C4)C=C3)cc1
REMARK SMILES IDX 4 1 3 2 2 3 1 4 23 5 24 6 85 7 25 8 84 9 26 10 27 11 28 12
REMARK SMILES IDX 78 13 29 14 83 15 77 16 79 17 30 18 82 19 76 20 75 21 31 23
REMARK SMILES IDX 63 24 43 25 62 26 44 27 47 28 61 29 80 30 45 31 46 32 60 34
REMARK SMILES IDX 81 35 48 36 32 37 33 38 41 39 34 40 35 41 39 42 42 43 36 44
REMARK SMILES IDX 37 45 40 46 38 47 64 48 65 49 73 50 66 51 67 52 71 53 74 54
REMARK SMILES IDX 68 55 69 56 72 57 70 58 49 59 50 60 58 61 51 62 52 63 56 64
REMARK SMILES IDX 59 65 53 66 54 67 57 68 55 69 5 70 6 71 7 72 8 73 9 74 16 75
REMARK SMILES IDX 17 76 22 77 18 78 21 79 19 80 20 81 10 82 11 83 12 84 15 85
REMARK SMILES IDX 13 87 14 88
REMARK H PARENT 79 22 47 33 11 86
REMARK Flexibility Score: inf
ROOT
ATOM      1  C   UNL A   1      31.882  32.591  26.865  1.00  0.00     0.275 C 
ENDROOT
BRANCH   1   2
ATOM      2  O   UNL A   1      32.586  33.361  27.848  1.00  0.00    -0.458 OA
BRANCH   2   3
ATOM      3  C   UNL A   1      33.885  33.723  27.876  1.00  0.00     0.338 C 
ATOM      4  O   UNL A   1      34.229  34.730  27.257  1.00  0.00    -0.246 OA
BRANCH   3   5
ATOM      5  C   UNL A   1      34.964  32.892  28.500  1.00  0.00     0.060 A 
ATOM      6  C   UNL A   1      34.847  31.659  29.143  1.00  0.00     0.016 A 
ATOM      7  C   UNL A   1      36.244  33.440  28.401  1.00  0.00     0.016 A 
ATOM      8  C   UNL A   1      35.984  30.972  29.605  1.00  0.00     0.010 A 
ATOM      9  C   UNL A   1      37.385  32.727  28.773  1.00  0.00     0.010 A 
ATOM     10  C   UNL A   1      37.264  31.502  29.425  1.00  0.00    -0.014 A 
BRANCH  10  11
ATOM     11  C   UNL A   1      38.456  30.894  30.068  1.00  0.00     0.031 A 
ATOM     12  C   UNL A   1      38.798  31.306  31.479  1.00  0.00     0.074 A 
ATOM     13  C   UNL A   1      39.229  30.005  29.414  1.00  0.00     0.049 A 
ATOM     14  N   UNL A   1      39.712  30.829  32.285  1.00  0.00    -0.248 NA
ATOM     15  C   UNL A   1      38.017  32.413  32.062  1.00  0.00     0.031 C 
ATOM     16  C   UNL A   1      39.033  29.562  28.034  1.00  0.00     0.029 A 
ATOM     17  N   UNL A   1      40.346  29.319  29.822  1.00  0.00    -0.354 N 
ATOM     18  C   UNL A   1      39.582  31.553  33.463  1.00  0.00     0.074 A 
ATOM     19  C   UNL A   1      38.610  32.590  33.228  1.00  0.00     0.031 C 
ATOM     20  C   UNL A   1      40.005  28.695  27.703  1.00  0.00     0.029 A 
ATOM     21  C   UNL A   1      40.874  28.494  28.858  1.00  0.00     0.049 A 
ATOM     22  H   UNL A   1      40.734  29.410  30.723  1.00  0.00     0.167 HD
ATOM     23  C   UNL A   1      40.159  31.327  34.665  1.00  0.00     0.037 A 
ATOM     24  C   UNL A   1      41.920  27.645  28.922  1.00  0.00     0.037 A 
ATOM     25  C   UNL A   1      41.125  30.293  34.891  1.00  0.00     0.049 A 
ATOM     26  C   UNL A   1      42.600  27.445  30.253  1.00  0.00     0.074 A 
ATOM     27  C   UNL A   1      41.742  29.922  36.070  1.00  0.00     0.029 A 
ATOM     28  N   UNL A   1      41.626  29.471  33.892  1.00  0.00    -0.354 N 
ATOM     29  N   UNL A   1      42.354  28.021  31.406  1.00  0.00    -0.248 NA
ATOM     30  C   UNL A   1      43.666  26.435  30.305  1.00  0.00     0.031 C 
ATOM     31  C   UNL A   1      42.661  28.909  35.770  1.00  0.00     0.029 A 
ATOM     32  C   UNL A   1      42.572  28.612  34.418  1.00  0.00     0.049 A 
ATOM     33  H   UNL A   1      41.350  29.496  32.947  1.00  0.00     0.167 HD
ATOM     34  C   UNL A   1      43.182  27.400  32.331  1.00  0.00     0.074 A 
ATOM     35  C   UNL A   1      43.943  26.406  31.602  1.00  0.00     0.031 C 
ATOM     36  C   UNL A   1      43.294  27.617  33.666  1.00  0.00     0.037 A 
BRANCH  23  37
ATOM     37  C   UNL A   1      39.725  32.207  35.803  1.00  0.00     0.064 A 
ATOM     38  C   UNL A   1      38.602  31.889  36.587  1.00  0.00     0.173 A 
ATOM     39  C   UNL A   1      40.402  33.401  36.087  1.00  0.00     0.173 A 
ATOM     40  F   UNL A   1      37.904  30.768  36.343  1.00  0.00    -0.203 F 
ATOM     41  C   UNL A   1      38.142  32.757  37.573  1.00  0.00     0.198 A 
ATOM     42  C   UNL A   1      39.960  34.250  37.099  1.00  0.00     0.198 A 
ATOM     43  F   UNL A   1      41.480  33.754  35.372  1.00  0.00    -0.203 F 
ATOM     44  F   UNL A   1      37.020  32.469  38.248  1.00  0.00    -0.200 F 
ATOM     45  C   UNL A   1      38.824  33.936  37.830  1.00  0.00     0.200 A 
ATOM     46  F   UNL A   1      40.622  35.388  37.352  1.00  0.00    -0.200 F 
ATOM     47  F   UNL A   1      38.374  34.778  38.770  1.00  0.00    -0.200 F 
ENDBRANCH  23  37
BRANCH  24  48
ATOM     48  C   UNL A   1      42.317  26.845  27.731  1.00  0.00     0.064 A 
ATOM     49  C   UNL A   1      41.716  25.607  27.459  1.00  0.00     0.173 A 
ATOM     50  C   UNL A   1      43.315  27.287  26.850  1.00  0.00     0.173 A 
ATOM     51  F   UNL A   1      40.765  25.132  28.278  1.00  0.00    -0.203 F 
ATOM     52  C   UNL A   1      42.118  24.828  26.375  1.00  0.00     0.198 A 
ATOM     53  C   UNL A   1      43.703  26.516  25.753  1.00  0.00     0.198 A 
ATOM     54  F   UNL A   1      43.918  28.467  27.056  1.00  0.00    -0.203 F 
ATOM     55  F   UNL A   1      41.559  23.627  26.171  1.00  0.00    -0.200 F 
ATOM     56  C   UNL A   1      43.110  25.284  25.521  1.00  0.00     0.200 A 
ATOM     57  F   UNL A   1      44.656  26.965  24.924  1.00  0.00    -0.200 F 
ATOM     58  F   UNL A   1      43.501  24.532  24.483  1.00  0.00    -0.200 F 
ENDBRANCH  24  48
BRANCH  36  59
ATOM     59  C   UNL A   1      44.225  26.725  34.433  1.00  0.00     0.064 A 
ATOM     60  C   UNL A   1      43.803  25.503  34.972  1.00  0.00     0.173 A 
ATOM     61  C   UNL A   1      45.575  27.083  34.579  1.00  0.00     0.173 A 
ATOM     62  F   UNL A   1      42.520  25.124  34.868  1.00  0.00    -0.203 F 
ATOM     63  C   UNL A   1      44.695  24.681  35.656  1.00  0.00     0.198 A 
ATOM     64  C   UNL A   1      46.470  26.241  35.231  1.00  0.00     0.198 A 
ATOM     65  F   UNL A   1      46.029  28.238  34.071  1.00  0.00    -0.203 F 
ATOM     66  F   UNL A   1      44.260  23.541  36.209  1.00  0.00    -0.200 F 
ATOM     67  C   UNL A   1      46.028  25.046  35.776  1.00  0.00     0.200 A 
ATOM     68  F   UNL A   1      47.761  26.587  35.328  1.00  0.00    -0.200 F 
ATOM     69  F   UNL A   1      46.886  24.247  36.424  1.00  0.00    -0.200 F 
ENDBRANCH  36  59
ENDBRANCH  10  11
ENDBRANCH   3   5
ENDBRANCH   2   3
ENDBRANCH   1   2
BRANCH   1  70
ATOM     70  C   UNL A   1      32.147  31.084  26.919  1.00  0.00     0.274 C 
BRANCH  70  71
ATOM     71  O   UNL A   1      31.609  30.350  25.805  1.00  0.00    -0.461 OA
BRANCH  71  72
ATOM     72  C   UNL A   1      32.484  29.534  25.138  1.00  0.00     0.319 C 
ATOM     73  O   UNL A   1      33.637  29.318  25.501  1.00  0.00    -0.251 OA
BRANCH  72  74
ATOM     74  C   UNL A   1      31.865  28.980  23.848  1.00  0.00     0.184 C 
BRANCH  74  75
ATOM     75  C   UNL A   1      32.187  27.495  23.712  1.00  0.00    -0.028 A 
ATOM     76  C   UNL A   1      31.206  26.535  24.001  1.00  0.00     0.006 A 
ATOM     77  C   UNL A   1      33.427  27.057  23.221  1.00  0.00     0.006 A 
ATOM     78  C   UNL A   1      31.425  25.182  23.727  1.00  0.00     0.016 A 
ATOM     79  C   UNL A   1      33.652  25.703  22.953  1.00  0.00     0.016 A 
ATOM     80  C   UNL A   1      32.642  24.775  23.189  1.00  0.00     0.017 A 
ATOM     81  Br  UNL A   1      32.921  22.954  22.763  1.00  0.00    -0.051 Br
ENDBRANCH  74  75
BRANCH  74  82
ATOM     82  C   UNL A   1      30.350  29.338  23.818  1.00  0.00     0.282 C 
BRANCH  82  83
ATOM     83  N   UNL A   1      30.043  30.574  23.040  1.00  0.00    -0.334 N 
ATOM     84  C   UNL A   1      29.012  31.405  23.690  1.00  0.00     0.262 C 
ATOM     85  C   UNL A   1      29.413  30.272  21.737  1.00  0.00     0.262 C 
ATOM     86  H   UNL A   1      30.949  31.036  22.961  1.00  0.00     0.348 HD
ATOM     87  C   UNL A   1      27.685  30.767  23.355  1.00  0.00     0.067 C 
ATOM     88  C   UNL A   1      27.893  30.321  21.926  1.00  0.00     0.067 C 
ENDBRANCH  82  83
ENDBRANCH  74  82
ENDBRANCH  72  74
ENDBRANCH  71  72
ENDBRANCH  70  71
ENDBRANCH   1  70
TORSDOF 14
ENDMDL
MODEL 2
REMARK VINA RESULT:     -11.8      0.274      1.651
REMARK SMILES O=C(OCCOC(=O)[C@H](C[NH+]1CCCC1)c1ccc(Br)cc1)c1ccc(-c2c3nc(c(-c4c(F)c(F)c(F)c(F)c4F)c4ccc([nH]4)c(-c4c(F)c(F)c(F)c(F)c4F)c4nc(c(-c5c(F)c(F)c(F)c(F)c5F)c5ccc2[nH]5)C=C4)C=C3)cc1
REMARK SMILES IDX 4 1 3 2 2 3 1 4 23 5 24 6 85 7 25 8 84 9 26 10 27 11 28 12
REMARK SMILES IDX 78 13 29 14 83 15 77 16 79 17 30 18 82 19 76 20 75 21 31 23
REMARK SMILES IDX 63 24 43 25 62 26 44 27 47 28 61 29 80 30 45 31 46 32 60 34
REMARK SMILES IDX 81 35 48 36 32 37 33 38 41 39 34 40 35 41 39 42 42 43 36 44
REMARK SMILES IDX 37 45 40 46 38 47 64 48 65 49 73 50 66 51 67 52 71 53 74 54
REMARK SMILES IDX 68 55 69 56 72 57 70 58 49 59 50 60 58 61 51 62 52 63 56 64
REMARK SMILES IDX 59 65 53 66 54 67 57 68 55 69 5 70 6 71 7 72 8 73 9 74 16 75
REMARK SMILES IDX 17 76 22 77 18 78 21 79 19 80 20 81 10 82 11 83 12 84 15 85
REMARK SMILES IDX 13 87 14 88
REMARK H PARENT 79 22 47 33 11 86
REMARK Flexibility Score: inf
ROOT
ATOM      1  C   UNL A   1      31.911  32.703  26.856  1.00  0.00     0.275 C 
ENDROOT
BRANCH   1   2
ATOM      2  O   UNL A   1      32.567  33.458  27.883  1.00  0.00    -0.458 OA
BRANCH   2   3
ATOM      3  C   UNL A   1      33.860  33.835  27.968  1.00  0.00     0.338 C 
ATOM      4  O   UNL A   1      34.211  34.865  27.393  1.00  0.00    -0.246 OA
BRANCH   3   5
ATOM      5  C   UNL A   1      34.928  32.998  28.603  1.00  0.00     0.060 A 
ATOM      6  C   UNL A   1      34.793  31.780  29.271  1.00  0.00     0.016 A 
ATOM      7  C   UNL A   1      36.217  33.522  28.485  1.00  0.00     0.016 A 
ATOM      8  C   UNL A   1      35.921  31.083  29.741  1.00  0.00     0.010 A 
ATOM      9  C   UNL A   1      37.347  32.797  28.865  1.00  0.00     0.010 A 
ATOM     10  C   UNL A   1      37.209  31.587  29.543  1.00  0.00    -0.014 A 
BRANCH  10  11
ATOM     11  C   UNL A   1      38.394  30.972  30.192  1.00  0.00     0.031 A 
ATOM     12  C   UNL A   1      38.716  31.361  31.614  1.00  0.00     0.074 A 
ATOM     13  C   UNL A   1      39.178  30.095  29.534  1.00  0.00     0.049 A 
ATOM     14  N   UNL A   1      39.621  30.874  32.425  1.00  0.00    -0.248 NA
ATOM     15  C   UNL A   1      37.925  32.457  32.205  1.00  0.00     0.031 C 
ATOM     16  C   UNL A   1      39.002  29.674  28.145  1.00  0.00     0.029 A 
ATOM     17  N   UNL A   1      40.292  29.406  29.946  1.00  0.00    -0.354 N 
ATOM     18  C   UNL A   1      39.473  31.579  33.612  1.00  0.00     0.074 A 
ATOM     19  C   UNL A   1      38.502  32.617  33.381  1.00  0.00     0.031 C 
ATOM     20  C   UNL A   1      39.981  28.815  27.813  1.00  0.00     0.029 A 
ATOM     21  C   UNL A   1      40.835  28.598  28.976  1.00  0.00     0.049 A 
ATOM     22  H   UNL A   1      40.667  29.483  30.853  1.00  0.00     0.167 HD
ATOM     23  C   UNL A   1      40.035  31.335  34.818  1.00  0.00     0.037 A 
ATOM     24  C   UNL A   1      41.882  27.751  29.039  1.00  0.00     0.037 A 
ATOM     25  C   UNL A   1      41.001  30.299  35.039  1.00  0.00     0.049 A 
ATOM     26  C   UNL A   1      42.545  27.531  30.376  1.00  0.00     0.074 A 
ATOM     27  C   UNL A   1      41.604  29.910  36.220  1.00  0.00     0.029 A 
ATOM     28  N   UNL A   1      41.517  29.494  34.034  1.00  0.00    -0.354 N 
ATOM     29  N   UNL A   1      42.281  28.087  31.535  1.00  0.00    -0.248 NA
ATOM     30  C   UNL A   1      43.612  26.522  30.426  1.00  0.00     0.031 C 
ATOM     31  C   UNL A   1      42.529  28.905  35.917  1.00  0.00     0.029 A 
ATOM     32  C   UNL A   1      42.458  28.629  34.559  1.00  0.00     0.049 A 
ATOM     33  H   UNL A   1      41.253  29.534  33.086  1.00  0.00     0.167 HD
ATOM     34  C   UNL A   1      43.099  27.454  32.461  1.00  0.00     0.074 A 
ATOM     35  C   UNL A   1      43.873  26.473  31.725  1.00  0.00     0.031 C 
ATOM     36  C   UNL A   1      43.193  27.648  33.800  1.00  0.00     0.037 A 
BRANCH  23  37
ATOM     37  C   UNL A   1      39.584  32.195  35.964  1.00  0.00     0.064 A 
ATOM     38  C   UNL A   1      40.281  33.363  36.321  1.00  0.00     0.173 A 
ATOM     39  C   UNL A   1      38.479  31.829  36.745  1.00  0.00     0.173 A 
ATOM     40  F   UNL A   1      41.360  33.746  35.621  1.00  0.00    -0.203 F 
ATOM     41  C   UNL A   1      39.920  34.100  37.445  1.00  0.00     0.198 A 
ATOM     42  C   UNL A   1      38.100  32.590  37.849  1.00  0.00     0.198 A 
ATOM     43  F   UNL A   1      37.778  30.725  36.450  1.00  0.00    -0.203 F 
ATOM     44  F   UNL A   1      40.653  35.162  37.812  1.00  0.00    -0.200 F 
ATOM     45  C   UNL A   1      38.829  33.714  38.207  1.00  0.00     0.200 A 
ATOM     46  F   UNL A   1      37.040  32.221  38.581  1.00  0.00    -0.200 F 
ATOM     47  F   UNL A   1      38.489  34.417  39.296  1.00  0.00    -0.200 F 
ENDBRANCH  23  37
BRANCH  24  48
ATOM     48  C   UNL A   1      42.296  26.971  27.841  1.00  0.00     0.064 A 
ATOM     49  C   UNL A   1      41.748  25.707  27.576  1.00  0.00     0.173 A 
ATOM     50  C   UNL A   1      43.260  27.459  26.946  1.00  0.00     0.173 A 
ATOM     51  F   UNL A   1      40.832  25.189  28.408  1.00  0.00    -0.203 F 
ATOM     52  C   UNL A   1      42.169  24.949  26.484  1.00  0.00     0.198 A 
ATOM     53  C   UNL A   1      43.666  26.708  25.842  1.00  0.00     0.198 A 
ATOM     54  F   UNL A   1      43.812  28.664  27.145  1.00  0.00    -0.203 F 
ATOM     55  F   UNL A   1      41.662  23.725  26.286  1.00  0.00    -0.200 F 
ATOM     56  C   UNL A   1      43.126  25.451  25.616  1.00  0.00     0.200 A 
ATOM     57  F   UNL A   1      44.585  27.201  25.000  1.00  0.00    -0.200 F 
ATOM     58  F   UNL A   1      43.536  24.719  24.571  1.00  0.00    -0.200 F 
ENDBRANCH  24  48
BRANCH  36  59
ATOM     59  C   UNL A   1      44.116  26.747  34.565  1.00  0.00     0.064 A 
ATOM     60  C   UNL A   1      45.432  27.120  34.867  1.00  0.00     0.173 A 
ATOM     61  C   UNL A   1      43.651  25.514  35.047  1.00  0.00     0.173 A 
ATOM     62  F   UNL A   1      45.925  28.285  34.418  1.00  0.00    -0.203 F 
ATOM     63  C   UNL A   1      46.260  26.276  35.602  1.00  0.00     0.198 A 
ATOM     64  C   UNL A   1      44.470  24.690  35.813  1.00  0.00     0.198 A 
ATOM     65  F   UNL A   1      42.395  25.117  34.793  1.00  0.00    -0.203 F 
ATOM     66  F   UNL A   1      47.532  26.629  35.836  1.00  0.00    -0.200 F 
ATOM     67  C   UNL A   1      45.776  25.068  36.082  1.00  0.00     0.200 A 
ATOM     68  F   UNL A   1      43.993  23.533  36.292  1.00  0.00    -0.200 F 
ATOM     69  F   UNL A   1      46.572  24.265  36.800  1.00  0.00    -0.200 F 
ENDBRANCH  36  59
ENDBRANCH  10  11
ENDBRANCH   3   5
ENDBRANCH   2   3
ENDBRANCH   1   2
BRANCH   1  70
ATOM     70  C   UNL A   1      32.203  31.201  26.876  1.00  0.00     0.274 C 
BRANCH  70  71
ATOM     71  O   UNL A   1      31.638  30.475  25.770  1.00  0.00    -0.461 OA
BRANCH  71  72
ATOM     72  C   UNL A   1      32.374  29.421  25.298  1.00  0.00     0.319 C 
ATOM     73  O   UNL A   1      33.344  28.942  25.879  1.00  0.00    -0.251 OA
BRANCH  72  74
ATOM     74  C   UNL A   1      31.878  28.959  23.921  1.00  0.00     0.184 C 
BRANCH  74  75
ATOM     75  C   UNL A   1      32.289  27.510  23.678  1.00  0.00    -0.028 A 
ATOM     76  C   UNL A   1      31.592  26.468  24.305  1.00  0.00     0.006 A 
ATOM     77  C   UNL A   1      33.307  27.181  22.769  1.00  0.00     0.006 A 
ATOM     78  C   UNL A   1      31.843  25.134  23.971  1.00  0.00     0.016 A 
ATOM     79  C   UNL A   1      33.568  25.848  22.438  1.00  0.00     0.016 A 
ATOM     80  C   UNL A   1      32.819  24.831  23.026  1.00  0.00     0.017 A 
ATOM     81  Br  UNL A   1      33.123  23.033  22.529  1.00  0.00    -0.051 Br
ENDBRANCH  74  75
BRANCH  74  82
ATOM     82  C   UNL A   1      30.351  29.244  23.811  1.00  0.00     0.282 C 
BRANCH  82  83
ATOM     83  N   UNL A   1      30.027  30.470  23.024  1.00  0.00    -0.334 N 
ATOM     84  C   UNL A   1      28.873  31.204  23.578  1.00  0.00     0.262 C 
ATOM     85  C   UNL A   1      29.557  30.151  21.659  1.00  0.00     0.262 C 
ATOM     86  H   UNL A   1      30.896  31.003  23.045  1.00  0.00     0.348 HD
ATOM     87  C   UNL A   1      27.641  30.473  23.100  1.00  0.00     0.067 C 
ATOM     88  C   UNL A   1      28.027  30.078  21.693  1.00  0.00     0.067 C 
ENDBRANCH  82  83
ENDBRANCH  74  82
ENDBRANCH  72  74
ENDBRANCH  71  72
ENDBRANCH  70  71
ENDBRANCH   1  70
TORSDOF 14
ENDMDL
MODEL 3
REMARK VINA RESULT:     -11.7      5.156     10.603
REMARK SMILES O=C(OCCOC(=O)[C@H](C[NH+]1CCCC1)c1ccc(Br)cc1)c1ccc(-c2c3nc(c(-c4c(F)c(F)c(F)c(F)c4F)c4ccc([nH]4)c(-c4c(F)c(F)c(F)c(F)c4F)c4nc(c(-c5c(F)c(F)c(F)c(F)c5F)c5ccc2[nH]5)C=C4)C=C3)cc1
REMARK SMILES IDX 4 1 3 2 2 3 1 4 23 5 24 6 85 7 25 8 84 9 26 10 27 11 28 12
REMARK SMILES IDX 78 13 29 14 83 15 77 16 79 17 30 18 82 19 76 20 75 21 31 23
REMARK SMILES IDX 63 24 43 25 62 26 44 27 47 28 61 29 80 30 45 31 46 32 60 34
REMARK SMILES IDX 81 35 48 36 32 37 33 38 41 39 34 40 35 41 39 42 42 43 36 44
REMARK SMILES IDX 37 45 40 46 38 47 64 48 65 49 73 50 66 51 67 52 71 53 74 54
REMARK SMILES IDX 68 55 69 56 72 57 70 58 49 59 50 60 58 61 51 62 52 63 56 64
REMARK SMILES IDX 59 65 53 66 54 67 57 68 55 69 5 70 6 71 7 72 8 73 9 74 16 75
REMARK SMILES IDX 17 76 22 77 18 78 21 79 19 80 20 81 10 82 11 83 12 84 15 85
REMARK SMILES IDX 13 87 14 88
REMARK H PARENT 79 22 47 33 11 86
REMARK Flexibility Score: inf
ROOT
ATOM      1  C   UNL A   1      37.811  20.691  25.572  1.00  0.00     0.275 C 
ENDROOT
BRANCH   1   2
ATOM      2  O   UNL A   1      39.233  20.867  25.620  1.00  0.00    -0.458 OA
BRANCH   2   3
ATOM      3  C   UNL A   1      40.006  21.272  26.648  1.00  0.00     0.338 C 
ATOM      4  O   UNL A   1      40.408  20.429  27.451  1.00  0.00    -0.246 OA
BRANCH   3   5
ATOM      5  C   UNL A   1      40.289  22.711  26.956  1.00  0.00     0.060 A 
ATOM      6  C   UNL A   1      39.634  23.846  26.476  1.00  0.00     0.016 A 
ATOM      7  C   UNL A   1      41.342  22.913  27.851  1.00  0.00     0.016 A 
ATOM      8  C   UNL A   1      39.981  25.130  26.933  1.00  0.00     0.010 A 
ATOM      9  C   UNL A   1      41.632  24.172  28.379  1.00  0.00     0.010 A 
ATOM     10  C   UNL A   1      40.985  25.304  27.889  1.00  0.00    -0.014 A 
BRANCH  10  11
ATOM     11  C   UNL A   1      41.497  26.652  28.243  1.00  0.00     0.031 A 
ATOM     12  C   UNL A   1      42.900  27.019  27.824  1.00  0.00     0.074 A 
ATOM     13  C   UNL A   1      40.743  27.529  28.935  1.00  0.00     0.049 A 
ATOM     14  N   UNL A   1      43.520  28.168  27.914  1.00  0.00    -0.248 NA
ATOM     15  C   UNL A   1      43.725  25.949  27.234  1.00  0.00     0.031 C 
ATOM     16  C   UNL A   1      39.394  27.277  29.438  1.00  0.00     0.029 A 
ATOM     17  N   UNL A   1      41.011  28.812  29.343  1.00  0.00    -0.354 N 
ATOM     18  C   UNL A   1      44.777  27.956  27.363  1.00  0.00     0.074 A 
ATOM     19  C   UNL A   1      44.890  26.549  27.074  1.00  0.00     0.031 C 
ATOM     20  C   UNL A   1      38.958  28.361  30.103  1.00  0.00     0.029 A 
ATOM     21  C   UNL A   1      39.984  29.397  30.044  1.00  0.00     0.049 A 
ATOM     22  H   UNL A   1      41.861  29.272  29.151  1.00  0.00     0.167 HD
ATOM     23  C   UNL A   1      45.728  28.864  27.048  1.00  0.00     0.037 A 
ATOM     24  C   UNL A   1      39.876  30.645  30.545  1.00  0.00     0.037 A 
ATOM     25  C   UNL A   1      45.607  30.262  27.339  1.00  0.00     0.049 A 
ATOM     26  C   UNL A   1      40.972  31.635  30.242  1.00  0.00     0.074 A 
ATOM     27  C   UNL A   1      46.470  31.294  27.022  1.00  0.00     0.029 A 
ATOM     28  N   UNL A   1      44.546  30.817  28.040  1.00  0.00    -0.354 N 
ATOM     29  N   UNL A   1      42.087  31.460  29.571  1.00  0.00    -0.248 NA
ATOM     30  C   UNL A   1      40.769  33.012  30.714  1.00  0.00     0.031 C 
ATOM     31  C   UNL A   1      45.955  32.468  27.584  1.00  0.00     0.029 A 
ATOM     32  C   UNL A   1      44.746  32.176  28.197  1.00  0.00     0.049 A 
ATOM     33  H   UNL A   1      43.768  30.318  28.376  1.00  0.00     0.167 HD
ATOM     34  C   UNL A   1      42.683  32.711  29.484  1.00  0.00     0.074 A 
ATOM     35  C   UNL A   1      41.808  33.635  30.177  1.00  0.00     0.031 C 
ATOM     36  C   UNL A   1      43.840  33.071  28.872  1.00  0.00     0.037 A 
BRANCH  23  37
ATOM     37  C   UNL A   1      46.947  28.350  26.336  1.00  0.00     0.064 A 
ATOM     38  C   UNL A   1      46.913  28.023  24.968  1.00  0.00     0.173 A 
ATOM     39  C   UNL A   1      48.147  28.136  27.028  1.00  0.00     0.173 A 
ATOM     40  F   UNL A   1      45.782  28.187  24.263  1.00  0.00    -0.203 F 
ATOM     41  C   UNL A   1      48.013  27.451  24.337  1.00  0.00     0.198 A 
ATOM     42  C   UNL A   1      49.258  27.597  26.383  1.00  0.00     0.198 A 
ATOM     43  F   UNL A   1      48.236  28.431  28.333  1.00  0.00    -0.203 F 
ATOM     44  F   UNL A   1      47.926  27.070  23.054  1.00  0.00    -0.200 F 
ATOM     45  C   UNL A   1      49.186  27.241  25.045  1.00  0.00     0.200 A 
ATOM     46  F   UNL A   1      50.395  27.400  27.066  1.00  0.00    -0.200 F 
ATOM     47  F   UNL A   1      50.242  26.679  24.441  1.00  0.00    -0.200 F 
ENDBRANCH  23  37
BRANCH  24  48
ATOM     48  C   UNL A   1      38.652  31.059  31.283  1.00  0.00     0.064 A 
ATOM     49  C   UNL A   1      37.521  31.530  30.600  1.00  0.00     0.173 A 
ATOM     50  C   UNL A   1      38.589  31.013  32.683  1.00  0.00     0.173 A 
ATOM     51  F   UNL A   1      37.533  31.607  29.260  1.00  0.00    -0.203 F 
ATOM     52  C   UNL A   1      36.389  31.969  31.286  1.00  0.00     0.198 A 
ATOM     53  C   UNL A   1      37.448  31.433  33.369  1.00  0.00     0.198 A 
ATOM     54  F   UNL A   1      39.638  30.565  33.388  1.00  0.00    -0.203 F 
ATOM     55  F   UNL A   1      35.344  32.459  30.606  1.00  0.00    -0.200 F 
ATOM     56  C   UNL A   1      36.353  31.918  32.671  1.00  0.00     0.200 A 
ATOM     57  F   UNL A   1      37.413  31.374  34.708  1.00  0.00    -0.200 F 
ATOM     58  F   UNL A   1      35.268  32.346  33.331  1.00  0.00    -0.200 F 
ENDBRANCH  24  48
BRANCH  36  59
ATOM     59  C   UNL A   1      44.195  34.528  28.871  1.00  0.00     0.064 A 
ATOM     60  C   UNL A   1      44.995  35.096  29.871  1.00  0.00     0.173 A 
ATOM     61  C   UNL A   1      43.768  35.352  27.818  1.00  0.00     0.173 A 
ATOM     62  F   UNL A   1      45.417  34.351  30.904  1.00  0.00    -0.203 F 
ATOM     63  C   UNL A   1      45.332  36.446  29.832  1.00  0.00     0.198 A 
ATOM     64  C   UNL A   1      44.138  36.692  27.764  1.00  0.00     0.198 A 
ATOM     65  F   UNL A   1      43.009  34.852  26.831  1.00  0.00    -0.203 F 
ATOM     66  F   UNL A   1      46.055  36.982  30.825  1.00  0.00    -0.200 F 
ATOM     67  C   UNL A   1      44.912  37.239  28.775  1.00  0.00     0.200 A 
ATOM     68  F   UNL A   1      43.748  37.451  26.730  1.00  0.00    -0.200 F 
ATOM     69  F   UNL A   1      45.249  38.535  28.734  1.00  0.00    -0.200 F 
ENDBRANCH  36  59
ENDBRANCH  10  11
ENDBRANCH   3   5
ENDBRANCH   2   3
ENDBRANCH   1   2
BRANCH   1  70
ATOM     70  C   UNL A   1      37.081  21.620  24.600  1.00  0.00     0.274 C 
BRANCH  70  71
ATOM     71  O   UNL A   1      35.990  22.351  25.188  1.00  0.00    -0.461 OA
BRANCH  71  72
ATOM     72  C   UNL A   1      34.897  21.614  25.560  1.00  0.00     0.319 C 
ATOM     73  O   UNL A   1      34.492  21.518  26.715  1.00  0.00    -0.251 OA
BRANCH  72  74
ATOM     74  C   UNL A   1      34.287  20.870  24.365  1.00  0.00     0.184 C 
BRANCH  74  75
ATOM     75  C   UNL A   1      34.013  19.417  24.742  1.00  0.00    -0.028 A 
ATOM     76  C   UNL A   1      32.771  19.053  25.281  1.00  0.00     0.006 A 
ATOM     77  C   UNL A   1      34.952  18.405  24.484  1.00  0.00     0.006 A 
ATOM     78  C   UNL A   1      32.440  17.709  25.478  1.00  0.00     0.016 A 
ATOM     79  C   UNL A   1      34.628  17.060  24.687  1.00  0.00     0.016 A 
ATOM     80  C   UNL A   1      33.366  16.718  25.165  1.00  0.00     0.017 A 
ATOM     81  Br  UNL A   1      32.903  14.897  25.375  1.00  0.00    -0.051 Br
ENDBRANCH  74  75
BRANCH  74  82
ATOM     82  C   UNL A   1      33.052  21.667  23.850  1.00  0.00     0.282 C 
BRANCH  82  83
ATOM     83  N   UNL A   1      32.948  23.042  24.420  1.00  0.00    -0.334 N 
ATOM     84  C   UNL A   1      31.567  23.383  24.815  1.00  0.00     0.262 C 
ATOM     85  C   UNL A   1      33.245  24.088  23.419  1.00  0.00     0.262 C 
ATOM     86  H   UNL A   1      33.602  23.025  25.203  1.00  0.00     0.348 HD
ATOM     87  C   UNL A   1      30.850  23.769  23.543  1.00  0.00     0.067 C 
ATOM     88  C   UNL A   1      31.919  24.526  22.788  1.00  0.00     0.067 C 
ENDBRANCH  82  83
ENDBRANCH  74  82
ENDBRANCH  72  74
ENDBRANCH  71  72
ENDBRANCH  70  71
ENDBRANCH   1  70
TORSDOF 14
ENDMDL
