MODEL 1
REMARK VINA RESULT:     -13.6      0.000      0.000
REMARK SMILES CC(C)[C@@H]1C(=O)Nc2ccccc2N1C(=O)N[C@H](Cc1ccccc1)C(=O)OCCOC(=O)c1ccc(-c2c3nc(c(-c4c(F)c(F)c(F)c(F)c4F)c4ccc([nH]4)c(-c4c(F)c(F)c(F)c(F)c4F)c4nc(c(-c5c(F)c(F)c(F)c(F)c5F)c5ccc2[nH]5)C=C4)C=C3)cc1
REMARK SMILES IDX 29 1 28 2 26 3 27 4 18 5 17 6 15 7 16 8 14 10 4 11 5 12 6 13
REMARK SMILES IDX 7 14 13 15 8 16 12 18 9 19 11 20 10 21 2 22 1 23 3 24 19 25
REMARK SMILES IDX 20 26 21 27 25 28 22 29 24 30 23 31 30 32 31 33 32 34 33 35
REMARK SMILES IDX 34 36 35 37 96 38 36 39 95 40 37 41 38 42 39 43 89 44 40 45
REMARK SMILES IDX 94 46 88 47 90 48 41 49 93 50 87 51 86 52 42 54 74 55 54 56
REMARK SMILES IDX 73 57 55 58 58 59 72 60 91 61 56 62 57 63 71 65 92 66 59 67
REMARK SMILES IDX 43 68 44 69 52 70 45 71 46 72 50 73 53 74 47 75 48 76 51 77
REMARK SMILES IDX 49 78 75 79 76 80 84 81 77 82 78 83 82 84 85 85 79 86 80 87
REMARK SMILES IDX 83 88 81 89 60 90 61 91 69 92 62 93 63 94 67 95 70 96 64 97
REMARK SMILES IDX 65 98 68 99 66 100
REMARK H PARENT 17 9 7 17 90 53 58 64
REMARK Flexibility Score: inf
ROOT
ATOM      1  C   UNL A   1      32.775  29.182  25.265  1.00  0.00     0.274 C 
ENDROOT
BRANCH   1   2
ATOM      2  O   UNL A   1      32.762  27.859  25.943  1.00  0.00    -0.461 OA
BRANCH   2   3
ATOM      3  C   UNL A   1      31.552  27.264  26.243  1.00  0.00     0.329 C 
ATOM      4  O   UNL A   1      31.017  27.420  27.339  1.00  0.00    -0.250 OA
BRANCH   3   5
ATOM      5  C   UNL A   1      30.976  26.198  25.165  1.00  0.00     0.198 C 
BRANCH   5   6
ATOM      6  N   UNL A   1      31.995  25.444  24.200  1.00  0.00    -0.324 N 
ATOM      7  C   UNL A   1      33.011  24.563  23.968  1.00  0.00     0.323 C 
ATOM      8  O   UNL A   1      33.372  24.612  22.779  1.00  0.00    -0.248 OA
ATOM      9  H   UNL A   1      31.781  25.799  23.307  1.00  0.00     0.166 HD
BRANCH   7  10
ATOM     10  N   UNL A   1      33.622  23.672  24.832  1.00  0.00    -0.280 N 
ATOM     11  C   UNL A   1      33.064  22.607  25.704  1.00  0.00     0.184 C 
ATOM     12  C   UNL A   1      33.532  22.754  27.148  1.00  0.00     0.247 C 
ATOM     13  O   UNL A   1      32.863  22.594  28.159  1.00  0.00    -0.272 OA
ATOM     14  N   UNL A   1      34.926  22.741  27.175  1.00  0.00    -0.322 N 
ATOM     15  C   UNL A   1      35.063  23.407  24.802  1.00  0.00     0.070 A 
ATOM     16  C   UNL A   1      35.655  22.804  25.961  1.00  0.00     0.065 A 
ATOM     17  H   UNL A   1      35.403  22.690  28.037  1.00  0.00     0.170 HD
ATOM     18  C   UNL A   1      35.738  23.322  23.583  1.00  0.00     0.028 A 
ATOM     19  C   UNL A   1      36.832  22.063  25.864  1.00  0.00     0.028 A 
ATOM     20  C   UNL A   1      36.889  22.529  23.487  1.00  0.00     0.002 A 
ATOM     21  C   UNL A   1      37.415  21.885  24.611  1.00  0.00     0.002 A 
BRANCH  11  22
ATOM     22  C   UNL A   1      31.808  22.057  25.169  1.00  0.00     0.015 C 
ATOM     23  C   UNL A   1      32.143  20.540  24.956  1.00  0.00     0.010 C 
ATOM     24  C   UNL A   1      30.566  22.455  25.932  1.00  0.00     0.010 C 
ENDBRANCH  11  22
ENDBRANCH   7  10
ENDBRANCH   5   6
BRANCH   5  25
ATOM     25  C   UNL A   1      29.619  26.493  24.455  1.00  0.00     0.072 C 
BRANCH  25  26
ATOM     26  C   UNL A   1      29.395  27.659  23.494  1.00  0.00    -0.045 A 
ATOM     27  C   UNL A   1      28.068  28.135  23.386  1.00  0.00     0.004 A 
ATOM     28  C   UNL A   1      30.389  28.371  22.816  1.00  0.00     0.004 A 
ATOM     29  C   UNL A   1      27.744  29.266  22.631  1.00  0.00     0.000 A 
ATOM     30  C   UNL A   1      30.063  29.507  22.051  1.00  0.00     0.000 A 
ATOM     31  C   UNL A   1      28.746  29.955  21.960  1.00  0.00     0.000 A 
ENDBRANCH  25  26
ENDBRANCH   5  25
ENDBRANCH   3   5
ENDBRANCH   2   3
ENDBRANCH   1   2
BRANCH   1  32
ATOM     32  C   UNL A   1      32.263  30.372  26.117  1.00  0.00     0.275 C 
BRANCH  32  33
ATOM     33  O   UNL A   1      33.002  30.451  27.328  1.00  0.00    -0.458 OA
BRANCH  33  34
ATOM     34  C   UNL A   1      33.560  31.664  27.510  1.00  0.00     0.338 C 
ATOM     35  O   UNL A   1      33.023  32.760  27.532  1.00  0.00    -0.246 OA
BRANCH  34  36
ATOM     36  C   UNL A   1      34.866  31.359  28.072  1.00  0.00     0.060 A 
ATOM     37  C   UNL A   1      35.111  30.034  28.455  1.00  0.00     0.016 A 
ATOM     38  C   UNL A   1      35.855  32.339  28.083  1.00  0.00     0.016 A 
ATOM     39  C   UNL A   1      36.372  29.672  28.873  1.00  0.00     0.010 A 
ATOM     40  C   UNL A   1      37.107  31.991  28.542  1.00  0.00     0.010 A 
ATOM     41  C   UNL A   1      37.344  30.669  28.962  1.00  0.00    -0.014 A 
BRANCH  41  42
ATOM     42  C   UNL A   1      38.553  30.419  29.740  1.00  0.00     0.031 A 
ATOM     43  C   UNL A   1      39.532  29.462  29.147  1.00  0.00     0.074 A 
ATOM     44  C   UNL A   1      38.686  30.980  30.947  1.00  0.00     0.049 A 
ATOM     45  N   UNL A   1      40.521  28.833  29.714  1.00  0.00    -0.248 NA
ATOM     46  C   UNL A   1      39.346  29.140  27.719  1.00  0.00     0.031 C 
ATOM     47  C   UNL A   1      37.780  31.973  31.522  1.00  0.00     0.029 A 
ATOM     48  N   UNL A   1      39.619  30.758  31.916  1.00  0.00    -0.354 N 
ATOM     49  C   UNL A   1      41.050  28.017  28.725  1.00  0.00     0.074 A 
ATOM     50  C   UNL A   1      40.267  28.210  27.528  1.00  0.00     0.031 C 
ATOM     51  C   UNL A   1      38.185  32.253  32.772  1.00  0.00     0.029 A 
ATOM     52  C   UNL A   1      39.332  31.409  33.089  1.00  0.00     0.049 A 
ATOM     53  H   UNL A   1      40.412  30.191  31.789  1.00  0.00     0.167 HD
ATOM     54  C   UNL A   1      42.101  27.175  28.834  1.00  0.00     0.037 A 
ATOM     55  C   UNL A   1      39.918  31.273  34.290  1.00  0.00     0.037 A 
ATOM     56  C   UNL A   1      42.832  27.019  30.063  1.00  0.00     0.049 A 
ATOM     57  C   UNL A   1      41.046  30.283  34.402  1.00  0.00     0.074 A 
ATOM     58  C   UNL A   1      43.909  26.202  30.336  1.00  0.00     0.029 A 
ATOM     59  N   UNL A   1      42.538  27.710  31.235  1.00  0.00    -0.354 N 
ATOM     60  N   UNL A   1      41.549  29.488  33.483  1.00  0.00    -0.248 NA
ATOM     61  C   UNL A   1      41.689  30.166  35.714  1.00  0.00     0.031 C 
ATOM     62  C   UNL A   1      44.236  26.363  31.686  1.00  0.00     0.029 A 
ATOM     63  C   UNL A   1      43.408  27.330  32.239  1.00  0.00     0.049 A 
ATOM     64  H   UNL A   1      41.817  28.373  31.334  1.00  0.00     0.167 HD
ATOM     65  C   UNL A   1      42.589  28.804  34.092  1.00  0.00     0.074 A 
ATOM     66  C   UNL A   1      42.649  29.288  35.460  1.00  0.00     0.031 C 
ATOM     67  C   UNL A   1      43.424  27.862  33.581  1.00  0.00     0.037 A 
BRANCH  54  68
ATOM     68  C   UNL A   1      42.463  26.355  27.631  1.00  0.00     0.064 A 
ATOM     69  C   UNL A   1      41.851  25.121  27.362  1.00  0.00     0.173 A 
ATOM     70  C   UNL A   1      43.452  26.800  26.741  1.00  0.00     0.173 A 
ATOM     71  F   UNL A   1      40.919  24.632  28.194  1.00  0.00    -0.203 F 
ATOM     72  C   UNL A   1      42.238  24.351  26.266  1.00  0.00     0.198 A 
ATOM     73  C   UNL A   1      43.811  26.045  25.628  1.00  0.00     0.198 A 
ATOM     74  F   UNL A   1      44.080  27.967  26.955  1.00  0.00    -0.203 F 
ATOM     75  F   UNL A   1      41.684  23.147  26.067  1.00  0.00    -0.200 F 
ATOM     76  C   UNL A   1      43.211  24.817  25.396  1.00  0.00     0.200 A 
ATOM     77  F   UNL A   1      44.748  26.501  24.785  1.00  0.00    -0.200 F 
ATOM     78  F   UNL A   1      43.579  24.077  24.341  1.00  0.00    -0.200 F 
ENDBRANCH  54  68
BRANCH  55  79
ATOM     79  C   UNL A   1      39.443  32.071  35.448  1.00  0.00     0.064 A 
ATOM     80  C   UNL A   1      39.892  33.384  35.643  1.00  0.00     0.173 A 
ATOM     81  C   UNL A   1      38.522  31.555  36.372  1.00  0.00     0.173 A 
ATOM     82  F   UNL A   1      40.780  33.920  34.792  1.00  0.00    -0.203 F 
ATOM     83  C   UNL A   1      39.458  34.140  36.729  1.00  0.00     0.198 A 
ATOM     84  C   UNL A   1      38.064  32.323  37.440  1.00  0.00     0.198 A 
ATOM     85  F   UNL A   1      38.049  30.308  36.227  1.00  0.00    -0.203 F 
ATOM     86  F   UNL A   1      39.941  35.376  36.915  1.00  0.00    -0.200 F 
ATOM     87  C   UNL A   1      38.541  33.613  37.624  1.00  0.00     0.200 A 
ATOM     88  F   UNL A   1      37.160  31.816  38.290  1.00  0.00    -0.200 F 
ATOM     89  F   UNL A   1      38.120  34.343  38.665  1.00  0.00    -0.200 F 
ENDBRANCH  55  79
BRANCH  67  90
ATOM     90  C   UNL A   1      44.503  27.357  34.493  1.00  0.00     0.064 A 
ATOM     91  C   UNL A   1      45.738  28.008  34.608  1.00  0.00     0.173 A 
ATOM     92  C   UNL A   1      44.271  26.227  35.291  1.00  0.00     0.173 A 
ATOM     93  F   UNL A   1      46.009  29.085  33.853  1.00  0.00    -0.203 F 
ATOM     94  C   UNL A   1      46.719  27.524  35.467  1.00  0.00     0.198 A 
ATOM     95  C   UNL A   1      45.239  25.770  36.178  1.00  0.00     0.198 A 
ATOM     96  F   UNL A   1      43.099  25.578  35.222  1.00  0.00    -0.203 F 
ATOM     97  F   UNL A   1      47.916  28.123  35.518  1.00  0.00    -0.200 F 
ATOM     98  C   UNL A   1      46.465  26.412  36.257  1.00  0.00     0.200 A 
ATOM     99  F   UNL A   1      44.984  24.708  36.954  1.00  0.00    -0.200 F 
ATOM    100  F   UNL A   1      47.408  25.953  37.092  1.00  0.00    -0.200 F 
ENDBRANCH  67  90
ENDBRANCH  41  42
ENDBRANCH  34  36
ENDBRANCH  33  34
ENDBRANCH  32  33
ENDBRANCH   1  32
TORSDOF 16
ENDMDL
MODEL 2
REMARK VINA RESULT:     -13.5      4.145      9.734
REMARK SMILES CC(C)[C@@H]1C(=O)Nc2ccccc2N1C(=O)N[C@H](Cc1ccccc1)C(=O)OCCOC(=O)c1ccc(-c2c3nc(c(-c4c(F)c(F)c(F)c(F)c4F)c4ccc([nH]4)c(-c4c(F)c(F)c(F)c(F)c4F)c4nc(c(-c5c(F)c(F)c(F)c(F)c5F)c5ccc2[nH]5)C=C4)C=C3)cc1
REMARK SMILES IDX 29 1 28 2 26 3 27 4 18 5 17 6 15 7 16 8 14 10 4 11 5 12 6 13
REMARK SMILES IDX 7 14 13 15 8 16 12 18 9 19 11 20 10 21 2 22 1 23 3 24 19 25
REMARK SMILES IDX 20 26 21 27 25 28 22 29 24 30 23 31 30 32 31 33 32 34 33 35
REMARK SMILES IDX 34 36 35 37 96 38 36 39 95 40 37 41 38 42 39 43 89 44 40 45
REMARK SMILES IDX 94 46 88 47 90 48 41 49 93 50 87 51 86 52 42 54 74 55 54 56
REMARK SMILES IDX 73 57 55 58 58 59 72 60 91 61 56 62 57 63 71 65 92 66 59 67
REMARK SMILES IDX 43 68 44 69 52 70 45 71 46 72 50 73 53 74 47 75 48 76 51 77
REMARK SMILES IDX 49 78 75 79 76 80 84 81 77 82 78 83 82 84 85 85 79 86 80 87
REMARK SMILES IDX 83 88 81 89 60 90 61 91 69 92 62 93 63 94 67 95 70 96 64 97
REMARK SMILES IDX 65 98 68 99 66 100
REMARK H PARENT 17 9 7 17 90 53 58 64
REMARK Flexibility Score: inf
ROOT
ATOM      1  C   UNL A   1      36.681  22.333  23.951  1.00  0.00     0.274 C 
ENDROOT
BRANCH   1   2
ATOM      2  O   UNL A   1      35.211  22.202  24.123  1.00  0.00    -0.461 OA
BRANCH   2   3
ATOM      3  C   UNL A   1      34.368  22.674  23.135  1.00  0.00     0.329 C 
ATOM      4  O   UNL A   1      34.727  23.556  22.357  1.00  0.00    -0.250 OA
BRANCH   3   5
ATOM      5  C   UNL A   1      32.832  22.156  23.177  1.00  0.00     0.198 C 
BRANCH   5   6
ATOM      6  N   UNL A   1      31.653  23.221  23.073  1.00  0.00    -0.324 N 
ATOM      7  C   UNL A   1      31.084  24.426  23.370  1.00  0.00     0.323 C 
ATOM      8  O   UNL A   1      29.924  24.486  22.924  1.00  0.00    -0.248 OA
ATOM      9  H   UNL A   1      30.988  22.781  22.495  1.00  0.00     0.166 HD
BRANCH   7  10
ATOM     10  N   UNL A   1      31.616  25.514  24.038  1.00  0.00    -0.280 N 
ATOM     11  C   UNL A   1      32.092  25.674  25.435  1.00  0.00     0.184 C 
ATOM     12  C   UNL A   1      31.432  26.862  26.126  1.00  0.00     0.247 C 
ATOM     13  O   UNL A   1      31.026  26.911  27.279  1.00  0.00    -0.272 OA
ATOM     14  N   UNL A   1      31.679  28.014  25.380  1.00  0.00    -0.322 N 
ATOM     15  C   UNL A   1      32.120  26.699  23.339  1.00  0.00     0.070 A 
ATOM     16  C   UNL A   1      32.269  27.908  24.096  1.00  0.00     0.065 A 
ATOM     17  H   UNL A   1      31.443  28.899  25.745  1.00  0.00     0.170 HD
ATOM     18  C   UNL A   1      32.833  26.563  22.146  1.00  0.00     0.028 A 
ATOM     19  C   UNL A   1      33.176  28.893  23.708  1.00  0.00     0.028 A 
ATOM     20  C   UNL A   1      33.782  27.532  21.797  1.00  0.00     0.002 A 
ATOM     21  C   UNL A   1      33.971  28.672  22.584  1.00  0.00     0.002 A 
BRANCH  11  22
ATOM     22  C   UNL A   1      32.584  24.407  25.999  1.00  0.00     0.015 C 
ATOM     23  C   UNL A   1      34.110  24.685  26.227  1.00  0.00     0.010 C 
ATOM     24  C   UNL A   1      31.744  23.844  27.122  1.00  0.00     0.010 C 
ENDBRANCH  11  22
ENDBRANCH   7  10
ENDBRANCH   5   6
BRANCH   5  25
ATOM     25  C   UNL A   1      32.456  20.968  24.116  1.00  0.00     0.072 C 
BRANCH  25  26
ATOM     26  C   UNL A   1      33.009  19.552  23.964  1.00  0.00    -0.045 A 
ATOM     27  C   UNL A   1      32.392  18.741  22.984  1.00  0.00     0.004 A 
ATOM     28  C   UNL A   1      34.139  19.035  24.607  1.00  0.00     0.004 A 
ATOM     29  C   UNL A   1      32.873  17.468  22.664  1.00  0.00     0.000 A 
ATOM     30  C   UNL A   1      34.620  17.751  24.289  1.00  0.00     0.000 A 
ATOM     31  C   UNL A   1      33.991  16.971  23.320  1.00  0.00     0.000 A 
ENDBRANCH  25  26
ENDBRANCH   5  25
ENDBRANCH   3   5
ENDBRANCH   2   3
ENDBRANCH   1   2
BRANCH   1  32
ATOM     32  C   UNL A   1      37.541  21.407  24.849  1.00  0.00     0.275 C 
BRANCH  32  33
ATOM     33  O   UNL A   1      38.057  22.145  25.947  1.00  0.00    -0.458 OA
BRANCH  33  34
ATOM     34  C   UNL A   1      39.275  21.712  26.331  1.00  0.00     0.338 C 
ATOM     35  O   UNL A   1      39.856  20.684  26.022  1.00  0.00    -0.246 OA
BRANCH  34  36
ATOM     36  C   UNL A   1      39.910  22.907  26.863  1.00  0.00     0.060 A 
ATOM     37  C   UNL A   1      39.394  24.146  26.462  1.00  0.00     0.016 A 
ATOM     38  C   UNL A   1      40.896  22.784  27.838  1.00  0.00     0.016 A 
ATOM     39  C   UNL A   1      39.880  25.299  27.037  1.00  0.00     0.010 A 
ATOM     40  C   UNL A   1      41.416  23.938  28.384  1.00  0.00     0.010 A 
ATOM     41  C   UNL A   1      40.924  25.184  27.955  1.00  0.00    -0.014 A 
BRANCH  41  42
ATOM     42  C   UNL A   1      41.708  26.367  28.296  1.00  0.00     0.031 A 
ATOM     43  C   UNL A   1      40.991  27.439  29.047  1.00  0.00     0.074 A 
ATOM     44  C   UNL A   1      42.970  26.467  27.864  1.00  0.00     0.049 A 
ATOM     45  N   UNL A   1      41.321  28.686  29.225  1.00  0.00    -0.248 NA
ATOM     46  C   UNL A   1      39.699  27.059  29.651  1.00  0.00     0.031 C 
ATOM     47  C   UNL A   1      43.718  25.407  27.189  1.00  0.00     0.029 A 
ATOM     48  N   UNL A   1      43.825  27.528  27.897  1.00  0.00    -0.354 N 
ATOM     49  C   UNL A   1      40.265  29.246  29.928  1.00  0.00     0.074 A 
ATOM     50  C   UNL A   1      39.274  28.216  30.129  1.00  0.00     0.031 C 
ATOM     51  C   UNL A   1      44.922  25.887  26.836  1.00  0.00     0.029 A 
ATOM     52  C   UNL A   1      44.987  27.296  27.207  1.00  0.00     0.049 A 
ATOM     53  H   UNL A   1      43.629  28.370  28.365  1.00  0.00     0.167 HD
ATOM     54  C   UNL A   1      40.151  30.523  30.353  1.00  0.00     0.037 A 
ATOM     55  C   UNL A   1      45.956  28.167  26.878  1.00  0.00     0.037 A 
ATOM     56  C   UNL A   1      41.172  31.506  30.106  1.00  0.00     0.049 A 
ATOM     57  C   UNL A   1      45.777  29.599  27.308  1.00  0.00     0.074 A 
ATOM     58  C   UNL A   1      41.200  32.838  30.461  1.00  0.00     0.029 A 
ATOM     59  N   UNL A   1      42.357  31.241  29.426  1.00  0.00    -0.354 N 
ATOM     60  N   UNL A   1      44.776  30.151  27.958  1.00  0.00    -0.248 NA
ATOM     61  C   UNL A   1      46.855  30.528  26.962  1.00  0.00     0.031 C 
ATOM     62  C   UNL A   1      42.380  33.392  29.953  1.00  0.00     0.029 A 
ATOM     63  C   UNL A   1      43.120  32.390  29.340  1.00  0.00     0.049 A 
ATOM     64  H   UNL A   1      42.613  30.364  29.059  1.00  0.00     0.167 HD
ATOM     65  C   UNL A   1      45.118  31.484  28.130  1.00  0.00     0.074 A 
ATOM     66  C   UNL A   1      46.427  31.650  27.523  1.00  0.00     0.031 C 
ATOM     67  C   UNL A   1      44.426  32.486  28.732  1.00  0.00     0.037 A 
BRANCH  54  68
ATOM     68  C   UNL A   1      38.885  30.911  31.059  1.00  0.00     0.064 A 
ATOM     69  C   UNL A   1      37.761  31.385  30.364  1.00  0.00     0.173 A 
ATOM     70  C   UNL A   1      38.799  30.825  32.457  1.00  0.00     0.173 A 
ATOM     71  F   UNL A   1      37.797  31.514  29.029  1.00  0.00    -0.203 F 
ATOM     72  C   UNL A   1      36.613  31.787  31.044  1.00  0.00     0.198 A 
ATOM     73  C   UNL A   1      37.638  31.195  33.130  1.00  0.00     0.198 A 
ATOM     74  F   UNL A   1      39.846  30.391  33.174  1.00  0.00    -0.203 F 
ATOM     75  F   UNL A   1      35.577  32.296  30.362  1.00  0.00    -0.200 F 
ATOM     76  C   UNL A   1      36.549  31.684  32.425  1.00  0.00     0.200 A 
ATOM     77  F   UNL A   1      37.576  31.089  34.464  1.00  0.00    -0.200 F 
ATOM     78  F   UNL A   1      35.443  32.068  33.076  1.00  0.00    -0.200 F 
ENDBRANCH  54  68
BRANCH  55  79
ATOM     79  C   UNL A   1      47.140  27.711  26.109  1.00  0.00     0.064 A 
ATOM     80  C   UNL A   1      47.130  27.723  24.708  1.00  0.00     0.173 A 
ATOM     81  C   UNL A   1      48.311  27.274  26.747  1.00  0.00     0.173 A 
ATOM     82  F   UNL A   1      46.032  28.124  24.051  1.00  0.00    -0.203 F 
ATOM     83  C   UNL A   1      48.234  27.292  23.975  1.00  0.00     0.198 A 
ATOM     84  C   UNL A   1      49.426  26.874  26.013  1.00  0.00     0.198 A 
ATOM     85  F   UNL A   1      48.381  27.253  28.086  1.00  0.00    -0.203 F 
ATOM     86  F   UNL A   1      48.177  27.271  22.637  1.00  0.00    -0.200 F 
ATOM     87  C   UNL A   1      49.383  26.873  24.627  1.00  0.00     0.200 A 
ATOM     88  F   UNL A   1      50.542  26.490  26.648  1.00  0.00    -0.200 F 
ATOM     89  F   UNL A   1      50.445  26.464  23.921  1.00  0.00    -0.200 F 
ENDBRANCH  55  79
BRANCH  67  90
ATOM     90  C   UNL A   1      45.110  33.818  28.813  1.00  0.00     0.064 A 
ATOM     91  C   UNL A   1      44.922  34.805  27.836  1.00  0.00     0.173 A 
ATOM     92  C   UNL A   1      45.930  34.118  29.910  1.00  0.00     0.173 A 
ATOM     93  F   UNL A   1      44.157  34.558  26.761  1.00  0.00    -0.203 F 
ATOM     94  C   UNL A   1      45.562  36.037  27.938  1.00  0.00     0.198 A 
ATOM     95  C   UNL A   1      46.536  35.364  30.029  1.00  0.00     0.198 A 
ATOM     96  F   UNL A   1      46.130  33.208  30.875  1.00  0.00    -0.203 F 
ATOM     97  F   UNL A   1      45.420  36.944  26.964  1.00  0.00    -0.200 F 
ATOM     98  C   UNL A   1      46.360  36.317  29.038  1.00  0.00     0.200 A 
ATOM     99  F   UNL A   1      47.289  35.640  31.102  1.00  0.00    -0.200 F 
ATOM    100  F   UNL A   1      46.967  37.507  29.140  1.00  0.00    -0.200 F 
ENDBRANCH  67  90
ENDBRANCH  41  42
ENDBRANCH  34  36
ENDBRANCH  33  34
ENDBRANCH  32  33
ENDBRANCH   1  32
TORSDOF 16
ENDMDL
MODEL 3
REMARK VINA RESULT:     -13.4      3.968      9.703
REMARK SMILES CC(C)[C@@H]1C(=O)Nc2ccccc2N1C(=O)N[C@H](Cc1ccccc1)C(=O)OCCOC(=O)c1ccc(-c2c3nc(c(-c4c(F)c(F)c(F)c(F)c4F)c4ccc([nH]4)c(-c4c(F)c(F)c(F)c(F)c4F)c4nc(c(-c5c(F)c(F)c(F)c(F)c5F)c5ccc2[nH]5)C=C4)C=C3)cc1
REMARK SMILES IDX 29 1 28 2 26 3 27 4 18 5 17 6 15 7 16 8 14 10 4 11 5 12 6 13
REMARK SMILES IDX 7 14 13 15 8 16 12 18 9 19 11 20 10 21 2 22 1 23 3 24 19 25
REMARK SMILES IDX 20 26 21 27 25 28 22 29 24 30 23 31 30 32 31 33 32 34 33 35
REMARK SMILES IDX 34 36 35 37 96 38 36 39 95 40 37 41 38 42 39 43 89 44 40 45
REMARK SMILES IDX 94 46 88 47 90 48 41 49 93 50 87 51 86 52 42 54 74 55 54 56
REMARK SMILES IDX 73 57 55 58 58 59 72 60 91 61 56 62 57 63 71 65 92 66 59 67
REMARK SMILES IDX 43 68 44 69 52 70 45 71 46 72 50 73 53 74 47 75 48 76 51 77
REMARK SMILES IDX 49 78 75 79 76 80 84 81 77 82 78 83 82 84 85 85 79 86 80 87
REMARK SMILES IDX 83 88 81 89 60 90 61 91 69 92 62 93 63 94 67 95 70 96 64 97
REMARK SMILES IDX 65 98 68 99 66 100
REMARK H PARENT 17 9 7 17 90 53 58 64
REMARK Flexibility Score: inf
ROOT
ATOM      1  C   UNL A   1      36.515  22.766  23.552  1.00  0.00     0.274 C 
ENDROOT
BRANCH   1   2
ATOM      2  O   UNL A   1      35.258  23.448  23.953  1.00  0.00    -0.461 OA
BRANCH   2   3
ATOM      3  C   UNL A   1      34.124  23.288  23.181  1.00  0.00     0.329 C 
ATOM      4  O   UNL A   1      34.075  23.699  22.024  1.00  0.00    -0.250 OA
BRANCH   3   5
ATOM      5  C   UNL A   1      32.805  22.717  23.932  1.00  0.00     0.198 C 
BRANCH   5   6
ATOM      6  N   UNL A   1      31.787  23.745  24.599  1.00  0.00    -0.324 N 
ATOM      7  C   UNL A   1      31.416  25.001  24.981  1.00  0.00     0.323 C 
ATOM      8  O   UNL A   1      30.361  24.968  25.638  1.00  0.00    -0.248 OA
ATOM      9  H   UNL A   1      31.035  23.178  24.887  1.00  0.00     0.166 HD
BRANCH   7  10
ATOM     10  N   UNL A   1      32.021  26.218  24.719  1.00  0.00    -0.280 N 
ATOM     11  C   UNL A   1      32.144  27.007  23.467  1.00  0.00     0.184 C 
ATOM     12  C   UNL A   1      33.594  27.376  23.170  1.00  0.00     0.247 C 
ATOM     13  O   UNL A   1      34.147  27.365  22.079  1.00  0.00    -0.272 OA
ATOM     14  N   UNL A   1      34.114  28.079  24.255  1.00  0.00    -0.322 N 
ATOM     15  C   UNL A   1      32.411  27.150  25.781  1.00  0.00     0.070 A 
ATOM     16  C   UNL A   1      33.371  28.165  25.460  1.00  0.00     0.065 A 
ATOM     17  H   UNL A   1      34.995  28.515  24.185  1.00  0.00     0.170 HD
ATOM     18  C   UNL A   1      31.588  27.333  26.894  1.00  0.00     0.028 A 
ATOM     19  C   UNL A   1      33.424  29.358  26.179  1.00  0.00     0.028 A 
ATOM     20  C   UNL A   1      31.611  28.558  27.573  1.00  0.00     0.002 A 
ATOM     21  C   UNL A   1      32.502  29.570  27.202  1.00  0.00     0.002 A 
BRANCH  11  22
ATOM     22  C   UNL A   1      31.024  26.757  22.545  1.00  0.00     0.015 C 
ATOM     23  C   UNL A   1      30.348  28.165  22.414  1.00  0.00     0.010 C 
ATOM     24  C   UNL A   1      31.387  25.976  21.303  1.00  0.00     0.010 C 
ENDBRANCH  11  22
ENDBRANCH   7  10
ENDBRANCH   5   6
BRANCH   5  25
ATOM     25  C   UNL A   1      32.910  21.394  24.751  1.00  0.00     0.072 C 
BRANCH  25  26
ATOM     26  C   UNL A   1      33.111  20.015  24.125  1.00  0.00    -0.045 A 
ATOM     27  C   UNL A   1      34.155  19.229  24.663  1.00  0.00     0.004 A 
ATOM     28  C   UNL A   1      32.285  19.417  23.167  1.00  0.00     0.004 A 
ATOM     29  C   UNL A   1      34.374  17.909  24.260  1.00  0.00     0.000 A 
ATOM     30  C   UNL A   1      32.508  18.090  22.757  1.00  0.00     0.000 A 
ATOM     31  C   UNL A   1      33.547  17.336  23.302  1.00  0.00     0.000 A 
ENDBRANCH  25  26
ENDBRANCH   5  25
ENDBRANCH   3   5
ENDBRANCH   2   3
ENDBRANCH   1   2
BRANCH   1  32
ATOM     32  C   UNL A   1      37.037  21.693  24.542  1.00  0.00     0.275 C 
BRANCH  32  33
ATOM     33  O   UNL A   1      37.553  22.323  25.707  1.00  0.00    -0.458 OA
BRANCH  33  34
ATOM     34  C   UNL A   1      38.753  21.828  26.069  1.00  0.00     0.338 C 
ATOM     35  O   UNL A   1      39.297  20.796  25.711  1.00  0.00    -0.246 OA
BRANCH  34  36
ATOM     36  C   UNL A   1      39.429  22.971  26.660  1.00  0.00     0.060 A 
ATOM     37  C   UNL A   1      38.934  24.245  26.353  1.00  0.00     0.016 A 
ATOM     38  C   UNL A   1      40.436  22.763  27.600  1.00  0.00     0.016 A 
ATOM     39  C   UNL A   1      39.461  25.347  26.988  1.00  0.00     0.010 A 
ATOM     40  C   UNL A   1      40.996  23.867  28.205  1.00  0.00     0.010 A 
ATOM     41  C   UNL A   1      40.524  25.149  27.870  1.00  0.00    -0.014 A 
BRANCH  41  42
ATOM     42  C   UNL A   1      41.344  26.290  28.266  1.00  0.00     0.031 A 
ATOM     43  C   UNL A   1      40.648  27.373  29.021  1.00  0.00     0.074 A 
ATOM     44  C   UNL A   1      42.623  26.347  27.876  1.00  0.00     0.049 A 
ATOM     45  N   UNL A   1      41.023  28.600  29.241  1.00  0.00    -0.248 NA
ATOM     46  C   UNL A   1      39.322  27.033  29.573  1.00  0.00     0.031 C 
ATOM     47  C   UNL A   1      43.349  25.274  27.198  1.00  0.00     0.029 A 
ATOM     48  N   UNL A   1      43.519  27.371  27.964  1.00  0.00    -0.354 N 
ATOM     49  C   UNL A   1      39.968  29.186  29.924  1.00  0.00     0.074 A 
ATOM     50  C   UNL A   1      38.929  28.194  30.068  1.00  0.00     0.031 C 
ATOM     51  C   UNL A   1      44.582  25.712  26.897  1.00  0.00     0.029 A 
ATOM     52  C   UNL A   1      44.693  27.108  27.306  1.00  0.00     0.049 A 
ATOM     53  H   UNL A   1      43.342  28.209  28.447  1.00  0.00     0.167 HD
ATOM     54  C   UNL A   1      39.893  30.456  30.378  1.00  0.00     0.037 A 
ATOM     55  C   UNL A   1      45.706  27.945  27.030  1.00  0.00     0.037 A 
ATOM     56  C   UNL A   1      40.960  31.401  30.189  1.00  0.00     0.049 A 
ATOM     57  C   UNL A   1      45.572  29.372  27.491  1.00  0.00     0.074 A 
ATOM     58  C   UNL A   1      41.032  32.722  30.579  1.00  0.00     0.029 A 
ATOM     59  N   UNL A   1      42.155  31.104  29.540  1.00  0.00    -0.354 N 
ATOM     60  N   UNL A   1      44.575  29.950  28.122  1.00  0.00    -0.248 NA
ATOM     61  C   UNL A   1      46.699  30.264  27.202  1.00  0.00     0.031 C 
ATOM     62  C   UNL A   1      42.249  33.238  30.122  1.00  0.00     0.029 A 
ATOM     63  C   UNL A   1      42.967  32.221  29.508  1.00  0.00     0.049 A 
ATOM     64  H   UNL A   1      42.388  30.226  29.160  1.00  0.00     0.167 HD
ATOM     65  C   UNL A   1      44.965  31.262  28.339  1.00  0.00     0.074 A 
ATOM     66  C   UNL A   1      46.298  31.388  27.778  1.00  0.00     0.031 C 
ATOM     67  C   UNL A   1      44.295  32.278  28.944  1.00  0.00     0.037 A 
BRANCH  54  68
ATOM     68  C   UNL A   1      38.622  30.879  31.054  1.00  0.00     0.064 A 
ATOM     69  C   UNL A   1      37.492  31.285  30.325  1.00  0.00     0.173 A 
ATOM     70  C   UNL A   1      38.535  30.898  32.454  1.00  0.00     0.173 A 
ATOM     71  F   UNL A   1      37.527  31.314  28.985  1.00  0.00    -0.203 F 
ATOM     72  C   UNL A   1      36.338  31.722  30.973  1.00  0.00     0.198 A 
ATOM     73  C   UNL A   1      37.369  31.302  33.098  1.00  0.00     0.198 A 
ATOM     74  F   UNL A   1      39.588  30.532  33.202  1.00  0.00    -0.203 F 
ATOM     75  F   UNL A   1      35.296  32.165  30.256  1.00  0.00    -0.200 F 
ATOM     76  C   UNL A   1      36.275  31.723  32.358  1.00  0.00     0.200 A 
ATOM     77  F   UNL A   1      37.308  31.295  34.436  1.00  0.00    -0.200 F 
ATOM     78  F   UNL A   1      35.163  32.139  32.979  1.00  0.00    -0.200 F 
ENDBRANCH  54  68
BRANCH  55  79
ATOM     79  C   UNL A   1      46.896  27.459  26.287  1.00  0.00     0.064 A 
ATOM     80  C   UNL A   1      47.959  26.846  26.962  1.00  0.00     0.173 A 
ATOM     81  C   UNL A   1      46.993  27.575  24.892  1.00  0.00     0.173 A 
ATOM     82  F   UNL A   1      47.918  26.719  28.297  1.00  0.00    -0.203 F 
ATOM     83  C   UNL A   1      49.083  26.391  26.277  1.00  0.00     0.198 A 
ATOM     84  C   UNL A   1      48.103  27.091  24.203  1.00  0.00     0.198 A 
ATOM     85  F   UNL A   1      45.999  28.143  24.192  1.00  0.00    -0.203 F 
ATOM     86  F   UNL A   1      50.104  25.851  26.956  1.00  0.00    -0.200 F 
ATOM     87  C   UNL A   1      49.153  26.509  24.897  1.00  0.00     0.200 A 
ATOM     88  F   UNL A   1      48.156  27.188  22.867  1.00  0.00    -0.200 F 
ATOM     89  F   UNL A   1      50.232  26.066  24.238  1.00  0.00    -0.200 F 
ENDBRANCH  55  79
BRANCH  67  90
ATOM     90  C   UNL A   1      45.030  33.578  29.081  1.00  0.00     0.064 A 
ATOM     91  C   UNL A   1      44.931  34.588  28.115  1.00  0.00     0.173 A 
ATOM     92  C   UNL A   1      45.810  33.824  30.220  1.00  0.00     0.173 A 
ATOM     93  F   UNL A   1      44.208  34.390  27.001  1.00  0.00    -0.203 F 
ATOM     94  C   UNL A   1      45.616  35.788  28.268  1.00  0.00     0.198 A 
ATOM     95  C   UNL A   1      46.461  35.041  30.390  1.00  0.00     0.198 A 
ATOM     96  F   UNL A   1      45.925  32.891  31.177  1.00  0.00    -0.203 F 
ATOM     97  F   UNL A   1      45.559  36.717  27.305  1.00  0.00    -0.200 F 
ATOM     98  C   UNL A   1      46.372  36.017  29.409  1.00  0.00     0.200 A 
ATOM     99  F   UNL A   1      47.174  35.267  31.502  1.00  0.00    -0.200 F 
ATOM    100  F   UNL A   1      47.024  37.178  29.560  1.00  0.00    -0.200 F 
ENDBRANCH  67  90
ENDBRANCH  41  42
ENDBRANCH  34  36
ENDBRANCH  33  34
ENDBRANCH  32  33
ENDBRANCH   1  32
TORSDOF 16
ENDMDL
