MODEL 1
REMARK VINA RESULT:     -12.7      0.000      0.000
REMARK SMILES Cc1ccc(-c2cc(C(=O)OCCOC(=O)c3ccc(-c4c5nc(c(-c6c(F)c(F)c(F)c(F)c6F)c6ccc([nH]6)c(-c6c(F)c(F)c(F)c(F)c6F)c6nc(c(-c7c(F)c(F)c(F)c(F)c7F)c7ccc4[nH]7)C=C6)C=C5)cc3)ccc2F)cc1O
REMARK SMILES IDX 12 1 11 2 9 3 10 4 8 5 6 6 7 7 82 8 81 9 83 10 80 11 5 12
REMARK SMILES IDX 1 13 2 14 3 15 85 16 4 17 84 18 86 19 13 21 14 22 15 23
REMARK SMILES IDX 16 24 17 25 18 26 79 27 19 28 78 29 20 30 21 31 22 32 72 33
REMARK SMILES IDX 23 34 77 35 71 36 73 37 24 38 76 39 70 40 69 41 25 43 57 44
REMARK SMILES IDX 37 45 56 46 38 47 41 48 55 49 74 50 39 51 40 52 54 54 75 55
REMARK SMILES IDX 42 56 26 57 27 58 35 59 28 60 29 61 33 62 36 63 30 64 31 65
REMARK SMILES IDX 34 66 32 67 58 68 59 69 67 70 60 71 61 72 65 73 68 74 62 75
REMARK SMILES IDX 63 76 66 77 64 78 43 79 44 80 52 81 45 82 46 83 50 84 53 85
REMARK SMILES IDX 47 86 48 87 51 88 49 89
REMARK H PARENT 86 20 73 42 41 53
REMARK Flexibility Score: inf
ROOT
ATOM      1  C   UNL A   1      34.858  21.597  24.341  1.00  0.00     0.275 C 
ENDROOT
BRANCH   1   2
ATOM      2  O   UNL A   1      35.352  22.842  23.803  1.00  0.00    -0.458 OA
BRANCH   2   3
ATOM      3  C   UNL A   1      34.452  23.576  23.101  1.00  0.00     0.338 C 
ATOM      4  O   UNL A   1      33.970  23.299  22.016  1.00  0.00    -0.246 OA
BRANCH   3   5
ATOM      5  C   UNL A   1      34.003  24.741  23.902  1.00  0.00     0.060 A 
ATOM      6  C   UNL A   1      32.447  26.620  24.093  1.00  0.00     0.018 A 
ATOM      7  C   UNL A   1      32.991  25.552  23.366  1.00  0.00     0.027 A 
ATOM      8  C   UNL A   1      33.013  26.915  25.337  1.00  0.00     0.131 A 
ATOM      9  C   UNL A   1      34.052  26.143  25.865  1.00  0.00     0.041 A 
ATOM     10  F   UNL A   1      32.555  27.948  26.061  1.00  0.00    -0.206 F 
ATOM     11  C   UNL A   1      34.537  25.039  25.158  1.00  0.00     0.019 A 
BRANCH   6  12
ATOM     12  C   UNL A   1      31.290  27.342  23.554  1.00  0.00    -0.012 A 
ATOM     13  C   UNL A   1      27.895  29.645  22.142  1.00  0.00     0.048 C 
ATOM     14  C   UNL A   1      29.085  28.861  22.614  1.00  0.00    -0.009 A 
ATOM     15  C   UNL A   1      28.893  27.732  23.424  1.00  0.00     0.008 A 
ATOM     16  C   UNL A   1      30.394  29.211  22.271  1.00  0.00     0.119 A 
ATOM     17  C   UNL A   1      29.981  26.982  23.890  1.00  0.00     0.009 A 
ATOM     18  C   UNL A   1      31.479  28.462  22.730  1.00  0.00     0.055 A 
BRANCH  16  19
ATOM     19  O   UNL A   1      30.699  30.290  21.491  1.00  0.00    -0.508 OA
ATOM     20  H   UNL A   1      30.819  31.132  21.882  1.00  0.00     0.293 HD
ENDBRANCH  16  19
ENDBRANCH   6  12
ENDBRANCH   3   5
ENDBRANCH   2   3
ENDBRANCH   1   2
BRANCH   1  21
ATOM     21  C   UNL A   1      36.001  20.789  24.952  1.00  0.00     0.275 C 
BRANCH  21  22
ATOM     22  O   UNL A   1      36.788  21.645  25.800  1.00  0.00    -0.458 OA
BRANCH  22  23
ATOM     23  C   UNL A   1      38.124  21.431  25.783  1.00  0.00     0.338 C 
ATOM     24  O   UNL A   1      38.711  20.447  25.369  1.00  0.00    -0.246 OA
BRANCH  23  25
ATOM     25  C   UNL A   1      38.817  22.597  26.368  1.00  0.00     0.060 A 
ATOM     26  C   UNL A   1      38.326  23.885  26.158  1.00  0.00     0.016 A 
ATOM     27  C   UNL A   1      40.021  22.416  27.048  1.00  0.00     0.016 A 
ATOM     28  C   UNL A   1      39.069  24.997  26.553  1.00  0.00     0.010 A 
ATOM     29  C   UNL A   1      40.722  23.531  27.524  1.00  0.00     0.010 A 
ATOM     30  C   UNL A   1      40.275  24.837  27.252  1.00  0.00    -0.014 A 
BRANCH  30  31
ATOM     31  C   UNL A   1      41.095  26.018  27.651  1.00  0.00     0.031 A 
ATOM     32  C   UNL A   1      40.507  27.068  28.559  1.00  0.00     0.074 A 
ATOM     33  C   UNL A   1      42.367  26.160  27.227  1.00  0.00     0.049 A 
ATOM     34  N   UNL A   1      40.965  28.261  28.852  1.00  0.00    -0.248 NA
ATOM     35  C   UNL A   1      39.233  26.740  29.215  1.00  0.00     0.031 C 
ATOM     36  C   UNL A   1      43.101  25.201  26.402  1.00  0.00     0.029 A 
ATOM     37  N   UNL A   1      43.276  27.170  27.444  1.00  0.00    -0.354 N 
ATOM     38  C   UNL A   1      40.004  28.845  29.669  1.00  0.00     0.074 A 
ATOM     39  C   UNL A   1      38.946  27.874  29.839  1.00  0.00     0.031 C 
ATOM     40  C   UNL A   1      44.358  25.640  26.228  1.00  0.00     0.029 A 
ATOM     41  C   UNL A   1      44.496  26.953  26.850  1.00  0.00     0.049 A 
ATOM     42  H   UNL A   1      43.071  27.974  27.976  1.00  0.00     0.167 HD
ATOM     43  C   UNL A   1      40.006  30.080  30.223  1.00  0.00     0.037 A 
ATOM     44  C   UNL A   1      45.592  27.734  26.781  1.00  0.00     0.037 A 
ATOM     45  C   UNL A   1      41.085  31.025  30.111  1.00  0.00     0.049 A 
ATOM     46  C   UNL A   1      45.561  29.109  27.387  1.00  0.00     0.074 A 
ATOM     47  C   UNL A   1      41.166  32.309  30.623  1.00  0.00     0.029 A 
ATOM     48  N   UNL A   1      42.287  30.776  29.466  1.00  0.00    -0.354 N 
ATOM     49  N   UNL A   1      44.606  29.691  28.069  1.00  0.00    -0.248 NA
ATOM     50  C   UNL A   1      46.752  29.949  27.187  1.00  0.00     0.031 C 
ATOM     51  C   UNL A   1      42.413  32.841  30.282  1.00  0.00     0.029 A 
ATOM     52  C   UNL A   1      43.119  31.877  29.582  1.00  0.00     0.049 A 
ATOM     53  H   UNL A   1      42.514  29.942  28.995  1.00  0.00     0.167 HD
ATOM     54  C   UNL A   1      45.079  30.958  28.382  1.00  0.00     0.074 A 
ATOM     55  C   UNL A   1      46.417  31.055  27.838  1.00  0.00     0.031 C 
ATOM     56  C   UNL A   1      44.453  31.954  29.051  1.00  0.00     0.037 A 
BRANCH  43  57
ATOM     57  C   UNL A   1      38.799  30.503  31.003  1.00  0.00     0.064 A 
ATOM     58  C   UNL A   1      37.712  31.104  30.352  1.00  0.00     0.173 A 
ATOM     59  C   UNL A   1      38.757  30.399  32.400  1.00  0.00     0.173 A 
ATOM     60  F   UNL A   1      37.711  31.234  29.017  1.00  0.00    -0.203 F 
ATOM     61  C   UNL A   1      36.631  31.604  31.074  1.00  0.00     0.198 A 
ATOM     62  C   UNL A   1      37.665  30.882  33.118  1.00  0.00     0.198 A 
ATOM     63  F   UNL A   1      39.771  29.825  33.065  1.00  0.00    -0.203 F 
ATOM     64  F   UNL A   1      35.621  32.209  30.434  1.00  0.00    -0.200 F 
ATOM     65  C   UNL A   1      36.610  31.493  32.456  1.00  0.00     0.200 A 
ATOM     66  F   UNL A   1      37.638  30.762  34.453  1.00  0.00    -0.200 F 
ATOM     67  F   UNL A   1      35.571  31.977  33.151  1.00  0.00    -0.200 F 
ENDBRANCH  43  57
BRANCH  44  68
ATOM     68  C   UNL A   1      46.810  27.243  26.087  1.00  0.00     0.064 A 
ATOM     69  C   UNL A   1      47.799  26.517  26.765  1.00  0.00     0.173 A 
ATOM     70  C   UNL A   1      47.003  27.493  24.722  1.00  0.00     0.173 A 
ATOM     71  F   UNL A   1      47.657  26.245  28.070  1.00  0.00    -0.203 F 
ATOM     72  C   UNL A   1      48.948  26.080  26.110  1.00  0.00     0.198 A 
ATOM     73  C   UNL A   1      48.139  27.031  24.060  1.00  0.00     0.198 A 
ATOM     74  F   UNL A   1      46.069  28.155  24.023  1.00  0.00    -0.203 F 
ATOM     75  F   UNL A   1      49.892  25.413  26.788  1.00  0.00    -0.200 F 
ATOM     76  C   UNL A   1      49.114  26.332  24.756  1.00  0.00     0.200 A 
ATOM     77  F   UNL A   1      48.283  27.251  22.745  1.00  0.00    -0.200 F 
ATOM     78  F   UNL A   1      50.211  25.895  24.121  1.00  0.00    -0.200 F 
ENDBRANCH  44  68
BRANCH  56  79
ATOM     79  C   UNL A   1      45.212  33.228  29.266  1.00  0.00     0.064 A 
ATOM     80  C   UNL A   1      45.151  34.259  28.316  1.00  0.00     0.173 A 
ATOM     81  C   UNL A   1      46.050  33.399  30.375  1.00  0.00     0.173 A 
ATOM     82  F   UNL A   1      44.366  34.137  27.236  1.00  0.00    -0.203 F 
ATOM     83  C   UNL A   1      45.910  35.415  28.469  1.00  0.00     0.198 A 
ATOM     84  C   UNL A   1      46.794  34.565  30.533  1.00  0.00     0.198 A 
ATOM     85  F   UNL A   1      46.130  32.444  31.314  1.00  0.00    -0.203 F 
ATOM     86  F   UNL A   1      45.853  36.380  27.540  1.00  0.00    -0.200 F 
ATOM     87  C   UNL A   1      46.730  35.568  29.577  1.00  0.00     0.200 A 
ATOM     88  F   UNL A   1      47.570  34.721  31.615  1.00  0.00    -0.200 F 
ATOM     89  F   UNL A   1      47.454  36.685  29.727  1.00  0.00    -0.200 F 
ENDBRANCH  56  79
ENDBRANCH  30  31
ENDBRANCH  23  25
ENDBRANCH  22  23
ENDBRANCH  21  22
ENDBRANCH   1  21
TORSDOF 13
ENDMDL
MODEL 2
REMARK VINA RESULT:     -12.6      4.237      9.627
REMARK SMILES Cc1ccc(-c2cc(C(=O)OCCOC(=O)c3ccc(-c4c5nc(c(-c6c(F)c(F)c(F)c(F)c6F)c6ccc([nH]6)c(-c6c(F)c(F)c(F)c(F)c6F)c6nc(c(-c7c(F)c(F)c(F)c(F)c7F)c7ccc4[nH]7)C=C6)C=C5)cc3)ccc2F)cc1O
REMARK SMILES IDX 12 1 11 2 9 3 10 4 8 5 6 6 7 7 82 8 81 9 83 10 80 11 5 12
REMARK SMILES IDX 1 13 2 14 3 15 85 16 4 17 84 18 86 19 13 21 14 22 15 23
REMARK SMILES IDX 16 24 17 25 18 26 79 27 19 28 78 29 20 30 21 31 22 32 72 33
REMARK SMILES IDX 23 34 77 35 71 36 73 37 24 38 76 39 70 40 69 41 25 43 57 44
REMARK SMILES IDX 37 45 56 46 38 47 41 48 55 49 74 50 39 51 40 52 54 54 75 55
REMARK SMILES IDX 42 56 26 57 27 58 35 59 28 60 29 61 33 62 36 63 30 64 31 65
REMARK SMILES IDX 34 66 32 67 58 68 59 69 67 70 60 71 61 72 65 73 68 74 62 75
REMARK SMILES IDX 63 76 66 77 64 78 43 79 44 80 52 81 45 82 46 83 50 84 53 85
REMARK SMILES IDX 47 86 48 87 51 88 49 89
REMARK H PARENT 86 20 73 42 41 53
REMARK Flexibility Score: inf
ROOT
ATOM      1  C   UNL A   1      31.404  28.583  26.447  1.00  0.00     0.275 C 
ENDROOT
BRANCH   1   2
ATOM      2  O   UNL A   1      31.260  27.534  25.467  1.00  0.00    -0.458 OA
BRANCH   2   3
ATOM      3  C   UNL A   1      31.178  26.274  25.963  1.00  0.00     0.338 C 
ATOM      4  O   UNL A   1      30.217  25.768  26.519  1.00  0.00    -0.246 OA
BRANCH   3   5
ATOM      5  C   UNL A   1      32.400  25.506  25.620  1.00  0.00     0.060 A 
ATOM      6  C   UNL A   1      33.332  23.415  24.759  1.00  0.00     0.018 A 
ATOM      7  C   UNL A   1      32.240  24.182  25.186  1.00  0.00     0.027 A 
ATOM      8  C   UNL A   1      34.607  23.979  24.869  1.00  0.00     0.131 A 
ATOM      9  C   UNL A   1      34.787  25.282  25.342  1.00  0.00     0.041 A 
ATOM     10  F   UNL A   1      35.692  23.277  24.507  1.00  0.00    -0.206 F 
ATOM     11  C   UNL A   1      33.680  26.059  25.699  1.00  0.00     0.019 A 
BRANCH   6  12
ATOM     12  C   UNL A   1      33.097  22.091  24.172  1.00  0.00    -0.012 A 
ATOM     13  C   UNL A   1      32.169  18.186  22.526  1.00  0.00     0.048 C 
ATOM     14  C   UNL A   1      32.484  19.548  23.072  1.00  0.00    -0.009 A 
ATOM     15  C   UNL A   1      33.173  19.664  24.289  1.00  0.00     0.008 A 
ATOM     16  C   UNL A   1      32.117  20.722  22.409  1.00  0.00     0.119 A 
ATOM     17  C   UNL A   1      33.476  20.918  24.832  1.00  0.00     0.009 A 
ATOM     18  C   UNL A   1      32.421  21.974  22.947  1.00  0.00     0.055 A 
BRANCH  16  19
ATOM     19  O   UNL A   1      31.442  20.729  21.222  1.00  0.00    -0.508 OA
ATOM     20  H   UNL A   1      31.459  19.974  20.669  1.00  0.00     0.293 HD
ENDBRANCH  16  19
ENDBRANCH   6  12
ENDBRANCH   3   5
ENDBRANCH   2   3
ENDBRANCH   1   2
BRANCH   1  21
ATOM     21  C   UNL A   1      31.555  29.939  25.759  1.00  0.00     0.275 C 
BRANCH  21  22
ATOM     22  O   UNL A   1      32.919  30.383  25.879  1.00  0.00    -0.458 OA
BRANCH  22  23
ATOM     23  C   UNL A   1      33.170  31.267  26.873  1.00  0.00     0.338 C 
ATOM     24  O   UNL A   1      32.459  32.183  27.245  1.00  0.00    -0.246 OA
BRANCH  23  25
ATOM     25  C   UNL A   1      34.484  30.968  27.476  1.00  0.00     0.060 A 
ATOM     26  C   UNL A   1      34.843  29.652  27.765  1.00  0.00     0.016 A 
ATOM     27  C   UNL A   1      35.327  32.014  27.850  1.00  0.00     0.016 A 
ATOM     28  C   UNL A   1      36.000  29.379  28.495  1.00  0.00     0.010 A 
ATOM     29  C   UNL A   1      36.533  31.733  28.503  1.00  0.00     0.010 A 
ATOM     30  C   UNL A   1      36.869  30.416  28.866  1.00  0.00    -0.014 A 
BRANCH  30  31
ATOM     31  C   UNL A   1      38.093  30.140  29.675  1.00  0.00     0.031 A 
ATOM     32  C   UNL A   1      39.214  29.323  29.085  1.00  0.00     0.074 A 
ATOM     33  C   UNL A   1      38.226  30.625  30.926  1.00  0.00     0.049 A 
ATOM     34  N   UNL A   1      40.257  28.796  29.679  1.00  0.00    -0.248 NA
ATOM     35  C   UNL A   1      39.151  29.055  27.641  1.00  0.00     0.031 C 
ATOM     36  C   UNL A   1      37.264  31.486  31.613  1.00  0.00     0.029 A 
ATOM     37  N   UNL A   1      39.239  30.467  31.844  1.00  0.00    -0.354 N 
ATOM     38  C   UNL A   1      40.931  28.081  28.697  1.00  0.00     0.074 A 
ATOM     39  C   UNL A   1      40.193  28.254  27.465  1.00  0.00     0.031 C 
ATOM     40  C   UNL A   1      37.753  31.823  32.816  1.00  0.00     0.029 A 
ATOM     41  C   UNL A   1      39.021  31.132  33.027  1.00  0.00     0.049 A 
ATOM     42  H   UNL A   1      40.045  29.928  31.669  1.00  0.00     0.167 HD
ATOM     43  C   UNL A   1      42.063  27.347  28.815  1.00  0.00     0.037 A 
ATOM     44  C   UNL A   1      39.739  31.157  34.167  1.00  0.00     0.037 A 
ATOM     45  C   UNL A   1      42.836  27.225  30.022  1.00  0.00     0.049 A 
ATOM     46  C   UNL A   1      40.981  30.316  34.279  1.00  0.00     0.074 A 
ATOM     47  C   UNL A   1      43.987  26.486  30.239  1.00  0.00     0.029 A 
ATOM     48  N   UNL A   1      42.556  27.886  31.208  1.00  0.00    -0.354 N 
ATOM     49  N   UNL A   1      41.553  29.562  33.374  1.00  0.00    -0.248 NA
ATOM     50  C   UNL A   1      41.661  30.309  35.583  1.00  0.00     0.031 C 
ATOM     51  C   UNL A   1      44.399  26.693  31.559  1.00  0.00     0.029 A 
ATOM     52  C   UNL A   1      43.521  27.583  32.154  1.00  0.00     0.049 A 
ATOM     53  H   UNL A   1      41.786  28.481  31.355  1.00  0.00     0.167 HD
ATOM     54  C   UNL A   1      42.657  28.994  33.995  1.00  0.00     0.074 A 
ATOM     55  C   UNL A   1      42.692  29.509  35.347  1.00  0.00     0.031 C 
ATOM     56  C   UNL A   1      43.554  28.115  33.489  1.00  0.00     0.037 A 
BRANCH  43  57
ATOM     57  C   UNL A   1      42.544  26.599  27.610  1.00  0.00     0.064 A 
ATOM     58  C   UNL A   1      42.104  25.288  27.369  1.00  0.00     0.173 A 
ATOM     59  C   UNL A   1      43.507  27.140  26.748  1.00  0.00     0.173 A 
ATOM     60  F   UNL A   1      41.191  24.723  28.173  1.00  0.00    -0.203 F 
ATOM     61  C   UNL A   1      42.627  24.539  26.318  1.00  0.00     0.198 A 
ATOM     62  C   UNL A   1      44.012  26.395  25.684  1.00  0.00     0.198 A 
ATOM     63  F   UNL A   1      43.952  28.393  26.935  1.00  0.00    -0.203 F 
ATOM     64  F   UNL A   1      42.220  23.276  26.130  1.00  0.00    -0.200 F 
ATOM     65  C   UNL A   1      43.580  25.093  25.478  1.00  0.00     0.200 A 
ATOM     66  F   UNL A   1      44.923  26.936  24.864  1.00  0.00    -0.200 F 
ATOM     67  F   UNL A   1      44.084  24.371  24.468  1.00  0.00    -0.200 F 
ENDBRANCH  43  57
BRANCH  44  68
ATOM     68  C   UNL A   1      39.288  31.991  35.310  1.00  0.00     0.064 A 
ATOM     69  C   UNL A   1      38.468  31.471  36.321  1.00  0.00     0.173 A 
ATOM     70  C   UNL A   1      39.676  33.334  35.410  1.00  0.00     0.173 A 
ATOM     71  F   UNL A   1      38.076  30.189  36.274  1.00  0.00    -0.203 F 
ATOM     72  C   UNL A   1      38.033  32.268  37.377  1.00  0.00     0.198 A 
ATOM     73  C   UNL A   1      39.264  34.123  36.481  1.00  0.00     0.198 A 
ATOM     74  F   UNL A   1      40.487  33.867  34.484  1.00  0.00    -0.203 F 
ATOM     75  F   UNL A   1      37.227  31.753  38.315  1.00  0.00    -0.200 F 
ATOM     76  C   UNL A   1      38.437  33.592  37.460  1.00  0.00     0.200 A 
ATOM     77  F   UNL A   1      39.680  35.394  36.574  1.00  0.00    -0.200 F 
ATOM     78  F   UNL A   1      38.034  34.354  38.486  1.00  0.00    -0.200 F 
ENDBRANCH  44  68
BRANCH  56  79
ATOM     79  C   UNL A   1      44.671  27.674  34.384  1.00  0.00     0.064 A 
ATOM     80  C   UNL A   1      45.881  28.384  34.411  1.00  0.00     0.173 A 
ATOM     81  C   UNL A   1      44.568  26.513  35.161  1.00  0.00     0.173 A 
ATOM     82  F   UNL A   1      46.028  29.498  33.679  1.00  0.00    -0.203 F 
ATOM     83  C   UNL A   1      46.952  27.940  35.181  1.00  0.00     0.198 A 
ATOM     84  C   UNL A   1      45.635  26.082  35.945  1.00  0.00     0.198 A 
ATOM     85  F   UNL A   1      43.425  25.810  35.175  1.00  0.00    -0.203 F 
ATOM     86  F   UNL A   1      48.106  28.620  35.178  1.00  0.00    -0.200 F 
ATOM     87  C   UNL A   1      46.827  26.791  35.949  1.00  0.00     0.200 A 
ATOM     88  F   UNL A   1      45.507  24.984  36.702  1.00  0.00    -0.200 F 
ATOM     89  F   UNL A   1      47.856  26.369  36.696  1.00  0.00    -0.200 F 
ENDBRANCH  56  79
ENDBRANCH  30  31
ENDBRANCH  23  25
ENDBRANCH  22  23
ENDBRANCH  21  22
ENDBRANCH   1  21
TORSDOF 13
ENDMDL
MODEL 3
REMARK VINA RESULT:     -12.6      4.275      9.784
REMARK SMILES Cc1ccc(-c2cc(C(=O)OCCOC(=O)c3ccc(-c4c5nc(c(-c6c(F)c(F)c(F)c(F)c6F)c6ccc([nH]6)c(-c6c(F)c(F)c(F)c(F)c6F)c6nc(c(-c7c(F)c(F)c(F)c(F)c7F)c7ccc4[nH]7)C=C6)C=C5)cc3)ccc2F)cc1O
REMARK SMILES IDX 12 1 11 2 9 3 10 4 8 5 6 6 7 7 82 8 81 9 83 10 80 11 5 12
REMARK SMILES IDX 1 13 2 14 3 15 85 16 4 17 84 18 86 19 13 21 14 22 15 23
REMARK SMILES IDX 16 24 17 25 18 26 79 27 19 28 78 29 20 30 21 31 22 32 72 33
REMARK SMILES IDX 23 34 77 35 71 36 73 37 24 38 76 39 70 40 69 41 25 43 57 44
REMARK SMILES IDX 37 45 56 46 38 47 41 48 55 49 74 50 39 51 40 52 54 54 75 55
REMARK SMILES IDX 42 56 26 57 27 58 35 59 28 60 29 61 33 62 36 63 30 64 31 65
REMARK SMILES IDX 34 66 32 67 58 68 59 69 67 70 60 71 61 72 65 73 68 74 62 75
REMARK SMILES IDX 63 76 66 77 64 78 43 79 44 80 52 81 45 82 46 83 50 84 53 85
REMARK SMILES IDX 47 86 48 87 51 88 49 89
REMARK H PARENT 86 20 73 42 41 53
REMARK Flexibility Score: inf
ROOT
ATOM      1  C   UNL A   1      31.603  28.587  26.416  1.00  0.00     0.275 C 
ENDROOT
BRANCH   1   2
ATOM      2  O   UNL A   1      31.767  27.482  25.501  1.00  0.00    -0.458 OA
BRANCH   2   3
ATOM      3  C   UNL A   1      31.533  26.251  26.019  1.00  0.00     0.338 C 
ATOM      4  O   UNL A   1      30.503  25.863  26.545  1.00  0.00    -0.246 OA
BRANCH   3   5
ATOM      5  C   UNL A   1      32.680  25.351  25.744  1.00  0.00     0.060 A 
ATOM      6  C   UNL A   1      33.421  23.081  25.212  1.00  0.00     0.018 A 
ATOM      7  C   UNL A   1      32.410  23.986  25.563  1.00  0.00     0.027 A 
ATOM      8  C   UNL A   1      34.731  23.564  25.141  1.00  0.00     0.131 A 
ATOM      9  C   UNL A   1      35.021  24.914  25.362  1.00  0.00     0.041 A 
ATOM     10  F   UNL A   1      35.743  22.735  24.843  1.00  0.00    -0.206 F 
ATOM     11  C   UNL A   1      33.992  25.817  25.643  1.00  0.00     0.019 A 
BRANCH   6  12
ATOM     12  C   UNL A   1      33.066  21.695  24.886  1.00  0.00    -0.012 A 
ATOM     13  C   UNL A   1      32.257  17.547  23.905  1.00  0.00     0.048 C 
ATOM     14  C   UNL A   1      32.536  18.976  24.270  1.00  0.00    -0.009 A 
ATOM     15  C   UNL A   1      32.480  19.967  23.278  1.00  0.00     0.008 A 
ATOM     16  C   UNL A   1      32.848  19.368  25.575  1.00  0.00     0.119 A 
ATOM     17  C   UNL A   1      32.743  21.309  23.581  1.00  0.00     0.009 A 
ATOM     18  C   UNL A   1      33.105  20.705  25.880  1.00  0.00     0.055 A 
BRANCH  16  19
ATOM     19  O   UNL A   1      32.932  18.489  26.617  1.00  0.00    -0.508 OA
ATOM     20  H   UNL A   1      32.587  17.623  26.529  1.00  0.00     0.293 HD
ENDBRANCH  16  19
ENDBRANCH   6  12
ENDBRANCH   3   5
ENDBRANCH   2   3
ENDBRANCH   1   2
BRANCH   1  21
ATOM     21  C   UNL A   1      31.730  29.916  25.674  1.00  0.00     0.275 C 
BRANCH  21  22
ATOM     22  O   UNL A   1      33.071  30.417  25.821  1.00  0.00    -0.458 OA
BRANCH  22  23
ATOM     23  C   UNL A   1      33.278  31.262  26.858  1.00  0.00     0.338 C 
ATOM     24  O   UNL A   1      32.545  32.155  27.242  1.00  0.00    -0.246 OA
BRANCH  23  25
ATOM     25  C   UNL A   1      34.576  30.953  27.492  1.00  0.00     0.060 A 
ATOM     26  C   UNL A   1      34.894  29.641  27.839  1.00  0.00     0.016 A 
ATOM     27  C   UNL A   1      35.441  31.991  27.837  1.00  0.00     0.016 A 
ATOM     28  C   UNL A   1      36.034  29.367  28.596  1.00  0.00     0.010 A 
ATOM     29  C   UNL A   1      36.630  31.705  28.519  1.00  0.00     0.010 A 
ATOM     30  C   UNL A   1      36.925  30.394  28.939  1.00  0.00    -0.014 A 
BRANCH  30  31
ATOM     31  C   UNL A   1      38.130  30.120  29.776  1.00  0.00     0.031 A 
ATOM     32  C   UNL A   1      39.254  29.282  29.222  1.00  0.00     0.074 A 
ATOM     33  C   UNL A   1      38.243  30.622  31.022  1.00  0.00     0.049 A 
ATOM     34  N   UNL A   1      40.279  28.753  29.845  1.00  0.00    -0.248 NA
ATOM     35  C   UNL A   1      39.217  28.992  27.781  1.00  0.00     0.031 C 
ATOM     36  C   UNL A   1      37.276  31.504  31.676  1.00  0.00     0.029 A 
ATOM     37  N   UNL A   1      39.236  30.468  31.963  1.00  0.00    -0.354 N 
ATOM     38  C   UNL A   1      40.965  28.017  28.888  1.00  0.00     0.074 A 
ATOM     39  C   UNL A   1      40.253  28.177  27.639  1.00  0.00     0.031 C 
ATOM     40  C   UNL A   1      37.745  31.855  32.883  1.00  0.00     0.029 A 
ATOM     41  C   UNL A   1      39.001  31.154  33.130  1.00  0.00     0.049 A 
ATOM     42  H   UNL A   1      40.039  29.919  31.813  1.00  0.00     0.167 HD
ATOM     43  C   UNL A   1      42.086  27.273  29.041  1.00  0.00     0.037 A 
ATOM     44  C   UNL A   1      39.696  31.190  34.284  1.00  0.00     0.037 A 
ATOM     45  C   UNL A   1      42.835  27.163  30.264  1.00  0.00     0.049 A 
ATOM     46  C   UNL A   1      40.927  30.339  34.434  1.00  0.00     0.074 A 
ATOM     47  C   UNL A   1      43.972  26.415  30.516  1.00  0.00     0.029 A 
ATOM     48  N   UNL A   1      42.538  27.844  31.434  1.00  0.00    -0.354 N 
ATOM     49  N   UNL A   1      41.509  29.565  33.553  1.00  0.00    -0.248 NA
ATOM     50  C   UNL A   1      41.581  30.345  35.752  1.00  0.00     0.031 C 
ATOM     51  C   UNL A   1      44.361  26.639  31.841  1.00  0.00     0.029 A 
ATOM     52  C   UNL A   1      43.480  27.547  32.404  1.00  0.00     0.049 A 
ATOM     53  H   UNL A   1      41.771  28.450  31.556  1.00  0.00     0.167 HD
ATOM     54  C   UNL A   1      42.594  28.996  34.205  1.00  0.00     0.074 A 
ATOM     55  C   UNL A   1      42.608  29.532  35.549  1.00  0.00     0.031 C 
ATOM     56  C   UNL A   1      43.492  28.100  33.731  1.00  0.00     0.037 A 
BRANCH  43  57
ATOM     57  C   UNL A   1      42.584  26.501  27.857  1.00  0.00     0.064 A 
ATOM     58  C   UNL A   1      43.463  27.100  26.941  1.00  0.00     0.173 A 
ATOM     59  C   UNL A   1      42.122  25.208  27.579  1.00  0.00     0.173 A 
ATOM     60  F   UNL A   1      43.925  28.340  27.159  1.00  0.00    -0.203 F 
ATOM     61  C   UNL A   1      43.846  26.437  25.778  1.00  0.00     0.198 A 
ATOM     62  C   UNL A   1      42.524  24.539  26.425  1.00  0.00     0.198 A 
ATOM     63  F   UNL A   1      41.286  24.593  28.430  1.00  0.00    -0.203 F 
ATOM     64  F   UNL A   1      44.656  27.043  24.899  1.00  0.00    -0.200 F 
ATOM     65  C   UNL A   1      43.376  25.159  25.521  1.00  0.00     0.200 A 
ATOM     66  F   UNL A   1      42.081  23.298  26.183  1.00  0.00    -0.200 F 
ATOM     67  F   UNL A   1      43.743  24.522  24.400  1.00  0.00    -0.200 F 
ENDBRANCH  43  57
BRANCH  44  68
ATOM     68  C   UNL A   1      39.231  32.047  35.405  1.00  0.00     0.064 A 
ATOM     69  C   UNL A   1      38.400  31.546  36.417  1.00  0.00     0.173 A 
ATOM     70  C   UNL A   1      39.616  33.392  35.482  1.00  0.00     0.173 A 
ATOM     71  F   UNL A   1      38.010  30.263  36.392  1.00  0.00    -0.203 F 
ATOM     72  C   UNL A   1      37.953  32.364  37.451  1.00  0.00     0.198 A 
ATOM     73  C   UNL A   1      39.191  34.202  36.532  1.00  0.00     0.198 A 
ATOM     74  F   UNL A   1      40.437  33.908  34.554  1.00  0.00    -0.203 F 
ATOM     75  F   UNL A   1      37.136  31.868  38.391  1.00  0.00    -0.200 F 
ATOM     76  C   UNL A   1      38.353  33.690  37.512  1.00  0.00     0.200 A 
ATOM     77  F   UNL A   1      39.604  35.476  36.604  1.00  0.00    -0.200 F 
ATOM     78  F   UNL A   1      37.938  34.472  38.518  1.00  0.00    -0.200 F 
ENDBRANCH  44  68
BRANCH  56  79
ATOM     79  C   UNL A   1      44.587  27.661  34.655  1.00  0.00     0.064 A 
ATOM     80  C   UNL A   1      44.408  26.547  35.488  1.00  0.00     0.173 A 
ATOM     81  C   UNL A   1      45.782  28.383  34.763  1.00  0.00     0.173 A 
ATOM     82  F   UNL A   1      43.277  25.829  35.423  1.00  0.00    -0.203 F 
ATOM     83  C   UNL A   1      45.389  26.176  36.403  1.00  0.00     0.198 A 
ATOM     84  C   UNL A   1      46.769  27.998  35.667  1.00  0.00     0.198 A 
ATOM     85  F   UNL A   1      46.001  29.449  33.977  1.00  0.00    -0.203 F 
ATOM     86  F   UNL A   1      45.190  25.120  37.205  1.00  0.00    -0.200 F 
ATOM     87  C   UNL A   1      46.568  26.900  36.491  1.00  0.00     0.200 A 
ATOM     88  F   UNL A   1      47.916  28.686  35.737  1.00  0.00    -0.200 F 
ATOM     89  F   UNL A   1      47.514  26.537  37.367  1.00  0.00    -0.200 F 
ENDBRANCH  56  79
ENDBRANCH  30  31
ENDBRANCH  23  25
ENDBRANCH  22  23
ENDBRANCH  21  22
ENDBRANCH   1  21
TORSDOF 13
ENDMDL
