MODEL 1
REMARK VINA RESULT:     -11.1      0.000      0.000
REMARK SMILES O=C(CS[C@@H]1CCS(=O)(=O)C1)Nc1nc(CC(=O)OCCOC(=O)c2ccc(-c3c4nc(c(-c5c(F)c(F)c(F)c(F)c5F)c5ccc([nH]5)c(-c5c(F)c(F)c(F)c(F)c5F)c5nc(c(-c6c(F)c(F)c(F)c(F)c6F)c6ccc3[nH]6)C=C5)C=C4)cc2)cs1
REMARK SMILES IDX 19 1 17 2 18 3 16 4 15 5 13 6 14 7 89 8 88 9 12 10 1 11 2 12
REMARK SMILES IDX 3 14 4 15 5 16 6 17 11 18 7 19 8 20 9 21 10 22 20 23 21 24
REMARK SMILES IDX 22 25 23 26 24 27 25 28 26 29 87 30 27 31 86 32 28 33 29 34
REMARK SMILES IDX 30 35 80 36 31 37 85 38 79 39 81 40 32 41 84 42 78 43 77 44
REMARK SMILES IDX 33 46 65 47 45 48 64 49 46 50 49 51 63 52 82 53 47 54 48 55
REMARK SMILES IDX 62 57 83 58 50 59 34 60 35 61 43 62 36 63 37 64 41 65 44 66
REMARK SMILES IDX 38 67 39 68 42 69 40 70 66 71 67 72 75 73 68 74 69 75 73 76
REMARK SMILES IDX 76 77 70 78 71 79 74 80 72 81 51 82 52 83 60 84 53 85 54 86
REMARK SMILES IDX 58 87 61 88 55 89 56 90 59 91 57 92
REMARK H PARENT 12 13 81 45 49 56
REMARK Flexibility Score: inf
ROOT
ATOM      1  O   UNL A   1      37.853  21.111  25.166  1.00  0.00    -0.462 OA
ENDROOT
BRANCH   1   2
ATOM      2  C   UNL A   1      36.775  21.612  24.508  1.00  0.00     0.312 C 
ATOM      3  O   UNL A   1      36.841  22.366  23.541  1.00  0.00    -0.252 OA
BRANCH   2   4
ATOM      4  C   UNL A   1      35.451  21.196  25.097  1.00  0.00     0.179 C 
BRANCH   4   5
ATOM      5  C   UNL A   1      34.248  21.867  24.526  1.00  0.00     0.065 A 
ATOM      6  C   UNL A   1      33.044  23.675  24.160  1.00  0.00     0.189 A 
ATOM      7  N   UNL A   1      34.127  23.230  24.734  1.00  0.00    -0.224 NA
ATOM      8  S   UNL A   1      32.082  22.526  23.352  1.00  0.00    -0.105 S 
ATOM      9  C   UNL A   1      33.256  21.329  23.724  1.00  0.00     0.093 A 
BRANCH   6  10
ATOM     10  N   UNL A   1      32.599  24.957  24.056  1.00  0.00    -0.301 N 
ATOM     11  O   UNL A   1      33.761  25.507  22.118  1.00  0.00    -0.274 OA
ATOM     12  C   UNL A   1      32.954  25.771  23.004  1.00  0.00     0.236 C 
ATOM     13  H   UNL A   1      32.006  25.314  24.755  1.00  0.00     0.172 HD
BRANCH  12  14
ATOM     14  C   UNL A   1      32.235  27.112  22.999  1.00  0.00     0.170 C 
BRANCH  14  15
ATOM     15  S   UNL A   1      33.353  28.529  23.296  1.00  0.00    -0.148 SA
BRANCH  15  16
ATOM     16  C   UNL A   1      32.774  29.263  24.886  1.00  0.00     0.063 C 
ATOM     17  C   UNL A   1      33.747  29.354  26.064  1.00  0.00     0.031 C 
ATOM     18  C   UNL A   1      31.458  28.683  25.393  1.00  0.00     0.151 C 
ATOM     19  C   UNL A   1      33.559  28.143  26.965  1.00  0.00     0.138 C 
ATOM     20  S   UNL A   1      31.851  27.667  26.798  1.00  0.00     0.151 S 
ATOM     21  O   UNL A   1      31.792  26.280  26.391  1.00  0.00    -0.229 OA
ATOM     22  O   UNL A   1      31.116  28.169  27.941  1.00  0.00    -0.229 OA
ENDBRANCH  15  16
ENDBRANCH  14  15
ENDBRANCH  12  14
ENDBRANCH   6  10
ENDBRANCH   4   5
ENDBRANCH   2   4
ENDBRANCH   1   2
BRANCH   1  23
ATOM     23  C   UNL A   1      38.109  19.705  24.982  1.00  0.00     0.274 C 
BRANCH  23  24
ATOM     24  C   UNL A   1      39.359  19.262  25.743  1.00  0.00     0.275 C 
BRANCH  24  25
ATOM     25  O   UNL A   1      40.246  20.375  25.957  1.00  0.00    -0.458 OA
BRANCH  25  26
ATOM     26  C   UNL A   1      40.715  20.510  27.214  1.00  0.00     0.338 C 
ATOM     27  O   UNL A   1      40.980  19.629  28.015  1.00  0.00    -0.246 OA
BRANCH  26  28
ATOM     28  C   UNL A   1      40.933  21.929  27.518  1.00  0.00     0.060 A 
ATOM     29  C   UNL A   1      40.313  22.901  26.730  1.00  0.00     0.016 A 
ATOM     30  C   UNL A   1      41.877  22.286  28.480  1.00  0.00     0.016 A 
ATOM     31  C   UNL A   1      40.664  24.242  26.877  1.00  0.00     0.010 A 
ATOM     32  C   UNL A   1      42.202  23.634  28.650  1.00  0.00     0.010 A 
ATOM     33  C   UNL A   1      41.620  24.617  27.830  1.00  0.00    -0.014 A 
BRANCH  33  34
ATOM     34  C   UNL A   1      42.063  26.029  27.932  1.00  0.00     0.031 A 
ATOM     35  C   UNL A   1      43.384  26.443  27.346  1.00  0.00     0.074 A 
ATOM     36  C   UNL A   1      41.285  26.937  28.550  1.00  0.00     0.049 A 
ATOM     37  N   UNL A   1      44.003  27.594  27.423  1.00  0.00    -0.248 NA
ATOM     38  C   UNL A   1      44.108  25.420  26.576  1.00  0.00     0.031 C 
ATOM     39  C   UNL A   1      39.968  26.667  29.126  1.00  0.00     0.029 A 
ATOM     40  N   UNL A   1      41.497  28.268  28.803  1.00  0.00    -0.354 N 
ATOM     41  C   UNL A   1      45.198  27.427  26.737  1.00  0.00     0.074 A 
ATOM     42  C   UNL A   1      45.227  26.059  26.264  1.00  0.00     0.031 C 
ATOM     43  C   UNL A   1      39.488  27.799  29.665  1.00  0.00     0.029 A 
ATOM     44  C   UNL A   1      40.484  28.857  29.517  1.00  0.00     0.049 A 
ATOM     45  H   UNL A   1      42.299  28.755  28.503  1.00  0.00     0.167 HD
ATOM     46  C   UNL A   1      46.180  28.335  26.518  1.00  0.00     0.037 A 
ATOM     47  C   UNL A   1      40.382  30.103  30.018  1.00  0.00     0.037 A 
ATOM     48  C   UNL A   1      46.139  29.701  26.974  1.00  0.00     0.049 A 
ATOM     49  C   UNL A   1      41.504  31.080  29.797  1.00  0.00     0.074 A 
ATOM     50  C   UNL A   1      47.078  30.700  26.792  1.00  0.00     0.029 A 
ATOM     51  N   UNL A   1      45.099  30.259  27.702  1.00  0.00    -0.354 N 
ATOM     52  N   UNL A   1      42.633  30.913  29.152  1.00  0.00    -0.248 NA
ATOM     53  C   UNL A   1      41.337  32.420  30.376  1.00  0.00     0.031 C 
ATOM     54  C   UNL A   1      46.623  31.854  27.443  1.00  0.00     0.029 A 
ATOM     55  C   UNL A   1      45.379  31.584  27.990  1.00  0.00     0.049 A 
ATOM     56  H   UNL A   1      44.281  29.782  27.974  1.00  0.00     0.167 HD
ATOM     57  C   UNL A   1      43.297  32.130  29.224  1.00  0.00     0.074 A 
ATOM     58  C   UNL A   1      42.441  33.030  29.967  1.00  0.00     0.031 C 
ATOM     59  C   UNL A   1      44.509  32.471  28.720  1.00  0.00     0.037 A 
BRANCH  46  60
ATOM     60  C   UNL A   1      47.398  27.872  25.773  1.00  0.00     0.064 A 
ATOM     61  C   UNL A   1      48.563  27.469  26.442  1.00  0.00     0.173 A 
ATOM     62  C   UNL A   1      47.387  27.801  24.372  1.00  0.00     0.173 A 
ATOM     63  F   UNL A   1      48.630  27.533  27.781  1.00  0.00    -0.203 F 
ATOM     64  C   UNL A   1      49.683  27.040  25.733  1.00  0.00     0.198 A 
ATOM     65  C   UNL A   1      48.499  27.344  23.668  1.00  0.00     0.198 A 
ATOM     66  F   UNL A   1      46.296  28.169  23.685  1.00  0.00    -0.203 F 
ATOM     67  F   UNL A   1      50.802  26.706  26.391  1.00  0.00    -0.200 F 
ATOM     68  C   UNL A   1      49.648  26.971  24.349  1.00  0.00     0.200 A 
ATOM     69  F   UNL A   1      48.459  27.269  22.331  1.00  0.00    -0.200 F 
ATOM     70  F   UNL A   1      50.724  26.553  23.669  1.00  0.00    -0.200 F 
ENDBRANCH  46  60
BRANCH  47  71
ATOM     71  C   UNL A   1      39.172  30.493  30.785  1.00  0.00     0.064 A 
ATOM     72  C   UNL A   1      38.051  31.030  30.138  1.00  0.00     0.173 A 
ATOM     73  C   UNL A   1      39.112  30.338  32.178  1.00  0.00     0.173 A 
ATOM     74  F   UNL A   1      38.073  31.221  28.811  1.00  0.00    -0.203 F 
ATOM     75  C   UNL A   1      36.920  31.409  30.857  1.00  0.00     0.198 A 
ATOM     76  C   UNL A   1      37.969  30.692  32.891  1.00  0.00     0.198 A 
ATOM     77  F   UNL A   1      40.159  29.829  32.843  1.00  0.00    -0.203 F 
ATOM     78  F   UNL A   1      35.877  31.959  30.219  1.00  0.00    -0.200 F 
ATOM     79  C   UNL A   1      36.877  31.234  32.232  1.00  0.00     0.200 A 
ATOM     80  F   UNL A   1      37.928  30.510  34.219  1.00  0.00    -0.200 F 
ATOM     81  F   UNL A   1      35.787  31.594  32.922  1.00  0.00    -0.200 F 
ENDBRANCH  47  71
BRANCH  59  82
ATOM     82  C   UNL A   1      44.959  33.888  28.917  1.00  0.00     0.064 A 
ATOM     83  C   UNL A   1      45.742  34.268  30.016  1.00  0.00     0.173 A 
ATOM     84  C   UNL A   1      44.622  34.874  27.976  1.00  0.00     0.173 A 
ATOM     85  F   UNL A   1      46.076  33.366  30.951  1.00  0.00    -0.203 F 
ATOM     86  C   UNL A   1      46.151  35.590  30.181  1.00  0.00     0.198 A 
ATOM     87  C   UNL A   1      45.055  36.188  28.129  1.00  0.00     0.198 A 
ATOM     88  F   UNL A   1      43.881  34.560  26.904  1.00  0.00    -0.203 F 
ATOM     89  F   UNL A   1      46.858  35.940  31.263  1.00  0.00    -0.200 F 
ATOM     90  C   UNL A   1      45.812  36.546  29.235  1.00  0.00     0.200 A 
ATOM     91  F   UNL A   1      44.738  37.109  27.209  1.00  0.00    -0.200 F 
ATOM     92  F   UNL A   1      46.209  37.816  29.393  1.00  0.00    -0.200 F 
ENDBRANCH  59  82
ENDBRANCH  33  34
ENDBRANCH  26  28
ENDBRANCH  25  26
ENDBRANCH  24  25
ENDBRANCH  23  24
ENDBRANCH   1  23
TORSDOF 16
ENDMDL
MODEL 2
REMARK VINA RESULT:     -10.9      3.230      8.932
REMARK SMILES O=C(CS[C@@H]1CCS(=O)(=O)C1)Nc1nc(CC(=O)OCCOC(=O)c2ccc(-c3c4nc(c(-c5c(F)c(F)c(F)c(F)c5F)c5ccc([nH]5)c(-c5c(F)c(F)c(F)c(F)c5F)c5nc(c(-c6c(F)c(F)c(F)c(F)c6F)c6ccc3[nH]6)C=C5)C=C4)cc2)cs1
REMARK SMILES IDX 19 1 17 2 18 3 16 4 15 5 13 6 14 7 89 8 88 9 12 10 1 11 2 12
REMARK SMILES IDX 3 14 4 15 5 16 6 17 11 18 7 19 8 20 9 21 10 22 20 23 21 24
REMARK SMILES IDX 22 25 23 26 24 27 25 28 26 29 87 30 27 31 86 32 28 33 29 34
REMARK SMILES IDX 30 35 80 36 31 37 85 38 79 39 81 40 32 41 84 42 78 43 77 44
REMARK SMILES IDX 33 46 65 47 45 48 64 49 46 50 49 51 63 52 82 53 47 54 48 55
REMARK SMILES IDX 62 57 83 58 50 59 34 60 35 61 43 62 36 63 37 64 41 65 44 66
REMARK SMILES IDX 38 67 39 68 42 69 40 70 66 71 67 72 75 73 68 74 69 75 73 76
REMARK SMILES IDX 76 77 70 78 71 79 74 80 72 81 51 82 52 83 60 84 53 85 54 86
REMARK SMILES IDX 58 87 61 88 55 89 56 90 59 91 57 92
REMARK H PARENT 12 13 81 45 49 56
REMARK Flexibility Score: inf
ROOT
ATOM      1  O   UNL A   1      34.805  33.657  30.343  1.00  0.00    -0.462 OA
ENDROOT
BRANCH   1   2
ATOM      2  C   UNL A   1      34.008  33.839  29.259  1.00  0.00     0.312 C 
ATOM      3  O   UNL A   1      32.868  34.294  29.304  1.00  0.00    -0.252 OA
BRANCH   2   4
ATOM      4  C   UNL A   1      34.628  33.388  27.961  1.00  0.00     0.179 C 
BRANCH   4   5
ATOM      5  C   UNL A   1      34.583  31.921  27.695  1.00  0.00     0.065 A 
ATOM      6  C   UNL A   1      33.670  30.167  26.726  1.00  0.00     0.189 A 
ATOM      7  N   UNL A   1      33.565  31.457  26.882  1.00  0.00    -0.224 NA
ATOM      8  S   UNL A   1      34.961  29.404  27.533  1.00  0.00    -0.105 S 
ATOM      9  C   UNL A   1      35.486  30.945  28.081  1.00  0.00     0.093 A 
BRANCH   6  10
ATOM     10  N   UNL A   1      32.926  29.339  25.942  1.00  0.00    -0.301 N 
ATOM     11  O   UNL A   1      31.539  28.523  27.622  1.00  0.00    -0.274 OA
ATOM     12  C   UNL A   1      31.872  28.609  26.443  1.00  0.00     0.236 C 
ATOM     13  H   UNL A   1      33.149  29.259  24.987  1.00  0.00     0.172 HD
BRANCH  12  14
ATOM     14  C   UNL A   1      31.083  27.863  25.378  1.00  0.00     0.170 C 
BRANCH  14  15
ATOM     15  S   UNL A   1      31.035  26.055  25.650  1.00  0.00    -0.148 SA
BRANCH  15  16
ATOM     16  C   UNL A   1      32.303  25.369  24.500  1.00  0.00     0.063 C 
ATOM     17  C   UNL A   1      33.611  26.136  24.287  1.00  0.00     0.031 C 
ATOM     18  C   UNL A   1      31.751  24.973  23.134  1.00  0.00     0.151 C 
ATOM     19  C   UNL A   1      33.482  27.016  23.053  1.00  0.00     0.138 C 
ATOM     20  S   UNL A   1      32.342  26.180  21.970  1.00  0.00     0.151 S 
ATOM     21  O   UNL A   1      31.256  27.081  21.653  1.00  0.00    -0.229 OA
ATOM     22  O   UNL A   1      33.099  25.490  20.945  1.00  0.00    -0.229 OA
ENDBRANCH  15  16
ENDBRANCH  14  15
ENDBRANCH  12  14
ENDBRANCH   6  10
ENDBRANCH   4   5
ENDBRANCH   2   4
ENDBRANCH   1   2
BRANCH   1  23
ATOM     23  C   UNL A   1      34.364  34.279  31.566  1.00  0.00     0.274 C 
BRANCH  23  24
ATOM     24  C   UNL A   1      34.342  33.280  32.723  1.00  0.00     0.275 C 
BRANCH  24  25
ATOM     25  O   UNL A   1      35.137  32.122  32.411  1.00  0.00    -0.458 OA
BRANCH  25  26
ATOM     26  C   UNL A   1      36.280  31.997  33.117  1.00  0.00     0.338 C 
ATOM     27  O   UNL A   1      36.492  32.333  34.270  1.00  0.00    -0.246 OA
BRANCH  26  28
ATOM     28  C   UNL A   1      37.298  31.320  32.305  1.00  0.00     0.060 A 
ATOM     29  C   UNL A   1      38.252  30.516  32.933  1.00  0.00     0.016 A 
ATOM     30  C   UNL A   1      37.399  31.616  30.946  1.00  0.00     0.016 A 
ATOM     31  C   UNL A   1      39.338  30.030  32.208  1.00  0.00     0.010 A 
ATOM     32  C   UNL A   1      38.470  31.099  30.213  1.00  0.00     0.010 A 
ATOM     33  C   UNL A   1      39.461  30.328  30.844  1.00  0.00    -0.014 A 
BRANCH  33  34
ATOM     34  C   UNL A   1      40.658  29.888  30.086  1.00  0.00     0.031 A 
ATOM     35  C   UNL A   1      41.788  30.851  29.847  1.00  0.00     0.074 A 
ATOM     36  C   UNL A   1      40.732  28.632  29.612  1.00  0.00     0.049 A 
ATOM     37  N   UNL A   1      42.866  30.704  29.120  1.00  0.00    -0.248 NA
ATOM     38  C   UNL A   1      41.684  32.160  30.511  1.00  0.00     0.031 C 
ATOM     39  C   UNL A   1      39.720  27.595  29.808  1.00  0.00     0.029 A 
ATOM     40  N   UNL A   1      41.700  28.018  28.858  1.00  0.00    -0.354 N 
ATOM     41  C   UNL A   1      43.555  31.905  29.216  1.00  0.00     0.074 A 
ATOM     42  C   UNL A   1      42.765  32.779  30.059  1.00  0.00     0.031 C 
ATOM     43  C   UNL A   1      40.120  26.472  29.191  1.00  0.00     0.029 A 
ATOM     44  C   UNL A   1      41.390  26.726  28.515  1.00  0.00     0.049 A 
ATOM     45  H   UNL A   1      42.536  28.462  28.587  1.00  0.00     0.167 HD
ATOM     46  C   UNL A   1      44.741  32.245  28.657  1.00  0.00     0.037 A 
ATOM     47  C   UNL A   1      42.043  25.854  27.724  1.00  0.00     0.037 A 
ATOM     48  C   UNL A   1      45.533  31.366  27.835  1.00  0.00     0.049 A 
ATOM     49  C   UNL A   1      43.337  26.271  27.079  1.00  0.00     0.074 A 
ATOM     50  C   UNL A   1      46.753  31.614  27.232  1.00  0.00     0.029 A 
ATOM     51  N   UNL A   1      45.181  30.067  27.503  1.00  0.00    -0.354 N 
ATOM     52  N   UNL A   1      43.979  27.410  27.171  1.00  0.00    -0.248 NA
ATOM     53  C   UNL A   1      43.997  25.279  26.220  1.00  0.00     0.031 C 
ATOM     54  C   UNL A   1      47.122  30.477  26.504  1.00  0.00     0.029 A 
ATOM     55  C   UNL A   1      46.153  29.504  26.692  1.00  0.00     0.049 A 
ATOM     56  H   UNL A   1      44.360  29.610  27.801  1.00  0.00     0.167 HD
ATOM     57  C   UNL A   1      45.128  27.263  26.406  1.00  0.00     0.074 A 
ATOM     58  C   UNL A   1      45.101  25.921  25.864  1.00  0.00     0.031 C 
ATOM     59  C   UNL A   1      46.117  28.161  26.172  1.00  0.00     0.037 A 
BRANCH  46  60
ATOM     60  C   UNL A   1      45.242  33.640  28.892  1.00  0.00     0.064 A 
ATOM     61  C   UNL A   1      46.098  33.947  29.960  1.00  0.00     0.173 A 
ATOM     62  C   UNL A   1      44.884  34.678  28.018  1.00  0.00     0.173 A 
ATOM     63  F   UNL A   1      46.457  32.993  30.832  1.00  0.00    -0.203 F 
ATOM     64  C   UNL A   1      46.555  35.248  30.160  1.00  0.00     0.198 A 
ATOM     65  C   UNL A   1      45.366  35.972  28.205  1.00  0.00     0.198 A 
ATOM     66  F   UNL A   1      44.072  34.437  26.979  1.00  0.00    -0.203 F 
ATOM     67  F   UNL A   1      47.334  35.527  31.214  1.00  0.00    -0.200 F 
ATOM     68  C   UNL A   1      46.195  36.256  29.279  1.00  0.00     0.200 A 
ATOM     69  F   UNL A   1      45.025  36.942  27.347  1.00  0.00    -0.200 F 
ATOM     70  F   UNL A   1      46.640  37.506  29.471  1.00  0.00    -0.200 F 
ENDBRANCH  46  60
BRANCH  47  71
ATOM     71  C   UNL A   1      41.477  24.501  27.492  1.00  0.00     0.064 A 
ATOM     72  C   UNL A   1      42.074  23.365  28.054  1.00  0.00     0.173 A 
ATOM     73  C   UNL A   1      40.331  24.318  26.704  1.00  0.00     0.173 A 
ATOM     74  F   UNL A   1      43.186  23.490  28.792  1.00  0.00    -0.203 F 
ATOM     75  C   UNL A   1      41.553  22.093  27.826  1.00  0.00     0.198 A 
ATOM     76  C   UNL A   1      39.795  23.048  26.501  1.00  0.00     0.198 A 
ATOM     77  F   UNL A   1      39.724  25.374  26.144  1.00  0.00    -0.203 F 
ATOM     78  F   UNL A   1      42.166  21.019  28.341  1.00  0.00    -0.200 F 
ATOM     79  C   UNL A   1      40.410  21.936  27.055  1.00  0.00     0.200 A 
ATOM     80  F   UNL A   1      38.685  22.902  25.764  1.00  0.00    -0.200 F 
ATOM     81  F   UNL A   1      39.907  20.713  26.842  1.00  0.00    -0.200 F 
ENDBRANCH  47  71
BRANCH  59  82
ATOM     82  C   UNL A   1      47.271  27.705  25.330  1.00  0.00     0.064 A 
ATOM     83  C   UNL A   1      47.257  27.820  23.933  1.00  0.00     0.173 A 
ATOM     84  C   UNL A   1      48.419  27.169  25.936  1.00  0.00     0.173 A 
ATOM     85  F   UNL A   1      46.178  28.311  23.307  1.00  0.00    -0.203 F 
ATOM     86  C   UNL A   1      48.341  27.391  23.169  1.00  0.00     0.198 A 
ATOM     87  C   UNL A   1      49.510  26.766  25.171  1.00  0.00     0.198 A 
ATOM     88  F   UNL A   1      48.484  27.043  27.269  1.00  0.00    -0.203 F 
ATOM     89  F   UNL A   1      48.287  27.467  21.833  1.00  0.00    -0.200 F 
ATOM     90  C   UNL A   1      49.467  26.871  23.788  1.00  0.00     0.200 A 
ATOM     91  F   UNL A   1      50.603  26.275  25.771  1.00  0.00    -0.200 F 
ATOM     92  F   UNL A   1      50.509  26.462  23.052  1.00  0.00    -0.200 F 
ENDBRANCH  59  82
ENDBRANCH  33  34
ENDBRANCH  26  28
ENDBRANCH  25  26
ENDBRANCH  24  25
ENDBRANCH  23  24
ENDBRANCH   1  23
TORSDOF 16
ENDMDL
MODEL 3
REMARK VINA RESULT:     -10.8      4.603      7.062
REMARK SMILES O=C(CS[C@@H]1CCS(=O)(=O)C1)Nc1nc(CC(=O)OCCOC(=O)c2ccc(-c3c4nc(c(-c5c(F)c(F)c(F)c(F)c5F)c5ccc([nH]5)c(-c5c(F)c(F)c(F)c(F)c5F)c5nc(c(-c6c(F)c(F)c(F)c(F)c6F)c6ccc3[nH]6)C=C5)C=C4)cc2)cs1
REMARK SMILES IDX 19 1 17 2 18 3 16 4 15 5 13 6 14 7 89 8 88 9 12 10 1 11 2 12
REMARK SMILES IDX 3 14 4 15 5 16 6 17 11 18 7 19 8 20 9 21 10 22 20 23 21 24
REMARK SMILES IDX 22 25 23 26 24 27 25 28 26 29 87 30 27 31 86 32 28 33 29 34
REMARK SMILES IDX 30 35 80 36 31 37 85 38 79 39 81 40 32 41 84 42 78 43 77 44
REMARK SMILES IDX 33 46 65 47 45 48 64 49 46 50 49 51 63 52 82 53 47 54 48 55
REMARK SMILES IDX 62 57 83 58 50 59 34 60 35 61 43 62 36 63 37 64 41 65 44 66
REMARK SMILES IDX 38 67 39 68 42 69 40 70 66 71 67 72 75 73 68 74 69 75 73 76
REMARK SMILES IDX 76 77 70 78 71 79 74 80 72 81 51 82 52 83 60 84 53 85 54 86
REMARK SMILES IDX 58 87 61 88 55 89 56 90 59 91 57 92
REMARK H PARENT 12 13 81 45 49 56
REMARK Flexibility Score: inf
ROOT
ATOM      1  O   UNL A   1      41.634  21.439  26.268  1.00  0.00    -0.462 OA
ENDROOT
BRANCH   1   2
ATOM      2  C   UNL A   1      40.757  20.508  26.727  1.00  0.00     0.312 C 
ATOM      3  O   UNL A   1      40.850  19.943  27.813  1.00  0.00    -0.252 OA
BRANCH   2   4
ATOM      4  C   UNL A   1      39.650  20.180  25.757  1.00  0.00     0.179 C 
BRANCH   4   5
ATOM      5  C   UNL A   1      38.611  21.234  25.578  1.00  0.00     0.065 A 
ATOM      6  C   UNL A   1      36.663  21.904  24.798  1.00  0.00     0.189 A 
ATOM      7  N   UNL A   1      37.485  20.893  24.850  1.00  0.00    -0.224 NA
ATOM      8  S   UNL A   1      37.158  23.330  25.586  1.00  0.00    -0.105 S 
ATOM      9  C   UNL A   1      38.567  22.506  26.121  1.00  0.00     0.093 A 
BRANCH   6  10
ATOM     10  N   UNL A   1      35.416  21.963  24.256  1.00  0.00    -0.301 N 
ATOM     11  O   UNL A   1      34.265  21.100  26.083  1.00  0.00    -0.274 OA
ATOM     12  C   UNL A   1      34.292  21.601  24.962  1.00  0.00     0.236 C 
ATOM     13  H   UNL A   1      35.315  22.274  23.327  1.00  0.00     0.172 HD
BRANCH  12  14
ATOM     14  C   UNL A   1      32.990  21.879  24.226  1.00  0.00     0.170 C 
BRANCH  14  15
ATOM     15  S   UNL A   1      33.208  22.936  22.750  1.00  0.00    -0.148 SA
BRANCH  15  16
ATOM     16  C   UNL A   1      32.166  24.423  23.073  1.00  0.00     0.063 C 
ATOM     17  C   UNL A   1      32.794  25.641  23.754  1.00  0.00     0.031 C 
ATOM     18  C   UNL A   1      30.844  24.113  23.768  1.00  0.00     0.151 C 
ATOM     19  C   UNL A   1      32.533  25.571  25.250  1.00  0.00     0.138 C 
ATOM     20  S   UNL A   1      30.990  24.701  25.439  1.00  0.00     0.151 S 
ATOM     21  O   UNL A   1      31.202  23.563  26.308  1.00  0.00    -0.229 OA
ATOM     22  O   UNL A   1      29.938  25.668  25.675  1.00  0.00    -0.229 OA
ENDBRANCH  15  16
ENDBRANCH  14  15
ENDBRANCH  12  14
ENDBRANCH   6  10
ENDBRANCH   4   5
ENDBRANCH   2   4
ENDBRANCH   1   2
BRANCH   1  23
ATOM     23  C   UNL A   1      42.988  20.990  26.069  1.00  0.00     0.274 C 
BRANCH  23  24
ATOM     24  C   UNL A   1      43.743  21.905  25.105  1.00  0.00     0.275 C 
BRANCH  24  25
ATOM     25  O   UNL A   1      43.021  23.133  24.898  1.00  0.00    -0.458 OA
BRANCH  25  26
ATOM     26  C   UNL A   1      43.758  24.260  24.984  1.00  0.00     0.338 C 
ATOM     27  O   UNL A   1      44.771  24.544  24.368  1.00  0.00    -0.246 OA
BRANCH  26  28
ATOM     28  C   UNL A   1      43.136  25.193  25.931  1.00  0.00     0.060 A 
ATOM     29  C   UNL A   1      43.648  26.487  26.053  1.00  0.00     0.016 A 
ATOM     30  C   UNL A   1      42.153  24.730  26.804  1.00  0.00     0.016 A 
ATOM     31  C   UNL A   1      43.202  27.317  27.081  1.00  0.00     0.010 A 
ATOM     32  C   UNL A   1      41.682  25.575  27.813  1.00  0.00     0.010 A 
ATOM     33  C   UNL A   1      42.224  26.863  27.975  1.00  0.00    -0.014 A 
BRANCH  33  34
ATOM     34  C   UNL A   1      41.808  27.706  29.123  1.00  0.00     0.031 A 
ATOM     35  C   UNL A   1      42.580  27.648  30.412  1.00  0.00     0.074 A 
ATOM     36  C   UNL A   1      40.742  28.519  29.011  1.00  0.00     0.049 A 
ATOM     37  N   UNL A   1      42.319  28.215  31.562  1.00  0.00    -0.248 NA
ATOM     38  C   UNL A   1      43.805  26.835  30.405  1.00  0.00     0.031 C 
ATOM     39  C   UNL A   1      39.935  28.691  27.804  1.00  0.00     0.029 A 
ATOM     40  N   UNL A   1      40.150  29.345  29.932  1.00  0.00    -0.354 N 
ATOM     41  C   UNL A   1      43.330  27.809  32.422  1.00  0.00     0.074 A 
ATOM     42  C   UNL A   1      44.201  26.932  31.667  1.00  0.00     0.031 C 
ATOM     43  C   UNL A   1      38.952  29.569  28.057  1.00  0.00     0.029 A 
ATOM     44  C   UNL A   1      39.031  29.982  29.456  1.00  0.00     0.049 A 
ATOM     45  H   UNL A   1      40.493  29.468  30.847  1.00  0.00     0.167 HD
ATOM     46  C   UNL A   1      43.517  28.141  33.722  1.00  0.00     0.037 A 
ATOM     47  C   UNL A   1      38.154  30.787  30.085  1.00  0.00     0.037 A 
ATOM     48  C   UNL A   1      42.660  29.029  34.465  1.00  0.00     0.049 A 
ATOM     49  C   UNL A   1      38.360  31.106  31.541  1.00  0.00     0.074 A 
ATOM     50  C   UNL A   1      42.771  29.436  35.783  1.00  0.00     0.029 A 
ATOM     51  N   UNL A   1      41.530  29.648  33.951  1.00  0.00    -0.354 N 
ATOM     52  N   UNL A   1      39.315  30.714  32.348  1.00  0.00    -0.248 NA
ATOM     53  C   UNL A   1      37.363  31.981  32.172  1.00  0.00     0.031 C 
ATOM     54  C   UNL A   1      41.688  30.273  36.077  1.00  0.00     0.029 A 
ATOM     55  C   UNL A   1      40.928  30.423  34.928  1.00  0.00     0.049 A 
ATOM     56  H   UNL A   1      41.204  29.551  33.026  1.00  0.00     0.167 HD
ATOM     57  C   UNL A   1      39.050  31.313  33.572  1.00  0.00     0.074 A 
ATOM     58  C   UNL A   1      37.851  32.105  33.399  1.00  0.00     0.031 C 
ATOM     59  C   UNL A   1      39.740  31.216  34.735  1.00  0.00     0.037 A 
BRANCH  46  60
ATOM     60  C   UNL A   1      44.681  27.518  34.436  1.00  0.00     0.064 A 
ATOM     61  C   UNL A   1      44.569  26.285  35.095  1.00  0.00     0.173 A 
ATOM     62  C   UNL A   1      45.934  28.150  34.433  1.00  0.00     0.173 A 
ATOM     63  F   UNL A   1      43.389  25.649  35.141  1.00  0.00    -0.203 F 
ATOM     64  C   UNL A   1      45.662  25.722  35.750  1.00  0.00     0.198 A 
ATOM     65  C   UNL A   1      47.032  27.569  35.064  1.00  0.00     0.198 A 
ATOM     66  F   UNL A   1      46.097  29.327  33.812  1.00  0.00    -0.203 F 
ATOM     67  F   UNL A   1      45.520  24.566  36.414  1.00  0.00    -0.200 F 
ATOM     68  C   UNL A   1      46.893  26.360  35.728  1.00  0.00     0.200 A 
ATOM     69  F   UNL A   1      48.222  28.183  35.033  1.00  0.00    -0.200 F 
ATOM     70  F   UNL A   1      47.945  25.814  36.354  1.00  0.00    -0.200 F 
ENDBRANCH  46  60
BRANCH  47  71
ATOM     71  C   UNL A   1      36.995  31.339  29.340  1.00  0.00     0.064 A 
ATOM     72  C   UNL A   1      35.897  30.533  29.016  1.00  0.00     0.173 A 
ATOM     73  C   UNL A   1      36.962  32.683  28.937  1.00  0.00     0.173 A 
ATOM     74  F   UNL A   1      35.895  29.236  29.357  1.00  0.00    -0.203 F 
ATOM     75  C   UNL A   1      34.814  31.045  28.305  1.00  0.00     0.198 A 
ATOM     76  C   UNL A   1      35.866  33.201  28.251  1.00  0.00     0.198 A 
ATOM     77  F   UNL A   1      37.989  33.496  29.224  1.00  0.00    -0.203 F 
ATOM     78  F   UNL A   1      33.794  30.242  27.971  1.00  0.00    -0.200 F 
ATOM     79  C   UNL A   1      34.796  32.381  27.929  1.00  0.00     0.200 A 
ATOM     80  F   UNL A   1      35.849  34.494  27.899  1.00  0.00    -0.200 F 
ATOM     81  F   UNL A   1      33.752  32.874  27.250  1.00  0.00    -0.200 F 
ENDBRANCH  47  71
BRANCH  59  82
ATOM     82  C   UNL A   1      39.239  32.020  35.898  1.00  0.00     0.064 A 
ATOM     83  C   UNL A   1      39.662  33.338  36.121  1.00  0.00     0.173 A 
ATOM     84  C   UNL A   1      38.300  31.471  36.785  1.00  0.00     0.173 A 
ATOM     85  F   UNL A   1      40.570  33.902  35.311  1.00  0.00    -0.203 F 
ATOM     86  C   UNL A   1      39.184  34.069  37.207  1.00  0.00     0.198 A 
ATOM     87  C   UNL A   1      37.804  32.214  37.853  1.00  0.00     0.198 A 
ATOM     88  F   UNL A   1      37.859  30.217  36.611  1.00  0.00    -0.203 F 
ATOM     89  F   UNL A   1      39.638  35.310  37.428  1.00  0.00    -0.200 F 
ATOM     90  C   UNL A   1      38.252  33.508  38.067  1.00  0.00     0.200 A 
ATOM     91  F   UNL A   1      36.894  31.675  38.677  1.00  0.00    -0.200 F 
ATOM     92  F   UNL A   1      37.790  34.214  39.109  1.00  0.00    -0.200 F 
ENDBRANCH  59  82
ENDBRANCH  33  34
ENDBRANCH  26  28
ENDBRANCH  25  26
ENDBRANCH  24  25
ENDBRANCH  23  24
ENDBRANCH   1  23
TORSDOF 16
ENDMDL
