MODEL 1
REMARK VINA RESULT:     -11.7      0.000      0.000
REMARK SMILES CC(C)(CC(=O)OCCOC(=O)c1ccc(-c2c3nc(c(-c4c(F)c(F)c(F)c(F)c4F)c4ccc([nH]4)c(-c4c(F)c(F)c(F)c(F)c4F)c4nc(c(-c5c(F)c(F)c(F)c(F)c5F)c5ccc2[nH]5)C=C4)C=C3)cc1)NC(=O)c1nc(C(C)(C)C)n[nH]1
REMARK SMILES IDX 8 1 7 2 5 3 6 4 4 5 2 6 1 7 3 8 76 9 77 10 78 12 79 13 80 14
REMARK SMILES IDX 87 15 81 16 86 17 82 19 83 20 84 21 85 22 9 23 10 24 11 25
REMARK SMILES IDX 12 26 13 27 14 28 75 29 15 30 74 31 16 32 17 33 18 34 68 35
REMARK SMILES IDX 19 36 73 37 67 38 69 39 20 40 72 41 66 42 65 43 21 45 53 46
REMARK SMILES IDX 33 47 52 48 34 49 37 50 51 51 70 52 35 53 36 54 50 56 71 57
REMARK SMILES IDX 38 58 22 59 23 60 31 61 24 62 25 63 29 64 32 65 26 66 27 67
REMARK SMILES IDX 30 68 28 69 54 70 55 71 63 72 56 73 57 74 61 75 64 76 58 77
REMARK SMILES IDX 59 78 62 79 60 80 39 81 40 82 48 83 41 84 42 85 46 86 49 87
REMARK SMILES IDX 43 88 44 89 47 90 45 91
REMARK H PARENT 76 11 87 18 69 44 37 55
REMARK Flexibility Score: inf
ROOT
ATOM      1  C   UNL A   1      31.729  29.230  24.746  1.00  0.00     0.274 C 
ENDROOT
BRANCH   1   2
ATOM      2  O   UNL A   1      30.435  29.207  24.117  1.00  0.00    -0.462 OA
BRANCH   2   3
ATOM      3  C   UNL A   1      30.188  28.208  23.246  1.00  0.00     0.308 C 
ATOM      4  O   UNL A   1      30.220  28.317  22.024  1.00  0.00    -0.252 OA
BRANCH   3   5
ATOM      5  C   UNL A   1      29.888  26.876  23.900  1.00  0.00     0.150 C 
BRANCH   5   6
ATOM      6  C   UNL A   1      30.991  25.797  23.956  1.00  0.00     0.045 C 
ATOM      7  C   UNL A   1      31.245  25.385  25.417  1.00  0.00     0.035 C 
ATOM      8  C   UNL A   1      30.426  24.540  23.243  1.00  0.00     0.035 C 
BRANCH   6   9
ATOM      9  N   UNL A   1      32.170  26.216  23.164  1.00  0.00    -0.344 N 
ATOM     10  C   UNL A   1      33.244  25.468  22.736  1.00  0.00     0.289 C 
ATOM     11  H   UNL A   1      32.188  27.166  22.906  1.00  0.00     0.164 HD
ATOM     12  O   UNL A   1      33.576  25.574  21.554  1.00  0.00    -0.266 OA
BRANCH  10  13
ATOM     13  C   UNL A   1      33.916  24.580  23.644  1.00  0.00     0.214 A 
ATOM     14  N   UNL A   1      33.809  23.264  23.707  1.00  0.00    -0.207 NA
ATOM     15  N   UNL A   1      34.712  25.004  24.662  1.00  0.00    -0.255 N 
ATOM     16  C   UNL A   1      34.564  22.934  24.809  1.00  0.00     0.156 A 
ATOM     17  N   UNL A   1      35.184  23.976  25.384  1.00  0.00    -0.158 NA
ATOM     18  H   UNL A   1      34.917  25.949  24.847  1.00  0.00     0.192 HD
BRANCH  16  19
ATOM     19  C   UNL A   1      34.633  21.538  25.383  1.00  0.00     0.024 C 
ATOM     20  C   UNL A   1      33.459  20.700  24.836  1.00  0.00     0.019 C 
ATOM     21  C   UNL A   1      35.944  20.828  24.995  1.00  0.00     0.019 C 
ATOM     22  C   UNL A   1      34.551  21.580  26.920  1.00  0.00     0.019 C 
ENDBRANCH  16  19
ENDBRANCH  10  13
ENDBRANCH   6   9
ENDBRANCH   5   6
ENDBRANCH   3   5
ENDBRANCH   2   3
ENDBRANCH   1   2
BRANCH   1  23
ATOM     23  C   UNL A   1      31.774  30.321  25.809  1.00  0.00     0.275 C 
BRANCH  23  24
ATOM     24  O   UNL A   1      33.141  30.524  26.213  1.00  0.00    -0.458 OA
BRANCH  24  25
ATOM     25  C   UNL A   1      33.344  31.487  27.139  1.00  0.00     0.338 C 
ATOM     26  O   UNL A   1      32.650  32.451  27.399  1.00  0.00    -0.246 OA
BRANCH  25  27
ATOM     27  C   UNL A   1      34.599  31.194  27.841  1.00  0.00     0.060 A 
ATOM     28  C   UNL A   1      35.550  32.203  28.004  1.00  0.00     0.016 A 
ATOM     29  C   UNL A   1      34.850  29.897  28.280  1.00  0.00     0.016 A 
ATOM     30  C   UNL A   1      36.774  31.913  28.600  1.00  0.00     0.010 A 
ATOM     31  C   UNL A   1      36.054  29.620  28.928  1.00  0.00     0.010 A 
ATOM     32  C   UNL A   1      37.025  30.625  29.089  1.00  0.00    -0.014 A 
BRANCH  32  33
ATOM     33  C   UNL A   1      38.279  30.325  29.817  1.00  0.00     0.031 A 
ATOM     34  C   UNL A   1      39.285  29.380  29.231  1.00  0.00     0.074 A 
ATOM     35  C   UNL A   1      38.475  30.864  31.034  1.00  0.00     0.049 A 
ATOM     36  N   UNL A   1      40.335  28.839  29.793  1.00  0.00    -0.248 NA
ATOM     37  C   UNL A   1      39.080  28.987  27.828  1.00  0.00     0.031 C 
ATOM     38  C   UNL A   1      37.579  31.819  31.688  1.00  0.00     0.029 A 
ATOM     39  N   UNL A   1      39.479  30.668  31.949  1.00  0.00    -0.354 N 
ATOM     40  C   UNL A   1      40.898  28.017  28.826  1.00  0.00     0.074 A 
ATOM     41  C   UNL A   1      40.073  28.128  27.642  1.00  0.00     0.031 C 
ATOM     42  C   UNL A   1      38.067  32.121  32.900  1.00  0.00     0.029 A 
ATOM     43  C   UNL A   1      39.270  31.328  33.134  1.00  0.00     0.049 A 
ATOM     44  H   UNL A   1      40.272  30.111  31.771  1.00  0.00     0.167 HD
ATOM     45  C   UNL A   1      42.001  27.240  28.929  1.00  0.00     0.037 A 
ATOM     46  C   UNL A   1      39.940  31.259  34.299  1.00  0.00     0.037 A 
ATOM     47  C   UNL A   1      42.823  27.154  30.109  1.00  0.00     0.049 A 
ATOM     48  C   UNL A   1      41.121  30.339  34.409  1.00  0.00     0.074 A 
ATOM     49  C   UNL A   1      43.987  26.431  30.301  1.00  0.00     0.029 A 
ATOM     50  N   UNL A   1      42.560  27.815  31.300  1.00  0.00    -0.354 N 
ATOM     51  N   UNL A   1      41.645  29.559  33.494  1.00  0.00    -0.248 NA
ATOM     52  C   UNL A   1      41.789  30.271  35.714  1.00  0.00     0.031 C 
ATOM     53  C   UNL A   1      44.407  26.622  31.623  1.00  0.00     0.029 A 
ATOM     54  C   UNL A   1      43.524  27.492  32.242  1.00  0.00     0.049 A 
ATOM     55  H   UNL A   1      41.802  28.423  31.454  1.00  0.00     0.167 HD
ATOM     56  C   UNL A   1      42.704  28.910  34.110  1.00  0.00     0.074 A 
ATOM     57  C   UNL A   1      42.761  29.402  35.471  1.00  0.00     0.031 C 
ATOM     58  C   UNL A   1      43.550  27.985  33.596  1.00  0.00     0.037 A 
BRANCH  45  59
ATOM     59  C   UNL A   1      42.371  26.395  27.748  1.00  0.00     0.064 A 
ATOM     60  C   UNL A   1      43.322  26.816  26.808  1.00  0.00     0.173 A 
ATOM     61  C   UNL A   1      41.798  25.125  27.580  1.00  0.00     0.173 A 
ATOM     62  F   UNL A   1      43.890  28.027  26.918  1.00  0.00    -0.203 F 
ATOM     63  C   UNL A   1      43.676  26.003  25.734  1.00  0.00     0.198 A 
ATOM     64  C   UNL A   1      42.168  24.306  26.517  1.00  0.00     0.198 A 
ATOM     65  F   UNL A   1      40.885  24.675  28.453  1.00  0.00    -0.203 F 
ATOM     66  F   UNL A   1      44.566  26.436  24.831  1.00  0.00    -0.200 F 
ATOM     67  C   UNL A   1      43.103  24.746  25.593  1.00  0.00     0.200 A 
ATOM     68  F   UNL A   1      41.621  23.089  26.387  1.00  0.00    -0.200 F 
ATOM     69  F   UNL A   1      43.451  23.962  24.563  1.00  0.00    -0.200 F 
ENDBRANCH  45  59
BRANCH  46  70
ATOM     70  C   UNL A   1      39.468  32.050  35.464  1.00  0.00     0.064 A 
ATOM     71  C   UNL A   1      39.890  33.372  35.655  1.00  0.00     0.173 A 
ATOM     72  C   UNL A   1      38.565  31.510  36.392  1.00  0.00     0.173 A 
ATOM     73  F   UNL A   1      40.770  33.923  34.807  1.00  0.00    -0.203 F 
ATOM     74  C   UNL A   1      39.426  34.124  36.732  1.00  0.00     0.198 A 
ATOM     75  C   UNL A   1      38.083  32.270  37.453  1.00  0.00     0.198 A 
ATOM     76  F   UNL A   1      38.133  30.248  36.251  1.00  0.00    -0.203 F 
ATOM     77  F   UNL A   1      39.865  35.377  36.910  1.00  0.00    -0.200 F 
ATOM     78  C   UNL A   1      38.517  33.575  37.625  1.00  0.00     0.200 A 
ATOM     79  F   UNL A   1      37.195  31.740  38.307  1.00  0.00    -0.200 F 
ATOM     80  F   UNL A   1      38.063  34.304  38.655  1.00  0.00    -0.200 F 
ENDBRANCH  46  70
BRANCH  58  81
ATOM     81  C   UNL A   1      44.607  27.450  34.511  1.00  0.00     0.064 A 
ATOM     82  C   UNL A   1      45.837  28.107  34.663  1.00  0.00     0.173 A 
ATOM     83  C   UNL A   1      44.378  26.293  35.268  1.00  0.00     0.173 A 
ATOM     84  F   UNL A   1      46.107  29.207  33.943  1.00  0.00    -0.203 F 
ATOM     85  C   UNL A   1      46.806  27.614  35.530  1.00  0.00     0.198 A 
ATOM     86  C   UNL A   1      45.341  25.816  36.152  1.00  0.00     0.198 A 
ATOM     87  F   UNL A   1      43.215  25.633  35.158  1.00  0.00    -0.203 F 
ATOM     88  F   UNL A   1      47.989  28.236  35.633  1.00  0.00    -0.200 F 
ATOM     89  C   UNL A   1      46.556  26.474  36.279  1.00  0.00     0.200 A 
ATOM     90  F   UNL A   1      45.095  24.718  36.880  1.00  0.00    -0.200 F 
ATOM     91  F   UNL A   1      47.489  26.003  37.118  1.00  0.00    -0.200 F 
ENDBRANCH  58  81
ENDBRANCH  32  33
ENDBRANCH  25  27
ENDBRANCH  24  25
ENDBRANCH  23  24
ENDBRANCH   1  23
TORSDOF 15
ENDMDL
MODEL 2
REMARK VINA RESULT:     -11.7      0.936      2.401
REMARK SMILES CC(C)(CC(=O)OCCOC(=O)c1ccc(-c2c3nc(c(-c4c(F)c(F)c(F)c(F)c4F)c4ccc([nH]4)c(-c4c(F)c(F)c(F)c(F)c4F)c4nc(c(-c5c(F)c(F)c(F)c(F)c5F)c5ccc2[nH]5)C=C4)C=C3)cc1)NC(=O)c1nc(C(C)(C)C)n[nH]1
REMARK SMILES IDX 8 1 7 2 5 3 6 4 4 5 2 6 1 7 3 8 76 9 77 10 78 12 79 13 80 14
REMARK SMILES IDX 87 15 81 16 86 17 82 19 83 20 84 21 85 22 9 23 10 24 11 25
REMARK SMILES IDX 12 26 13 27 14 28 75 29 15 30 74 31 16 32 17 33 18 34 68 35
REMARK SMILES IDX 19 36 73 37 67 38 69 39 20 40 72 41 66 42 65 43 21 45 53 46
REMARK SMILES IDX 33 47 52 48 34 49 37 50 51 51 70 52 35 53 36 54 50 56 71 57
REMARK SMILES IDX 38 58 22 59 23 60 31 61 24 62 25 63 29 64 32 65 26 66 27 67
REMARK SMILES IDX 30 68 28 69 54 70 55 71 63 72 56 73 57 74 61 75 64 76 58 77
REMARK SMILES IDX 59 78 62 79 60 80 39 81 40 82 48 83 41 84 42 85 46 86 49 87
REMARK SMILES IDX 43 88 44 89 47 90 45 91
REMARK H PARENT 76 11 87 18 69 44 37 55
REMARK Flexibility Score: inf
ROOT
ATOM      1  C   UNL A   1      31.749  28.699  26.996  1.00  0.00     0.274 C 
ENDROOT
BRANCH   1   2
ATOM      2  O   UNL A   1      31.296  27.662  26.106  1.00  0.00    -0.462 OA
BRANCH   2   3
ATOM      3  C   UNL A   1      32.239  26.940  25.468  1.00  0.00     0.308 C 
ATOM      4  O   UNL A   1      32.716  25.887  25.879  1.00  0.00    -0.252 OA
BRANCH   3   5
ATOM      5  C   UNL A   1      32.667  27.520  24.137  1.00  0.00     0.150 C 
BRANCH   5   6
ATOM      6  C   UNL A   1      31.777  27.298  22.895  1.00  0.00     0.045 C 
ATOM      7  C   UNL A   1      30.624  26.341  23.243  1.00  0.00     0.035 C 
ATOM      8  C   UNL A   1      31.121  28.665  22.564  1.00  0.00     0.035 C 
BRANCH   6   9
ATOM      9  N   UNL A   1      32.604  26.951  21.717  1.00  0.00    -0.344 N 
ATOM     10  C   UNL A   1      32.884  25.714  21.182  1.00  0.00     0.289 C 
ATOM     11  H   UNL A   1      33.011  27.715  21.248  1.00  0.00     0.164 HD
ATOM     12  O   UNL A   1      32.751  25.576  19.965  1.00  0.00    -0.266 OA
BRANCH  10  13
ATOM     13  C   UNL A   1      33.283  24.629  22.036  1.00  0.00     0.214 A 
ATOM     14  N   UNL A   1      34.298  24.603  22.882  1.00  0.00    -0.207 NA
ATOM     15  N   UNL A   1      32.696  23.402  22.019  1.00  0.00    -0.255 N 
ATOM     16  C   UNL A   1      34.292  23.310  23.349  1.00  0.00     0.156 A 
ATOM     17  N   UNL A   1      33.282  22.559  22.885  1.00  0.00    -0.158 NA
ATOM     18  H   UNL A   1      31.937  23.160  21.441  1.00  0.00     0.192 HD
BRANCH  16  19
ATOM     19  C   UNL A   1      35.371  22.743  24.244  1.00  0.00     0.024 C 
ATOM     20  C   UNL A   1      36.690  22.636  23.452  1.00  0.00     0.019 C 
ATOM     21  C   UNL A   1      35.624  23.643  25.468  1.00  0.00     0.019 C 
ATOM     22  C   UNL A   1      34.973  21.346  24.755  1.00  0.00     0.019 C 
ENDBRANCH  16  19
ENDBRANCH  10  13
ENDBRANCH   6   9
ENDBRANCH   5   6
ENDBRANCH   3   5
ENDBRANCH   2   3
ENDBRANCH   1   2
BRANCH   1  23
ATOM     23  C   UNL A   1      31.885  30.015  26.238  1.00  0.00     0.275 C 
BRANCH  23  24
ATOM     24  O   UNL A   1      33.256  30.449  26.295  1.00  0.00    -0.458 OA
BRANCH  24  25
ATOM     25  C   UNL A   1      33.512  31.480  27.129  1.00  0.00     0.338 C 
ATOM     26  O   UNL A   1      32.867  32.496  27.304  1.00  0.00    -0.246 OA
BRANCH  25  27
ATOM     27  C   UNL A   1      34.757  31.191  27.850  1.00  0.00     0.060 A 
ATOM     28  C   UNL A   1      35.728  32.186  27.977  1.00  0.00     0.016 A 
ATOM     29  C   UNL A   1      34.979  29.909  28.346  1.00  0.00     0.016 A 
ATOM     30  C   UNL A   1      36.942  31.896  28.592  1.00  0.00     0.010 A 
ATOM     31  C   UNL A   1      36.173  29.635  29.011  1.00  0.00     0.010 A 
ATOM     32  C   UNL A   1      37.164  30.625  29.136  1.00  0.00    -0.014 A 
BRANCH  32  33
ATOM     33  C   UNL A   1      38.407  30.329  29.884  1.00  0.00     0.031 A 
ATOM     34  C   UNL A   1      39.426  29.388  29.315  1.00  0.00     0.074 A 
ATOM     35  C   UNL A   1      38.583  30.871  31.104  1.00  0.00     0.049 A 
ATOM     36  N   UNL A   1      40.469  28.851  29.894  1.00  0.00    -0.248 NA
ATOM     37  C   UNL A   1      39.244  28.993  27.909  1.00  0.00     0.031 C 
ATOM     38  C   UNL A   1      37.673  31.823  31.742  1.00  0.00     0.029 A 
ATOM     39  N   UNL A   1      39.573  30.679  32.034  1.00  0.00    -0.354 N 
ATOM     40  C   UNL A   1      41.050  28.030  28.936  1.00  0.00     0.074 A 
ATOM     41  C   UNL A   1      40.243  28.138  27.739  1.00  0.00     0.031 C 
ATOM     42  C   UNL A   1      38.142  32.127  32.962  1.00  0.00     0.029 A 
ATOM     43  C   UNL A   1      39.344  31.340  33.215  1.00  0.00     0.049 A 
ATOM     44  H   UNL A   1      40.370  30.125  31.869  1.00  0.00     0.167 HD
ATOM     45  C   UNL A   1      42.154  27.257  29.057  1.00  0.00     0.037 A 
ATOM     46  C   UNL A   1      39.995  31.274  34.391  1.00  0.00     0.037 A 
ATOM     47  C   UNL A   1      42.957  27.175  30.249  1.00  0.00     0.049 A 
ATOM     48  C   UNL A   1      41.177  30.357  34.519  1.00  0.00     0.074 A 
ATOM     49  C   UNL A   1      44.121  26.457  30.460  1.00  0.00     0.029 A 
ATOM     50  N   UNL A   1      42.674  27.836  31.436  1.00  0.00    -0.354 N 
ATOM     51  N   UNL A   1      41.718  29.579  33.614  1.00  0.00    -0.248 NA
ATOM     52  C   UNL A   1      41.826  30.294  35.835  1.00  0.00     0.031 C 
ATOM     53  C   UNL A   1      44.519  26.650  31.788  1.00  0.00     0.029 A 
ATOM     54  C   UNL A   1      43.624  27.518  32.393  1.00  0.00     0.049 A 
ATOM     55  H   UNL A   1      41.911  28.441  31.577  1.00  0.00     0.167 HD
ATOM     56  C   UNL A   1      42.770  28.934  34.246  1.00  0.00     0.074 A 
ATOM     57  C   UNL A   1      42.804  29.427  35.608  1.00  0.00     0.031 C 
ATOM     58  C   UNL A   1      43.627  28.012  33.746  1.00  0.00     0.037 A 
BRANCH  45  59
ATOM     59  C   UNL A   1      42.545  26.413  27.882  1.00  0.00     0.064 A 
ATOM     60  C   UNL A   1      41.984  25.147  27.663  1.00  0.00     0.173 A 
ATOM     61  C   UNL A   1      43.461  26.900  26.936  1.00  0.00     0.173 A 
ATOM     62  F   UNL A   1      41.114  24.633  28.544  1.00  0.00    -0.203 F 
ATOM     63  C   UNL A   1      42.338  24.392  26.548  1.00  0.00     0.198 A 
ATOM     64  C   UNL A   1      43.796  26.151  25.812  1.00  0.00     0.198 A 
ATOM     65  F   UNL A   1      44.022  28.107  27.099  1.00  0.00    -0.203 F 
ATOM     66  F   UNL A   1      41.813  23.171  26.372  1.00  0.00    -0.200 F 
ATOM     67  C   UNL A   1      43.238  24.896  25.620  1.00  0.00     0.200 A 
ATOM     68  F   UNL A   1      44.659  26.644  24.912  1.00  0.00    -0.200 F 
ATOM     69  F   UNL A   1      43.571  24.171  24.543  1.00  0.00    -0.200 F 
ENDBRANCH  45  59
BRANCH  46  70
ATOM     70  C   UNL A   1      39.503  32.064  35.547  1.00  0.00     0.064 A 
ATOM     71  C   UNL A   1      38.542  31.540  36.421  1.00  0.00     0.173 A 
ATOM     72  C   UNL A   1      40.003  33.347  35.817  1.00  0.00     0.173 A 
ATOM     73  F   UNL A   1      38.018  30.327  36.190  1.00  0.00    -0.203 F 
ATOM     74  C   UNL A   1      38.099  32.270  37.522  1.00  0.00     0.198 A 
ATOM     75  C   UNL A   1      39.578  34.065  36.931  1.00  0.00     0.198 A 
ATOM     76  F   UNL A   1      40.923  33.892  35.008  1.00  0.00    -0.203 F 
ATOM     77  F   UNL A   1      37.159  31.758  38.328  1.00  0.00    -0.200 F 
ATOM     78  C   UNL A   1      38.623  33.528  37.780  1.00  0.00     0.200 A 
ATOM     79  F   UNL A   1      40.097  35.275  37.184  1.00  0.00    -0.200 F 
ATOM     80  F   UNL A   1      38.205  34.225  38.846  1.00  0.00    -0.200 F 
ENDBRANCH  46  70
BRANCH  58  81
ATOM     81  C   UNL A   1      44.672  27.482  34.679  1.00  0.00     0.064 A 
ATOM     82  C   UNL A   1      44.455  26.313  35.424  1.00  0.00     0.173 A 
ATOM     83  C   UNL A   1      45.910  28.126  34.805  1.00  0.00     0.173 A 
ATOM     84  F   UNL A   1      43.277  25.675  35.350  1.00  0.00    -0.203 F 
ATOM     85  C   UNL A   1      45.438  25.817  36.274  1.00  0.00     0.198 A 
ATOM     86  C   UNL A   1      46.899  27.614  35.639  1.00  0.00     0.198 A 
ATOM     87  F   UNL A   1      46.163  29.245  34.110  1.00  0.00    -0.203 F 
ATOM     88  F   UNL A   1      45.198  24.720  37.005  1.00  0.00    -0.200 F 
ATOM     89  C   UNL A   1      46.661  26.463  36.376  1.00  0.00     0.200 A 
ATOM     90  F   UNL A   1      48.084  28.235  35.731  1.00  0.00    -0.200 F 
ATOM     91  F   UNL A   1      47.609  25.982  37.192  1.00  0.00    -0.200 F 
ENDBRANCH  58  81
ENDBRANCH  32  33
ENDBRANCH  25  27
ENDBRANCH  24  25
ENDBRANCH  23  24
ENDBRANCH   1  23
TORSDOF 15
ENDMDL
MODEL 3
REMARK VINA RESULT:     -11.6      1.504      2.050
REMARK SMILES CC(C)(CC(=O)OCCOC(=O)c1ccc(-c2c3nc(c(-c4c(F)c(F)c(F)c(F)c4F)c4ccc([nH]4)c(-c4c(F)c(F)c(F)c(F)c4F)c4nc(c(-c5c(F)c(F)c(F)c(F)c5F)c5ccc2[nH]5)C=C4)C=C3)cc1)NC(=O)c1nc(C(C)(C)C)n[nH]1
REMARK SMILES IDX 8 1 7 2 5 3 6 4 4 5 2 6 1 7 3 8 76 9 77 10 78 12 79 13 80 14
REMARK SMILES IDX 87 15 81 16 86 17 82 19 83 20 84 21 85 22 9 23 10 24 11 25
REMARK SMILES IDX 12 26 13 27 14 28 75 29 15 30 74 31 16 32 17 33 18 34 68 35
REMARK SMILES IDX 19 36 73 37 67 38 69 39 20 40 72 41 66 42 65 43 21 45 53 46
REMARK SMILES IDX 33 47 52 48 34 49 37 50 51 51 70 52 35 53 36 54 50 56 71 57
REMARK SMILES IDX 38 58 22 59 23 60 31 61 24 62 25 63 29 64 32 65 26 66 27 67
REMARK SMILES IDX 30 68 28 69 54 70 55 71 63 72 56 73 57 74 61 75 64 76 58 77
REMARK SMILES IDX 59 78 62 79 60 80 39 81 40 82 48 83 41 84 42 85 46 86 49 87
REMARK SMILES IDX 43 88 44 89 47 90 45 91
REMARK H PARENT 76 11 87 18 69 44 37 55
REMARK Flexibility Score: inf
ROOT
ATOM      1  C   UNL A   1      31.839  28.406  27.197  1.00  0.00     0.274 C 
ENDROOT
BRANCH   1   2
ATOM      2  O   UNL A   1      32.513  27.560  26.248  1.00  0.00    -0.462 OA
BRANCH   2   3
ATOM      3  C   UNL A   1      32.056  26.299  26.113  1.00  0.00     0.308 C 
ATOM      4  O   UNL A   1      31.264  25.753  26.875  1.00  0.00    -0.252 OA
BRANCH   3   5
ATOM      5  C   UNL A   1      32.581  25.578  24.889  1.00  0.00     0.150 C 
BRANCH   5   6
ATOM      6  C   UNL A   1      33.312  24.228  25.063  1.00  0.00     0.045 C 
ATOM      7  C   UNL A   1      33.380  23.494  23.714  1.00  0.00     0.035 C 
ATOM      8  C   UNL A   1      34.777  24.559  25.453  1.00  0.00     0.035 C 
BRANCH   6   9
ATOM      9  N   UNL A   1      32.749  23.476  26.208  1.00  0.00    -0.344 N 
ATOM     10  C   UNL A   1      33.199  22.314  26.794  1.00  0.00     0.289 C 
ATOM     11  H   UNL A   1      31.937  23.862  26.608  1.00  0.00     0.164 HD
ATOM     12  O   UNL A   1      33.288  22.294  28.023  1.00  0.00    -0.266 OA
BRANCH  10  13
ATOM     13  C   UNL A   1      33.578  21.192  25.980  1.00  0.00     0.214 A 
ATOM     14  N   UNL A   1      32.779  20.304  25.414  1.00  0.00    -0.207 NA
ATOM     15  N   UNL A   1      34.868  20.828  25.752  1.00  0.00    -0.255 N 
ATOM     16  C   UNL A   1      33.652  19.399  24.856  1.00  0.00     0.156 A 
ATOM     17  N   UNL A   1      34.946  19.724  24.993  1.00  0.00    -0.158 NA
ATOM     18  H   UNL A   1      35.650  21.314  26.102  1.00  0.00     0.192 HD
BRANCH  16  19
ATOM     19  C   UNL A   1      33.209  18.104  24.214  1.00  0.00     0.024 C 
ATOM     20  C   UNL A   1      32.235  18.410  23.060  1.00  0.00     0.019 C 
ATOM     21  C   UNL A   1      34.402  17.321  23.634  1.00  0.00     0.019 C 
ATOM     22  C   UNL A   1      32.505  17.201  25.245  1.00  0.00     0.019 C 
ENDBRANCH  16  19
ENDBRANCH  10  13
ENDBRANCH   6   9
ENDBRANCH   5   6
ENDBRANCH   3   5
ENDBRANCH   2   3
ENDBRANCH   1   2
BRANCH   1  23
ATOM     23  C   UNL A   1      31.778  29.836  26.671  1.00  0.00     0.275 C 
BRANCH  23  24
ATOM     24  O   UNL A   1      33.119  30.316  26.463  1.00  0.00    -0.458 OA
BRANCH  24  25
ATOM     25  C   UNL A   1      33.471  31.407  27.178  1.00  0.00     0.338 C 
ATOM     26  O   UNL A   1      32.895  32.474  27.271  1.00  0.00    -0.246 OA
BRANCH  25  27
ATOM     27  C   UNL A   1      34.725  31.113  27.880  1.00  0.00     0.060 A 
ATOM     28  C   UNL A   1      35.686  32.115  28.024  1.00  0.00     0.016 A 
ATOM     29  C   UNL A   1      34.966  29.821  28.340  1.00  0.00     0.016 A 
ATOM     30  C   UNL A   1      36.909  31.823  28.620  1.00  0.00     0.010 A 
ATOM     31  C   UNL A   1      36.169  29.543  28.987  1.00  0.00     0.010 A 
ATOM     32  C   UNL A   1      37.150  30.541  29.129  1.00  0.00    -0.014 A 
BRANCH  32  33
ATOM     33  C   UNL A   1      38.403  30.240  29.858  1.00  0.00     0.031 A 
ATOM     34  C   UNL A   1      39.413  29.301  29.269  1.00  0.00     0.074 A 
ATOM     35  C   UNL A   1      38.597  30.774  31.078  1.00  0.00     0.049 A 
ATOM     36  N   UNL A   1      40.463  28.760  29.830  1.00  0.00    -0.248 NA
ATOM     37  C   UNL A   1      39.211  28.915  27.864  1.00  0.00     0.031 C 
ATOM     38  C   UNL A   1      37.697  31.723  31.735  1.00  0.00     0.029 A 
ATOM     39  N   UNL A   1      39.600  30.576  31.993  1.00  0.00    -0.354 N 
ATOM     40  C   UNL A   1      41.030  27.944  28.860  1.00  0.00     0.074 A 
ATOM     41  C   UNL A   1      40.207  28.060  27.674  1.00  0.00     0.031 C 
ATOM     42  C   UNL A   1      38.183  32.020  32.950  1.00  0.00     0.029 A 
ATOM     43  C   UNL A   1      39.387  31.230  33.182  1.00  0.00     0.049 A 
ATOM     44  H   UNL A   1      40.394  30.022  31.814  1.00  0.00     0.167 HD
ATOM     45  C   UNL A   1      42.135  27.169  28.960  1.00  0.00     0.037 A 
ATOM     46  C   UNL A   1      40.055  31.156  34.347  1.00  0.00     0.037 A 
ATOM     47  C   UNL A   1      42.955  27.080  30.141  1.00  0.00     0.049 A 
ATOM     48  C   UNL A   1      41.238  30.238  34.454  1.00  0.00     0.074 A 
ATOM     49  C   UNL A   1      44.121  26.359  30.331  1.00  0.00     0.029 A 
ATOM     50  N   UNL A   1      42.689  27.734  31.335  1.00  0.00    -0.354 N 
ATOM     51  N   UNL A   1      41.765  29.465  33.536  1.00  0.00    -0.248 NA
ATOM     52  C   UNL A   1      41.905  30.166  35.760  1.00  0.00     0.031 C 
ATOM     53  C   UNL A   1      44.538  26.544  31.654  1.00  0.00     0.029 A 
ATOM     54  C   UNL A   1      43.652  27.409  32.277  1.00  0.00     0.049 A 
ATOM     55  H   UNL A   1      41.929  28.339  31.491  1.00  0.00     0.167 HD
ATOM     56  C   UNL A   1      42.825  28.815  34.150  1.00  0.00     0.074 A 
ATOM     57  C   UNL A   1      42.879  29.301  35.514  1.00  0.00     0.031 C 
ATOM     58  C   UNL A   1      43.675  27.895  33.633  1.00  0.00     0.037 A 
BRANCH  45  59
ATOM     59  C   UNL A   1      42.509  26.332  27.775  1.00  0.00     0.064 A 
ATOM     60  C   UNL A   1      43.471  26.753  26.847  1.00  0.00     0.173 A 
ATOM     61  C   UNL A   1      41.929  25.067  27.592  1.00  0.00     0.173 A 
ATOM     62  F   UNL A   1      44.046  27.959  26.971  1.00  0.00    -0.203 F 
ATOM     63  C   UNL A   1      43.828  25.947  25.770  1.00  0.00     0.198 A 
ATOM     64  C   UNL A   1      42.302  24.254  26.526  1.00  0.00     0.198 A 
ATOM     65  F   UNL A   1      41.006  24.617  28.455  1.00  0.00    -0.203 F 
ATOM     66  F   UNL A   1      44.729  26.381  24.877  1.00  0.00    -0.200 F 
ATOM     67  C   UNL A   1      43.248  24.695  25.613  1.00  0.00     0.200 A 
ATOM     68  F   UNL A   1      41.748  23.042  26.382  1.00  0.00    -0.200 F 
ATOM     69  F   UNL A   1      43.599  23.916  24.580  1.00  0.00    -0.200 F 
ENDBRANCH  45  59
BRANCH  46  70
ATOM     70  C   UNL A   1      39.579  31.940  35.515  1.00  0.00     0.064 A 
ATOM     71  C   UNL A   1      40.063  33.231  35.761  1.00  0.00     0.173 A 
ATOM     72  C   UNL A   1      38.611  31.425  36.391  1.00  0.00     0.173 A 
ATOM     73  F   UNL A   1      41.006  33.756  34.964  1.00  0.00    -0.203 F 
ATOM     74  C   UNL A   1      39.597  33.978  36.841  1.00  0.00     0.198 A 
ATOM     75  C   UNL A   1      38.128  32.182  37.454  1.00  0.00     0.198 A 
ATOM     76  F   UNL A   1      38.119  30.193  36.197  1.00  0.00    -0.203 F 
ATOM     77  F   UNL A   1      40.095  35.200  37.072  1.00  0.00    -0.200 F 
ATOM     78  C   UNL A   1      38.624  33.456  37.681  1.00  0.00     0.200 A 
ATOM     79  F   UNL A   1      37.179  31.679  38.256  1.00  0.00    -0.200 F 
ATOM     80  F   UNL A   1      38.168  34.181  38.713  1.00  0.00    -0.200 F 
ENDBRANCH  46  70
BRANCH  58  81
ATOM     81  C   UNL A   1      44.732  27.359  34.548  1.00  0.00     0.064 A 
ATOM     82  C   UNL A   1      45.965  28.011  34.694  1.00  0.00     0.173 A 
ATOM     83  C   UNL A   1      44.500  26.204  35.308  1.00  0.00     0.173 A 
ATOM     84  F   UNL A   1      46.238  29.108  33.971  1.00  0.00    -0.203 F 
ATOM     85  C   UNL A   1      46.934  27.517  35.561  1.00  0.00     0.198 A 
ATOM     86  C   UNL A   1      45.463  25.726  36.190  1.00  0.00     0.198 A 
ATOM     87  F   UNL A   1      43.334  25.549  35.203  1.00  0.00    -0.203 F 
ATOM     88  F   UNL A   1      48.120  28.134  35.660  1.00  0.00    -0.200 F 
ATOM     89  C   UNL A   1      46.681  26.379  36.313  1.00  0.00     0.200 A 
ATOM     90  F   UNL A   1      45.214  24.630  36.923  1.00  0.00    -0.200 F 
ATOM     91  F   UNL A   1      47.614  25.906  37.151  1.00  0.00    -0.200 F 
ENDBRANCH  58  81
ENDBRANCH  32  33
ENDBRANCH  25  27
ENDBRANCH  24  25
ENDBRANCH  23  24
ENDBRANCH   1  23
TORSDOF 15
ENDMDL
