MODEL 1
REMARK VINA RESULT:     -11.5      0.000      0.000
REMARK SMILES Cn1cccc1/C=C1/SC(=S)N([C@@H](CCC(N)=O)C(=O)OCCOC(=O)c2ccc(-c3c4nc(c(-c5c(F)c(F)c(F)c(F)c5F)c5ccc([nH]5)c(-c5c(F)c(F)c(F)c(F)c5F)c5nc(c(-c6c(F)c(F)c(F)c(F)c6F)c6ccc3[nH]6)C=C5)C=C4)cc2)C1=O
REMARK SMILES IDX 22 1 21 2 19 3 20 4 13 5 12 6 7 7 8 8 9 9 90 10 10 11 91 12
REMARK SMILES IDX 11 13 6 14 1 15 2 16 3 17 4 18 5 19 14 20 15 21 16 22 17 23
REMARK SMILES IDX 18 24 23 27 24 28 25 29 26 30 27 31 28 32 89 33 29 34 88 35
REMARK SMILES IDX 30 36 31 37 32 38 82 39 33 40 87 41 81 42 83 43 34 44 86 45
REMARK SMILES IDX 80 46 79 47 35 49 67 50 47 51 66 52 48 53 51 54 65 55 84 56
REMARK SMILES IDX 49 57 50 58 64 60 85 61 52 62 36 63 37 64 45 65 38 66 39 67
REMARK SMILES IDX 43 68 46 69 40 70 41 71 44 72 42 73 68 74 69 75 77 76 70 77
REMARK SMILES IDX 71 78 75 79 78 80 72 81 73 82 76 83 74 84 53 85 54 86 62 87
REMARK SMILES IDX 55 88 56 89 60 90 63 91 57 92 58 93 61 94 59 95
REMARK H PARENT 17 25 17 26 83 48 51 59
REMARK Flexibility Score: inf
ROOT
ATOM      1  C   UNL A   1      35.568  20.763  25.485  1.00  0.00     0.274 C 
ENDROOT
BRANCH   1   2
ATOM      2  O   UNL A   1      34.947  21.937  24.942  1.00  0.00    -0.461 OA
BRANCH   2   3
ATOM      3  C   UNL A   1      34.656  22.954  25.774  1.00  0.00     0.329 C 
ATOM      4  O   UNL A   1      35.345  23.297  26.731  1.00  0.00    -0.250 OA
BRANCH   3   5
ATOM      5  C   UNL A   1      33.316  23.642  25.455  1.00  0.00     0.202 C 
BRANCH   5   6
ATOM      6  N   UNL A   1      33.297  24.824  24.552  1.00  0.00    -0.278 N 
ATOM      7  C   UNL A   1      33.728  28.431  24.281  1.00  0.00     0.047 C 
ATOM      8  C   UNL A   1      33.431  27.140  24.060  1.00  0.00     0.082 C 
ATOM      9  S   UNL A   1      33.328  26.424  22.505  1.00  0.00    -0.054 SA
ATOM     10  C   UNL A   1      33.254  26.088  25.099  1.00  0.00     0.267 C 
ATOM     11  C   UNL A   1      33.359  24.789  23.170  1.00  0.00     0.149 C 
ATOM     12  O   UNL A   1      33.140  26.320  26.284  1.00  0.00    -0.268 OA
ATOM     13  S   UNL A   1      33.537  23.470  22.161  1.00  0.00    -0.052 S 
BRANCH   7  14
ATOM     14  C   UNL A   1      33.864  28.949  25.594  1.00  0.00     0.042 A 
ATOM     15  C   UNL A   1      31.600  30.116  25.648  1.00  0.00     0.149 C 
ATOM     16  N   UNL A   1      32.906  29.767  26.164  1.00  0.00    -0.351 N 
ATOM     17  C   UNL A   1      33.404  30.298  27.331  1.00  0.00     0.086 A 
ATOM     18  C   UNL A   1      34.643  29.747  27.561  1.00  0.00     0.020 A 
ATOM     19  C   UNL A   1      34.915  28.867  26.489  1.00  0.00     0.028 A 
ENDBRANCH   7  14
ENDBRANCH   5   6
BRANCH   5  20
ATOM     20  C   UNL A   1      32.224  22.580  25.187  1.00  0.00     0.047 C 
BRANCH  20  21
ATOM     21  C   UNL A   1      30.752  22.968  25.324  1.00  0.00     0.102 C 
BRANCH  21  22
ATOM     22  C   UNL A   1      30.328  23.627  26.624  1.00  0.00     0.217 C 
ATOM     23  N   UNL A   1      30.198  24.978  26.596  1.00  0.00    -0.370 N 
ATOM     24  O   UNL A   1      30.052  23.024  27.653  1.00  0.00    -0.275 OA
ATOM     25  H   UNL A   1      30.418  25.477  25.776  1.00  0.00     0.159 HD
ATOM     26  H   UNL A   1      29.883  25.459  27.395  1.00  0.00     0.159 HD
ENDBRANCH  21  22
ENDBRANCH  20  21
ENDBRANCH   5  20
ENDBRANCH   3   5
ENDBRANCH   2   3
ENDBRANCH   1   2
BRANCH   1  27
ATOM     27  C   UNL A   1      36.950  20.600  24.857  1.00  0.00     0.275 C 
BRANCH  27  28
ATOM     28  O   UNL A   1      37.810  21.694  25.237  1.00  0.00    -0.458 OA
BRANCH  28  29
ATOM     29  C   UNL A   1      38.880  21.337  25.982  1.00  0.00     0.338 C 
ATOM     30  O   UNL A   1      39.424  20.246  26.050  1.00  0.00    -0.246 OA
BRANCH  29  31
ATOM     31  C   UNL A   1      39.473  22.527  26.599  1.00  0.00     0.060 A 
ATOM     32  C   UNL A   1      39.008  23.763  26.159  1.00  0.00     0.016 A 
ATOM     33  C   UNL A   1      40.549  22.447  27.476  1.00  0.00     0.016 A 
ATOM     34  C   UNL A   1      39.655  24.932  26.524  1.00  0.00     0.010 A 
ATOM     35  C   UNL A   1      41.174  23.630  27.889  1.00  0.00     0.010 A 
ATOM     36  C   UNL A   1      40.748  24.877  27.392  1.00  0.00    -0.014 A 
BRANCH  36  37
ATOM     37  C   UNL A   1      41.452  26.136  27.731  1.00  0.00     0.031 A 
ATOM     38  C   UNL A   1      40.743  27.205  28.511  1.00  0.00     0.074 A 
ATOM     39  C   UNL A   1      42.741  26.288  27.373  1.00  0.00     0.049 A 
ATOM     40  N   UNL A   1      41.156  28.404  28.832  1.00  0.00    -0.248 NA
ATOM     41  C   UNL A   1      39.387  26.890  28.988  1.00  0.00     0.031 C 
ATOM     42  C   UNL A   1      43.539  25.291  26.654  1.00  0.00     0.029 A 
ATOM     43  N   UNL A   1      43.608  27.332  27.565  1.00  0.00    -0.354 N 
ATOM     44  C   UNL A   1      40.099  29.000  29.508  1.00  0.00     0.074 A 
ATOM     45  C   UNL A   1      39.021  28.036  29.547  1.00  0.00     0.031 C 
ATOM     46  C   UNL A   1      44.780  25.769  26.474  1.00  0.00     0.029 A 
ATOM     47  C   UNL A   1      44.843  27.127  26.996  1.00  0.00     0.049 A 
ATOM     48  H   UNL A   1      43.371  28.148  28.061  1.00  0.00     0.167 HD
ATOM     49  C   UNL A   1      40.042  30.243  30.042  1.00  0.00     0.037 A 
ATOM     50  C   UNL A   1      45.891  27.962  26.870  1.00  0.00     0.037 A 
ATOM     51  C   UNL A   1      41.141  31.175  30.030  1.00  0.00     0.049 A 
ATOM     52  C   UNL A   1      45.781  29.347  27.446  1.00  0.00     0.074 A 
ATOM     53  C   UNL A   1      41.203  32.440  30.587  1.00  0.00     0.029 A 
ATOM     54  N   UNL A   1      42.369  30.942  29.428  1.00  0.00    -0.354 N 
ATOM     55  N   UNL A   1      44.784  29.899  28.093  1.00  0.00    -0.248 NA
ATOM     56  C   UNL A   1      46.943  30.228  27.271  1.00  0.00     0.031 C 
ATOM     57  C   UNL A   1      42.443  33.000  30.259  1.00  0.00     0.029 A 
ATOM     58  C   UNL A   1      43.182  32.057  29.564  1.00  0.00     0.049 A 
ATOM     59  H   UNL A   1      42.625  30.108  28.970  1.00  0.00     0.167 HD
ATOM     60  C   UNL A   1      45.204  31.181  28.420  1.00  0.00     0.074 A 
ATOM     61  C   UNL A   1      46.559  31.311  27.928  1.00  0.00     0.031 C 
ATOM     62  C   UNL A   1      44.528  32.166  29.064  1.00  0.00     0.037 A 
BRANCH  49  63
ATOM     63  C   UNL A   1      38.744  30.697  30.646  1.00  0.00     0.064 A 
ATOM     64  C   UNL A   1      38.500  30.647  32.025  1.00  0.00     0.173 A 
ATOM     65  C   UNL A   1      37.752  31.259  29.825  1.00  0.00     0.173 A 
ATOM     66  F   UNL A   1      39.408  30.108  32.854  1.00  0.00    -0.203 F 
ATOM     67  C   UNL A   1      37.307  31.131  32.560  1.00  0.00     0.198 A 
ATOM     68  C   UNL A   1      36.575  31.770  30.365  1.00  0.00     0.198 A 
ATOM     69  F   UNL A   1      37.935  31.334  28.498  1.00  0.00    -0.203 F 
ATOM     70  F   UNL A   1      37.080  31.042  33.878  1.00  0.00    -0.200 F 
ATOM     71  C   UNL A   1      36.351  31.701  31.731  1.00  0.00     0.200 A 
ATOM     72  F   UNL A   1      35.662  32.334  29.564  1.00  0.00    -0.200 F 
ATOM     73  F   UNL A   1      35.215  32.185  32.250  1.00  0.00    -0.200 F 
ENDBRANCH  49  63
BRANCH  50  74
ATOM     74  C   UNL A   1      47.106  27.532  26.127  1.00  0.00     0.064 A 
ATOM     75  C   UNL A   1      48.210  26.979  26.790  1.00  0.00     0.173 A 
ATOM     76  C   UNL A   1      47.199  27.695  24.735  1.00  0.00     0.173 A 
ATOM     77  F   UNL A   1      48.180  26.820  28.122  1.00  0.00    -0.203 F 
ATOM     78  C   UNL A   1      49.370  26.639  26.098  1.00  0.00     0.198 A 
ATOM     79  C   UNL A   1      48.344  27.317  24.038  1.00  0.00     0.198 A 
ATOM     80  F   UNL A   1      46.172  28.215  24.048  1.00  0.00    -0.203 F 
ATOM     81  F   UNL A   1      50.435  26.176  26.766  1.00  0.00    -0.200 F 
ATOM     82  C   UNL A   1      49.435  26.804  24.722  1.00  0.00     0.200 A 
ATOM     83  F   UNL A   1      48.391  27.458  22.707  1.00  0.00    -0.200 F 
ATOM     84  F   UNL A   1      50.550  26.476  24.056  1.00  0.00    -0.200 F 
ENDBRANCH  50  74
BRANCH  62  85
ATOM     85  C   UNL A   1      45.264  33.455  29.295  1.00  0.00     0.064 A 
ATOM     86  C   UNL A   1      46.053  33.660  30.437  1.00  0.00     0.173 A 
ATOM     87  C   UNL A   1      45.185  34.495  28.356  1.00  0.00     0.173 A 
ATOM     88  F   UNL A   1      46.151  32.704  31.372  1.00  0.00    -0.203 F 
ATOM     89  C   UNL A   1      46.699  34.876  30.651  1.00  0.00     0.198 A 
ATOM     90  C   UNL A   1      45.864  35.694  28.555  1.00  0.00     0.198 A 
ATOM     91  F   UNL A   1      44.452  34.349  27.242  1.00  0.00    -0.203 F 
ATOM     92  F   UNL A   1      47.387  35.074  31.784  1.00  0.00    -0.200 F 
ATOM     93  C   UNL A   1      46.608  35.887  29.707  1.00  0.00     0.200 A 
ATOM     94  F   UNL A   1      45.791  36.663  27.633  1.00  0.00    -0.200 F 
ATOM     95  F   UNL A   1      47.231  37.056  29.916  1.00  0.00    -0.200 F 
ENDBRANCH  62  85
ENDBRANCH  36  37
ENDBRANCH  29  31
ENDBRANCH  28  29
ENDBRANCH  27  28
ENDBRANCH   1  27
TORSDOF 16
ENDMDL
MODEL 2
REMARK VINA RESULT:     -11.3      4.116      9.466
REMARK SMILES Cn1cccc1/C=C1/SC(=S)N([C@@H](CCC(N)=O)C(=O)OCCOC(=O)c2ccc(-c3c4nc(c(-c5c(F)c(F)c(F)c(F)c5F)c5ccc([nH]5)c(-c5c(F)c(F)c(F)c(F)c5F)c5nc(c(-c6c(F)c(F)c(F)c(F)c6F)c6ccc3[nH]6)C=C5)C=C4)cc2)C1=O
REMARK SMILES IDX 22 1 21 2 19 3 20 4 13 5 12 6 7 7 8 8 9 9 90 10 10 11 91 12
REMARK SMILES IDX 11 13 6 14 1 15 2 16 3 17 4 18 5 19 14 20 15 21 16 22 17 23
REMARK SMILES IDX 18 24 23 27 24 28 25 29 26 30 27 31 28 32 89 33 29 34 88 35
REMARK SMILES IDX 30 36 31 37 32 38 82 39 33 40 87 41 81 42 83 43 34 44 86 45
REMARK SMILES IDX 80 46 79 47 35 49 67 50 47 51 66 52 48 53 51 54 65 55 84 56
REMARK SMILES IDX 49 57 50 58 64 60 85 61 52 62 36 63 37 64 45 65 38 66 39 67
REMARK SMILES IDX 43 68 46 69 40 70 41 71 44 72 42 73 68 74 69 75 77 76 70 77
REMARK SMILES IDX 71 78 75 79 78 80 72 81 73 82 76 83 74 84 53 85 54 86 62 87
REMARK SMILES IDX 55 88 56 89 60 90 63 91 57 92 58 93 61 94 59 95
REMARK H PARENT 17 25 17 26 83 48 51 59
REMARK Flexibility Score: inf
ROOT
ATOM      1  C   UNL A   1      31.678  29.741  25.438  1.00  0.00     0.274 C 
ENDROOT
BRANCH   1   2
ATOM      2  O   UNL A   1      32.989  29.157  25.391  1.00  0.00    -0.461 OA
BRANCH   2   3
ATOM      3  C   UNL A   1      33.152  27.905  25.858  1.00  0.00     0.329 C 
ATOM      4  O   UNL A   1      34.050  27.552  26.619  1.00  0.00    -0.250 OA
BRANCH   3   5
ATOM      5  C   UNL A   1      32.125  26.904  25.300  1.00  0.00     0.202 C 
BRANCH   5   6
ATOM      6  N   UNL A   1      32.435  26.159  24.050  1.00  0.00    -0.278 N 
ATOM      7  C   UNL A   1      33.754  23.083  22.611  1.00  0.00     0.047 C 
ATOM      8  C   UNL A   1      33.299  24.331  22.810  1.00  0.00     0.082 C 
ATOM      9  S   UNL A   1      32.548  25.291  21.604  1.00  0.00    -0.054 SA
ATOM     10  C   UNL A   1      33.255  25.054  24.111  1.00  0.00     0.267 C 
ATOM     11  C   UNL A   1      31.935  26.443  22.791  1.00  0.00     0.149 C 
ATOM     12  O   UNL A   1      33.831  24.680  25.112  1.00  0.00    -0.268 OA
ATOM     13  S   UNL A   1      30.833  27.614  22.341  1.00  0.00    -0.052 S 
BRANCH   7  14
ATOM     14  C   UNL A   1      34.305  22.314  23.667  1.00  0.00     0.042 A 
ATOM     15  C   UNL A   1      36.716  23.047  23.290  1.00  0.00     0.149 C 
ATOM     16  N   UNL A   1      35.666  22.268  23.910  1.00  0.00    -0.351 N 
ATOM     17  C   UNL A   1      35.926  21.278  24.829  1.00  0.00     0.086 A 
ATOM     18  C   UNL A   1      34.726  20.754  25.249  1.00  0.00     0.020 A 
ATOM     19  C   UNL A   1      33.704  21.434  24.548  1.00  0.00     0.028 A 
ENDBRANCH   7  14
ENDBRANCH   5   6
BRANCH   5  20
ATOM     20  C   UNL A   1      31.528  26.059  26.450  1.00  0.00     0.047 C 
BRANCH  20  21
ATOM     21  C   UNL A   1      30.568  24.916  26.119  1.00  0.00     0.102 C 
BRANCH  21  22
ATOM     22  C   UNL A   1      30.850  23.569  26.760  1.00  0.00     0.217 C 
ATOM     23  N   UNL A   1      29.968  22.576  26.478  1.00  0.00    -0.370 N 
ATOM     24  O   UNL A   1      31.828  23.317  27.451  1.00  0.00    -0.275 OA
ATOM     25  H   UNL A   1      29.176  22.763  25.925  1.00  0.00     0.159 HD
ATOM     26  H   UNL A   1      30.121  21.668  26.828  1.00  0.00     0.159 HD
ENDBRANCH  21  22
ENDBRANCH  20  21
ENDBRANCH   5  20
ENDBRANCH   3   5
ENDBRANCH   2   3
ENDBRANCH   1   2
BRANCH   1  27
ATOM     27  C   UNL A   1      31.748  31.048  26.224  1.00  0.00     0.275 C 
BRANCH  27  28
ATOM     28  O   UNL A   1      32.715  30.946  27.289  1.00  0.00    -0.458 OA
BRANCH  28  29
ATOM     29  C   UNL A   1      33.476  32.049  27.466  1.00  0.00     0.338 C 
ATOM     30  O   UNL A   1      33.138  33.221  27.396  1.00  0.00    -0.246 OA
BRANCH  29  31
ATOM     31  C   UNL A   1      34.798  31.664  27.970  1.00  0.00     0.060 A 
ATOM     32  C   UNL A   1      34.959  30.339  28.368  1.00  0.00     0.016 A 
ATOM     33  C   UNL A   1      35.809  32.595  28.182  1.00  0.00     0.016 A 
ATOM     34  C   UNL A   1      36.095  29.941  29.052  1.00  0.00     0.010 A 
ATOM     35  C   UNL A   1      36.982  32.183  28.827  1.00  0.00     0.010 A 
ATOM     36  C   UNL A   1      37.119  30.861  29.291  1.00  0.00    -0.014 A 
BRANCH  36  37
ATOM     37  C   UNL A   1      38.304  30.421  30.064  1.00  0.00     0.031 A 
ATOM     38  C   UNL A   1      39.294  29.476  29.448  1.00  0.00     0.074 A 
ATOM     39  C   UNL A   1      38.504  30.916  31.301  1.00  0.00     0.049 A 
ATOM     40  N   UNL A   1      40.344  28.912  29.988  1.00  0.00    -0.248 NA
ATOM     41  C   UNL A   1      39.072  29.107  28.040  1.00  0.00     0.031 C 
ATOM     42  C   UNL A   1      37.630  31.879  31.976  1.00  0.00     0.029 A 
ATOM     43  N   UNL A   1      39.504  30.682  32.209  1.00  0.00    -0.354 N 
ATOM     44  C   UNL A   1      40.880  28.091  29.005  1.00  0.00     0.074 A 
ATOM     45  C   UNL A   1      40.039  28.223  27.835  1.00  0.00     0.031 C 
ATOM     46  C   UNL A   1      38.136  32.159  33.186  1.00  0.00     0.029 A 
ATOM     47  C   UNL A   1      39.325  31.344  33.400  1.00  0.00     0.049 A 
ATOM     48  H   UNL A   1      40.275  30.099  32.026  1.00  0.00     0.167 HD
ATOM     49  C   UNL A   1      41.976  27.300  29.081  1.00  0.00     0.037 A 
ATOM     50  C   UNL A   1      40.018  31.265  34.552  1.00  0.00     0.037 A 
ATOM     51  C   UNL A   1      42.826  27.214  30.242  1.00  0.00     0.049 A 
ATOM     52  C   UNL A   1      41.210  30.350  34.613  1.00  0.00     0.074 A 
ATOM     53  C   UNL A   1      43.989  26.481  30.405  1.00  0.00     0.029 A 
ATOM     54  N   UNL A   1      42.603  27.882  31.438  1.00  0.00    -0.354 N 
ATOM     55  N   UNL A   1      41.718  29.586  33.676  1.00  0.00    -0.248 NA
ATOM     56  C   UNL A   1      41.925  30.284  35.893  1.00  0.00     0.031 C 
ATOM     57  C   UNL A   1      44.428  26.649  31.723  1.00  0.00     0.029 A 
ATOM     58  C   UNL A   1      43.585  27.546  32.358  1.00  0.00     0.049 A 
ATOM     59  H   UNL A   1      41.857  28.503  31.607  1.00  0.00     0.167 HD
ATOM     60  C   UNL A   1      42.821  28.966  34.245  1.00  0.00     0.074 A 
ATOM     61  C   UNL A   1      42.927  29.470  35.599  1.00  0.00     0.031 C 
ATOM     62  C   UNL A   1      43.669  28.057  33.702  1.00  0.00     0.037 A 
BRANCH  49  63
ATOM     63  C   UNL A   1      42.304  26.426  27.905  1.00  0.00     0.064 A 
ATOM     64  C   UNL A   1      41.671  25.195  27.686  1.00  0.00     0.173 A 
ATOM     65  C   UNL A   1      43.225  26.870  26.941  1.00  0.00     0.173 A 
ATOM     66  F   UNL A   1      40.793  24.716  28.581  1.00  0.00    -0.203 F 
ATOM     67  C   UNL A   1      41.957  24.434  26.552  1.00  0.00     0.198 A 
ATOM     68  C   UNL A   1      43.484  26.124  25.795  1.00  0.00     0.198 A 
ATOM     69  F   UNL A   1      43.857  28.043  27.100  1.00  0.00    -0.203 F 
ATOM     70  F   UNL A   1      41.365  23.244  26.380  1.00  0.00    -0.200 F 
ATOM     71  C   UNL A   1      42.853  24.904  25.604  1.00  0.00     0.200 A 
ATOM     72  F   UNL A   1      44.338  26.588  24.874  1.00  0.00    -0.200 F 
ATOM     73  F   UNL A   1      43.110  24.182  24.506  1.00  0.00    -0.200 F 
ENDBRANCH  49  63
BRANCH  50  74
ATOM     74  C   UNL A   1      39.571  32.027  35.748  1.00  0.00     0.064 A 
ATOM     75  C   UNL A   1      38.584  31.524  36.607  1.00  0.00     0.173 A 
ATOM     76  C   UNL A   1      40.102  33.294  36.040  1.00  0.00     0.173 A 
ATOM     77  F   UNL A   1      38.031  30.327  36.362  1.00  0.00    -0.203 F 
ATOM     78  C   UNL A   1      38.122  32.270  37.689  1.00  0.00     0.198 A 
ATOM     79  C   UNL A   1      39.668  34.022  37.145  1.00  0.00     0.198 A 
ATOM     80  F   UNL A   1      41.051  33.823  35.255  1.00  0.00    -0.203 F 
ATOM     81  F   UNL A   1      37.130  31.794  38.454  1.00  0.00    -0.200 F 
ATOM     82  C   UNL A   1      38.667  33.516  37.960  1.00  0.00     0.200 A 
ATOM     83  F   UNL A   1      40.214  35.215  37.414  1.00  0.00    -0.200 F 
ATOM     84  F   UNL A   1      38.223  34.234  39.001  1.00  0.00    -0.200 F 
ENDBRANCH  50  74
BRANCH  62  85
ATOM     85  C   UNL A   1      44.798  27.578  34.569  1.00  0.00     0.064 A 
ATOM     86  C   UNL A   1      44.679  26.431  35.368  1.00  0.00     0.173 A 
ATOM     87  C   UNL A   1      46.017  28.272  34.593  1.00  0.00     0.173 A 
ATOM     88  F   UNL A   1      43.530  25.739  35.393  1.00  0.00    -0.203 F 
ATOM     89  C   UNL A   1      45.725  26.023  36.194  1.00  0.00     0.198 A 
ATOM     90  C   UNL A   1      47.073  27.838  35.389  1.00  0.00     0.198 A 
ATOM     91  F   UNL A   1      46.188  29.370  33.841  1.00  0.00    -0.203 F 
ATOM     92  F   UNL A   1      45.562  24.967  37.002  1.00  0.00    -0.200 F 
ATOM     93  C   UNL A   1      46.921  26.723  36.198  1.00  0.00     0.200 A 
ATOM     94  F   UNL A   1      48.236  28.504  35.378  1.00  0.00    -0.200 F 
ATOM     95  F   UNL A   1      47.926  26.328  36.992  1.00  0.00    -0.200 F 
ENDBRANCH  62  85
ENDBRANCH  36  37
ENDBRANCH  29  31
ENDBRANCH  28  29
ENDBRANCH  27  28
ENDBRANCH   1  27
TORSDOF 16
ENDMDL
MODEL 3
REMARK VINA RESULT:     -11.3      4.146      9.512
REMARK SMILES Cn1cccc1/C=C1/SC(=S)N([C@@H](CCC(N)=O)C(=O)OCCOC(=O)c2ccc(-c3c4nc(c(-c5c(F)c(F)c(F)c(F)c5F)c5ccc([nH]5)c(-c5c(F)c(F)c(F)c(F)c5F)c5nc(c(-c6c(F)c(F)c(F)c(F)c6F)c6ccc3[nH]6)C=C5)C=C4)cc2)C1=O
REMARK SMILES IDX 22 1 21 2 19 3 20 4 13 5 12 6 7 7 8 8 9 9 90 10 10 11 91 12
REMARK SMILES IDX 11 13 6 14 1 15 2 16 3 17 4 18 5 19 14 20 15 21 16 22 17 23
REMARK SMILES IDX 18 24 23 27 24 28 25 29 26 30 27 31 28 32 89 33 29 34 88 35
REMARK SMILES IDX 30 36 31 37 32 38 82 39 33 40 87 41 81 42 83 43 34 44 86 45
REMARK SMILES IDX 80 46 79 47 35 49 67 50 47 51 66 52 48 53 51 54 65 55 84 56
REMARK SMILES IDX 49 57 50 58 64 60 85 61 52 62 36 63 37 64 45 65 38 66 39 67
REMARK SMILES IDX 43 68 46 69 40 70 41 71 44 72 42 73 68 74 69 75 77 76 70 77
REMARK SMILES IDX 71 78 75 79 78 80 72 81 73 82 76 83 74 84 53 85 54 86 62 87
REMARK SMILES IDX 55 88 56 89 60 90 63 91 57 92 58 93 61 94 59 95
REMARK H PARENT 17 25 17 26 83 48 51 59
REMARK Flexibility Score: inf
ROOT
ATOM      1  C   UNL A   1      31.508  30.015  25.360  1.00  0.00     0.274 C 
ENDROOT
BRANCH   1   2
ATOM      2  O   UNL A   1      32.838  29.487  25.241  1.00  0.00    -0.461 OA
BRANCH   2   3
ATOM      3  C   UNL A   1      33.081  28.246  25.702  1.00  0.00     0.329 C 
ATOM      4  O   UNL A   1      34.043  27.933  26.399  1.00  0.00    -0.250 OA
BRANCH   3   5
ATOM      5  C   UNL A   1      32.056  27.202  25.224  1.00  0.00     0.202 C 
BRANCH   5   6
ATOM      6  N   UNL A   1      32.250  26.535  23.909  1.00  0.00    -0.278 N 
ATOM      7  C   UNL A   1      33.575  23.629  22.157  1.00  0.00     0.047 C 
ATOM      8  C   UNL A   1      33.067  24.830  22.477  1.00  0.00     0.082 C 
ATOM      9  S   UNL A   1      32.103  25.783  21.426  1.00  0.00    -0.054 SA
ATOM     10  C   UNL A   1      33.144  25.492  23.808  1.00  0.00     0.267 C 
ATOM     11  C   UNL A   1      31.573  26.836  22.740  1.00  0.00     0.149 C 
ATOM     12  O   UNL A   1      33.869  25.120  24.707  1.00  0.00    -0.268 OA
ATOM     13  S   UNL A   1      30.345  27.941  22.493  1.00  0.00    -0.052 S 
BRANCH   7  14
ATOM     14  C   UNL A   1      34.310  22.858  23.095  1.00  0.00     0.042 A 
ATOM     15  C   UNL A   1      32.325  21.488  23.916  1.00  0.00     0.149 C 
ATOM     16  N   UNL A   1      33.701  21.938  23.926  1.00  0.00    -0.351 N 
ATOM     17  C   UNL A   1      34.606  21.518  24.873  1.00  0.00     0.086 A 
ATOM     18  C   UNL A   1      35.822  22.094  24.591  1.00  0.00     0.020 A 
ATOM     19  C   UNL A   1      35.646  22.906  23.448  1.00  0.00     0.028 A 
ENDBRANCH   7  14
ENDBRANCH   5   6
BRANCH   5  20
ATOM     20  C   UNL A   1      31.663  26.269  26.393  1.00  0.00     0.047 C 
BRANCH  20  21
ATOM     21  C   UNL A   1      30.591  25.203  26.172  1.00  0.00     0.102 C 
BRANCH  21  22
ATOM     22  C   UNL A   1      30.947  23.775  26.549  1.00  0.00     0.217 C 
ATOM     23  N   UNL A   1      32.241  23.552  26.892  1.00  0.00    -0.370 N 
ATOM     24  O   UNL A   1      30.146  22.852  26.615  1.00  0.00    -0.275 OA
ATOM     25  H   UNL A   1      32.897  24.285  26.843  1.00  0.00     0.159 HD
ATOM     26  H   UNL A   1      32.524  22.657  27.189  1.00  0.00     0.159 HD
ENDBRANCH  21  22
ENDBRANCH  20  21
ENDBRANCH   5  20
ENDBRANCH   3   5
ENDBRANCH   2   3
ENDBRANCH   1   2
BRANCH   1  27
ATOM     27  C   UNL A   1      31.559  31.298  26.186  1.00  0.00     0.275 C 
BRANCH  27  28
ATOM     28  O   UNL A   1      32.531  31.180  27.245  1.00  0.00    -0.458 OA
BRANCH  28  29
ATOM     29  C   UNL A   1      33.315  32.269  27.414  1.00  0.00     0.338 C 
ATOM     30  O   UNL A   1      32.998  33.446  27.347  1.00  0.00    -0.246 OA
BRANCH  29  31
ATOM     31  C   UNL A   1      34.633  31.858  27.906  1.00  0.00     0.060 A 
ATOM     32  C   UNL A   1      34.759  30.545  28.352  1.00  0.00     0.016 A 
ATOM     33  C   UNL A   1      35.679  32.762  28.061  1.00  0.00     0.016 A 
ATOM     34  C   UNL A   1      35.896  30.135  29.027  1.00  0.00     0.010 A 
ATOM     35  C   UNL A   1      36.851  32.336  28.697  1.00  0.00     0.010 A 
ATOM     36  C   UNL A   1      36.955  31.028  29.209  1.00  0.00    -0.014 A 
BRANCH  36  37
ATOM     37  C   UNL A   1      38.140  30.579  29.975  1.00  0.00     0.031 A 
ATOM     38  C   UNL A   1      39.116  29.622  29.355  1.00  0.00     0.074 A 
ATOM     39  C   UNL A   1      38.355  31.075  31.209  1.00  0.00     0.049 A 
ATOM     40  N   UNL A   1      40.164  29.049  29.888  1.00  0.00    -0.248 NA
ATOM     41  C   UNL A   1      38.880  29.251  27.949  1.00  0.00     0.031 C 
ATOM     42  C   UNL A   1      37.496  32.048  31.888  1.00  0.00     0.029 A 
ATOM     43  N   UNL A   1      39.359  30.833  32.110  1.00  0.00    -0.354 N 
ATOM     44  C   UNL A   1      40.685  28.220  28.903  1.00  0.00     0.074 A 
ATOM     45  C   UNL A   1      39.837  28.357  27.739  1.00  0.00     0.031 C 
ATOM     46  C   UNL A   1      38.013  32.326  33.093  1.00  0.00     0.029 A 
ATOM     47  C   UNL A   1      39.196  31.500  33.301  1.00  0.00     0.049 A 
ATOM     48  H   UNL A   1      40.123  30.241  31.923  1.00  0.00     0.167 HD
ATOM     49  C   UNL A   1      41.774  27.418  28.973  1.00  0.00     0.037 A 
ATOM     50  C   UNL A   1      39.896  31.416  34.448  1.00  0.00     0.037 A 
ATOM     51  C   UNL A   1      42.632  27.326  30.128  1.00  0.00     0.049 A 
ATOM     52  C   UNL A   1      41.079  30.490  34.502  1.00  0.00     0.074 A 
ATOM     53  C   UNL A   1      43.788  26.582  30.285  1.00  0.00     0.029 A 
ATOM     54  N   UNL A   1      42.424  28.000  31.324  1.00  0.00    -0.354 N 
ATOM     55  N   UNL A   1      41.573  29.719  33.564  1.00  0.00    -0.248 NA
ATOM     56  C   UNL A   1      41.803  30.420  35.778  1.00  0.00     0.031 C 
ATOM     57  C   UNL A   1      44.239  26.749  31.598  1.00  0.00     0.029 A 
ATOM     58  C   UNL A   1      43.409  27.656  32.237  1.00  0.00     0.049 A 
ATOM     59  H   UNL A   1      41.686  28.628  31.497  1.00  0.00     0.167 HD
ATOM     60  C   UNL A   1      42.674  29.089  34.126  1.00  0.00     0.074 A 
ATOM     61  C   UNL A   1      42.794  29.595  35.478  1.00  0.00     0.031 C 
ATOM     62  C   UNL A   1      43.508  28.170  33.579  1.00  0.00     0.037 A 
BRANCH  49  63
ATOM     63  C   UNL A   1      42.084  26.538  27.797  1.00  0.00     0.064 A 
ATOM     64  C   UNL A   1      43.042  26.884  26.834  1.00  0.00     0.173 A 
ATOM     65  C   UNL A   1      41.454  25.288  27.675  1.00  0.00     0.173 A 
ATOM     66  F   UNL A   1      43.666  28.070  26.895  1.00  0.00    -0.203 F 
ATOM     67  C   UNL A   1      43.350  26.017  25.786  1.00  0.00     0.198 A 
ATOM     68  C   UNL A   1      41.786  24.412  26.646  1.00  0.00     0.198 A 
ATOM     69  F   UNL A   1      40.532  24.906  28.571  1.00  0.00    -0.203 F 
ATOM     70  F   UNL A   1      44.244  26.382  24.857  1.00  0.00    -0.200 F 
ATOM     71  C   UNL A   1      42.730  24.779  25.699  1.00  0.00     0.200 A 
ATOM     72  F   UNL A   1      41.196  23.211  26.574  1.00  0.00    -0.200 F 
ATOM     73  F   UNL A   1      43.042  23.939  24.703  1.00  0.00    -0.200 F 
ENDBRANCH  49  63
BRANCH  50  74
ATOM     74  C   UNL A   1      39.465  32.186  35.645  1.00  0.00     0.064 A 
ATOM     75  C   UNL A   1      40.007  33.446  35.937  1.00  0.00     0.173 A 
ATOM     76  C   UNL A   1      38.523  31.660  36.544  1.00  0.00     0.173 A 
ATOM     77  F   UNL A   1      40.926  33.984  35.122  1.00  0.00    -0.203 F 
ATOM     78  C   UNL A   1      39.649  34.133  37.095  1.00  0.00     0.198 A 
ATOM     79  C   UNL A   1      38.135  32.367  37.680  1.00  0.00     0.198 A 
ATOM     80  F   UNL A   1      37.969  30.462  36.313  1.00  0.00    -0.203 F 
ATOM     81  F   UNL A   1      40.233  35.304  37.383  1.00  0.00    -0.200 F 
ATOM     82  C   UNL A   1      38.710  33.596  37.963  1.00  0.00     0.200 A 
ATOM     83  F   UNL A   1      37.212  31.852  38.502  1.00  0.00    -0.200 F 
ATOM     84  F   UNL A   1      38.366  34.257  39.076  1.00  0.00    -0.200 F 
ENDBRANCH  50  74
BRANCH  62  85
ATOM     85  C   UNL A   1      44.638  27.681  34.439  1.00  0.00     0.064 A 
ATOM     86  C   UNL A   1      45.868  28.354  34.494  1.00  0.00     0.173 A 
ATOM     87  C   UNL A   1      44.485  26.528  35.225  1.00  0.00     0.173 A 
ATOM     88  F   UNL A   1      46.072  29.452  33.752  1.00  0.00    -0.203 F 
ATOM     89  C   UNL A   1      46.917  27.866  35.270  1.00  0.00     0.198 A 
ATOM     90  C   UNL A   1      45.523  26.066  36.030  1.00  0.00     0.198 A 
ATOM     91  F   UNL A   1      43.327  25.851  35.217  1.00  0.00    -0.203 F 
ATOM     92  F   UNL A   1      48.106  28.485  35.250  1.00  0.00    -0.200 F 
ATOM     93  C   UNL A   1      46.741  26.727  36.040  1.00  0.00     0.200 A 
ATOM     94  F   UNL A   1      45.345  24.976  36.788  1.00  0.00    -0.200 F 
ATOM     95  F   UNL A   1      47.751  26.259  36.786  1.00  0.00    -0.200 F 
ENDBRANCH  62  85
ENDBRANCH  36  37
ENDBRANCH  29  31
ENDBRANCH  28  29
ENDBRANCH  27  28
ENDBRANCH   1  27
TORSDOF 16
ENDMDL
