MODEL 1
REMARK VINA RESULT:     -12.4      0.000      0.000
REMARK SMILES CCS(=O)(=O)Nc1ccc(N2CC[NH+](C)CC2)cc1C(=O)OCCOC(=O)c1ccc(-c2c3nc(c(-c4c(F)c(F)c(F)c(F)c4F)c4ccc([nH]4)c(-c4c(F)c(F)c(F)c(F)c4F)c4nc(c(-c5c(F)c(F)c(F)c(F)c5F)c5ccc2[nH]5)C=C4)C=C3)cc1
REMARK SMILES IDX 23 1 22 2 20 3 21 4 19 5 7 6 8 7 9 8 18 9 10 10 6 11 3 13
REMARK SMILES IDX 4 14 5 15 2 16 1 17 11 18 12 19 17 20 13 21 16 22 14 23
REMARK SMILES IDX 15 24 24 26 25 27 26 28 27 29 28 30 29 31 90 32 30 33 89 34
REMARK SMILES IDX 31 35 32 36 33 37 83 38 34 39 88 40 82 41 84 42 35 43 87 44
REMARK SMILES IDX 81 45 80 46 36 48 68 49 48 50 67 51 49 52 52 53 66 54 85 55
REMARK SMILES IDX 50 56 51 57 65 59 86 60 53 61 37 62 38 63 46 64 39 65 40 66
REMARK SMILES IDX 44 67 47 68 41 69 42 70 45 71 43 72 69 73 70 74 78 75 71 76
REMARK SMILES IDX 72 77 76 78 79 79 73 80 74 81 77 82 75 83 54 84 55 85 63 86
REMARK SMILES IDX 56 87 57 88 61 89 64 90 58 91 59 92 62 93 60 94
REMARK H PARENT 6 12 14 25 84 47 52 58
REMARK Flexibility Score: inf
ROOT
ATOM      1  C   UNL A   1      31.017  31.538  26.083  1.00  0.00     0.275 C 
ENDROOT
BRANCH   1   2
ATOM      2  O   UNL A   1      31.655  30.269  26.376  1.00  0.00    -0.458 OA
BRANCH   2   3
ATOM      3  C   UNL A   1      31.971  29.579  25.261  1.00  0.00     0.340 C 
ATOM      4  O   UNL A   1      32.982  29.744  24.592  1.00  0.00    -0.246 OA
BRANCH   3   5
ATOM      5  C   UNL A   1      30.958  28.623  24.792  1.00  0.00     0.086 A 
ATOM      6  C   UNL A   1      30.120  28.909  23.714  1.00  0.00     0.063 A 
ATOM      7  C   UNL A   1      29.327  27.874  23.208  1.00  0.00     0.030 A 
ATOM      8  C   UNL A   1      29.474  26.554  23.660  1.00  0.00     0.028 A 
ATOM      9  C   UNL A   1      31.072  27.287  25.255  1.00  0.00     0.043 A 
ATOM     10  C   UNL A   1      30.395  26.216  24.657  1.00  0.00     0.038 A 
BRANCH   6  11
ATOM     11  N   UNL A   1      29.851  30.199  23.165  1.00  0.00    -0.283 N 
ATOM     12  H   UNL A   1      30.594  30.843  23.192  1.00  0.00     0.180 HD
BRANCH  11  13
ATOM     13  S   UNL A   1      28.434  30.744  22.485  1.00  0.00     0.232 S 
ATOM     14  O   UNL A   1      27.378  30.394  23.411  1.00  0.00    -0.207 OA
ATOM     15  O   UNL A   1      28.414  30.145  21.164  1.00  0.00    -0.207 OA
BRANCH  13  16
ATOM     16  C   UNL A   1      28.390  32.517  22.224  1.00  0.00     0.156 C 
ATOM     17  C   UNL A   1      29.149  33.401  23.175  1.00  0.00     0.023 C 
ENDBRANCH  13  16
ENDBRANCH  11  13
ENDBRANCH   6  11
BRANCH  10  18
ATOM     18  N   UNL A   1      30.717  24.903  24.950  1.00  0.00    -0.360 N 
ATOM     19  C   UNL A   1      30.514  24.297  26.280  1.00  0.00     0.178 C 
ATOM     20  C   UNL A   1      30.897  23.921  23.864  1.00  0.00     0.178 C 
ATOM     21  C   UNL A   1      31.588  23.211  26.574  1.00  0.00     0.283 C 
ATOM     22  C   UNL A   1      32.013  22.915  24.222  1.00  0.00     0.283 C 
ATOM     23  N   UNL A   1      31.757  22.211  25.495  1.00  0.00    -0.334 N 
ATOM     24  C   UNL A   1      32.870  21.309  25.805  1.00  0.00     0.332 C 
ATOM     25  H   UNL A   1      30.908  21.653  25.415  1.00  0.00     0.347 HD
ENDBRANCH  10  18
ENDBRANCH   3   5
ENDBRANCH   2   3
ENDBRANCH   1   2
BRANCH   1  26
ATOM     26  C   UNL A   1      31.751  32.771  26.614  1.00  0.00     0.275 C 
BRANCH  26  27
ATOM     27  O   UNL A   1      32.638  32.466  27.705  1.00  0.00    -0.458 OA
BRANCH  27  28
ATOM     28  C   UNL A   1      33.679  33.321  27.827  1.00  0.00     0.338 C 
ATOM     29  O   UNL A   1      33.634  34.537  27.862  1.00  0.00    -0.246 OA
BRANCH  28  30
ATOM     30  C   UNL A   1      34.958  32.610  27.996  1.00  0.00     0.060 A 
ATOM     31  C   UNL A   1      34.934  31.244  28.225  1.00  0.00     0.016 A 
ATOM     32  C   UNL A   1      36.125  33.325  28.249  1.00  0.00     0.016 A 
ATOM     33  C   UNL A   1      35.976  30.627  28.894  1.00  0.00     0.010 A 
ATOM     34  C   UNL A   1      37.241  32.662  28.780  1.00  0.00     0.010 A 
ATOM     35  C   UNL A   1      37.154  31.317  29.180  1.00  0.00    -0.014 A 
BRANCH  35  36
ATOM     36  C   UNL A   1      38.229  30.642  29.961  1.00  0.00     0.031 A 
ATOM     37  C   UNL A   1      38.353  30.894  31.444  1.00  0.00     0.074 A 
ATOM     38  C   UNL A   1      39.044  29.743  29.372  1.00  0.00     0.049 A 
ATOM     39  N   UNL A   1      39.322  30.564  32.260  1.00  0.00    -0.248 NA
ATOM     40  C   UNL A   1      37.251  31.622  32.091  1.00  0.00     0.031 C 
ATOM     41  C   UNL A   1      38.979  29.328  27.968  1.00  0.00     0.029 A 
ATOM     42  N   UNL A   1      40.069  28.987  29.885  1.00  0.00    -0.354 N 
ATOM     43  C   UNL A   1      38.993  31.127  33.488  1.00  0.00     0.074 A 
ATOM     44  C   UNL A   1      37.724  31.800  33.318  1.00  0.00     0.031 C 
ATOM     45  C   UNL A   1      39.861  28.344  27.753  1.00  0.00     0.029 A 
ATOM     46  C   UNL A   1      40.655  28.156  28.958  1.00  0.00     0.049 A 
ATOM     47  H   UNL A   1      40.356  29.033  30.825  1.00  0.00     0.167 HD
ATOM     48  C   UNL A   1      39.700  31.094  34.643  1.00  0.00     0.037 A 
ATOM     49  C   UNL A   1      41.744  27.372  29.047  1.00  0.00     0.037 A 
ATOM     50  C   UNL A   1      40.929  30.362  34.811  1.00  0.00     0.049 A 
ATOM     51  C   UNL A   1      42.526  27.377  30.329  1.00  0.00     0.074 A 
ATOM     52  C   UNL A   1      41.736  30.269  35.932  1.00  0.00     0.029 A 
ATOM     53  N   UNL A   1      41.518  29.574  33.832  1.00  0.00    -0.354 N 
ATOM     54  N   UNL A   1      42.263  27.993  31.457  1.00  0.00    -0.248 NA
ATOM     55  C   UNL A   1      43.771  26.602  30.341  1.00  0.00     0.031 C 
ATOM     56  C   UNL A   1      42.838  29.467  35.615  1.00  0.00     0.029 A 
ATOM     57  C   UNL A   1      42.687  29.007  34.317  1.00  0.00     0.049 A 
ATOM     58  H   UNL A   1      41.159  29.438  32.926  1.00  0.00     0.167 HD
ATOM     59  C   UNL A   1      43.310  27.681  32.312  1.00  0.00     0.074 A 
ATOM     60  C   UNL A   1      44.183  26.780  31.587  1.00  0.00     0.031 C 
ATOM     61  C   UNL A   1      43.541  28.115  33.576  1.00  0.00     0.037 A 
BRANCH  48  62
ATOM     62  C   UNL A   1      39.203  31.923  35.795  1.00  0.00     0.064 A 
ATOM     63  C   UNL A   1      38.333  31.416  36.771  1.00  0.00     0.173 A 
ATOM     64  C   UNL A   1      39.636  33.252  35.935  1.00  0.00     0.173 A 
ATOM     65  F   UNL A   1      37.873  30.160  36.678  1.00  0.00    -0.203 F 
ATOM     66  C   UNL A   1      37.898  32.214  37.829  1.00  0.00     0.198 A 
ATOM     67  C   UNL A   1      39.227  34.035  37.012  1.00  0.00     0.198 A 
ATOM     68  F   UNL A   1      40.471  33.791  35.033  1.00  0.00    -0.203 F 
ATOM     69  F   UNL A   1      37.028  31.723  38.722  1.00  0.00    -0.200 F 
ATOM     70  C   UNL A   1      38.352  33.519  37.954  1.00  0.00     0.200 A 
ATOM     71  F   UNL A   1      39.680  35.291  37.136  1.00  0.00    -0.200 F 
ATOM     72  F   UNL A   1      37.941  34.280  38.977  1.00  0.00    -0.200 F 
ENDBRANCH  48  62
BRANCH  49  73
ATOM     73  C   UNL A   1      42.197  26.575  27.873  1.00  0.00     0.064 A 
ATOM     74  C   UNL A   1      43.149  27.086  26.981  1.00  0.00     0.173 A 
ATOM     75  C   UNL A   1      41.682  25.295  27.608  1.00  0.00     0.173 A 
ATOM     76  F   UNL A   1      43.659  28.311  27.175  1.00  0.00    -0.203 F 
ATOM     77  C   UNL A   1      43.553  26.358  25.862  1.00  0.00     0.198 A 
ATOM     78  C   UNL A   1      42.121  24.550  26.516  1.00  0.00     0.198 A 
ATOM     79  F   UNL A   1      40.767  24.755  28.427  1.00  0.00    -0.203 F 
ATOM     80  F   UNL A   1      44.422  26.896  24.995  1.00  0.00    -0.200 F 
ATOM     81  C   UNL A   1      43.046  25.087  25.636  1.00  0.00     0.200 A 
ATOM     82  F   UNL A   1      41.646  23.313  26.319  1.00  0.00    -0.200 F 
ATOM     83  F   UNL A   1      43.444  24.384  24.568  1.00  0.00    -0.200 F 
ENDBRANCH  49  73
BRANCH  61  84
ATOM     84  C   UNL A   1      44.776  27.594  34.252  1.00  0.00     0.064 A 
ATOM     85  C   UNL A   1      44.764  26.399  34.987  1.00  0.00     0.173 A 
ATOM     86  C   UNL A   1      45.984  28.301  34.169  1.00  0.00     0.173 A 
ATOM     87  F   UNL A   1      43.629  25.694  35.111  1.00  0.00    -0.203 F 
ATOM     88  C   UNL A   1      45.904  25.955  35.651  1.00  0.00     0.198 A 
ATOM     89  C   UNL A   1      47.132  27.835  34.802  1.00  0.00     0.198 A 
ATOM     90  F   UNL A   1      46.053  29.446  33.471  1.00  0.00    -0.203 F 
ATOM     91  F   UNL A   1      45.848  24.851  36.408  1.00  0.00    -0.200 F 
ATOM     92  C   UNL A   1      47.088  26.670  35.554  1.00  0.00     0.200 A 
ATOM     93  F   UNL A   1      48.280  28.519  34.695  1.00  0.00    -0.200 F 
ATOM     94  F   UNL A   1      48.184  26.246  36.197  1.00  0.00    -0.200 F 
ENDBRANCH  61  84
ENDBRANCH  35  36
ENDBRANCH  28  30
ENDBRANCH  27  28
ENDBRANCH  26  27
ENDBRANCH   1  26
TORSDOF 15
ENDMDL
MODEL 2
REMARK VINA RESULT:     -12.4      4.859      7.912
REMARK SMILES CCS(=O)(=O)Nc1ccc(N2CC[NH+](C)CC2)cc1C(=O)OCCOC(=O)c1ccc(-c2c3nc(c(-c4c(F)c(F)c(F)c(F)c4F)c4ccc([nH]4)c(-c4c(F)c(F)c(F)c(F)c4F)c4nc(c(-c5c(F)c(F)c(F)c(F)c5F)c5ccc2[nH]5)C=C4)C=C3)cc1
REMARK SMILES IDX 23 1 22 2 20 3 21 4 19 5 7 6 8 7 9 8 18 9 10 10 6 11 3 13
REMARK SMILES IDX 4 14 5 15 2 16 1 17 11 18 12 19 17 20 13 21 16 22 14 23
REMARK SMILES IDX 15 24 24 26 25 27 26 28 27 29 28 30 29 31 90 32 30 33 89 34
REMARK SMILES IDX 31 35 32 36 33 37 83 38 34 39 88 40 82 41 84 42 35 43 87 44
REMARK SMILES IDX 81 45 80 46 36 48 68 49 48 50 67 51 49 52 52 53 66 54 85 55
REMARK SMILES IDX 50 56 51 57 65 59 86 60 53 61 37 62 38 63 46 64 39 65 40 66
REMARK SMILES IDX 44 67 47 68 41 69 42 70 45 71 43 72 69 73 70 74 78 75 71 76
REMARK SMILES IDX 72 77 76 78 79 79 73 80 74 81 77 82 75 83 54 84 55 85 63 86
REMARK SMILES IDX 56 87 57 88 61 89 64 90 58 91 59 92 62 93 60 94
REMARK H PARENT 6 12 14 25 84 47 52 58
REMARK Flexibility Score: inf
ROOT
ATOM      1  C   UNL A   1      36.957  22.801  23.493  1.00  0.00     0.275 C 
ENDROOT
BRANCH   1   2
ATOM      2  O   UNL A   1      35.638  23.005  22.926  1.00  0.00    -0.458 OA
BRANCH   2   3
ATOM      3  C   UNL A   1      34.885  23.850  23.659  1.00  0.00     0.340 C 
ATOM      4  O   UNL A   1      35.288  24.517  24.603  1.00  0.00    -0.246 OA
BRANCH   3   5
ATOM      5  C   UNL A   1      33.453  23.883  23.327  1.00  0.00     0.086 A 
ATOM      6  C   UNL A   1      32.646  22.752  23.441  1.00  0.00     0.063 A 
ATOM      7  C   UNL A   1      31.264  22.916  23.300  1.00  0.00     0.030 A 
ATOM      8  C   UNL A   1      30.687  24.192  23.200  1.00  0.00     0.028 A 
ATOM      9  C   UNL A   1      32.853  25.163  23.197  1.00  0.00     0.043 A 
ATOM     10  C   UNL A   1      31.465  25.353  23.206  1.00  0.00     0.038 A 
BRANCH   6  11
ATOM     11  N   UNL A   1      33.087  21.397  23.522  1.00  0.00    -0.283 N 
ATOM     12  H   UNL A   1      33.362  20.981  22.673  1.00  0.00     0.180 HD
BRANCH  11  13
ATOM     13  S   UNL A   1      33.195  20.436  24.876  1.00  0.00     0.232 S 
ATOM     14  O   UNL A   1      31.836  20.115  25.255  1.00  0.00    -0.207 OA
ATOM     15  O   UNL A   1      34.001  21.208  25.802  1.00  0.00    -0.207 OA
BRANCH  13  16
ATOM     16  C   UNL A   1      34.083  18.902  24.608  1.00  0.00     0.156 C 
ATOM     17  C   UNL A   1      33.496  17.889  23.665  1.00  0.00     0.023 C 
ENDBRANCH  13  16
ENDBRANCH  11  13
ENDBRANCH   6  11
BRANCH  10  18
ATOM     18  N   UNL A   1      30.909  26.613  23.341  1.00  0.00    -0.360 N 
ATOM     19  C   UNL A   1      29.523  26.841  23.792  1.00  0.00     0.178 C 
ATOM     20  C   UNL A   1      31.777  27.802  23.438  1.00  0.00     0.178 C 
ATOM     21  C   UNL A   1      28.924  28.123  23.143  1.00  0.00     0.283 C 
ATOM     22  C   UNL A   1      31.125  29.008  22.727  1.00  0.00     0.283 C 
ATOM     23  N   UNL A   1      29.782  29.324  23.257  1.00  0.00    -0.334 N 
ATOM     24  C   UNL A   1      29.197  30.442  22.512  1.00  0.00     0.332 C 
ATOM     25  H   UNL A   1      29.855  29.596  24.237  1.00  0.00     0.347 HD
ENDBRANCH  10  18
ENDBRANCH   3   5
ENDBRANCH   2   3
ENDBRANCH   1   2
BRANCH   1  26
ATOM     26  C   UNL A   1      37.121  21.518  24.311  1.00  0.00     0.275 C 
BRANCH  26  27
ATOM     27  O   UNL A   1      37.443  21.774  25.690  1.00  0.00    -0.458 OA
BRANCH  27  28
ATOM     28  C   UNL A   1      38.763  21.693  25.974  1.00  0.00     0.338 C 
ATOM     29  O   UNL A   1      39.552  20.855  25.576  1.00  0.00    -0.246 OA
BRANCH  28  30
ATOM     30  C   UNL A   1      39.216  22.818  26.809  1.00  0.00     0.060 A 
ATOM     31  C   UNL A   1      38.674  24.072  26.584  1.00  0.00     0.016 A 
ATOM     32  C   UNL A   1      40.379  22.702  27.564  1.00  0.00     0.016 A 
ATOM     33  C   UNL A   1      39.381  25.213  26.919  1.00  0.00     0.010 A 
ATOM     34  C   UNL A   1      41.012  23.858  28.043  1.00  0.00     0.010 A 
ATOM     35  C   UNL A   1      40.560  25.134  27.661  1.00  0.00    -0.014 A 
BRANCH  35  36
ATOM     36  C   UNL A   1      41.333  26.376  27.945  1.00  0.00     0.031 A 
ATOM     37  C   UNL A   1      40.744  27.444  28.833  1.00  0.00     0.074 A 
ATOM     38  C   UNL A   1      42.592  26.521  27.482  1.00  0.00     0.049 A 
ATOM     39  N   UNL A   1      41.161  28.666  29.047  1.00  0.00    -0.248 NA
ATOM     40  C   UNL A   1      39.516  27.098  29.567  1.00  0.00     0.031 C 
ATOM     41  C   UNL A   1      43.327  25.531  26.691  1.00  0.00     0.029 A 
ATOM     42  N   UNL A   1      43.495  27.545  27.637  1.00  0.00    -0.354 N 
ATOM     43  C   UNL A   1      40.201  29.260  29.857  1.00  0.00     0.074 A 
ATOM     44  C   UNL A   1      39.189  28.259  30.117  1.00  0.00     0.031 C 
ATOM     45  C   UNL A   1      44.582  25.956  26.499  1.00  0.00     0.029 A 
ATOM     46  C   UNL A   1      44.703  27.307  27.024  1.00  0.00     0.049 A 
ATOM     47  H   UNL A   1      43.297  28.368  28.138  1.00  0.00     0.167 HD
ATOM     48  C   UNL A   1      40.166  30.532  30.323  1.00  0.00     0.037 A 
ATOM     49  C   UNL A   1      45.770  28.107  26.850  1.00  0.00     0.037 A 
ATOM     50  C   UNL A   1      41.217  31.494  30.109  1.00  0.00     0.049 A 
ATOM     51  C   UNL A   1      45.694  29.521  27.351  1.00  0.00     0.074 A 
ATOM     52  C   UNL A   1      41.280  32.814  30.524  1.00  0.00     0.029 A 
ATOM     53  N   UNL A   1      42.403  31.230  29.438  1.00  0.00    -0.354 N 
ATOM     54  N   UNL A   1      44.738  30.108  28.030  1.00  0.00    -0.248 NA
ATOM     55  C   UNL A   1      46.832  30.391  27.035  1.00  0.00     0.031 C 
ATOM     56  C   UNL A   1      42.482  33.361  30.060  1.00  0.00     0.029 A 
ATOM     57  C   UNL A   1      43.196  32.367  29.411  1.00  0.00     0.049 A 
ATOM     58  H   UNL A   1      42.645  30.364  29.039  1.00  0.00     0.167 HD
ATOM     59  C   UNL A   1      45.158  31.417  28.222  1.00  0.00     0.074 A 
ATOM     60  C   UNL A   1      46.477  31.520  27.631  1.00  0.00     0.031 C 
ATOM     61  C   UNL A   1      44.505  32.447  28.814  1.00  0.00     0.037 A 
BRANCH  48  62
ATOM     62  C   UNL A   1      38.928  30.980  31.051  1.00  0.00     0.064 A 
ATOM     63  C   UNL A   1      37.814  31.514  30.388  1.00  0.00     0.173 A 
ATOM     64  C   UNL A   1      38.852  30.839  32.447  1.00  0.00     0.173 A 
ATOM     65  F   UNL A   1      37.838  31.687  29.058  1.00  0.00    -0.203 F 
ATOM     66  C   UNL A   1      36.681  31.913  31.097  1.00  0.00     0.198 A 
ATOM     67  C   UNL A   1      37.706  31.207  33.147  1.00  0.00     0.198 A 
ATOM     68  F   UNL A   1      39.887  30.332  33.134  1.00  0.00    -0.203 F 
ATOM     69  F   UNL A   1      35.648  32.467  30.448  1.00  0.00    -0.200 F 
ATOM     70  C   UNL A   1      36.624  31.750  32.473  1.00  0.00     0.200 A 
ATOM     71  F   UNL A   1      37.650  31.035  34.475  1.00  0.00    -0.200 F 
ATOM     72  F   UNL A   1      35.530  32.125  33.151  1.00  0.00    -0.200 F 
ENDBRANCH  48  62
BRANCH  49  73
ATOM     73  C   UNL A   1      46.969  27.615  26.116  1.00  0.00     0.064 A 
ATOM     74  C   UNL A   1      48.062  27.073  26.805  1.00  0.00     0.173 A 
ATOM     75  C   UNL A   1      47.057  27.687  24.716  1.00  0.00     0.173 A 
ATOM     76  F   UNL A   1      48.039  27.000  28.145  1.00  0.00    -0.203 F 
ATOM     77  C   UNL A   1      49.201  26.641  26.127  1.00  0.00     0.198 A 
ATOM     78  C   UNL A   1      48.176  27.212  24.036  1.00  0.00     0.198 A 
ATOM     79  F   UNL A   1      46.042  28.197  24.003  1.00  0.00    -0.203 F 
ATOM     80  F   UNL A   1      50.254  26.181  26.817  1.00  0.00    -0.200 F 
ATOM     81  C   UNL A   1      49.253  26.701  24.742  1.00  0.00     0.200 A 
ATOM     82  F   UNL A   1      48.209  27.250  22.697  1.00  0.00    -0.200 F 
ATOM     83  F   UNL A   1      50.343  26.275  24.091  1.00  0.00    -0.200 F 
ENDBRANCH  49  73
BRANCH  61  84
ATOM     84  C   UNL A   1      45.229  33.761  28.869  1.00  0.00     0.064 A 
ATOM     85  C   UNL A   1      46.088  34.085  29.931  1.00  0.00     0.173 A 
ATOM     86  C   UNL A   1      45.057  34.710  27.851  1.00  0.00     0.173 A 
ATOM     87  F   UNL A   1      46.272  33.218  30.939  1.00  0.00    -0.203 F 
ATOM     88  C   UNL A   1      46.711  35.328  29.994  1.00  0.00     0.198 A 
ATOM     89  C   UNL A   1      45.713  35.936  27.897  1.00  0.00     0.198 A 
ATOM     90  F   UNL A   1      44.254  34.448  26.809  1.00  0.00    -0.203 F 
ATOM     91  F   UNL A   1      47.467  35.642  31.055  1.00  0.00    -0.200 F 
ATOM     92  C   UNL A   1      46.527  36.250  28.975  1.00  0.00     0.200 A 
ATOM     93  F   UNL A   1      45.546  36.822  26.905  1.00  0.00    -0.200 F 
ATOM     94  F   UNL A   1      47.124  37.448  29.039  1.00  0.00    -0.200 F 
ENDBRANCH  61  84
ENDBRANCH  35  36
ENDBRANCH  28  30
ENDBRANCH  27  28
ENDBRANCH  26  27
ENDBRANCH   1  26
TORSDOF 15
ENDMDL
MODEL 3
REMARK VINA RESULT:     -12.3      5.058      8.117
REMARK SMILES CCS(=O)(=O)Nc1ccc(N2CC[NH+](C)CC2)cc1C(=O)OCCOC(=O)c1ccc(-c2c3nc(c(-c4c(F)c(F)c(F)c(F)c4F)c4ccc([nH]4)c(-c4c(F)c(F)c(F)c(F)c4F)c4nc(c(-c5c(F)c(F)c(F)c(F)c5F)c5ccc2[nH]5)C=C4)C=C3)cc1
REMARK SMILES IDX 23 1 22 2 20 3 21 4 19 5 7 6 8 7 9 8 18 9 10 10 6 11 3 13
REMARK SMILES IDX 4 14 5 15 2 16 1 17 11 18 12 19 17 20 13 21 16 22 14 23
REMARK SMILES IDX 15 24 24 26 25 27 26 28 27 29 28 30 29 31 90 32 30 33 89 34
REMARK SMILES IDX 31 35 32 36 33 37 83 38 34 39 88 40 82 41 84 42 35 43 87 44
REMARK SMILES IDX 81 45 80 46 36 48 68 49 48 50 67 51 49 52 52 53 66 54 85 55
REMARK SMILES IDX 50 56 51 57 65 59 86 60 53 61 37 62 38 63 46 64 39 65 40 66
REMARK SMILES IDX 44 67 47 68 41 69 42 70 45 71 43 72 69 73 70 74 78 75 71 76
REMARK SMILES IDX 72 77 76 78 79 79 73 80 74 81 77 82 75 83 54 84 55 85 63 86
REMARK SMILES IDX 56 87 57 88 61 89 64 90 58 91 59 92 62 93 60 94
REMARK H PARENT 6 12 14 25 84 47 52 58
REMARK Flexibility Score: inf
ROOT
ATOM      1  C   UNL A   1      36.156  22.283  25.041  1.00  0.00     0.275 C 
ENDROOT
BRANCH   1   2
ATOM      2  O   UNL A   1      35.686  22.879  26.276  1.00  0.00    -0.458 OA
BRANCH   2   3
ATOM      3  C   UNL A   1      34.504  22.370  26.680  1.00  0.00     0.340 C 
ATOM      4  O   UNL A   1      34.363  21.497  27.525  1.00  0.00    -0.246 OA
BRANCH   3   5
ATOM      5  C   UNL A   1      33.318  22.864  25.964  1.00  0.00     0.086 A 
ATOM      6  C   UNL A   1      32.210  22.049  25.728  1.00  0.00     0.063 A 
ATOM      7  C   UNL A   1      31.052  22.649  25.223  1.00  0.00     0.030 A 
ATOM      8  C   UNL A   1      30.947  24.043  25.099  1.00  0.00     0.028 A 
ATOM      9  C   UNL A   1      33.202  24.269  25.806  1.00  0.00     0.043 A 
ATOM     10  C   UNL A   1      32.001  24.894  25.445  1.00  0.00     0.038 A 
BRANCH   6  11
ATOM     11  N   UNL A   1      32.175  20.624  25.787  1.00  0.00    -0.283 N 
ATOM     12  H   UNL A   1      31.838  20.234  26.626  1.00  0.00     0.180 HD
BRANCH  11  13
ATOM     13  S   UNL A   1      32.631  19.541  24.609  1.00  0.00     0.232 S 
ATOM     14  O   UNL A   1      32.372  20.187  23.341  1.00  0.00    -0.207 OA
ATOM     15  O   UNL A   1      31.894  18.332  24.926  1.00  0.00    -0.207 OA
BRANCH  13  16
ATOM     16  C   UNL A   1      34.365  19.091  24.669  1.00  0.00     0.156 C 
ATOM     17  C   UNL A   1      34.753  17.684  24.308  1.00  0.00     0.023 C 
ENDBRANCH  13  16
ENDBRANCH  11  13
ENDBRANCH   6  11
BRANCH  10  18
ATOM     18  N   UNL A   1      31.839  26.264  25.550  1.00  0.00    -0.360 N 
ATOM     19  C   UNL A   1      32.001  27.188  24.411  1.00  0.00     0.178 C 
ATOM     20  C   UNL A   1      31.105  26.841  26.692  1.00  0.00     0.178 C 
ATOM     21  C   UNL A   1      32.536  28.572  24.879  1.00  0.00     0.283 C 
ATOM     22  C   UNL A   1      31.734  28.186  27.118  1.00  0.00     0.283 C 
ATOM     23  N   UNL A   1      31.788  29.164  26.012  1.00  0.00    -0.334 N 
ATOM     24  C   UNL A   1      32.437  30.398  26.463  1.00  0.00     0.332 C 
ATOM     25  H   UNL A   1      30.842  29.394  25.710  1.00  0.00     0.347 HD
ENDBRANCH  10  18
ENDBRANCH   3   5
ENDBRANCH   2   3
ENDBRANCH   1   2
BRANCH   1  26
ATOM     26  C   UNL A   1      37.200  21.177  25.210  1.00  0.00     0.275 C 
BRANCH  26  27
ATOM     27  O   UNL A   1      38.549  21.655  25.054  1.00  0.00    -0.458 OA
BRANCH  27  28
ATOM     28  C   UNL A   1      39.363  21.359  26.092  1.00  0.00     0.338 C 
ATOM     29  O   UNL A   1      39.841  20.274  26.369  1.00  0.00    -0.246 OA
BRANCH  28  30
ATOM     30  C   UNL A   1      39.707  22.556  26.880  1.00  0.00     0.060 A 
ATOM     31  C   UNL A   1      39.158  23.773  26.512  1.00  0.00     0.016 A 
ATOM     32  C   UNL A   1      40.793  22.530  27.749  1.00  0.00     0.016 A 
ATOM     33  C   UNL A   1      39.802  24.956  26.827  1.00  0.00     0.010 A 
ATOM     34  C   UNL A   1      41.348  23.737  28.199  1.00  0.00     0.010 A 
ATOM     35  C   UNL A   1      40.905  24.967  27.681  1.00  0.00    -0.014 A 
BRANCH  35  36
ATOM     36  C   UNL A   1      41.616  26.250  27.945  1.00  0.00     0.031 A 
ATOM     37  C   UNL A   1      40.981  27.298  28.824  1.00  0.00     0.074 A 
ATOM     38  C   UNL A   1      42.863  26.453  27.470  1.00  0.00     0.049 A 
ATOM     39  N   UNL A   1      41.338  28.542  29.019  1.00  0.00    -0.248 NA
ATOM     40  C   UNL A   1      39.777  26.900  29.571  1.00  0.00     0.031 C 
ATOM     41  C   UNL A   1      43.641  25.491  26.685  1.00  0.00     0.029 A 
ATOM     42  N   UNL A   1      43.714  27.522  27.605  1.00  0.00    -0.354 N 
ATOM     43  C   UNL A   1      40.354  29.098  29.830  1.00  0.00     0.074 A 
ATOM     44  C   UNL A   1      39.396  28.051  30.110  1.00  0.00     0.031 C 
ATOM     45  C   UNL A   1      44.872  25.976  26.478  1.00  0.00     0.029 A 
ATOM     46  C   UNL A   1      44.929  27.338  26.985  1.00  0.00     0.049 A 
ATOM     47  H   UNL A   1      43.479  28.340  28.098  1.00  0.00     0.167 HD
ATOM     48  C   UNL A   1      40.259  30.372  30.280  1.00  0.00     0.037 A 
ATOM     49  C   UNL A   1      45.953  28.188  26.794  1.00  0.00     0.037 A 
ATOM     50  C   UNL A   1      41.258  31.383  30.046  1.00  0.00     0.049 A 
ATOM     51  C   UNL A   1      45.809  29.603  27.278  1.00  0.00     0.074 A 
ATOM     52  C   UNL A   1      41.259  32.709  30.444  1.00  0.00     0.029 A 
ATOM     53  N   UNL A   1      42.451  31.171  29.369  1.00  0.00    -0.354 N 
ATOM     54  N   UNL A   1      44.830  30.150  27.957  1.00  0.00    -0.248 NA
ATOM     55  C   UNL A   1      46.900  30.525  26.943  1.00  0.00     0.031 C 
ATOM     56  C   UNL A   1      42.428  33.310  29.964  1.00  0.00     0.029 A 
ATOM     57  C   UNL A   1      43.186  32.345  29.322  1.00  0.00     0.049 A 
ATOM     58  H   UNL A   1      42.734  30.313  28.979  1.00  0.00     0.167 HD
ATOM     59  C   UNL A   1      45.185  31.480  28.130  1.00  0.00     0.074 A 
ATOM     60  C   UNL A   1      46.493  31.641  27.528  1.00  0.00     0.031 C 
ATOM     61  C   UNL A   1      44.485  32.483  28.715  1.00  0.00     0.037 A 
BRANCH  48  62
ATOM     62  C   UNL A   1      39.006  30.766  31.012  1.00  0.00     0.064 A 
ATOM     63  C   UNL A   1      38.902  30.722  32.410  1.00  0.00     0.173 A 
ATOM     64  C   UNL A   1      37.893  31.228  30.290  1.00  0.00     0.173 A 
ATOM     65  F   UNL A   1      39.927  30.272  33.149  1.00  0.00    -0.203 F 
ATOM     66  C   UNL A   1      37.724  31.101  33.054  1.00  0.00     0.198 A 
ATOM     67  C   UNL A   1      36.731  31.639  30.938  1.00  0.00     0.198 A 
ATOM     68  F   UNL A   1      37.935  31.295  28.950  1.00  0.00    -0.203 F 
ATOM     69  F   UNL A   1      37.631  31.003  34.387  1.00  0.00    -0.200 F 
ATOM     70  C   UNL A   1      36.644  31.568  32.319  1.00  0.00     0.200 A 
ATOM     71  F   UNL A   1      35.695  32.103  30.225  1.00  0.00    -0.200 F 
ATOM     72  F   UNL A   1      35.518  31.942  32.941  1.00  0.00    -0.200 F 
ENDBRANCH  48  62
BRANCH  49  73
ATOM     73  C   UNL A   1      47.170  27.748  26.057  1.00  0.00     0.064 A 
ATOM     74  C   UNL A   1      47.203  27.751  24.656  1.00  0.00     0.173 A 
ATOM     75  C   UNL A   1      48.320  27.303  26.730  1.00  0.00     0.173 A 
ATOM     76  F   UNL A   1      46.126  28.147  23.962  1.00  0.00    -0.203 F 
ATOM     77  C   UNL A   1      48.327  27.309  23.959  1.00  0.00     0.198 A 
ATOM     78  C   UNL A   1      49.459  26.906  26.034  1.00  0.00     0.198 A 
ATOM     79  F   UNL A   1      48.346  27.277  28.072  1.00  0.00    -0.203 F 
ATOM     80  F   UNL A   1      48.308  27.269  22.620  1.00  0.00    -0.200 F 
ATOM     81  C   UNL A   1      49.457  26.896  24.649  1.00  0.00     0.200 A 
ATOM     82  F   UNL A   1      50.556  26.533  26.707  1.00  0.00    -0.200 F 
ATOM     83  F   UNL A   1      50.541  26.483  23.979  1.00  0.00    -0.200 F 
ENDBRANCH  49  73
BRANCH  61  84
ATOM     84  C   UNL A   1      45.143  33.832  28.748  1.00  0.00     0.064 A 
ATOM     85  C   UNL A   1      45.995  34.211  29.797  1.00  0.00     0.173 A 
ATOM     86  C   UNL A   1      44.913  34.761  27.722  1.00  0.00     0.173 A 
ATOM     87  F   UNL A   1      46.233  33.365  30.811  1.00  0.00    -0.203 F 
ATOM     88  C   UNL A   1      46.555  35.484  29.840  1.00  0.00     0.198 A 
ATOM     89  C   UNL A   1      45.506  36.019  27.748  1.00  0.00     0.198 A 
ATOM     90  F   UNL A   1      44.112  34.447  26.691  1.00  0.00    -0.203 F 
ATOM     91  F   UNL A   1      47.306  35.848  30.889  1.00  0.00    -0.200 F 
ATOM     92  C   UNL A   1      46.315  36.385  28.814  1.00  0.00     0.200 A 
ATOM     93  F   UNL A   1      45.285  36.884  26.748  1.00  0.00    -0.200 F 
ATOM     94  F   UNL A   1      46.851  37.612  28.858  1.00  0.00    -0.200 F 
ENDBRANCH  61  84
ENDBRANCH  35  36
ENDBRANCH  28  30
ENDBRANCH  27  28
ENDBRANCH  26  27
ENDBRANCH   1  26
TORSDOF 15
ENDMDL
