MODEL 1
REMARK VINA RESULT:     -11.3      0.000      0.000
REMARK SMILES CC(C)CC[C@@]1(CC(=O)OCCOC(=O)c2ccc(-c3c4nc(c(-c5c(F)c(F)c(F)c(F)c5F)c5ccc([nH]5)c(-c5c(F)c(F)c(F)c(F)c5F)c5nc(c(-c6c(F)c(F)c(F)c(F)c6F)c6ccc3[nH]6)C=C5)C=C4)cc2)CCOC(C)(C)C1
REMARK SMILES IDX 11 1 10 2 8 3 9 4 7 5 6 6 79 7 85 8 80 9 82 10 81 11 83 12
REMARK SMILES IDX 84 13 5 14 4 15 2 16 1 17 3 18 12 19 13 20 14 21 15 22 16 23
REMARK SMILES IDX 17 24 78 25 18 26 77 27 19 28 20 29 21 30 71 31 22 32 76 33
REMARK SMILES IDX 70 34 72 35 23 36 75 37 69 38 68 39 24 41 56 42 36 43 55 44
REMARK SMILES IDX 37 45 40 46 54 47 73 48 38 49 39 50 53 52 74 53 41 54 25 55
REMARK SMILES IDX 26 56 34 57 27 58 28 59 32 60 35 61 29 62 30 63 33 64 31 65
REMARK SMILES IDX 57 66 58 67 66 68 59 69 60 70 64 71 67 72 61 73 62 74 65 75
REMARK SMILES IDX 63 76 42 77 43 78 51 79 44 80 45 81 49 82 52 83 46 84 47 85
REMARK SMILES IDX 50 86 48 87
REMARK H PARENT 72 40 40 51
REMARK Flexibility Score: inf
ROOT
ATOM      1  C   UNL A   1      31.828  32.038  26.701  1.00  0.00     0.274 C 
ENDROOT
BRANCH   1   2
ATOM      2  O   UNL A   1      32.014  30.640  27.019  1.00  0.00    -0.462 OA
BRANCH   2   3
ATOM      3  C   UNL A   1      33.040  30.065  26.358  1.00  0.00     0.306 C 
ATOM      4  O   UNL A   1      34.207  30.091  26.748  1.00  0.00    -0.252 OA
BRANCH   3   5
ATOM      5  C   UNL A   1      32.722  29.512  24.994  1.00  0.00     0.130 C 
BRANCH   5   6
ATOM      6  C   UNL A   1      31.616  28.459  24.603  1.00  0.00    -0.014 C 
ATOM      7  C   UNL A   1      32.287  27.813  23.322  1.00  0.00     0.036 C 
ATOM      8  C   UNL A   1      30.327  29.163  24.140  1.00  0.00     0.042 C 
ATOM      9  C   UNL A   1      31.349  27.156  22.332  1.00  0.00     0.161 C 
ATOM     10  C   UNL A   1      29.470  28.440  23.064  1.00  0.00     0.063 C 
ATOM     11  O   UNL A   1      30.309  28.053  21.966  1.00  0.00    -0.376 OA
ATOM     12  C   UNL A   1      28.662  27.216  23.506  1.00  0.00     0.042 C 
ATOM     13  C   UNL A   1      28.463  29.455  22.495  1.00  0.00     0.042 C 
BRANCH   6  14
ATOM     14  C   UNL A   1      31.440  27.362  25.712  1.00  0.00     0.008 C 
BRANCH  14  15
ATOM     15  C   UNL A   1      32.572  26.564  26.435  1.00  0.00     0.003 C 
BRANCH  15  16
ATOM     16  C   UNL A   1      33.024  25.156  25.977  1.00  0.00    -0.017 C 
ATOM     17  C   UNL A   1      32.022  24.481  25.029  1.00  0.00     0.007 C 
ATOM     18  C   UNL A   1      34.337  25.229  25.167  1.00  0.00     0.007 C 
ENDBRANCH  15  16
ENDBRANCH  14  15
ENDBRANCH   6  14
ENDBRANCH   5   6
ENDBRANCH   3   5
ENDBRANCH   2   3
ENDBRANCH   1   2
BRANCH   1  19
ATOM     19  C   UNL A   1      32.772  32.992  27.446  1.00  0.00     0.275 C 
BRANCH  19  20
ATOM     20  O   UNL A   1      32.161  34.250  27.803  1.00  0.00    -0.458 OA
BRANCH  20  21
ATOM     21  C   UNL A   1      32.903  34.981  28.655  1.00  0.00     0.338 C 
ATOM     22  O   UNL A   1      32.698  36.141  28.986  1.00  0.00    -0.246 OA
BRANCH  21  23
ATOM     23  C   UNL A   1      34.057  34.285  29.208  1.00  0.00     0.060 A 
ATOM     24  C   UNL A   1      33.927  33.581  30.407  1.00  0.00     0.016 A 
ATOM     25  C   UNL A   1      35.315  34.561  28.668  1.00  0.00     0.016 A 
ATOM     26  C   UNL A   1      35.067  33.126  31.063  1.00  0.00     0.010 A 
ATOM     27  C   UNL A   1      36.455  34.076  29.307  1.00  0.00     0.010 A 
ATOM     28  C   UNL A   1      36.334  33.350  30.502  1.00  0.00    -0.014 A 
BRANCH  28  29
ATOM     29  C   UNL A   1      37.524  32.692  31.079  1.00  0.00     0.031 A 
ATOM     30  C   UNL A   1      38.217  31.563  30.385  1.00  0.00     0.074 A 
ATOM     31  C   UNL A   1      37.929  33.114  32.291  1.00  0.00     0.049 A 
ATOM     32  N   UNL A   1      39.202  30.818  30.818  1.00  0.00    -0.248 NA
ATOM     33  C   UNL A   1      37.748  31.221  29.035  1.00  0.00     0.031 C 
ATOM     34  C   UNL A   1      37.311  34.208  33.046  1.00  0.00     0.029 A 
ATOM     35  N   UNL A   1      38.935  32.671  33.104  1.00  0.00    -0.354 N 
ATOM     36  C   UNL A   1      39.465  29.909  29.803  1.00  0.00     0.074 A 
ATOM     37  C   UNL A   1      38.532  30.192  28.731  1.00  0.00     0.031 C 
ATOM     38  C   UNL A   1      37.952  34.349  34.214  1.00  0.00     0.029 A 
ATOM     39  C   UNL A   1      38.989  33.329  34.306  1.00  0.00     0.049 A 
ATOM     40  H   UNL A   1      39.558  31.951  32.854  1.00  0.00     0.167 HD
ATOM     41  C   UNL A   1      40.401  28.931  29.781  1.00  0.00     0.037 A 
ATOM     42  C   UNL A   1      39.768  33.115  35.379  1.00  0.00     0.037 A 
ATOM     43  C   UNL A   1      41.326  28.667  30.854  1.00  0.00     0.049 A 
ATOM     44  C   UNL A   1      40.777  32.009  35.333  1.00  0.00     0.074 A 
ATOM     45  C   UNL A   1      42.334  27.720  30.914  1.00  0.00     0.029 A 
ATOM     46  N   UNL A   1      41.351  29.351  32.060  1.00  0.00    -0.354 N 
ATOM     47  N   UNL A   1      41.026  31.163  34.364  1.00  0.00    -0.248 NA
ATOM     48  C   UNL A   1      41.606  31.822  36.529  1.00  0.00     0.031 C 
ATOM     49  C   UNL A   1      42.949  27.811  32.167  1.00  0.00     0.029 A 
ATOM     50  C   UNL A   1      42.345  28.836  32.878  1.00  0.00     0.049 A 
ATOM     51  H   UNL A   1      40.751  30.094  32.300  1.00  0.00     0.167 HD
ATOM     52  C   UNL A   1      42.045  30.347  34.826  1.00  0.00     0.074 A 
ATOM     53  C   UNL A   1      42.379  30.809  36.160  1.00  0.00     0.031 C 
ATOM     54  C   UNL A   1      42.647  29.306  34.204  1.00  0.00     0.037 A 
BRANCH  41  55
ATOM     55  C   UNL A   1      40.472  28.057  28.565  1.00  0.00     0.064 A 
ATOM     56  C   UNL A   1      41.248  28.410  27.453  1.00  0.00     0.173 A 
ATOM     57  C   UNL A   1      39.819  26.815  28.547  1.00  0.00     0.173 A 
ATOM     58  F   UNL A   1      41.884  29.590  27.422  1.00  0.00    -0.203 F 
ATOM     59  C   UNL A   1      41.364  27.552  26.362  1.00  0.00     0.198 A 
ATOM     60  C   UNL A   1      39.950  25.954  27.460  1.00  0.00     0.198 A 
ATOM     61  F   UNL A   1      39.069  26.430  29.590  1.00  0.00    -0.203 F 
ATOM     62  F   UNL A   1      42.099  27.915  25.301  1.00  0.00    -0.200 F 
ATOM     63  C   UNL A   1      40.721  26.323  26.369  1.00  0.00     0.200 A 
ATOM     64  F   UNL A   1      39.335  24.763  27.473  1.00  0.00    -0.200 F 
ATOM     65  F   UNL A   1      40.845  25.494  25.324  1.00  0.00    -0.200 F 
ENDBRANCH  41  55
BRANCH  42  66
ATOM     66  C   UNL A   1      39.601  33.968  36.578  1.00  0.00     0.064 A 
ATOM     67  C   UNL A   1      38.800  33.552  37.648  1.00  0.00     0.173 A 
ATOM     68  C   UNL A   1      40.284  35.186  36.700  1.00  0.00     0.173 A 
ATOM     69  F   UNL A   1      38.120  32.399  37.565  1.00  0.00    -0.203 F 
ATOM     70  C   UNL A   1      38.686  34.326  38.799  1.00  0.00     0.198 A 
ATOM     71  C   UNL A   1      40.185  35.950  37.860  1.00  0.00     0.198 A 
ATOM     72  F   UNL A   1      41.071  35.619  35.704  1.00  0.00    -0.203 F 
ATOM     73  F   UNL A   1      37.897  33.918  39.802  1.00  0.00    -0.200 F 
ATOM     74  C   UNL A   1      39.384  35.521  38.908  1.00  0.00     0.200 A 
ATOM     75  F   UNL A   1      40.873  37.095  37.967  1.00  0.00    -0.200 F 
ATOM     76  F   UNL A   1      39.283  36.258  40.021  1.00  0.00    -0.200 F 
ENDBRANCH  42  66
BRANCH  54  77
ATOM     77  C   UNL A   1      43.731  28.609  34.966  1.00  0.00     0.064 A 
ATOM     78  C   UNL A   1      45.066  29.028  34.876  1.00  0.00     0.173 A 
ATOM     79  C   UNL A   1      43.431  27.521  35.796  1.00  0.00     0.173 A 
ATOM     80  F   UNL A   1      45.399  30.052  34.076  1.00  0.00    -0.203 F 
ATOM     81  C   UNL A   1      46.069  28.367  35.578  1.00  0.00     0.198 A 
ATOM     82  C   UNL A   1      44.434  26.873  36.511  1.00  0.00     0.198 A 
ATOM     83  F   UNL A   1      42.167  27.086  35.911  1.00  0.00    -0.203 F 
ATOM     84  F   UNL A   1      47.345  28.756  35.448  1.00  0.00    -0.200 F 
ATOM     85  C   UNL A   1      45.752  27.292  36.397  1.00  0.00     0.200 A 
ATOM     86  F   UNL A   1      44.127  25.837  37.303  1.00  0.00    -0.200 F 
ATOM     87  F   UNL A   1      46.719  26.653  37.068  1.00  0.00    -0.200 F 
ENDBRANCH  54  77
ENDBRANCH  28  29
ENDBRANCH  21  23
ENDBRANCH  20  21
ENDBRANCH  19  20
ENDBRANCH   1  19
TORSDOF 15
ENDMDL
MODEL 2
REMARK VINA RESULT:     -11.2      1.276      2.036
REMARK SMILES CC(C)CC[C@@]1(CC(=O)OCCOC(=O)c2ccc(-c3c4nc(c(-c5c(F)c(F)c(F)c(F)c5F)c5ccc([nH]5)c(-c5c(F)c(F)c(F)c(F)c5F)c5nc(c(-c6c(F)c(F)c(F)c(F)c6F)c6ccc3[nH]6)C=C5)C=C4)cc2)CCOC(C)(C)C1
REMARK SMILES IDX 11 1 10 2 8 3 9 4 7 5 6 6 79 7 85 8 80 9 82 10 81 11 83 12
REMARK SMILES IDX 84 13 5 14 4 15 2 16 1 17 3 18 12 19 13 20 14 21 15 22 16 23
REMARK SMILES IDX 17 24 78 25 18 26 77 27 19 28 20 29 21 30 71 31 22 32 76 33
REMARK SMILES IDX 70 34 72 35 23 36 75 37 69 38 68 39 24 41 56 42 36 43 55 44
REMARK SMILES IDX 37 45 40 46 54 47 73 48 38 49 39 50 53 52 74 53 41 54 25 55
REMARK SMILES IDX 26 56 34 57 27 58 28 59 32 60 35 61 29 62 30 63 33 64 31 65
REMARK SMILES IDX 57 66 58 67 66 68 59 69 60 70 64 71 67 72 61 73 62 74 65 75
REMARK SMILES IDX 63 76 42 77 43 78 51 79 44 80 45 81 49 82 52 83 46 84 47 85
REMARK SMILES IDX 50 86 48 87
REMARK H PARENT 72 40 40 51
REMARK Flexibility Score: inf
ROOT
ATOM      1  C   UNL A   1      32.110  30.862  26.839  1.00  0.00     0.274 C 
ENDROOT
BRANCH   1   2
ATOM      2  O   UNL A   1      33.482  30.547  26.510  1.00  0.00    -0.462 OA
BRANCH   2   3
ATOM      3  C   UNL A   1      33.899  29.361  26.999  1.00  0.00     0.306 C 
ATOM      4  O   UNL A   1      34.973  29.197  27.579  1.00  0.00    -0.252 OA
BRANCH   3   5
ATOM      5  C   UNL A   1      33.047  28.168  26.656  1.00  0.00     0.130 C 
BRANCH   5   6
ATOM      6  C   UNL A   1      32.801  27.520  25.241  1.00  0.00    -0.014 C 
ATOM      7  C   UNL A   1      33.975  28.192  24.417  1.00  0.00     0.036 C 
ATOM      8  C   UNL A   1      31.474  28.013  24.635  1.00  0.00     0.042 C 
ATOM      9  C   UNL A   1      33.783  28.274  22.919  1.00  0.00     0.161 C 
ATOM     10  C   UNL A   1      31.401  28.134  23.086  1.00  0.00     0.063 C 
ATOM     11  O   UNL A   1      32.533  28.879  22.612  1.00  0.00    -0.376 OA
ATOM     12  C   UNL A   1      31.308  26.836  22.278  1.00  0.00     0.042 C 
ATOM     13  C   UNL A   1      30.159  28.970  22.731  1.00  0.00     0.042 C 
BRANCH   6  14
ATOM     14  C   UNL A   1      33.007  25.963  25.271  1.00  0.00     0.008 C 
BRANCH  14  15
ATOM     15  C   UNL A   1      34.365  25.193  25.255  1.00  0.00     0.003 C 
BRANCH  15  16
ATOM     16  C   UNL A   1      34.838  24.360  24.039  1.00  0.00    -0.017 C 
ATOM     17  C   UNL A   1      35.212  22.916  24.407  1.00  0.00     0.007 C 
ATOM     18  C   UNL A   1      33.713  24.214  22.991  1.00  0.00     0.007 C 
ENDBRANCH  15  16
ENDBRANCH  14  15
ENDBRANCH   6  14
ENDBRANCH   5   6
ENDBRANCH   3   5
ENDBRANCH   2   3
ENDBRANCH   1   2
BRANCH   1  19
ATOM     19  C   UNL A   1      31.838  32.354  27.082  1.00  0.00     0.275 C 
BRANCH  19  20
ATOM     20  O   UNL A   1      33.007  33.187  26.932  1.00  0.00    -0.458 OA
BRANCH  20  21
ATOM     21  C   UNL A   1      33.337  33.848  28.056  1.00  0.00     0.338 C 
ATOM     22  O   UNL A   1      32.755  34.816  28.527  1.00  0.00    -0.246 OA
BRANCH  21  23
ATOM     23  C   UNL A   1      34.513  33.332  28.744  1.00  0.00     0.060 A 
ATOM     24  C   UNL A   1      35.778  33.810  28.397  1.00  0.00     0.016 A 
ATOM     25  C   UNL A   1      34.367  32.191  29.536  1.00  0.00     0.016 A 
ATOM     26  C   UNL A   1      36.912  33.153  28.867  1.00  0.00     0.010 A 
ATOM     27  C   UNL A   1      35.502  31.555  30.034  1.00  0.00     0.010 A 
ATOM     28  C   UNL A   1      36.778  32.038  29.707  1.00  0.00    -0.014 A 
BRANCH  28  29
ATOM     29  C   UNL A   1      37.967  31.469  30.376  1.00  0.00     0.031 A 
ATOM     30  C   UNL A   1      38.841  30.457  29.706  1.00  0.00     0.074 A 
ATOM     31  C   UNL A   1      38.201  31.860  31.641  1.00  0.00     0.049 A 
ATOM     32  N   UNL A   1      39.850  29.790  30.206  1.00  0.00    -0.248 NA
ATOM     33  C   UNL A   1      38.548  30.148  28.301  1.00  0.00     0.031 C 
ATOM     34  C   UNL A   1      37.399  32.842  32.377  1.00  0.00     0.029 A 
ATOM     35  N   UNL A   1      39.162  31.474  32.535  1.00  0.00    -0.354 N 
ATOM     36  C   UNL A   1      40.308  28.972  29.183  1.00  0.00     0.074 A 
ATOM     37  C   UNL A   1      39.463  29.221  28.033  1.00  0.00     0.031 C 
ATOM     38  C   UNL A   1      37.901  32.979  33.611  1.00  0.00     0.029 A 
ATOM     39  C   UNL A   1      39.025  32.065  33.765  1.00  0.00     0.049 A 
ATOM     40  H   UNL A   1      39.879  30.835  32.319  1.00  0.00     0.167 HD
ATOM     41  C   UNL A   1      41.340  28.095  29.215  1.00  0.00     0.037 A 
ATOM     42  C   UNL A   1      39.712  31.868  34.904  1.00  0.00     0.037 A 
ATOM     43  C   UNL A   1      42.174  27.864  30.367  1.00  0.00     0.049 A 
ATOM     44  C   UNL A   1      40.830  30.873  34.913  1.00  0.00     0.074 A 
ATOM     45  C   UNL A   1      43.266  27.020  30.488  1.00  0.00     0.029 A 
ATOM     46  N   UNL A   1      42.007  28.477  31.599  1.00  0.00    -0.354 N 
ATOM     47  N   UNL A   1      41.263  30.113  33.937  1.00  0.00    -0.248 NA
ATOM     48  C   UNL A   1      41.551  30.702  36.180  1.00  0.00     0.031 C 
ATOM     49  C   UNL A   1      43.739  27.101  31.803  1.00  0.00     0.029 A 
ATOM     50  C   UNL A   1      42.962  28.018  32.493  1.00  0.00     0.049 A 
ATOM     51  H   UNL A   1      41.311  29.141  31.809  1.00  0.00     0.167 HD
ATOM     52  C   UNL A   1      42.310  29.377  34.466  1.00  0.00     0.074 A 
ATOM     53  C   UNL A   1      42.458  29.794  35.847  1.00  0.00     0.031 C 
ATOM     54  C   UNL A   1      43.079  28.439  33.863  1.00  0.00     0.037 A 
BRANCH  41  55
ATOM     55  C   UNL A   1      41.623  27.303  27.974  1.00  0.00     0.064 A 
ATOM     56  C   UNL A   1      42.471  27.792  26.971  1.00  0.00     0.173 A 
ATOM     57  C   UNL A   1      41.104  26.008  27.826  1.00  0.00     0.173 A 
ATOM     58  F   UNL A   1      42.986  29.027  27.066  1.00  0.00    -0.203 F 
ATOM     59  C   UNL A   1      42.786  27.013  25.860  1.00  0.00     0.198 A 
ATOM     60  C   UNL A   1      41.432  25.228  26.721  1.00  0.00     0.198 A 
ATOM     61  F   UNL A   1      40.292  25.494  28.762  1.00  0.00    -0.203 F 
ATOM     62  F   UNL A   1      43.587  27.505  24.904  1.00  0.00    -0.200 F 
ATOM     63  C   UNL A   1      42.272  25.731  25.738  1.00  0.00     0.200 A 
ATOM     64  F   UNL A   1      40.942  23.985  26.610  1.00  0.00    -0.200 F 
ATOM     65  F   UNL A   1      42.586  24.979  24.675  1.00  0.00    -0.200 F 
ENDBRANCH  41  55
BRANCH  42  66
ATOM     66  C   UNL A   1      39.336  32.631  36.116  1.00  0.00     0.064 A 
ATOM     67  C   UNL A   1      38.424  32.105  37.039  1.00  0.00     0.173 A 
ATOM     68  C   UNL A   1      39.926  33.870  36.404  1.00  0.00     0.173 A 
ATOM     69  F   UNL A   1      37.828  30.929  36.795  1.00  0.00    -0.203 F 
ATOM     70  C   UNL A   1      38.111  32.795  38.207  1.00  0.00     0.198 A 
ATOM     71  C   UNL A   1      39.628  34.549  37.583  1.00  0.00     0.198 A 
ATOM     72  F   UNL A   1      40.813  34.405  35.553  1.00  0.00    -0.203 F 
ATOM     73  F   UNL A   1      37.220  32.283  39.066  1.00  0.00    -0.200 F 
ATOM     74  C   UNL A   1      38.719  34.012  38.482  1.00  0.00     0.200 A 
ATOM     75  F   UNL A   1      40.229  35.716  37.851  1.00  0.00    -0.200 F 
ATOM     76  F   UNL A   1      38.427  34.668  39.613  1.00  0.00    -0.200 F 
ENDBRANCH  42  66
BRANCH  54  77
ATOM     77  C   UNL A   1      44.147  27.812  34.702  1.00  0.00     0.064 A 
ATOM     78  C   UNL A   1      43.920  26.609  35.386  1.00  0.00     0.173 A 
ATOM     79  C   UNL A   1      45.408  28.414  34.818  1.00  0.00     0.173 A 
ATOM     80  F   UNL A   1      42.722  26.011  35.320  1.00  0.00    -0.203 F 
ATOM     81  C   UNL A   1      44.915  26.039  36.175  1.00  0.00     0.198 A 
ATOM     82  C   UNL A   1      46.406  27.832  35.592  1.00  0.00     0.198 A 
ATOM     83  F   UNL A   1      45.668  29.565  34.181  1.00  0.00    -0.203 F 
ATOM     84  F   UNL A   1      44.667  24.911  36.854  1.00  0.00    -0.200 F 
ATOM     85  C   UNL A   1      46.158  26.650  36.275  1.00  0.00     0.200 A 
ATOM     86  F   UNL A   1      47.606  28.420  35.688  1.00  0.00    -0.200 F 
ATOM     87  F   UNL A   1      47.114  26.103  37.038  1.00  0.00    -0.200 F 
ENDBRANCH  54  77
ENDBRANCH  28  29
ENDBRANCH  21  23
ENDBRANCH  20  21
ENDBRANCH  19  20
ENDBRANCH   1  19
TORSDOF 15
ENDMDL
MODEL 3
REMARK VINA RESULT:     -11.2      5.987     11.281
REMARK SMILES CC(C)CC[C@@]1(CC(=O)OCCOC(=O)c2ccc(-c3c4nc(c(-c5c(F)c(F)c(F)c(F)c5F)c5ccc([nH]5)c(-c5c(F)c(F)c(F)c(F)c5F)c5nc(c(-c6c(F)c(F)c(F)c(F)c6F)c6ccc3[nH]6)C=C5)C=C4)cc2)CCOC(C)(C)C1
REMARK SMILES IDX 11 1 10 2 8 3 9 4 7 5 6 6 79 7 85 8 80 9 82 10 81 11 83 12
REMARK SMILES IDX 84 13 5 14 4 15 2 16 1 17 3 18 12 19 13 20 14 21 15 22 16 23
REMARK SMILES IDX 17 24 78 25 18 26 77 27 19 28 20 29 21 30 71 31 22 32 76 33
REMARK SMILES IDX 70 34 72 35 23 36 75 37 69 38 68 39 24 41 56 42 36 43 55 44
REMARK SMILES IDX 37 45 40 46 54 47 73 48 38 49 39 50 53 52 74 53 41 54 25 55
REMARK SMILES IDX 26 56 34 57 27 58 28 59 32 60 35 61 29 62 30 63 33 64 31 65
REMARK SMILES IDX 57 66 58 67 66 68 59 69 60 70 64 71 67 72 61 73 62 74 65 75
REMARK SMILES IDX 63 76 42 77 43 78 51 79 44 80 45 81 49 82 52 83 46 84 47 85
REMARK SMILES IDX 50 86 48 87
REMARK H PARENT 72 40 40 51
REMARK Flexibility Score: inf
ROOT
ATOM      1  C   UNL A   1      38.947  20.874  25.582  1.00  0.00     0.274 C 
ENDROOT
BRANCH   1   2
ATOM      2  O   UNL A   1      39.301  22.106  26.252  1.00  0.00    -0.462 OA
BRANCH   2   3
ATOM      3  C   UNL A   1      38.393  23.091  26.091  1.00  0.00     0.306 C 
ATOM      4  O   UNL A   1      38.259  24.034  26.871  1.00  0.00    -0.252 OA
BRANCH   3   5
ATOM      5  C   UNL A   1      37.403  22.903  24.972  1.00  0.00     0.130 C 
BRANCH   5   6
ATOM      6  C   UNL A   1      35.829  22.951  25.043  1.00  0.00    -0.014 C 
ATOM      7  C   UNL A   1      35.480  22.953  23.499  1.00  0.00     0.036 C 
ATOM      8  C   UNL A   1      35.347  24.293  25.625  1.00  0.00     0.042 C 
ATOM      9  C   UNL A   1      34.136  23.533  23.115  1.00  0.00     0.161 C 
ATOM     10  C   UNL A   1      33.987  24.843  25.110  1.00  0.00     0.063 C 
ATOM     11  O   UNL A   1      33.979  24.830  23.675  1.00  0.00    -0.376 OA
ATOM     12  C   UNL A   1      32.712  24.152  25.604  1.00  0.00     0.042 C 
ATOM     13  C   UNL A   1      33.882  26.320  25.526  1.00  0.00     0.042 C 
BRANCH   6  14
ATOM     14  C   UNL A   1      35.239  21.660  25.713  1.00  0.00     0.008 C 
BRANCH  14  15
ATOM     15  C   UNL A   1      34.603  20.430  24.989  1.00  0.00     0.003 C 
BRANCH  15  16
ATOM     16  C   UNL A   1      33.082  20.143  25.010  1.00  0.00    -0.017 C 
ATOM     17  C   UNL A   1      32.417  20.328  23.638  1.00  0.00     0.007 C 
ATOM     18  C   UNL A   1      32.798  18.672  25.384  1.00  0.00     0.007 C 
ENDBRANCH  15  16
ENDBRANCH  14  15
ENDBRANCH   6  14
ENDBRANCH   5   6
ENDBRANCH   3   5
ENDBRANCH   2   3
ENDBRANCH   1   2
BRANCH   1  19
ATOM     19  C   UNL A   1      39.695  19.634  26.090  1.00  0.00     0.275 C 
BRANCH  19  20
ATOM     20  O   UNL A   1      40.877  19.317  25.325  1.00  0.00    -0.458 OA
BRANCH  20  21
ATOM     21  C   UNL A   1      42.004  19.320  26.060  1.00  0.00     0.338 C 
ATOM     22  O   UNL A   1      42.630  18.337  26.434  1.00  0.00    -0.246 OA
BRANCH  21  23
ATOM     23  C   UNL A   1      42.487  20.644  26.430  1.00  0.00     0.060 A 
ATOM     24  C   UNL A   1      42.464  21.035  27.770  1.00  0.00     0.016 A 
ATOM     25  C   UNL A   1      42.708  21.574  25.412  1.00  0.00     0.016 A 
ATOM     26  C   UNL A   1      42.688  22.369  28.098  1.00  0.00     0.010 A 
ATOM     27  C   UNL A   1      42.967  22.902  25.743  1.00  0.00     0.010 A 
ATOM     28  C   UNL A   1      42.965  23.303  27.088  1.00  0.00    -0.014 A 
BRANCH  28  29
ATOM     29  C   UNL A   1      43.409  24.666  27.444  1.00  0.00     0.031 A 
ATOM     30  C   UNL A   1      42.464  25.687  27.993  1.00  0.00     0.074 A 
ATOM     31  C   UNL A   1      44.696  24.972  27.201  1.00  0.00     0.049 A 
ATOM     32  N   UNL A   1      42.684  26.952  28.247  1.00  0.00    -0.248 NA
ATOM     33  C   UNL A   1      41.098  25.239  28.293  1.00  0.00     0.031 C 
ATOM     34  C   UNL A   1      45.692  24.040  26.664  1.00  0.00     0.029 A 
ATOM     35  N   UNL A   1      45.384  26.145  27.355  1.00  0.00    -0.354 N 
ATOM     36  C   UNL A   1      41.484  27.457  28.725  1.00  0.00     0.074 A 
ATOM     37  C   UNL A   1      40.534  26.364  28.721  1.00  0.00     0.031 C 
ATOM     38  C   UNL A   1      46.862  24.678  26.531  1.00  0.00     0.029 A 
ATOM     39  C   UNL A   1      46.685  26.069  26.929  1.00  0.00     0.049 A 
ATOM     40  H   UNL A   1      44.984  26.962  27.732  1.00  0.00     0.167 HD
ATOM     41  C   UNL A   1      41.211  28.723  29.125  1.00  0.00     0.037 A 
ATOM     42  C   UNL A   1      47.625  27.025  26.839  1.00  0.00     0.037 A 
ATOM     43  C   UNL A   1      42.171  29.798  29.127  1.00  0.00     0.049 A 
ATOM     44  C   UNL A   1      47.286  28.419  27.265  1.00  0.00     0.074 A 
ATOM     45  C   UNL A   1      42.001  31.107  29.546  1.00  0.00     0.029 A 
ATOM     46  N   UNL A   1      43.481  29.688  28.686  1.00  0.00    -0.354 N 
ATOM     47  N   UNL A   1      46.151  28.885  27.726  1.00  0.00    -0.248 NA
ATOM     48  C   UNL A   1      48.351  29.422  27.152  1.00  0.00     0.031 C 
ATOM     49  C   UNL A   1      43.200  31.796  29.329  1.00  0.00     0.029 A 
ATOM     50  C   UNL A   1      44.126  30.910  28.804  1.00  0.00     0.049 A 
ATOM     51  H   UNL A   1      43.892  28.863  28.340  1.00  0.00     0.167 HD
ATOM     52  C   UNL A   1      46.363  30.231  27.967  1.00  0.00     0.074 A 
ATOM     53  C   UNL A   1      47.743  30.506  27.614  1.00  0.00     0.031 C 
ATOM     54  C   UNL A   1      45.494  31.158  28.434  1.00  0.00     0.037 A 
BRANCH  41  55
ATOM     55  C   UNL A   1      39.817  29.027  29.581  1.00  0.00     0.064 A 
ATOM     56  C   UNL A   1      38.832  29.464  28.686  1.00  0.00     0.173 A 
ATOM     57  C   UNL A   1      39.444  28.803  30.915  1.00  0.00     0.173 A 
ATOM     58  F   UNL A   1      39.143  29.699  27.402  1.00  0.00    -0.203 F 
ATOM     59  C   UNL A   1      37.521  29.670  29.111  1.00  0.00     0.198 A 
ATOM     60  C   UNL A   1      38.129  28.996  31.333  1.00  0.00     0.198 A 
ATOM     61  F   UNL A   1      40.350  28.380  31.809  1.00  0.00    -0.203 F 
ATOM     62  F   UNL A   1      36.596  30.102  28.241  1.00  0.00    -0.200 F 
ATOM     63  C   UNL A   1      37.169  29.430  30.431  1.00  0.00     0.200 A 
ATOM     64  F   UNL A   1      37.790  28.755  32.606  1.00  0.00    -0.200 F 
ATOM     65  F   UNL A   1      35.906  29.616  30.834  1.00  0.00    -0.200 F 
ENDBRANCH  41  55
BRANCH  42  66
ATOM     66  C   UNL A   1      48.964  26.675  26.312  1.00  0.00     0.064 A 
ATOM     67  C   UNL A   1      49.292  26.915  24.972  1.00  0.00     0.173 A 
ATOM     68  C   UNL A   1      49.958  26.149  27.150  1.00  0.00     0.173 A 
ATOM     69  F   UNL A   1      48.366  27.405  24.135  1.00  0.00    -0.203 F 
ATOM     70  C   UNL A   1      50.568  26.639  24.488  1.00  0.00     0.198 A 
ATOM     71  C   UNL A   1      51.239  25.893  26.669  1.00  0.00     0.198 A 
ATOM     72  F   UNL A   1      49.691  25.913  28.442  1.00  0.00    -0.203 F 
ATOM     73  F   UNL A   1      50.853  26.858  23.197  1.00  0.00    -0.200 F 
ATOM     74  C   UNL A   1      51.542  26.135  25.337  1.00  0.00     0.200 A 
ATOM     75  F   UNL A   1      52.182  25.421  27.497  1.00  0.00    -0.200 F 
ATOM     76  F   UNL A   1      52.773  25.883  24.873  1.00  0.00    -0.200 F 
ENDBRANCH  42  66
BRANCH  54  77
ATOM     77  C   UNL A   1      46.023  32.549  28.592  1.00  0.00     0.064 A 
ATOM     78  C   UNL A   1      46.619  32.967  29.791  1.00  0.00     0.173 A 
ATOM     79  C   UNL A   1      45.939  33.468  27.537  1.00  0.00     0.173 A 
ATOM     80  F   UNL A   1      46.700  32.126  30.833  1.00  0.00    -0.203 F 
ATOM     81  C   UNL A   1      47.096  34.267  29.934  1.00  0.00     0.198 A 
ATOM     82  C   UNL A   1      46.434  34.760  27.677  1.00  0.00     0.198 A 
ATOM     83  F   UNL A   1      45.375  33.111  26.374  1.00  0.00    -0.203 F 
ATOM     84  F   UNL A   1      47.626  34.660  31.100  1.00  0.00    -0.200 F 
ATOM     85  C   UNL A   1      47.005  35.161  28.877  1.00  0.00     0.200 A 
ATOM     86  F   UNL A   1      46.348  35.624  26.656  1.00  0.00    -0.200 F 
ATOM     87  F   UNL A   1      47.461  36.413  29.017  1.00  0.00    -0.200 F 
ENDBRANCH  54  77
ENDBRANCH  28  29
ENDBRANCH  21  23
ENDBRANCH  20  21
ENDBRANCH  19  20
ENDBRANCH   1  19
TORSDOF 15
ENDMDL
