MODEL 1
REMARK VINA RESULT:     -11.8      0.000      0.000
REMARK SMILES CCc1cc(OC(F)(F)F)cc2c1O[C@@H](C(F)(F)F)C(C(=O)OCCOC(=O)c1ccc(-c3c4nc(c(-c5c(F)c(F)c(F)c(F)c5F)c5ccc([nH]5)c(-c5c(F)c(F)c(F)c(F)c5F)c5nc(c(-c6c(F)c(F)c(F)c(F)c6F)c6ccc3[nH]6)C=C5)C=C4)cc1)=C2
REMARK SMILES IDX 24 1 23 2 21 3 22 4 20 5 3 6 4 7 13 8 5 9 12 10 14 11 11 12
REMARK SMILES IDX 92 13 15 14 2 15 1 16 6 17 7 18 8 19 9 20 10 21 16 22 17 23
REMARK SMILES IDX 18 24 19 25 25 26 26 27 27 28 28 29 29 30 30 31 91 32 31 33
REMARK SMILES IDX 90 34 32 35 33 36 34 37 84 38 35 39 89 40 83 41 85 42 36 43
REMARK SMILES IDX 88 44 82 45 81 46 37 48 69 49 49 50 68 51 50 52 53 53 67 54
REMARK SMILES IDX 86 55 51 56 52 57 66 59 87 60 54 61 38 62 39 63 47 64 40 65
REMARK SMILES IDX 41 66 45 67 48 68 42 69 43 70 46 71 44 72 70 73 71 74 79 75
REMARK SMILES IDX 72 76 73 77 77 78 80 79 74 80 75 81 78 82 76 83 55 84 56 85
REMARK SMILES IDX 64 86 57 87 58 88 62 89 65 90 59 91 60 92 63 93 61 94
REMARK H PARENT 85 47 53 58
REMARK Flexibility Score: inf
ROOT
ATOM      1  C   UNL A   1      42.672  21.324  25.756  1.00  0.00     0.275 C 
ENDROOT
BRANCH   1   2
ATOM      2  O   UNL A   1      41.377  21.932  25.562  1.00  0.00    -0.459 OA
BRANCH   2   3
ATOM      3  C   UNL A   1      40.508  21.821  26.596  1.00  0.00     0.338 C 
ATOM      4  O   UNL A   1      40.810  21.535  27.743  1.00  0.00    -0.246 OA
BRANCH   3   5
ATOM      5  C   UNL A   1      39.122  22.152  26.192  1.00  0.00     0.087 C 
ATOM      6  C   UNL A   1      35.263  23.350  25.120  1.00  0.00    -0.002 A 
ATOM      7  C   UNL A   1      34.350  22.397  24.644  1.00  0.00     0.054 A 
ATOM      8  C   UNL A   1      36.510  22.911  25.584  1.00  0.00     0.131 A 
ATOM      9  C   UNL A   1      34.676  21.038  24.640  1.00  0.00     0.130 A 
ATOM     10  C   UNL A   1      36.884  21.565  25.515  1.00  0.00     0.021 A 
ATOM     11  O   UNL A   1      37.320  23.838  26.182  1.00  0.00    -0.475 OA
ATOM     12  C   UNL A   1      35.956  20.632  25.045  1.00  0.00     0.058 A 
ATOM     13  C   UNL A   1      38.225  21.176  25.957  1.00  0.00     0.027 C 
ATOM     14  C   UNL A   1      38.744  23.612  26.022  1.00  0.00     0.316 C 
BRANCH   6  15
ATOM     15  C   UNL A   1      34.912  24.819  25.092  1.00  0.00     0.036 C 
ATOM     16  C   UNL A   1      33.550  25.095  25.722  1.00  0.00     0.009 C 
ENDBRANCH   6  15
BRANCH   9  17
ATOM     17  O   UNL A   1      33.847  20.022  24.253  1.00  0.00    -0.406 OA
BRANCH  17  18
ATOM     18  C   UNL A   1      32.744  19.725  25.098  1.00  0.00     0.573 C 
ATOM     19  F   UNL A   1      31.755  20.634  24.959  1.00  0.00    -0.132 F 
ATOM     20  F   UNL A   1      32.261  18.490  24.839  1.00  0.00    -0.132 F 
ATOM     21  F   UNL A   1      33.160  19.752  26.382  1.00  0.00    -0.132 F 
ENDBRANCH  17  18
ENDBRANCH   9  17
BRANCH  14  22
ATOM     22  C   UNL A   1      39.458  24.681  26.873  1.00  0.00     0.430 C 
ATOM     23  F   UNL A   1      40.457  25.290  26.192  1.00  0.00    -0.167 F 
ATOM     24  F   UNL A   1      38.588  25.679  27.195  1.00  0.00    -0.167 F 
ATOM     25  F   UNL A   1      39.943  24.196  28.034  1.00  0.00    -0.167 F 
ENDBRANCH  14  22
ENDBRANCH   3   5
ENDBRANCH   2   3
ENDBRANCH   1   2
BRANCH   1  26
ATOM     26  C   UNL A   1      43.763  22.037  24.949  1.00  0.00     0.275 C 
BRANCH  26  27
ATOM     27  O   UNL A   1      43.408  23.405  24.677  1.00  0.00    -0.458 OA
BRANCH  27  28
ATOM     28  C   UNL A   1      44.302  24.325  25.111  1.00  0.00     0.338 C 
ATOM     29  O   UNL A   1      45.377  24.600  24.602  1.00  0.00    -0.246 OA
BRANCH  28  30
ATOM     30  C   UNL A   1      43.724  25.111  26.219  1.00  0.00     0.060 A 
ATOM     31  C   UNL A   1      43.676  26.499  26.053  1.00  0.00     0.016 A 
ATOM     32  C   UNL A   1      43.249  24.530  27.397  1.00  0.00     0.016 A 
ATOM     33  C   UNL A   1      43.088  27.307  27.023  1.00  0.00     0.010 A 
ATOM     34  C   UNL A   1      42.709  25.347  28.399  1.00  0.00     0.010 A 
ATOM     35  C   UNL A   1      42.616  26.737  28.210  1.00  0.00    -0.014 A 
BRANCH  35  36
ATOM     36  C   UNL A   1      42.125  27.616  29.296  1.00  0.00     0.031 A 
ATOM     37  C   UNL A   1      42.858  27.642  30.603  1.00  0.00     0.074 A 
ATOM     38  C   UNL A   1      41.052  28.405  29.105  1.00  0.00     0.049 A 
ATOM     39  N   UNL A   1      42.582  28.302  31.699  1.00  0.00    -0.248 NA
ATOM     40  C   UNL A   1      44.077  26.822  30.683  1.00  0.00     0.031 C 
ATOM     41  C   UNL A   1      40.308  28.530  27.855  1.00  0.00     0.029 A 
ATOM     42  N   UNL A   1      40.403  29.247  29.974  1.00  0.00    -0.354 N 
ATOM     43  C   UNL A   1      43.595  27.987  32.592  1.00  0.00     0.074 A 
ATOM     44  C   UNL A   1      44.486  27.066  31.919  1.00  0.00     0.031 C 
ATOM     45  C   UNL A   1      39.282  29.379  28.045  1.00  0.00     0.029 A 
ATOM     46  C   UNL A   1      39.283  29.831  29.435  1.00  0.00     0.049 A 
ATOM     47  H   UNL A   1      40.710  29.416  30.893  1.00  0.00     0.167 HD
ATOM     48  C   UNL A   1      43.763  28.423  33.863  1.00  0.00     0.037 A 
ATOM     49  C   UNL A   1      38.349  30.613  30.014  1.00  0.00     0.037 A 
ATOM     50  C   UNL A   1      42.855  29.306  34.545  1.00  0.00     0.049 A 
ATOM     51  C   UNL A   1      38.492  30.982  31.469  1.00  0.00     0.074 A 
ATOM     52  C   UNL A   1      42.926  29.783  35.842  1.00  0.00     0.029 A 
ATOM     53  N   UNL A   1      41.699  29.831  33.988  1.00  0.00    -0.354 N 
ATOM     54  N   UNL A   1      39.455  30.688  32.309  1.00  0.00    -0.248 NA
ATOM     55  C   UNL A   1      37.413  31.788  32.060  1.00  0.00     0.031 C 
ATOM     56  C   UNL A   1      41.784  30.554  36.086  1.00  0.00     0.029 A 
ATOM     57  C   UNL A   1      41.031  30.603  34.924  1.00  0.00     0.049 A 
ATOM     58  H   UNL A   1      41.397  29.677  33.063  1.00  0.00     0.167 HD
ATOM     59  C   UNL A   1      39.117  31.299  33.510  1.00  0.00     0.074 A 
ATOM     60  C   UNL A   1      37.861  31.984  33.291  1.00  0.00     0.031 C 
ATOM     61  C   UNL A   1      39.790  31.295  34.687  1.00  0.00     0.037 A 
BRANCH  48  62
ATOM     62  C   UNL A   1      44.954  27.907  34.612  1.00  0.00     0.064 A 
ATOM     63  C   UNL A   1      44.897  26.721  35.357  1.00  0.00     0.173 A 
ATOM     64  C   UNL A   1      46.173  28.599  34.567  1.00  0.00     0.173 A 
ATOM     65  F   UNL A   1      43.748  26.033  35.444  1.00  0.00    -0.203 F 
ATOM     66  C   UNL A   1      46.012  26.257  36.049  1.00  0.00     0.198 A 
ATOM     67  C   UNL A   1      47.293  28.120  35.241  1.00  0.00     0.198 A 
ATOM     68  F   UNL A   1      46.278  29.739  33.869  1.00  0.00    -0.203 F 
ATOM     69  F   UNL A   1      45.924  25.144  36.791  1.00  0.00    -0.200 F 
ATOM     70  C   UNL A   1      47.210  26.954  35.986  1.00  0.00     0.200 A 
ATOM     71  F   UNL A   1      48.451  28.791  35.172  1.00  0.00    -0.200 F 
ATOM     72  F   UNL A   1      48.283  26.505  36.652  1.00  0.00    -0.200 F 
ENDBRANCH  48  62
BRANCH  49  73
ATOM     73  C   UNL A   1      37.174  31.076  29.230  1.00  0.00     0.064 A 
ATOM     74  C   UNL A   1      37.075  32.401  28.783  1.00  0.00     0.173 A 
ATOM     75  C   UNL A   1      36.103  30.212  28.950  1.00  0.00     0.173 A 
ATOM     76  F   UNL A   1      38.056  33.274  29.056  1.00  0.00    -0.203 F 
ATOM     77  C   UNL A   1      35.945  32.848  28.103  1.00  0.00     0.198 A 
ATOM     78  C   UNL A   1      34.987  30.653  28.245  1.00  0.00     0.198 A 
ATOM     79  F   UNL A   1      36.142  28.938  29.366  1.00  0.00    -0.203 F 
ATOM     80  F   UNL A   1      35.852  34.134  27.735  1.00  0.00    -0.200 F 
ATOM     81  C   UNL A   1      34.903  31.974  27.830  1.00  0.00     0.200 A 
ATOM     82  F   UNL A   1      33.984  29.804  27.981  1.00  0.00    -0.200 F 
ATOM     83  F   UNL A   1      33.814  32.406  27.181  1.00  0.00    -0.200 F 
ENDBRANCH  49  73
BRANCH  61  84
ATOM     84  C   UNL A   1      39.215  32.093  35.821  1.00  0.00     0.064 A 
ATOM     85  C   UNL A   1      38.338  31.523  36.755  1.00  0.00     0.173 A 
ATOM     86  C   UNL A   1      39.603  33.428  36.014  1.00  0.00     0.173 A 
ATOM     87  F   UNL A   1      37.926  30.255  36.607  1.00  0.00    -0.203 F 
ATOM     88  C   UNL A   1      37.858  32.265  37.832  1.00  0.00     0.198 A 
ATOM     89  C   UNL A   1      39.144  34.158  37.107  1.00  0.00     0.198 A 
ATOM     90  F   UNL A   1      40.448  34.017  35.154  1.00  0.00    -0.203 F 
ATOM     91  F   UNL A   1      36.994  31.711  38.693  1.00  0.00    -0.200 F 
ATOM     92  C   UNL A   1      38.269  33.578  38.012  1.00  0.00     0.200 A 
ATOM     93  F   UNL A   1      39.555  35.421  37.287  1.00  0.00    -0.200 F 
ATOM     94  F   UNL A   1      37.819  34.285  39.058  1.00  0.00    -0.200 F 
ENDBRANCH  61  84
ENDBRANCH  35  36
ENDBRANCH  28  30
ENDBRANCH  27  28
ENDBRANCH  26  27
ENDBRANCH   1  26
TORSDOF 15
ENDMDL
MODEL 2
REMARK VINA RESULT:     -11.8      2.733      8.501
REMARK SMILES CCc1cc(OC(F)(F)F)cc2c1O[C@@H](C(F)(F)F)C(C(=O)OCCOC(=O)c1ccc(-c3c4nc(c(-c5c(F)c(F)c(F)c(F)c5F)c5ccc([nH]5)c(-c5c(F)c(F)c(F)c(F)c5F)c5nc(c(-c6c(F)c(F)c(F)c(F)c6F)c6ccc3[nH]6)C=C5)C=C4)cc1)=C2
REMARK SMILES IDX 24 1 23 2 21 3 22 4 20 5 3 6 4 7 13 8 5 9 12 10 14 11 11 12
REMARK SMILES IDX 92 13 15 14 2 15 1 16 6 17 7 18 8 19 9 20 10 21 16 22 17 23
REMARK SMILES IDX 18 24 19 25 25 26 26 27 27 28 28 29 29 30 30 31 91 32 31 33
REMARK SMILES IDX 90 34 32 35 33 36 34 37 84 38 35 39 89 40 83 41 85 42 36 43
REMARK SMILES IDX 88 44 82 45 81 46 37 48 69 49 49 50 68 51 50 52 53 53 67 54
REMARK SMILES IDX 86 55 51 56 52 57 66 59 87 60 54 61 38 62 39 63 47 64 40 65
REMARK SMILES IDX 41 66 45 67 48 68 42 69 43 70 46 71 44 72 70 73 71 74 79 75
REMARK SMILES IDX 72 76 73 77 77 78 80 79 74 80 75 81 78 82 76 83 55 84 56 85
REMARK SMILES IDX 64 86 57 87 58 88 62 89 65 90 59 91 60 92 63 93 61 94
REMARK H PARENT 85 47 53 58
REMARK Flexibility Score: inf
ROOT
ATOM      1  C   UNL A   1      31.405  29.443  25.275  1.00  0.00     0.275 C 
ENDROOT
BRANCH   1   2
ATOM      2  O   UNL A   1      32.344  28.361  25.455  1.00  0.00    -0.459 OA
BRANCH   2   3
ATOM      3  C   UNL A   1      31.925  27.337  26.239  1.00  0.00     0.338 C 
ATOM      4  O   UNL A   1      31.280  27.455  27.267  1.00  0.00    -0.246 OA
BRANCH   3   5
ATOM      5  C   UNL A   1      32.288  26.020  25.669  1.00  0.00     0.087 C 
ATOM      6  C   UNL A   1      33.081  22.311  23.908  1.00  0.00    -0.002 A 
ATOM      7  C   UNL A   1      34.238  21.606  24.271  1.00  0.00     0.054 A 
ATOM      8  C   UNL A   1      32.773  23.494  24.594  1.00  0.00     0.131 A 
ATOM      9  C   UNL A   1      35.062  22.072  25.300  1.00  0.00     0.130 A 
ATOM     10  C   UNL A   1      33.625  24.016  25.571  1.00  0.00     0.021 A 
ATOM     11  O   UNL A   1      31.565  24.078  24.326  1.00  0.00    -0.475 OA
ATOM     12  C   UNL A   1      34.769  23.294  25.923  1.00  0.00     0.058 A 
ATOM     13  C   UNL A   1      33.282  25.289  26.209  1.00  0.00     0.027 C 
ATOM     14  C   UNL A   1      31.536  25.524  24.447  1.00  0.00     0.316 C 
BRANCH   6  15
ATOM     15  C   UNL A   1      32.213  21.816  22.774  1.00  0.00     0.036 C 
ATOM     16  C   UNL A   1      32.153  20.293  22.722  1.00  0.00     0.009 C 
ENDBRANCH   6  15
BRANCH   9  17
ATOM     17  O   UNL A   1      36.179  21.440  25.772  1.00  0.00    -0.406 OA
BRANCH  17  18
ATOM     18  C   UNL A   1      37.348  21.499  24.967  1.00  0.00     0.573 C 
ATOM     19  F   UNL A   1      37.777  20.264  24.625  1.00  0.00    -0.132 F 
ATOM     20  F   UNL A   1      37.126  22.224  23.849  1.00  0.00    -0.132 F 
ATOM     21  F   UNL A   1      38.331  22.103  25.670  1.00  0.00    -0.132 F 
ENDBRANCH  17  18
ENDBRANCH   9  17
BRANCH  14  22
ATOM     22  C   UNL A   1      30.070  25.955  24.236  1.00  0.00     0.430 C 
ATOM     23  F   UNL A   1      29.976  27.174  23.658  1.00  0.00    -0.167 F 
ATOM     24  F   UNL A   1      29.453  25.102  23.371  1.00  0.00    -0.167 F 
ATOM     25  F   UNL A   1      29.348  25.946  25.375  1.00  0.00    -0.167 F 
ENDBRANCH  14  22
ENDBRANCH   3   5
ENDBRANCH   2   3
ENDBRANCH   1   2
BRANCH   1  26
ATOM     26  C   UNL A   1      31.769  30.661  26.131  1.00  0.00     0.275 C 
BRANCH  26  27
ATOM     27  O   UNL A   1      33.143  30.615  26.557  1.00  0.00    -0.458 OA
BRANCH  27  28
ATOM     28  C   UNL A   1      33.566  31.701  27.247  1.00  0.00     0.338 C 
ATOM     29  O   UNL A   1      32.963  32.751  27.399  1.00  0.00    -0.246 OA
BRANCH  28  30
ATOM     30  C   UNL A   1      34.816  31.390  27.967  1.00  0.00     0.060 A 
ATOM     31  C   UNL A   1      34.942  30.098  28.489  1.00  0.00     0.016 A 
ATOM     32  C   UNL A   1      35.842  32.320  28.146  1.00  0.00     0.016 A 
ATOM     33  C   UNL A   1      36.116  29.705  29.126  1.00  0.00     0.010 A 
ATOM     34  C   UNL A   1      37.001  31.943  28.838  1.00  0.00     0.010 A 
ATOM     35  C   UNL A   1      37.146  30.630  29.319  1.00  0.00    -0.014 A 
BRANCH  35  36
ATOM     36  C   UNL A   1      38.329  30.247  30.123  1.00  0.00     0.031 A 
ATOM     37  C   UNL A   1      39.316  29.273  29.552  1.00  0.00     0.074 A 
ATOM     38  C   UNL A   1      38.535  30.786  31.338  1.00  0.00     0.049 A 
ATOM     39  N   UNL A   1      40.395  28.769  30.094  1.00  0.00    -0.248 NA
ATOM     40  C   UNL A   1      39.060  28.815  28.178  1.00  0.00     0.031 C 
ATOM     41  C   UNL A   1      37.694  31.803  31.964  1.00  0.00     0.029 A 
ATOM     42  N   UNL A   1      39.520  30.543  32.263  1.00  0.00    -0.354 N 
ATOM     43  C   UNL A   1      40.951  27.945  29.127  1.00  0.00     0.074 A 
ATOM     44  C   UNL A   1      40.086  28.003  27.968  1.00  0.00     0.031 C 
ATOM     45  C   UNL A   1      38.183  32.078  33.186  1.00  0.00     0.029 A 
ATOM     46  C   UNL A   1      39.351  31.235  33.437  1.00  0.00     0.049 A 
ATOM     47  H   UNL A   1      40.274  29.932  32.101  1.00  0.00     0.167 HD
ATOM     48  C   UNL A   1      42.081  27.202  29.202  1.00  0.00     0.037 A 
ATOM     49  C   UNL A   1      40.043  31.165  34.592  1.00  0.00     0.037 A 
ATOM     50  C   UNL A   1      42.918  27.112  30.367  1.00  0.00     0.049 A 
ATOM     51  C   UNL A   1      41.224  30.232  34.691  1.00  0.00     0.074 A 
ATOM     52  C   UNL A   1      44.068  26.364  30.548  1.00  0.00     0.029 A 
ATOM     53  N   UNL A   1      42.683  27.780  31.559  1.00  0.00    -0.354 N 
ATOM     54  N   UNL A   1      41.751  29.460  33.772  1.00  0.00    -0.248 NA
ATOM     55  C   UNL A   1      41.903  30.156  35.994  1.00  0.00     0.031 C 
ATOM     56  C   UNL A   1      44.499  26.539  31.868  1.00  0.00     0.029 A 
ATOM     57  C   UNL A   1      43.650  27.440  32.491  1.00  0.00     0.049 A 
ATOM     58  H   UNL A   1      41.939  28.405  31.720  1.00  0.00     0.167 HD
ATOM     59  C   UNL A   1      42.839  28.837  34.372  1.00  0.00     0.074 A 
ATOM     60  C   UNL A   1      42.900  29.323  35.733  1.00  0.00     0.031 C 
ATOM     61  C   UNL A   1      43.710  27.945  33.838  1.00  0.00     0.037 A 
BRANCH  48  62
ATOM     62  C   UNL A   1      42.445  26.387  27.997  1.00  0.00     0.064 A 
ATOM     63  C   UNL A   1      41.900  25.114  27.778  1.00  0.00     0.173 A 
ATOM     64  C   UNL A   1      43.336  26.897  27.041  1.00  0.00     0.173 A 
ATOM     65  F   UNL A   1      41.056  24.578  28.673  1.00  0.00    -0.203 F 
ATOM     66  C   UNL A   1      42.251  24.370  26.655  1.00  0.00     0.198 A 
ATOM     67  C   UNL A   1      43.666  26.160  25.907  1.00  0.00     0.198 A 
ATOM     68  F   UNL A   1      43.884  28.109  27.206  1.00  0.00    -0.203 F 
ATOM     69  F   UNL A   1      41.753  23.137  26.487  1.00  0.00    -0.200 F 
ATOM     70  C   UNL A   1      43.130  24.896  25.718  1.00  0.00     0.200 A 
ATOM     71  F   UNL A   1      44.509  26.673  25.000  1.00  0.00    -0.200 F 
ATOM     72  F   UNL A   1      43.465  24.179  24.637  1.00  0.00    -0.200 F 
ENDBRANCH  48  62
BRANCH  49  73
ATOM     73  C   UNL A   1      39.622  31.977  35.764  1.00  0.00     0.064 A 
ATOM     74  C   UNL A   1      38.603  31.540  36.622  1.00  0.00     0.173 A 
ATOM     75  C   UNL A   1      40.203  33.228  36.025  1.00  0.00     0.173 A 
ATOM     76  F   UNL A   1      37.994  30.367  36.395  1.00  0.00    -0.203 F 
ATOM     77  C   UNL A   1      38.169  32.331  37.684  1.00  0.00     0.198 A 
ATOM     78  C   UNL A   1      39.787  34.005  37.104  1.00  0.00     0.198 A 
ATOM     79  F   UNL A   1      41.172  33.698  35.227  1.00  0.00    -0.203 F 
ATOM     80  F   UNL A   1      37.156  31.914  38.456  1.00  0.00    -0.200 F 
ATOM     81  C   UNL A   1      38.764  33.560  37.927  1.00  0.00     0.200 A 
ATOM     82  F   UNL A   1      40.366  35.190  37.336  1.00  0.00    -0.200 F 
ATOM     83  F   UNL A   1      38.341  34.323  38.944  1.00  0.00    -0.200 F 
ENDBRANCH  49  73
BRANCH  61  84
ATOM     84  C   UNL A   1      44.838  27.469  34.707  1.00  0.00     0.064 A 
ATOM     85  C   UNL A   1      46.048  28.172  34.797  1.00  0.00     0.173 A 
ATOM     86  C   UNL A   1      44.678  26.330  35.511  1.00  0.00     0.173 A 
ATOM     87  F   UNL A   1      46.255  29.259  34.039  1.00  0.00    -0.203 F 
ATOM     88  C   UNL A   1      47.063  27.744  35.650  1.00  0.00     0.198 A 
ATOM     89  C   UNL A   1      45.684  25.920  36.383  1.00  0.00     0.198 A 
ATOM     90  F   UNL A   1      43.537  25.627  35.468  1.00  0.00    -0.203 F 
ATOM     91  F   UNL A   1      48.224  28.411  35.695  1.00  0.00    -0.200 F 
ATOM     92  C   UNL A   1      46.876  26.625  36.448  1.00  0.00     0.200 A 
ATOM     93  F   UNL A   1      45.495  24.848  37.165  1.00  0.00    -0.200 F 
ATOM     94  F   UNL A   1      47.847  26.223  37.280  1.00  0.00    -0.200 F 
ENDBRANCH  61  84
ENDBRANCH  35  36
ENDBRANCH  28  30
ENDBRANCH  27  28
ENDBRANCH  26  27
ENDBRANCH   1  26
TORSDOF 15
ENDMDL
MODEL 3
REMARK VINA RESULT:     -11.8      2.640      8.281
REMARK SMILES CCc1cc(OC(F)(F)F)cc2c1O[C@@H](C(F)(F)F)C(C(=O)OCCOC(=O)c1ccc(-c3c4nc(c(-c5c(F)c(F)c(F)c(F)c5F)c5ccc([nH]5)c(-c5c(F)c(F)c(F)c(F)c5F)c5nc(c(-c6c(F)c(F)c(F)c(F)c6F)c6ccc3[nH]6)C=C5)C=C4)cc1)=C2
REMARK SMILES IDX 24 1 23 2 21 3 22 4 20 5 3 6 4 7 13 8 5 9 12 10 14 11 11 12
REMARK SMILES IDX 92 13 15 14 2 15 1 16 6 17 7 18 8 19 9 20 10 21 16 22 17 23
REMARK SMILES IDX 18 24 19 25 25 26 26 27 27 28 28 29 29 30 30 31 91 32 31 33
REMARK SMILES IDX 90 34 32 35 33 36 34 37 84 38 35 39 89 40 83 41 85 42 36 43
REMARK SMILES IDX 88 44 82 45 81 46 37 48 69 49 49 50 68 51 50 52 53 53 67 54
REMARK SMILES IDX 86 55 51 56 52 57 66 59 87 60 54 61 38 62 39 63 47 64 40 65
REMARK SMILES IDX 41 66 45 67 48 68 42 69 43 70 46 71 44 72 70 73 71 74 79 75
REMARK SMILES IDX 72 76 73 77 77 78 80 79 74 80 75 81 78 82 76 83 55 84 56 85
REMARK SMILES IDX 64 86 57 87 58 88 62 89 65 90 59 91 60 92 63 93 61 94
REMARK H PARENT 85 47 53 58
REMARK Flexibility Score: inf
ROOT
ATOM      1  C   UNL A   1      31.278  28.920  25.348  1.00  0.00     0.275 C 
ENDROOT
BRANCH   1   2
ATOM      2  O   UNL A   1      32.373  27.980  25.400  1.00  0.00    -0.459 OA
BRANCH   2   3
ATOM      3  C   UNL A   1      32.745  27.437  24.215  1.00  0.00     0.338 C 
ATOM      4  O   UNL A   1      32.940  28.061  23.185  1.00  0.00    -0.246 OA
BRANCH   3   5
ATOM      5  C   UNL A   1      32.958  25.975  24.318  1.00  0.00     0.087 C 
ATOM      6  C   UNL A   1      33.298  21.813  24.522  1.00  0.00    -0.002 A 
ATOM      7  C   UNL A   1      34.502  21.238  24.957  1.00  0.00     0.054 A 
ATOM      8  C   UNL A   1      33.164  23.207  24.573  1.00  0.00     0.131 A 
ATOM      9  C   UNL A   1      35.542  22.040  25.436  1.00  0.00     0.130 A 
ATOM     10  C   UNL A   1      34.221  24.030  24.975  1.00  0.00     0.021 A 
ATOM     11  O   UNL A   1      31.932  23.730  24.289  1.00  0.00    -0.475 OA
ATOM     12  C   UNL A   1      35.408  23.435  25.411  1.00  0.00     0.058 A 
ATOM     13  C   UNL A   1      34.042  25.483  24.946  1.00  0.00     0.027 C 
ATOM     14  C   UNL A   1      31.943  25.046  23.677  1.00  0.00     0.316 C 
BRANCH   6  15
ATOM     15  C   UNL A   1      32.191  20.940  23.978  1.00  0.00     0.036 C 
ATOM     16  C   UNL A   1      32.529  19.457  24.081  1.00  0.00     0.009 C 
ENDBRANCH   6  15
BRANCH   9  17
ATOM     17  O   UNL A   1      36.731  21.585  25.934  1.00  0.00    -0.406 OA
BRANCH  17  18
ATOM     18  C   UNL A   1      37.739  21.238  24.995  1.00  0.00     0.573 C 
ATOM     19  F   UNL A   1      37.868  19.898  24.878  1.00  0.00    -0.132 F 
ATOM     20  F   UNL A   1      37.471  21.771  23.783  1.00  0.00    -0.132 F 
ATOM     21  F   UNL A   1      38.921  21.736  25.420  1.00  0.00    -0.132 F 
ENDBRANCH  17  18
ENDBRANCH   9  17
BRANCH  14  22
ATOM     22  C   UNL A   1      30.472  25.493  23.567  1.00  0.00     0.430 C 
ATOM     23  F   UNL A   1      29.672  24.506  23.104  1.00  0.00    -0.167 F 
ATOM     24  F   UNL A   1      29.984  25.798  24.802  1.00  0.00    -0.167 F 
ATOM     25  F   UNL A   1      30.310  26.592  22.801  1.00  0.00    -0.167 F 
ENDBRANCH  14  22
ENDBRANCH   3   5
ENDBRANCH   2   3
ENDBRANCH   1   2
BRANCH   1  26
ATOM     26  C   UNL A   1      31.750  30.357  25.597  1.00  0.00     0.275 C 
BRANCH  26  27
ATOM     27  O   UNL A   1      33.087  30.388  26.127  1.00  0.00    -0.458 OA
BRANCH  27  28
ATOM     28  C   UNL A   1      33.338  31.404  26.988  1.00  0.00     0.338 C 
ATOM     29  O   UNL A   1      32.603  32.343  27.247  1.00  0.00    -0.246 OA
BRANCH  28  30
ATOM     30  C   UNL A   1      34.583  31.139  27.736  1.00  0.00     0.060 A 
ATOM     31  C   UNL A   1      34.765  29.841  28.224  1.00  0.00     0.016 A 
ATOM     32  C   UNL A   1      35.551  32.118  27.973  1.00  0.00     0.016 A 
ATOM     33  C   UNL A   1      35.940  29.492  28.885  1.00  0.00     0.010 A 
ATOM     34  C   UNL A   1      36.708  31.783  28.687  1.00  0.00     0.010 A 
ATOM     35  C   UNL A   1      36.912  30.466  29.135  1.00  0.00    -0.014 A 
BRANCH  35  36
ATOM     36  C   UNL A   1      38.092  30.123  29.962  1.00  0.00     0.031 A 
ATOM     37  C   UNL A   1      39.105  29.157  29.425  1.00  0.00     0.074 A 
ATOM     38  C   UNL A   1      38.270  30.691  31.168  1.00  0.00     0.049 A 
ATOM     39  N   UNL A   1      40.186  28.686  29.993  1.00  0.00    -0.248 NA
ATOM     40  C   UNL A   1      38.877  28.666  28.058  1.00  0.00     0.031 C 
ATOM     41  C   UNL A   1      37.400  31.704  31.761  1.00  0.00     0.029 A 
ATOM     42  N   UNL A   1      39.247  30.487  32.111  1.00  0.00    -0.354 N 
ATOM     43  C   UNL A   1      40.771  27.853  29.050  1.00  0.00     0.074 A 
ATOM     44  C   UNL A   1      39.921  27.870  27.879  1.00  0.00     0.031 C 
ATOM     45  C   UNL A   1      37.867  32.014  32.984  1.00  0.00     0.029 A 
ATOM     46  C   UNL A   1      39.047  31.200  33.269  1.00  0.00     0.049 A 
ATOM     47  H   UNL A   1      40.015  29.888  31.972  1.00  0.00     0.167 HD
ATOM     48  C   UNL A   1      41.914  27.134  29.156  1.00  0.00     0.037 A 
ATOM     49  C   UNL A   1      39.725  31.168  34.433  1.00  0.00     0.037 A 
ATOM     50  C   UNL A   1      42.737  27.085  30.334  1.00  0.00     0.049 A 
ATOM     51  C   UNL A   1      40.922  30.261  34.568  1.00  0.00     0.074 A 
ATOM     52  C   UNL A   1      43.898  26.364  30.546  1.00  0.00     0.029 A 
ATOM     53  N   UNL A   1      42.472  27.774  31.508  1.00  0.00    -0.354 N 
ATOM     54  N   UNL A   1      41.478  29.480  33.673  1.00  0.00    -0.248 NA
ATOM     55  C   UNL A   1      41.585  30.225  35.881  1.00  0.00     0.031 C 
ATOM     56  C   UNL A   1      44.308  26.575  31.867  1.00  0.00     0.029 A 
ATOM     57  C   UNL A   1      43.433  27.472  32.460  1.00  0.00     0.049 A 
ATOM     58  H   UNL A   1      41.714  28.387  31.646  1.00  0.00     0.167 HD
ATOM     59  C   UNL A   1      42.569  28.891  34.300  1.00  0.00     0.074 A 
ATOM     60  C   UNL A   1      42.602  29.406  35.651  1.00  0.00     0.031 C 
ATOM     61  C   UNL A   1      43.464  28.006  33.797  1.00  0.00     0.037 A 
BRANCH  48  62
ATOM     62  C   UNL A   1      42.311  26.302  27.973  1.00  0.00     0.064 A 
ATOM     63  C   UNL A   1      41.802  25.010  27.780  1.00  0.00     0.173 A 
ATOM     64  C   UNL A   1      43.195  26.814  27.013  1.00  0.00     0.173 A 
ATOM     65  F   UNL A   1      40.966  24.471  28.681  1.00  0.00    -0.203 F 
ATOM     66  C   UNL A   1      42.183  24.250  26.678  1.00  0.00     0.198 A 
ATOM     67  C   UNL A   1      43.555  26.060  25.899  1.00  0.00     0.198 A 
ATOM     68  F   UNL A   1      43.709  28.044  27.153  1.00  0.00    -0.203 F 
ATOM     69  F   UNL A   1      41.721  23.000  26.535  1.00  0.00    -0.200 F 
ATOM     70  C   UNL A   1      43.055  24.777  25.736  1.00  0.00     0.200 A 
ATOM     71  F   UNL A   1      44.391  26.575  24.987  1.00  0.00    -0.200 F 
ATOM     72  F   UNL A   1      43.420  24.045  24.674  1.00  0.00    -0.200 F 
ENDBRANCH  48  62
BRANCH  49  73
ATOM     73  C   UNL A   1      39.273  31.995  35.583  1.00  0.00     0.064 A 
ATOM     74  C   UNL A   1      39.803  33.272  35.811  1.00  0.00     0.173 A 
ATOM     75  C   UNL A   1      38.331  31.506  36.501  1.00  0.00     0.173 A 
ATOM     76  F   UNL A   1      40.730  33.770  34.981  1.00  0.00    -0.203 F 
ATOM     77  C   UNL A   1      39.422  34.021  36.924  1.00  0.00     0.198 A 
ATOM     78  C   UNL A   1      37.930  32.266  37.597  1.00  0.00     0.198 A 
ATOM     79  F   UNL A   1      37.803  30.285  36.335  1.00  0.00    -0.203 F 
ATOM     80  F   UNL A   1      39.985  35.216  37.149  1.00  0.00    -0.200 F 
ATOM     81  C   UNL A   1      38.483  33.519  37.813  1.00  0.00     0.200 A 
ATOM     82  F   UNL A   1      37.021  31.779  38.452  1.00  0.00    -0.200 F 
ATOM     83  F   UNL A   1      38.123  34.236  38.886  1.00  0.00    -0.200 F 
ENDBRANCH  49  73
BRANCH  61  84
ATOM     84  C   UNL A   1      44.590  27.571  34.690  1.00  0.00     0.064 A 
ATOM     85  C   UNL A   1      44.498  26.418  35.484  1.00  0.00     0.173 A 
ATOM     86  C   UNL A   1      45.801  28.279  34.697  1.00  0.00     0.173 A 
ATOM     87  F   UNL A   1      43.357  25.714  35.523  1.00  0.00    -0.203 F 
ATOM     88  C   UNL A   1      45.573  26.000  36.265  1.00  0.00     0.198 A 
ATOM     89  C   UNL A   1      46.883  27.843  35.457  1.00  0.00     0.198 A 
ATOM     90  F   UNL A   1      45.943  29.383  33.949  1.00  0.00    -0.203 F 
ATOM     91  F   UNL A   1      45.453  24.916  37.042  1.00  0.00    -0.200 F 
ATOM     92  C   UNL A   1      46.767  26.707  36.243  1.00  0.00     0.200 A 
ATOM     93  F   UNL A   1      48.040  28.519  35.422  1.00  0.00    -0.200 F 
ATOM     94  F   UNL A   1      47.806  26.294  36.983  1.00  0.00    -0.200 F 
ENDBRANCH  61  84
ENDBRANCH  35  36
ENDBRANCH  28  30
ENDBRANCH  27  28
ENDBRANCH  26  27
ENDBRANCH   1  26
TORSDOF 15
ENDMDL
