MODEL 1
REMARK VINA RESULT:     -13.0      0.000      0.000
REMARK SMILES O=C(OCCOC(=O)C1(c2ccccc2)CCN(S(=O)(=O)c2cccs2)CC1)c1ccc(-c2c3nc(c(-c4c(F)c(F)c(F)c(F)c4F)c4ccc([nH]4)c(-c4c(F)c(F)c(F)c(F)c4F)c4nc(c(-c5c(F)c(F)c(F)c(F)c5F)c5ccc2[nH]5)C=C4)C=C3)cc1
REMARK SMILES IDX 4 1 3 2 2 3 1 4 29 5 30 6 91 7 31 8 90 9 32 10 33 11 34 12
REMARK SMILES IDX 84 13 35 14 89 15 83 16 85 17 36 18 88 19 82 20 81 21 37 23
REMARK SMILES IDX 69 24 49 25 68 26 50 27 53 28 67 29 86 30 51 31 52 32 66 34
REMARK SMILES IDX 87 35 54 36 38 37 39 38 47 39 40 40 41 41 45 42 48 43 42 44
REMARK SMILES IDX 43 45 46 46 44 47 70 48 71 49 79 50 72 51 73 52 77 53 80 54
REMARK SMILES IDX 74 55 75 56 78 57 76 58 55 59 56 60 64 61 57 62 58 63 62 64
REMARK SMILES IDX 65 65 59 66 60 67 63 68 61 69 5 70 6 71 7 72 8 73 9 74 16 75
REMARK SMILES IDX 28 76 17 77 27 78 18 79 10 80 11 81 15 82 12 83 14 84 13 85
REMARK SMILES IDX 19 86 20 87 21 88 22 89 23 90 26 91 24 92 25 93
REMARK H PARENT 85 22 53 33
REMARK Flexibility Score: inf
ROOT
ATOM      1  C   UNL A   1      31.593  30.199  26.718  1.00  0.00     0.275 C 
ENDROOT
BRANCH   1   2
ATOM      2  O   UNL A   1      32.729  31.018  26.438  1.00  0.00    -0.458 OA
BRANCH   2   3
ATOM      3  C   UNL A   1      33.400  31.843  27.266  1.00  0.00     0.338 C 
ATOM      4  O   UNL A   1      32.957  32.975  27.458  1.00  0.00    -0.246 OA
BRANCH   3   5
ATOM      5  C   UNL A   1      34.717  31.490  27.888  1.00  0.00     0.060 A 
ATOM      6  C   UNL A   1      35.846  32.303  28.061  1.00  0.00     0.016 A 
ATOM      7  C   UNL A   1      34.791  30.185  28.366  1.00  0.00     0.016 A 
ATOM      8  C   UNL A   1      36.974  31.863  28.778  1.00  0.00     0.010 A 
ATOM      9  C   UNL A   1      35.896  29.760  29.094  1.00  0.00     0.010 A 
ATOM     10  C   UNL A   1      37.006  30.583  29.320  1.00  0.00    -0.014 A 
BRANCH  10  11
ATOM     11  C   UNL A   1      38.200  30.003  29.998  1.00  0.00     0.031 A 
ATOM     12  C   UNL A   1      38.453  30.405  31.430  1.00  0.00     0.074 A 
ATOM     13  C   UNL A   1      39.120  29.267  29.342  1.00  0.00     0.049 A 
ATOM     14  N   UNL A   1      39.524  30.259  32.165  1.00  0.00    -0.248 NA
ATOM     15  C   UNL A   1      37.389  31.188  32.085  1.00  0.00     0.031 C 
ATOM     16  C   UNL A   1      39.073  28.886  27.930  1.00  0.00     0.029 A 
ATOM     17  N   UNL A   1      40.308  28.731  29.779  1.00  0.00    -0.354 N 
ATOM     18  C   UNL A   1      39.277  31.008  33.309  1.00  0.00     0.074 A 
ATOM     19  C   UNL A   1      38.056  31.742  33.081  1.00  0.00     0.031 C 
ATOM     20  C   UNL A   1      40.181  28.190  27.615  1.00  0.00     0.029 A 
ATOM     21  C   UNL A   1      41.007  28.050  28.810  1.00  0.00     0.049 A 
ATOM     22  H   UNL A   1      40.630  28.827  30.705  1.00  0.00     0.167 HD
ATOM     23  C   UNL A   1      39.929  30.994  34.494  1.00  0.00     0.037 A 
ATOM     24  C   UNL A   1      42.162  27.362  28.902  1.00  0.00     0.037 A 
ATOM     25  C   UNL A   1      41.027  30.109  34.760  1.00  0.00     0.049 A 
ATOM     26  C   UNL A   1      42.813  27.237  30.257  1.00  0.00     0.074 A 
ATOM     27  C   UNL A   1      41.658  29.843  35.958  1.00  0.00     0.029 A 
ATOM     28  N   UNL A   1      41.621  29.305  33.798  1.00  0.00    -0.354 N 
ATOM     29  N   UNL A   1      42.496  27.827  31.386  1.00  0.00    -0.248 NA
ATOM     30  C   UNL A   1      43.941  26.302  30.368  1.00  0.00     0.031 C 
ATOM     31  C   UNL A   1      42.648  28.883  35.718  1.00  0.00     0.029 A 
ATOM     32  C   UNL A   1      42.604  28.526  34.378  1.00  0.00     0.049 A 
ATOM     33  H   UNL A   1      41.380  29.292  32.843  1.00  0.00     0.167 HD
ATOM     34  C   UNL A   1      43.334  27.283  32.351  1.00  0.00     0.074 A 
ATOM     35  C   UNL A   1      44.177  26.321  31.672  1.00  0.00     0.031 C 
ATOM     36  C   UNL A   1      43.392  27.543  33.681  1.00  0.00     0.037 A 
BRANCH  23  37
ATOM     37  C   UNL A   1      39.402  31.881  35.590  1.00  0.00     0.064 A 
ATOM     38  C   UNL A   1      39.860  33.201  35.761  1.00  0.00     0.173 A 
ATOM     39  C   UNL A   1      38.456  31.402  36.505  1.00  0.00     0.173 A 
ATOM     40  F   UNL A   1      40.762  33.721  34.913  1.00  0.00    -0.203 F 
ATOM     41  C   UNL A   1      39.461  33.968  36.852  1.00  0.00     0.198 A 
ATOM     42  C   UNL A   1      38.015  32.193  37.565  1.00  0.00     0.198 A 
ATOM     43  F   UNL A   1      37.964  30.159  36.384  1.00  0.00    -0.203 F 
ATOM     44  F   UNL A   1      40.004  35.178  37.049  1.00  0.00    -0.200 F 
ATOM     45  C   UNL A   1      38.536  33.466  37.750  1.00  0.00     0.200 A 
ATOM     46  F   UNL A   1      37.101  31.717  38.419  1.00  0.00    -0.200 F 
ATOM     47  F   UNL A   1      38.153  34.203  38.802  1.00  0.00    -0.200 F 
ENDBRANCH  23  37
BRANCH  24  48
ATOM     48  C   UNL A   1      42.698  26.613  27.731  1.00  0.00     0.064 A 
ATOM     49  C   UNL A   1      42.263  25.303  27.469  1.00  0.00     0.173 A 
ATOM     50  C   UNL A   1      43.662  27.158  26.874  1.00  0.00     0.173 A 
ATOM     51  F   UNL A   1      41.350  24.732  28.267  1.00  0.00    -0.203 F 
ATOM     52  C   UNL A   1      42.800  24.556  26.422  1.00  0.00     0.198 A 
ATOM     53  C   UNL A   1      44.183  26.417  25.811  1.00  0.00     0.198 A 
ATOM     54  F   UNL A   1      44.102  28.410  27.066  1.00  0.00    -0.203 F 
ATOM     55  F   UNL A   1      42.401  23.292  26.232  1.00  0.00    -0.200 F 
ATOM     56  C   UNL A   1      43.760  25.114  25.594  1.00  0.00     0.200 A 
ATOM     57  F   UNL A   1      45.099  26.962  24.999  1.00  0.00    -0.200 F 
ATOM     58  F   UNL A   1      44.278  24.394  24.589  1.00  0.00    -0.200 F 
ENDBRANCH  24  48
BRANCH  36  59
ATOM     59  C   UNL A   1      44.330  26.714  34.506  1.00  0.00     0.064 A 
ATOM     60  C   UNL A   1      43.955  25.469  35.029  1.00  0.00     0.173 A 
ATOM     61  C   UNL A   1      45.646  27.153  34.722  1.00  0.00     0.173 A 
ATOM     62  F   UNL A   1      42.705  25.014  34.859  1.00  0.00    -0.203 F 
ATOM     63  C   UNL A   1      44.856  24.706  35.765  1.00  0.00     0.198 A 
ATOM     64  C   UNL A   1      46.554  26.371  35.426  1.00  0.00     0.198 A 
ATOM     65  F   UNL A   1      46.055  28.334  34.233  1.00  0.00    -0.203 F 
ATOM     66  F   UNL A   1      44.463  23.543  36.301  1.00  0.00    -0.200 F 
ATOM     67  C   UNL A   1      46.157  25.152  35.954  1.00  0.00     0.200 A 
ATOM     68  F   UNL A   1      47.815  26.795  35.591  1.00  0.00    -0.200 F 
ATOM     69  F   UNL A   1      47.026  24.409  36.652  1.00  0.00    -0.200 F 
ENDBRANCH  36  59
ENDBRANCH  10  11
ENDBRANCH   3   5
ENDBRANCH   2   3
ENDBRANCH   1   2
BRANCH   1  70
ATOM     70  C   UNL A   1      31.880  28.704  26.887  1.00  0.00     0.274 C 
BRANCH  70  71
ATOM     71  O   UNL A   1      31.300  27.792  25.926  1.00  0.00    -0.461 OA
BRANCH  71  72
ATOM     72  C   UNL A   1      31.848  27.815  24.669  1.00  0.00     0.316 C 
ATOM     73  O   UNL A   1      32.979  28.236  24.450  1.00  0.00    -0.251 OA
BRANCH  72  74
ATOM     74  C   UNL A   1      30.853  27.402  23.542  1.00  0.00     0.095 C 
ATOM     75  C   UNL A   1      30.182  26.072  23.992  1.00  0.00     0.040 C 
ATOM     76  C   UNL A   1      31.625  27.096  22.235  1.00  0.00     0.040 C 
ATOM     77  C   UNL A   1      31.164  24.910  24.094  1.00  0.00     0.104 C 
ATOM     78  C   UNL A   1      32.592  25.934  22.367  1.00  0.00     0.104 C 
ATOM     79  N   UNL A   1      31.861  24.721  22.795  1.00  0.00    -0.197 NA
BRANCH  74  80
ATOM     80  C   UNL A   1      29.696  28.407  23.315  1.00  0.00    -0.031 A 
ATOM     81  C   UNL A   1      28.352  27.994  23.186  1.00  0.00     0.005 A 
ATOM     82  C   UNL A   1      29.928  29.795  23.363  1.00  0.00     0.005 A 
ATOM     83  C   UNL A   1      27.297  28.910  23.113  1.00  0.00     0.000 A 
ATOM     84  C   UNL A   1      28.871  30.715  23.287  1.00  0.00     0.000 A 
ATOM     85  C   UNL A   1      27.554  30.273  23.168  1.00  0.00     0.000 A 
ENDBRANCH  74  80
BRANCH  79  86
ATOM     86  S   UNL A   1      32.823  23.295  22.769  1.00  0.00     0.252 S 
ATOM     87  O   UNL A   1      31.939  22.185  23.048  1.00  0.00    -0.206 OA
ATOM     88  O   UNL A   1      33.651  23.327  21.581  1.00  0.00    -0.206 OA
BRANCH  86  89
ATOM     89  C   UNL A   1      33.910  23.379  24.185  1.00  0.00     0.135 A 
ATOM     90  C   UNL A   1      35.090  24.071  24.390  1.00  0.00     0.033 A 
ATOM     91  S   UNL A   1      33.489  22.450  25.557  1.00  0.00    -0.131 S 
ATOM     92  C   UNL A   1      35.664  23.809  25.666  1.00  0.00     0.013 A 
ATOM     93  C   UNL A   1      34.878  22.961  26.414  1.00  0.00     0.066 A 
ENDBRANCH  86  89
ENDBRANCH  79  86
ENDBRANCH  72  74
ENDBRANCH  71  72
ENDBRANCH  70  71
ENDBRANCH   1  70
TORSDOF 14
ENDMDL
MODEL 2
REMARK VINA RESULT:     -13.0      0.649      1.730
REMARK SMILES O=C(OCCOC(=O)C1(c2ccccc2)CCN(S(=O)(=O)c2cccs2)CC1)c1ccc(-c2c3nc(c(-c4c(F)c(F)c(F)c(F)c4F)c4ccc([nH]4)c(-c4c(F)c(F)c(F)c(F)c4F)c4nc(c(-c5c(F)c(F)c(F)c(F)c5F)c5ccc2[nH]5)C=C4)C=C3)cc1
REMARK SMILES IDX 4 1 3 2 2 3 1 4 29 5 30 6 91 7 31 8 90 9 32 10 33 11 34 12
REMARK SMILES IDX 84 13 35 14 89 15 83 16 85 17 36 18 88 19 82 20 81 21 37 23
REMARK SMILES IDX 69 24 49 25 68 26 50 27 53 28 67 29 86 30 51 31 52 32 66 34
REMARK SMILES IDX 87 35 54 36 38 37 39 38 47 39 40 40 41 41 45 42 48 43 42 44
REMARK SMILES IDX 43 45 46 46 44 47 70 48 71 49 79 50 72 51 73 52 77 53 80 54
REMARK SMILES IDX 74 55 75 56 78 57 76 58 55 59 56 60 64 61 57 62 58 63 62 64
REMARK SMILES IDX 65 65 59 66 60 67 63 68 61 69 5 70 6 71 7 72 8 73 9 74 16 75
REMARK SMILES IDX 28 76 17 77 27 78 18 79 10 80 11 81 15 82 12 83 14 84 13 85
REMARK SMILES IDX 19 86 20 87 21 88 22 89 23 90 26 91 24 92 25 93
REMARK H PARENT 85 22 53 33
REMARK Flexibility Score: inf
ROOT
ATOM      1  C   UNL A   1      31.787  30.175  26.745  1.00  0.00     0.275 C 
ENDROOT
BRANCH   1   2
ATOM      2  O   UNL A   1      33.023  30.855  26.521  1.00  0.00    -0.458 OA
BRANCH   2   3
ATOM      3  C   UNL A   1      33.719  31.640  27.367  1.00  0.00     0.338 C 
ATOM      4  O   UNL A   1      33.286  32.764  27.622  1.00  0.00    -0.246 OA
BRANCH   3   5
ATOM      5  C   UNL A   1      35.050  31.256  27.937  1.00  0.00     0.060 A 
ATOM      6  C   UNL A   1      36.197  32.048  28.086  1.00  0.00     0.016 A 
ATOM      7  C   UNL A   1      35.121  29.941  28.387  1.00  0.00     0.016 A 
ATOM      8  C   UNL A   1      37.342  31.578  28.756  1.00  0.00     0.010 A 
ATOM      9  C   UNL A   1      36.243  29.485  29.069  1.00  0.00     0.010 A 
ATOM     10  C   UNL A   1      37.372  30.287  29.272  1.00  0.00    -0.014 A 
BRANCH  10  11
ATOM     11  C   UNL A   1      38.579  29.676  29.898  1.00  0.00     0.031 A 
ATOM     12  C   UNL A   1      38.910  30.079  31.314  1.00  0.00     0.074 A 
ATOM     13  C   UNL A   1      39.446  28.909  29.205  1.00  0.00     0.049 A 
ATOM     14  N   UNL A   1      40.010  29.906  32.000  1.00  0.00    -0.248 NA
ATOM     15  C   UNL A   1      37.902  30.896  32.012  1.00  0.00     0.031 C 
ATOM     16  C   UNL A   1      39.323  28.523  27.799  1.00  0.00     0.029 A 
ATOM     17  N   UNL A   1      40.638  28.341  29.590  1.00  0.00    -0.354 N 
ATOM     18  C   UNL A   1      39.838  30.668  33.148  1.00  0.00     0.074 A 
ATOM     19  C   UNL A   1      38.630  31.436  32.972  1.00  0.00     0.031 C 
ATOM     20  C   UNL A   1      40.394  27.792  27.439  1.00  0.00     0.029 A 
ATOM     21  C   UNL A   1      41.270  27.635  28.594  1.00  0.00     0.049 A 
ATOM     22  H   UNL A   1      41.005  28.434  30.499  1.00  0.00     0.167 HD
ATOM     23  C   UNL A   1      40.545  30.641  34.302  1.00  0.00     0.037 A 
ATOM     24  C   UNL A   1      42.408  26.914  28.637  1.00  0.00     0.037 A 
ATOM     25  C   UNL A   1      41.627  29.726  34.522  1.00  0.00     0.049 A 
ATOM     26  C   UNL A   1      43.118  26.778  29.962  1.00  0.00     0.074 A 
ATOM     27  C   UNL A   1      42.306  29.449  35.692  1.00  0.00     0.029 A 
ATOM     28  N   UNL A   1      42.153  28.900  33.539  1.00  0.00    -0.354 N 
ATOM     29  N   UNL A   1      42.871  27.383  31.099  1.00  0.00    -0.248 NA
ATOM     30  C   UNL A   1      44.222  25.811  30.026  1.00  0.00     0.031 C 
ATOM     31  C   UNL A   1      43.256  28.459  35.412  1.00  0.00     0.029 A 
ATOM     32  C   UNL A   1      43.139  28.096  34.079  1.00  0.00     0.049 A 
ATOM     33  H   UNL A   1      41.867  28.888  32.597  1.00  0.00     0.167 HD
ATOM     34  C   UNL A   1      43.737  26.820  32.028  1.00  0.00     0.074 A 
ATOM     35  C   UNL A   1      44.520  25.831  31.318  1.00  0.00     0.031 C 
ATOM     36  C   UNL A   1      43.864  27.087  33.352  1.00  0.00     0.037 A 
BRANCH  23  37
ATOM     37  C   UNL A   1      40.095  31.550  35.415  1.00  0.00     0.064 A 
ATOM     38  C   UNL A   1      38.995  31.235  36.232  1.00  0.00     0.173 A 
ATOM     39  C   UNL A   1      40.746  32.769  35.648  1.00  0.00     0.173 A 
ATOM     40  F   UNL A   1      38.334  30.078  36.063  1.00  0.00    -0.203 F 
ATOM     41  C   UNL A   1      38.510  32.139  37.172  1.00  0.00     0.198 A 
ATOM     42  C   UNL A   1      40.292  33.649  36.630  1.00  0.00     0.198 A 
ATOM     43  F   UNL A   1      41.814  33.119  34.916  1.00  0.00    -0.203 F 
ATOM     44  F   UNL A   1      37.391  31.857  37.854  1.00  0.00    -0.200 F 
ATOM     45  C   UNL A   1      39.162  33.344  37.374  1.00  0.00     0.200 A 
ATOM     46  F   UNL A   1      40.938  34.803  36.842  1.00  0.00    -0.200 F 
ATOM     47  F   UNL A   1      38.694  34.216  38.278  1.00  0.00    -0.200 F 
ENDBRANCH  23  37
BRANCH  24  48
ATOM     48  C   UNL A   1      42.867  26.143  27.448  1.00  0.00     0.064 A 
ATOM     49  C   UNL A   1      42.316  24.882  27.166  1.00  0.00     0.173 A 
ATOM     50  C   UNL A   1      43.869  26.618  26.592  1.00  0.00     0.173 A 
ATOM     51  F   UNL A   1      41.361  24.379  27.962  1.00  0.00    -0.203 F 
ATOM     52  C   UNL A   1      42.777  24.111  26.100  1.00  0.00     0.198 A 
ATOM     53  C   UNL A   1      44.314  25.853  25.511  1.00  0.00     0.198 A 
ATOM     54  F   UNL A   1      44.419  27.822  26.803  1.00  0.00    -0.203 F 
ATOM     55  F   UNL A   1      42.266  22.891  25.891  1.00  0.00    -0.200 F 
ATOM     56  C   UNL A   1      43.776  24.597  25.274  1.00  0.00     0.200 A 
ATOM     57  F   UNL A   1      45.268  26.332  24.701  1.00  0.00    -0.200 F 
ATOM     58  F   UNL A   1      44.221  23.854  24.251  1.00  0.00    -0.200 F 
ENDBRANCH  24  48
BRANCH  36  59
ATOM     59  C   UNL A   1      44.816  26.235  34.139  1.00  0.00     0.064 A 
ATOM     60  C   UNL A   1      46.141  26.625  34.373  1.00  0.00     0.173 A 
ATOM     61  C   UNL A   1      44.368  25.036  34.715  1.00  0.00     0.173 A 
ATOM     62  F   UNL A   1      46.617  27.756  33.833  1.00  0.00    -0.203 F 
ATOM     63  C   UNL A   1      46.993  25.830  35.133  1.00  0.00     0.198 A 
ATOM     64  C   UNL A   1      45.211  24.262  35.504  1.00  0.00     0.198 A 
ATOM     65  F   UNL A   1      43.104  24.625  34.527  1.00  0.00    -0.203 F 
ATOM     66  F   UNL A   1      48.271  26.195  35.302  1.00  0.00    -0.200 F 
ATOM     67  C   UNL A   1      46.525  24.656  35.706  1.00  0.00     0.200 A 
ATOM     68  F   UNL A   1      44.752  23.138  36.072  1.00  0.00    -0.200 F 
ATOM     69  F   UNL A   1      47.345  23.899  36.449  1.00  0.00    -0.200 F 
ENDBRANCH  36  59
ENDBRANCH  10  11
ENDBRANCH   3   5
ENDBRANCH   2   3
ENDBRANCH   1   2
BRANCH   1  70
ATOM     70  C   UNL A   1      31.886  28.655  26.901  1.00  0.00     0.274 C 
BRANCH  70  71
ATOM     71  O   UNL A   1      32.028  27.860  25.701  1.00  0.00    -0.461 OA
BRANCH  71  72
ATOM     72  C   UNL A   1      30.956  27.073  25.370  1.00  0.00     0.316 C 
ATOM     73  O   UNL A   1      30.431  26.305  26.169  1.00  0.00    -0.251 OA
BRANCH  72  74
ATOM     74  C   UNL A   1      30.571  27.136  23.861  1.00  0.00     0.095 C 
ATOM     75  C   UNL A   1      29.845  25.803  23.521  1.00  0.00     0.040 C 
ATOM     76  C   UNL A   1      31.846  27.189  22.986  1.00  0.00     0.040 C 
ATOM     77  C   UNL A   1      30.748  24.580  23.644  1.00  0.00     0.104 C 
ATOM     78  C   UNL A   1      32.724  25.960  23.129  1.00  0.00     0.104 C 
ATOM     79  N   UNL A   1      31.948  24.748  22.782  1.00  0.00    -0.197 NA
BRANCH  74  80
ATOM     80  C   UNL A   1      29.572  28.267  23.507  1.00  0.00    -0.031 A 
ATOM     81  C   UNL A   1      28.194  28.024  23.317  1.00  0.00     0.005 A 
ATOM     82  C   UNL A   1      29.983  29.613  23.491  1.00  0.00     0.005 A 
ATOM     83  C   UNL A   1      27.275  29.063  23.127  1.00  0.00     0.000 A 
ATOM     84  C   UNL A   1      29.064  30.656  23.297  1.00  0.00     0.000 A 
ATOM     85  C   UNL A   1      27.709  30.381  23.121  1.00  0.00     0.000 A 
ENDBRANCH  74  80
BRANCH  79  86
ATOM     86  S   UNL A   1      32.903  23.320  22.703  1.00  0.00     0.252 S 
ATOM     87  O   UNL A   1      32.042  22.216  23.068  1.00  0.00    -0.206 OA
ATOM     88  O   UNL A   1      33.635  23.332  21.453  1.00  0.00    -0.206 OA
BRANCH  86  89
ATOM     89  C   UNL A   1      34.098  23.423  24.028  1.00  0.00     0.135 A 
ATOM     90  C   UNL A   1      35.449  23.722  24.018  1.00  0.00     0.033 A 
ATOM     91  S   UNL A   1      33.549  23.087  25.612  1.00  0.00    -0.131 S 
ATOM     92  C   UNL A   1      36.038  23.641  25.311  1.00  0.00     0.013 A 
ATOM     93  C   UNL A   1      35.107  23.329  26.275  1.00  0.00     0.066 A 
ENDBRANCH  86  89
ENDBRANCH  79  86
ENDBRANCH  72  74
ENDBRANCH  71  72
ENDBRANCH  70  71
ENDBRANCH   1  70
TORSDOF 14
ENDMDL
MODEL 3
REMARK VINA RESULT:     -12.9      4.411     10.090
REMARK SMILES O=C(OCCOC(=O)C1(c2ccccc2)CCN(S(=O)(=O)c2cccs2)CC1)c1ccc(-c2c3nc(c(-c4c(F)c(F)c(F)c(F)c4F)c4ccc([nH]4)c(-c4c(F)c(F)c(F)c(F)c4F)c4nc(c(-c5c(F)c(F)c(F)c(F)c5F)c5ccc2[nH]5)C=C4)C=C3)cc1
REMARK SMILES IDX 4 1 3 2 2 3 1 4 29 5 30 6 91 7 31 8 90 9 32 10 33 11 34 12
REMARK SMILES IDX 84 13 35 14 89 15 83 16 85 17 36 18 88 19 82 20 81 21 37 23
REMARK SMILES IDX 69 24 49 25 68 26 50 27 53 28 67 29 86 30 51 31 52 32 66 34
REMARK SMILES IDX 87 35 54 36 38 37 39 38 47 39 40 40 41 41 45 42 48 43 42 44
REMARK SMILES IDX 43 45 46 46 44 47 70 48 71 49 79 50 72 51 73 52 77 53 80 54
REMARK SMILES IDX 74 55 75 56 78 57 76 58 55 59 56 60 64 61 57 62 58 63 62 64
REMARK SMILES IDX 65 65 59 66 60 67 63 68 61 69 5 70 6 71 7 72 8 73 9 74 16 75
REMARK SMILES IDX 28 76 17 77 27 78 18 79 10 80 11 81 15 82 12 83 14 84 13 85
REMARK SMILES IDX 19 86 20 87 21 88 22 89 23 90 26 91 24 92 25 93
REMARK H PARENT 85 22 53 33
REMARK Flexibility Score: inf
ROOT
ATOM      1  C   UNL A   1      37.283  21.280  24.572  1.00  0.00     0.275 C 
ENDROOT
BRANCH   1   2
ATOM      2  O   UNL A   1      37.874  21.375  25.870  1.00  0.00    -0.458 OA
BRANCH   2   3
ATOM      3  C   UNL A   1      39.177  21.466  26.199  1.00  0.00     0.338 C 
ATOM      4  O   UNL A   1      39.876  20.454  26.132  1.00  0.00    -0.246 OA
BRANCH   3   5
ATOM      5  C   UNL A   1      39.802  22.715  26.742  1.00  0.00     0.060 A 
ATOM      6  C   UNL A   1      40.803  22.836  27.717  1.00  0.00     0.016 A 
ATOM      7  C   UNL A   1      39.322  23.889  26.171  1.00  0.00     0.016 A 
ATOM      8  C   UNL A   1      41.378  24.080  28.038  1.00  0.00     0.010 A 
ATOM      9  C   UNL A   1      39.907  25.113  26.472  1.00  0.00     0.010 A 
ATOM     10  C   UNL A   1      40.945  25.238  27.404  1.00  0.00    -0.014 A 
BRANCH  10  11
ATOM     11  C   UNL A   1      41.424  26.604  27.760  1.00  0.00     0.031 A 
ATOM     12  C   UNL A   1      42.823  26.984  27.341  1.00  0.00     0.074 A 
ATOM     13  C   UNL A   1      40.720  27.435  28.556  1.00  0.00     0.049 A 
ATOM     14  N   UNL A   1      43.572  27.984  27.727  1.00  0.00    -0.248 NA
ATOM     15  C   UNL A   1      43.519  26.035  26.453  1.00  0.00     0.031 C 
ATOM     16  C   UNL A   1      39.401  27.167  29.131  1.00  0.00     0.029 A 
ATOM     17  N   UNL A   1      41.039  28.678  29.051  1.00  0.00    -0.354 N 
ATOM     18  C   UNL A   1      44.827  27.715  27.198  1.00  0.00     0.074 A 
ATOM     19  C   UNL A   1      44.778  26.387  26.638  1.00  0.00     0.031 C 
ATOM     20  C   UNL A   1      39.030  28.204  29.904  1.00  0.00     0.029 A 
ATOM     21  C   UNL A   1      40.071  29.224  29.860  1.00  0.00     0.049 A 
ATOM     22  H   UNL A   1      41.887  29.134  28.844  1.00  0.00     0.167 HD
ATOM     23  C   UNL A   1      45.893  28.540  27.070  1.00  0.00     0.037 A 
ATOM     24  C   UNL A   1      40.028  30.431  30.458  1.00  0.00     0.037 A 
ATOM     25  C   UNL A   1      45.852  29.919  27.463  1.00  0.00     0.049 A 
ATOM     26  C   UNL A   1      41.157  31.398  30.200  1.00  0.00     0.074 A 
ATOM     27  C   UNL A   1      46.773  30.919  27.222  1.00  0.00     0.029 A 
ATOM     28  N   UNL A   1      44.790  30.497  28.144  1.00  0.00    -0.354 N 
ATOM     29  N   UNL A   1      42.290  31.197  29.569  1.00  0.00    -0.248 NA
ATOM     30  C   UNL A   1      40.976  32.775  30.680  1.00  0.00     0.031 C 
ATOM     31  C   UNL A   1      46.272  32.104  27.773  1.00  0.00     0.029 A 
ATOM     32  C   UNL A   1      45.024  31.848  28.319  1.00  0.00     0.049 A 
ATOM     33  H   UNL A   1      43.990  30.017  28.458  1.00  0.00     0.167 HD
ATOM     34  C   UNL A   1      42.921  32.434  29.512  1.00  0.00     0.074 A 
ATOM     35  C   UNL A   1      42.047  33.375  30.180  1.00  0.00     0.031 C 
ATOM     36  C   UNL A   1      44.109  32.765  28.947  1.00  0.00     0.037 A 
BRANCH  23  37
ATOM     37  C   UNL A   1      47.123  27.989  26.400  1.00  0.00     0.064 A 
ATOM     38  C   UNL A   1      47.227  27.896  25.000  1.00  0.00     0.173 A 
ATOM     39  C   UNL A   1      48.199  27.514  27.161  1.00  0.00     0.173 A 
ATOM     40  F   UNL A   1      46.233  28.341  24.216  1.00  0.00    -0.203 F 
ATOM     41  C   UNL A   1      48.313  27.270  24.397  1.00  0.00     0.198 A 
ATOM     42  C   UNL A   1      49.312  26.937  26.551  1.00  0.00     0.198 A 
ATOM     43  F   UNL A   1      48.170  27.592  28.500  1.00  0.00    -0.203 F 
ATOM     44  F   UNL A   1      48.328  27.095  23.067  1.00  0.00    -0.200 F 
ATOM     45  C   UNL A   1      49.357  26.794  25.171  1.00  0.00     0.200 A 
ATOM     46  F   UNL A   1      50.333  26.501  27.299  1.00  0.00    -0.200 F 
ATOM     47  F   UNL A   1      50.402  26.189  24.591  1.00  0.00    -0.200 F 
ENDBRANCH  23  37
BRANCH  24  48
ATOM     48  C   UNL A   1      38.824  30.859  31.225  1.00  0.00     0.064 A 
ATOM     49  C   UNL A   1      37.717  31.407  30.556  1.00  0.00     0.173 A 
ATOM     50  C   UNL A   1      38.755  30.764  32.620  1.00  0.00     0.173 A 
ATOM     51  F   UNL A   1      37.739  31.530  29.221  1.00  0.00    -0.203 F 
ATOM     52  C   UNL A   1      36.608  31.879  31.255  1.00  0.00     0.198 A 
ATOM     53  C   UNL A   1      37.633  31.216  33.318  1.00  0.00     0.198 A 
ATOM     54  F   UNL A   1      39.776  30.234  33.310  1.00  0.00    -0.203 F 
ATOM     55  F   UNL A   1      35.592  32.444  30.590  1.00  0.00    -0.200 F 
ATOM     56  C   UNL A   1      36.566  31.783  32.636  1.00  0.00     0.200 A 
ATOM     57  F   UNL A   1      37.586  31.108  34.653  1.00  0.00    -0.200 F 
ATOM     58  F   UNL A   1      35.501  32.240  33.309  1.00  0.00    -0.200 F 
ENDBRANCH  24  48
BRANCH  36  59
ATOM     59  C   UNL A   1      44.489  34.216  28.940  1.00  0.00     0.064 A 
ATOM     60  C   UNL A   1      44.094  35.082  27.911  1.00  0.00     0.173 A 
ATOM     61  C   UNL A   1      45.211  34.754  30.016  1.00  0.00     0.173 A 
ATOM     62  F   UNL A   1      43.413  34.610  26.857  1.00  0.00    -0.203 F 
ATOM     63  C   UNL A   1      44.434  36.430  27.947  1.00  0.00     0.198 A 
ATOM     64  C   UNL A   1      45.517  36.109  30.066  1.00  0.00     0.198 A 
ATOM     65  F   UNL A   1      45.603  33.967  31.030  1.00  0.00    -0.203 F 
ATOM     66  F   UNL A   1      44.091  37.231  26.928  1.00  0.00    -0.200 F 
ATOM     67  C   UNL A   1      45.135  36.945  29.028  1.00  0.00     0.200 A 
ATOM     68  F   UNL A   1      46.178  36.608  31.120  1.00  0.00    -0.200 F 
ATOM     69  F   UNL A   1      45.449  38.247  29.065  1.00  0.00    -0.200 F 
ENDBRANCH  36  59
ENDBRANCH  10  11
ENDBRANCH   3   5
ENDBRANCH   2   3
ENDBRANCH   1   2
BRANCH   1  70
ATOM     70  C   UNL A   1      36.532  22.526  24.094  1.00  0.00     0.274 C 
BRANCH  70  71
ATOM     71  O   UNL A   1      35.113  22.405  23.842  1.00  0.00    -0.461 OA
BRANCH  71  72
ATOM     72  C   UNL A   1      34.329  22.135  24.934  1.00  0.00     0.316 C 
ATOM     73  O   UNL A   1      34.720  22.305  26.084  1.00  0.00    -0.251 OA
BRANCH  72  74
ATOM     74  C   UNL A   1      32.970  21.458  24.581  1.00  0.00     0.095 C 
ATOM     75  C   UNL A   1      32.388  22.220  23.356  1.00  0.00     0.040 C 
ATOM     76  C   UNL A   1      31.965  21.642  25.743  1.00  0.00     0.040 C 
ATOM     77  C   UNL A   1      32.035  23.671  23.665  1.00  0.00     0.104 C 
ATOM     78  C   UNL A   1      31.632  23.096  26.026  1.00  0.00     0.104 C 
ATOM     79  N   UNL A   1      31.085  23.730  24.806  1.00  0.00    -0.197 NA
BRANCH  74  80
ATOM     80  C   UNL A   1      33.092  19.977  24.143  1.00  0.00    -0.031 A 
ATOM     81  C   UNL A   1      32.287  19.424  23.124  1.00  0.00     0.005 A 
ATOM     82  C   UNL A   1      34.112  19.155  24.658  1.00  0.00     0.005 A 
ATOM     83  C   UNL A   1      32.488  18.126  22.640  1.00  0.00     0.000 A 
ATOM     84  C   UNL A   1      34.313  17.852  24.177  1.00  0.00     0.000 A 
ATOM     85  C   UNL A   1      33.505  17.339  23.163  1.00  0.00     0.000 A 
ENDBRANCH  74  80
BRANCH  79  86
ATOM     86  S   UNL A   1      30.475  25.316  25.072  1.00  0.00     0.252 S 
ATOM     87  O   UNL A   1      29.763  25.700  23.872  1.00  0.00    -0.206 OA
ATOM     88  O   UNL A   1      29.843  25.348  26.374  1.00  0.00    -0.206 OA
BRANCH  86  89
ATOM     89  C   UNL A   1      31.888  26.409  25.132  1.00  0.00     0.135 A 
ATOM     90  C   UNL A   1      32.807  26.658  26.136  1.00  0.00     0.033 A 
ATOM     91  S   UNL A   1      32.209  27.359  23.747  1.00  0.00    -0.131 S 
ATOM     92  C   UNL A   1      33.756  27.656  25.775  1.00  0.00     0.013 A 
ATOM     93  C   UNL A   1      33.559  28.104  24.488  1.00  0.00     0.066 A 
ENDBRANCH  86  89
ENDBRANCH  79  86
ENDBRANCH  72  74
ENDBRANCH  71  72
ENDBRANCH  70  71
ENDBRANCH   1  70
TORSDOF 14
ENDMDL
