MODEL 1
REMARK VINA RESULT:     -13.7      0.000      0.000
REMARK SMILES O=C(CCN1C(=O)S/C(=C\c2ccc(F)cc2)C1=O)Nc1ccc(O)cc1C(=O)OCCOC(=O)c1ccc(-c2c3nc(c(-c4c(F)c(F)c(F)c(F)c4F)c4ccc([nH]4)c(-c4c(F)c(F)c(F)c(F)c4F)c4nc(c(-c5c(F)c(F)c(F)c(F)c5F)c5ccc2[nH]5)C=C4)C=C3)cc1
REMARK SMILES IDX 30 1 28 2 29 3 27 4 21 5 22 6 23 7 26 8 24 9 20 10 1 11 2 12
REMARK SMILES IDX 3 14 4 15 5 16 6 17 18 18 7 19 8 20 9 21 19 22 10 23 11 24
REMARK SMILES IDX 12 25 17 26 13 27 16 28 14 29 15 30 25 31 31 33 32 34 33 35
REMARK SMILES IDX 34 36 35 37 36 38 37 39 98 40 38 41 97 42 39 43 40 44 41 45
REMARK SMILES IDX 91 46 42 47 96 48 90 49 92 50 43 51 95 52 89 53 88 54 44 56
REMARK SMILES IDX 76 57 56 58 75 59 57 60 60 61 74 62 93 63 58 64 59 65 73 67
REMARK SMILES IDX 94 68 61 69 45 70 46 71 54 72 47 73 48 74 52 75 55 76 49 77
REMARK SMILES IDX 50 78 53 79 51 80 77 81 78 82 86 83 79 84 80 85 84 86 87 87
REMARK SMILES IDX 81 88 82 89 85 90 83 91 62 92 63 93 71 94 64 95 65 96 69 97
REMARK SMILES IDX 72 98 66 99 67 100 70 101 68 102
REMARK H PARENT 20 13 25 32 92 55 60 66
REMARK Flexibility Score: inf
ROOT
ATOM      1  O   UNL A   1      31.449  29.735  24.636  1.00  0.00    -0.458 OA
ENDROOT
BRANCH   1   2
ATOM      2  C   UNL A   1      30.509  30.708  24.788  1.00  0.00     0.340 C 
ATOM      3  O   UNL A   1      30.476  31.531  25.687  1.00  0.00    -0.246 OA
BRANCH   2   4
ATOM      4  C   UNL A   1      29.554  30.717  23.645  1.00  0.00     0.087 A 
ATOM      5  C   UNL A   1      29.062  29.550  23.023  1.00  0.00     0.056 A 
ATOM      6  C   UNL A   1      28.165  29.700  21.954  1.00  0.00     0.031 A 
ATOM      7  C   UNL A   1      27.796  30.966  21.478  1.00  0.00     0.048 A 
ATOM      8  C   UNL A   1      29.121  31.981  23.204  1.00  0.00     0.064 A 
ATOM      9  C   UNL A   1      28.291  32.098  22.102  1.00  0.00     0.116 A 
BRANCH   5  10
ATOM     10  N   UNL A   1      29.416  28.280  23.542  1.00  0.00    -0.325 N 
ATOM     11  O   UNL A   1      30.762  27.402  21.880  1.00  0.00    -0.275 OA
ATOM     12  C   UNL A   1      30.120  27.274  22.921  1.00  0.00     0.226 C 
ATOM     13  H   UNL A   1      29.120  28.092  24.462  1.00  0.00     0.169 HD
BRANCH  12  14
ATOM     14  C   UNL A   1      30.012  25.891  23.557  1.00  0.00     0.122 C 
BRANCH  14  15
ATOM     15  C   UNL A   1      30.966  25.530  24.692  1.00  0.00     0.140 C 
BRANCH  15  16
ATOM     16  N   UNL A   1      31.906  24.414  24.530  1.00  0.00    -0.268 N 
ATOM     17  C   UNL A   1      33.022  24.418  23.741  1.00  0.00     0.293 C 
ATOM     18  C   UNL A   1      31.674  23.245  25.235  1.00  0.00     0.268 C 
ATOM     19  O   UNL A   1      33.481  25.349  23.097  1.00  0.00    -0.261 OA
ATOM     20  S   UNL A   1      33.735  22.825  23.677  1.00  0.00    -0.022 SA
ATOM     21  C   UNL A   1      32.574  22.157  24.746  1.00  0.00     0.083 C 
ATOM     22  O   UNL A   1      30.780  23.072  26.052  1.00  0.00    -0.268 OA
ATOM     23  C   UNL A   1      32.279  20.866  24.981  1.00  0.00     0.029 C 
BRANCH  23  24
ATOM     24  C   UNL A   1      32.814  19.675  24.290  1.00  0.00    -0.024 A 
ATOM     25  C   UNL A   1      32.200  19.081  23.180  1.00  0.00     0.011 A 
ATOM     26  C   UNL A   1      33.987  19.085  24.800  1.00  0.00     0.011 A 
ATOM     27  C   UNL A   1      32.687  17.880  22.652  1.00  0.00     0.040 A 
ATOM     28  C   UNL A   1      34.485  17.896  24.259  1.00  0.00     0.040 A 
ATOM     29  C   UNL A   1      33.817  17.295  23.202  1.00  0.00     0.123 A 
ATOM     30  F   UNL A   1      34.271  16.137  22.705  1.00  0.00    -0.207 F 
ENDBRANCH  23  24
ENDBRANCH  15  16
ENDBRANCH  14  15
ENDBRANCH  12  14
ENDBRANCH   5  10
BRANCH   9  31
ATOM     31  O   UNL A   1      27.991  33.353  21.665  1.00  0.00    -0.508 OA
ATOM     32  H   UNL A   1      28.634  34.033  21.715  1.00  0.00     0.293 HD
ENDBRANCH   9  31
ENDBRANCH   2   4
ENDBRANCH   1   2
BRANCH   1  33
ATOM     33  C   UNL A   1      31.678  28.867  25.769  1.00  0.00     0.275 C 
BRANCH  33  34
ATOM     34  C   UNL A   1      32.360  29.559  26.944  1.00  0.00     0.275 C 
BRANCH  34  35
ATOM     35  O   UNL A   1      33.530  30.247  26.500  1.00  0.00    -0.458 OA
BRANCH  35  36
ATOM     36  C   UNL A   1      33.852  31.313  27.261  1.00  0.00     0.338 C 
ATOM     37  O   UNL A   1      33.161  32.274  27.547  1.00  0.00    -0.246 OA
BRANCH  36  38
ATOM     38  C   UNL A   1      35.156  31.059  27.864  1.00  0.00     0.060 A 
ATOM     39  C   UNL A   1      35.374  29.784  28.369  1.00  0.00     0.016 A 
ATOM     40  C   UNL A   1      36.093  32.068  28.030  1.00  0.00     0.016 A 
ATOM     41  C   UNL A   1      36.487  29.521  29.148  1.00  0.00     0.010 A 
ATOM     42  C   UNL A   1      37.272  31.772  28.715  1.00  0.00     0.010 A 
ATOM     43  C   UNL A   1      37.467  30.504  29.298  1.00  0.00    -0.014 A 
BRANCH  43  44
ATOM     44  C   UNL A   1      38.704  30.203  30.052  1.00  0.00     0.031 A 
ATOM     45  C   UNL A   1      39.733  29.293  29.453  1.00  0.00     0.074 A 
ATOM     46  C   UNL A   1      38.880  30.734  31.277  1.00  0.00     0.049 A 
ATOM     47  N   UNL A   1      40.750  28.708  30.027  1.00  0.00    -0.248 NA
ATOM     48  C   UNL A   1      39.590  28.983  28.020  1.00  0.00     0.031 C 
ATOM     49  C   UNL A   1      37.977  31.688  31.925  1.00  0.00     0.029 A 
ATOM     50  N   UNL A   1      39.874  30.540  32.204  1.00  0.00    -0.354 N 
ATOM     51  C   UNL A   1      41.337  27.924  29.044  1.00  0.00     0.074 A 
ATOM     52  C   UNL A   1      40.561  28.098  27.836  1.00  0.00     0.031 C 
ATOM     53  C   UNL A   1      38.466  32.013  33.130  1.00  0.00     0.029 A 
ATOM     54  C   UNL A   1      39.651  31.206  33.385  1.00  0.00     0.049 A 
ATOM     55  H   UNL A   1      40.667  29.981  32.039  1.00  0.00     0.167 HD
ATOM     56  C   UNL A   1      42.426  27.131  29.159  1.00  0.00     0.037 A 
ATOM     57  C   UNL A   1      40.289  31.125  34.568  1.00  0.00     0.037 A 
ATOM     58  C   UNL A   1      43.200  27.013  30.367  1.00  0.00     0.049 A 
ATOM     59  C   UNL A   1      41.444  30.176  34.692  1.00  0.00     0.074 A 
ATOM     60  C   UNL A   1      44.337  26.258  30.589  1.00  0.00     0.029 A 
ATOM     61  N   UNL A   1      42.917  27.675  31.554  1.00  0.00    -0.354 N 
ATOM     62  N   UNL A   1      41.975  29.404  33.775  1.00  0.00    -0.248 NA
ATOM     63  C   UNL A   1      42.075  30.065  36.013  1.00  0.00     0.031 C 
ATOM     64  C   UNL A   1      44.706  26.415  31.926  1.00  0.00     0.029 A 
ATOM     65  C   UNL A   1      43.840  27.319  32.523  1.00  0.00     0.049 A 
ATOM     66  H   UNL A   1      42.172  28.305  31.687  1.00  0.00     0.167 HD
ATOM     67  C   UNL A   1      43.010  28.727  34.398  1.00  0.00     0.074 A 
ATOM     68  C   UNL A   1      43.042  29.189  35.772  1.00  0.00     0.031 C 
ATOM     69  C   UNL A   1      43.854  27.804  33.881  1.00  0.00     0.037 A 
BRANCH  56  70
ATOM     70  C   UNL A   1      42.838  26.307  27.974  1.00  0.00     0.064 A 
ATOM     71  C   UNL A   1      43.710  26.845  27.014  1.00  0.00     0.173 A 
ATOM     72  C   UNL A   1      42.311  25.029  27.737  1.00  0.00     0.173 A 
ATOM     73  F   UNL A   1      44.241  28.064  27.190  1.00  0.00    -0.203 F 
ATOM     74  C   UNL A   1      44.019  26.146  25.850  1.00  0.00     0.198 A 
ATOM     75  C   UNL A   1      42.647  24.320  26.586  1.00  0.00     0.198 A 
ATOM     76  F   UNL A   1      41.485  24.464  28.628  1.00  0.00    -0.203 F 
ATOM     77  F   UNL A   1      44.820  26.700  24.929  1.00  0.00    -0.200 F 
ATOM     78  C   UNL A   1      43.489  24.883  25.638  1.00  0.00     0.200 A 
ATOM     79  F   UNL A   1      42.153  23.088  26.393  1.00  0.00    -0.200 F 
ATOM     80  F   UNL A   1      43.790  24.208  24.519  1.00  0.00    -0.200 F 
ENDBRANCH  56  70
BRANCH  57  81
ATOM     81  C   UNL A   1      39.804  31.936  35.716  1.00  0.00     0.064 A 
ATOM     82  C   UNL A   1      38.727  31.509  36.511  1.00  0.00     0.173 A 
ATOM     83  C   UNL A   1      40.369  33.184  36.003  1.00  0.00     0.173 A 
ATOM     84  F   UNL A   1      38.147  30.323  36.278  1.00  0.00    -0.203 F 
ATOM     85  C   UNL A   1      38.210  32.318  37.520  1.00  0.00     0.198 A 
ATOM     86  C   UNL A   1      39.873  33.978  37.036  1.00  0.00     0.198 A 
ATOM     87  F   UNL A   1      41.413  33.626  35.287  1.00  0.00    -0.203 F 
ATOM     88  F   UNL A   1      37.146  31.909  38.226  1.00  0.00    -0.200 F 
ATOM     89  C   UNL A   1      38.785  33.551  37.784  1.00  0.00     0.200 A 
ATOM     90  F   UNL A   1      40.448  35.158  37.305  1.00  0.00    -0.200 F 
ATOM     91  F   UNL A   1      38.294  34.327  38.760  1.00  0.00    -0.200 F 
ENDBRANCH  57  81
BRANCH  69  92
ATOM     92  C   UNL A   1      44.906  27.238  34.785  1.00  0.00     0.064 A 
ATOM     93  C   UNL A   1      46.167  27.848  34.871  1.00  0.00     0.173 A 
ATOM     94  C   UNL A   1      44.710  26.028  35.464  1.00  0.00     0.173 A 
ATOM     95  F   UNL A   1      46.403  29.003  34.231  1.00  0.00    -0.203 F 
ATOM     96  C   UNL A   1      47.205  27.247  35.575  1.00  0.00     0.198 A 
ATOM     97  C   UNL A   1      45.741  25.445  36.193  1.00  0.00     0.198 A 
ATOM     98  F   UNL A   1      43.516  25.417  35.423  1.00  0.00    -0.203 F 
ATOM     99  F   UNL A   1      48.417  27.818  35.596  1.00  0.00    -0.200 F 
ATOM    100  C   UNL A   1      46.991  26.046  36.233  1.00  0.00     0.200 A 
ATOM    101  F   UNL A   1      45.530  24.295  36.849  1.00  0.00    -0.200 F 
ATOM    102  F   UNL A   1      47.994  25.464  36.906  1.00  0.00    -0.200 F 
ENDBRANCH  69  92
ENDBRANCH  43  44
ENDBRANCH  36  38
ENDBRANCH  35  36
ENDBRANCH  34  35
ENDBRANCH  33  34
ENDBRANCH   1  33
TORSDOF 17
ENDMDL
MODEL 2
REMARK VINA RESULT:     -13.4      3.001      7.645
REMARK SMILES O=C(CCN1C(=O)S/C(=C\c2ccc(F)cc2)C1=O)Nc1ccc(O)cc1C(=O)OCCOC(=O)c1ccc(-c2c3nc(c(-c4c(F)c(F)c(F)c(F)c4F)c4ccc([nH]4)c(-c4c(F)c(F)c(F)c(F)c4F)c4nc(c(-c5c(F)c(F)c(F)c(F)c5F)c5ccc2[nH]5)C=C4)C=C3)cc1
REMARK SMILES IDX 30 1 28 2 29 3 27 4 21 5 22 6 23 7 26 8 24 9 20 10 1 11 2 12
REMARK SMILES IDX 3 14 4 15 5 16 6 17 18 18 7 19 8 20 9 21 19 22 10 23 11 24
REMARK SMILES IDX 12 25 17 26 13 27 16 28 14 29 15 30 25 31 31 33 32 34 33 35
REMARK SMILES IDX 34 36 35 37 36 38 37 39 98 40 38 41 97 42 39 43 40 44 41 45
REMARK SMILES IDX 91 46 42 47 96 48 90 49 92 50 43 51 95 52 89 53 88 54 44 56
REMARK SMILES IDX 76 57 56 58 75 59 57 60 60 61 74 62 93 63 58 64 59 65 73 67
REMARK SMILES IDX 94 68 61 69 45 70 46 71 54 72 47 73 48 74 52 75 55 76 49 77
REMARK SMILES IDX 50 78 53 79 51 80 77 81 78 82 86 83 79 84 80 85 84 86 87 87
REMARK SMILES IDX 81 88 82 89 85 90 83 91 62 92 63 93 71 94 64 95 65 96 69 97
REMARK SMILES IDX 72 98 66 99 67 100 70 101 68 102
REMARK H PARENT 20 13 25 32 92 55 60 66
REMARK Flexibility Score: inf
ROOT
ATOM      1  O   UNL A   1      31.640  29.666  24.776  1.00  0.00    -0.458 OA
ENDROOT
BRANCH   1   2
ATOM      2  C   UNL A   1      30.739  30.678  24.898  1.00  0.00     0.340 C 
ATOM      3  O   UNL A   1      30.770  31.561  25.740  1.00  0.00    -0.246 OA
BRANCH   2   4
ATOM      4  C   UNL A   1      29.736  30.644  23.798  1.00  0.00     0.087 A 
ATOM      5  C   UNL A   1      29.264  29.455  23.202  1.00  0.00     0.056 A 
ATOM      6  C   UNL A   1      28.317  29.563  22.172  1.00  0.00     0.031 A 
ATOM      7  C   UNL A   1      27.879  30.811  21.707  1.00  0.00     0.048 A 
ATOM      8  C   UNL A   1      29.236  31.887  23.370  1.00  0.00     0.064 A 
ATOM      9  C   UNL A   1      28.355  31.965  22.304  1.00  0.00     0.116 A 
BRANCH   5  10
ATOM     10  N   UNL A   1      29.689  28.202  23.711  1.00  0.00    -0.325 N 
ATOM     11  O   UNL A   1      30.792  27.263  21.909  1.00  0.00    -0.275 OA
ATOM     12  C   UNL A   1      30.302  27.174  23.033  1.00  0.00     0.226 C 
ATOM     13  H   UNL A   1      29.525  28.048  24.669  1.00  0.00     0.169 HD
BRANCH  12  14
ATOM     14  C   UNL A   1      30.286  25.814  23.727  1.00  0.00     0.122 C 
BRANCH  14  15
ATOM     15  C   UNL A   1      30.753  24.588  22.947  1.00  0.00     0.140 C 
BRANCH  15  16
ATOM     16  N   UNL A   1      31.815  23.736  23.494  1.00  0.00    -0.268 N 
ATOM     17  C   UNL A   1      31.736  22.997  24.642  1.00  0.00     0.293 C 
ATOM     18  C   UNL A   1      33.011  23.640  22.800  1.00  0.00     0.268 C 
ATOM     19  O   UNL A   1      30.768  22.850  25.372  1.00  0.00    -0.261 OA
ATOM     20  S   UNL A   1      33.289  22.299  25.031  1.00  0.00    -0.022 SA
ATOM     21  C   UNL A   1      34.040  22.948  23.634  1.00  0.00     0.083 C 
ATOM     22  O   UNL A   1      33.249  24.155  21.717  1.00  0.00    -0.268 OA
ATOM     23  C   UNL A   1      35.350  23.082  23.359  1.00  0.00     0.029 C 
BRANCH  23  24
ATOM     24  C   UNL A   1      36.495  22.799  24.247  1.00  0.00    -0.024 A 
ATOM     25  C   UNL A   1      37.141  21.558  24.309  1.00  0.00     0.011 A 
ATOM     26  C   UNL A   1      36.937  23.825  25.105  1.00  0.00     0.011 A 
ATOM     27  C   UNL A   1      38.134  21.316  25.263  1.00  0.00     0.040 A 
ATOM     28  C   UNL A   1      37.944  23.590  26.045  1.00  0.00     0.040 A 
ATOM     29  C   UNL A   1      38.520  22.330  26.128  1.00  0.00     0.123 A 
ATOM     30  F   UNL A   1      39.460  22.091  27.051  1.00  0.00    -0.207 F 
ENDBRANCH  23  24
ENDBRANCH  15  16
ENDBRANCH  14  15
ENDBRANCH  12  14
ENDBRANCH   5  10
BRANCH   9  31
ATOM     31  O   UNL A   1      27.988  33.205  21.875  1.00  0.00    -0.508 OA
ATOM     32  H   UNL A   1      27.134  33.341  21.513  1.00  0.00     0.293 HD
ENDBRANCH   9  31
ENDBRANCH   2   4
ENDBRANCH   1   2
BRANCH   1  33
ATOM     33  C   UNL A   1      32.165  29.108  26.001  1.00  0.00     0.275 C 
BRANCH  33  34
ATOM     34  C   UNL A   1      33.689  29.071  26.055  1.00  0.00     0.275 C 
BRANCH  34  35
ATOM     35  O   UNL A   1      34.135  29.146  27.409  1.00  0.00    -0.458 OA
BRANCH  35  36
ATOM     36  C   UNL A   1      34.744  30.311  27.713  1.00  0.00     0.338 C 
ATOM     37  O   UNL A   1      34.278  31.436  27.690  1.00  0.00    -0.246 OA
BRANCH  36  38
ATOM     38  C   UNL A   1      36.059  30.002  28.265  1.00  0.00     0.060 A 
ATOM     39  C   UNL A   1      37.147  30.159  27.416  1.00  0.00     0.016 A 
ATOM     40  C   UNL A   1      36.210  29.469  29.537  1.00  0.00     0.016 A 
ATOM     41  C   UNL A   1      38.393  29.683  27.781  1.00  0.00     0.010 A 
ATOM     42  C   UNL A   1      37.489  29.096  29.952  1.00  0.00     0.010 A 
ATOM     43  C   UNL A   1      38.584  29.180  29.070  1.00  0.00    -0.014 A 
BRANCH  43  44
ATOM     44  C   UNL A   1      39.934  28.753  29.502  1.00  0.00     0.031 A 
ATOM     45  C   UNL A   1      40.741  29.644  30.397  1.00  0.00     0.074 A 
ATOM     46  C   UNL A   1      40.430  27.578  29.067  1.00  0.00     0.049 A 
ATOM     47  N   UNL A   1      42.013  29.585  30.688  1.00  0.00    -0.248 NA
ATOM     48  C   UNL A   1      40.027  30.762  31.037  1.00  0.00     0.031 C 
ATOM     49  C   UNL A   1      39.703  26.601  28.252  1.00  0.00     0.029 A 
ATOM     50  N   UNL A   1      41.665  27.007  29.240  1.00  0.00    -0.354 N 
ATOM     51  C   UNL A   1      42.263  30.683  31.500  1.00  0.00     0.074 A 
ATOM     52  C   UNL A   1      41.015  31.397  31.652  1.00  0.00     0.031 C 
ATOM     53  C   UNL A   1      40.494  25.546  28.015  1.00  0.00     0.029 A 
ATOM     54  C   UNL A   1      41.815  25.823  28.561  1.00  0.00     0.049 A 
ATOM     55  H   UNL A   1      42.373  27.406  29.796  1.00  0.00     0.167 HD
ATOM     56  C   UNL A   1      43.439  31.048  32.058  1.00  0.00     0.037 A 
ATOM     57  C   UNL A   1      42.912  25.073  28.342  1.00  0.00     0.037 A 
ATOM     58  C   UNL A   1      44.655  30.288  31.920  1.00  0.00     0.049 A 
ATOM     59  C   UNL A   1      44.222  25.543  28.904  1.00  0.00     0.074 A 
ATOM     60  C   UNL A   1      45.899  30.551  32.462  1.00  0.00     0.029 A 
ATOM     61  N   UNL A   1      44.773  29.113  31.190  1.00  0.00    -0.354 N 
ATOM     62  N   UNL A   1      44.467  26.602  29.638  1.00  0.00    -0.248 NA
ATOM     63  C   UNL A   1      45.408  24.738  28.592  1.00  0.00     0.031 C 
ATOM     64  C   UNL A   1      46.784  29.571  32.011  1.00  0.00     0.029 A 
ATOM     65  C   UNL A   1      46.080  28.658  31.241  1.00  0.00     0.049 A 
ATOM     66  H   UNL A   1      44.037  28.669  30.708  1.00  0.00     0.167 HD
ATOM     67  C   UNL A   1      45.829  26.583  29.890  1.00  0.00     0.074 A 
ATOM     68  C   UNL A   1      46.357  25.400  29.240  1.00  0.00     0.031 C 
ATOM     69  C   UNL A   1      46.575  27.469  30.592  1.00  0.00     0.037 A 
BRANCH  56  70
ATOM     70  C   UNL A   1      43.492  32.326  32.843  1.00  0.00     0.064 A 
ATOM     71  C   UNL A   1      43.246  32.312  34.225  1.00  0.00     0.173 A 
ATOM     72  C   UNL A   1      43.696  33.569  32.227  1.00  0.00     0.173 A 
ATOM     73  F   UNL A   1      43.042  31.150  34.864  1.00  0.00    -0.203 F 
ATOM     74  C   UNL A   1      43.177  33.495  34.956  1.00  0.00     0.198 A 
ATOM     75  C   UNL A   1      43.657  34.749  32.967  1.00  0.00     0.198 A 
ATOM     76  F   UNL A   1      43.948  33.638  30.912  1.00  0.00    -0.203 F 
ATOM     77  F   UNL A   1      42.898  33.457  36.266  1.00  0.00    -0.200 F 
ATOM     78  C   UNL A   1      43.385  34.712  34.327  1.00  0.00     0.200 A 
ATOM     79  F   UNL A   1      43.882  35.924  32.363  1.00  0.00    -0.200 F 
ATOM     80  F   UNL A   1      43.323  35.851  35.031  1.00  0.00    -0.200 F 
ENDBRANCH  56  70
BRANCH  57  81
ATOM     81  C   UNL A   1      42.802  23.840  27.519  1.00  0.00     0.064 A 
ATOM     82  C   UNL A   1      42.458  22.605  28.092  1.00  0.00     0.173 A 
ATOM     83  C   UNL A   1      43.101  23.861  26.152  1.00  0.00     0.173 A 
ATOM     84  F   UNL A   1      42.164  22.526  29.398  1.00  0.00    -0.203 F 
ATOM     85  C   UNL A   1      42.457  21.434  27.337  1.00  0.00     0.198 A 
ATOM     86  C   UNL A   1      43.066  22.695  25.389  1.00  0.00     0.198 A 
ATOM     87  F   UNL A   1      43.415  25.020  25.553  1.00  0.00    -0.203 F 
ATOM     88  F   UNL A   1      42.178  20.261  27.923  1.00  0.00    -0.200 F 
ATOM     89  C   UNL A   1      42.758  21.480  25.985  1.00  0.00     0.200 A 
ATOM     90  F   UNL A   1      43.333  22.747  24.077  1.00  0.00    -0.200 F 
ATOM     91  F   UNL A   1      42.749  20.356  25.256  1.00  0.00    -0.200 F 
ENDBRANCH  57  81
BRANCH  69  92
ATOM     92  C   UNL A   1      48.042  27.193  30.724  1.00  0.00     0.064 A 
ATOM     93  C   UNL A   1      48.945  27.708  29.779  1.00  0.00     0.173 A 
ATOM     94  C   UNL A   1      48.536  26.322  31.704  1.00  0.00     0.173 A 
ATOM     95  F   UNL A   1      48.515  28.539  28.818  1.00  0.00    -0.203 F 
ATOM     96  C   UNL A   1      50.282  27.329  29.790  1.00  0.00     0.198 A 
ATOM     97  C   UNL A   1      49.881  25.970  31.731  1.00  0.00     0.198 A 
ATOM     98  F   UNL A   1      47.712  25.819  32.636  1.00  0.00    -0.203 F 
ATOM     99  F   UNL A   1      51.114  27.787  28.845  1.00  0.00    -0.200 F 
ATOM    100  C   UNL A   1      50.749  26.460  30.764  1.00  0.00     0.200 A 
ATOM    101  F   UNL A   1      50.338  25.147  32.685  1.00  0.00    -0.200 F 
ATOM    102  F   UNL A   1      52.037  26.090  30.771  1.00  0.00    -0.200 F 
ENDBRANCH  69  92
ENDBRANCH  43  44
ENDBRANCH  36  38
ENDBRANCH  35  36
ENDBRANCH  34  35
ENDBRANCH  33  34
ENDBRANCH   1  33
TORSDOF 17
ENDMDL
MODEL 3
REMARK VINA RESULT:     -13.4      3.017      8.534
REMARK SMILES O=C(CCN1C(=O)S/C(=C\c2ccc(F)cc2)C1=O)Nc1ccc(O)cc1C(=O)OCCOC(=O)c1ccc(-c2c3nc(c(-c4c(F)c(F)c(F)c(F)c4F)c4ccc([nH]4)c(-c4c(F)c(F)c(F)c(F)c4F)c4nc(c(-c5c(F)c(F)c(F)c(F)c5F)c5ccc2[nH]5)C=C4)C=C3)cc1
REMARK SMILES IDX 30 1 28 2 29 3 27 4 21 5 22 6 23 7 26 8 24 9 20 10 1 11 2 12
REMARK SMILES IDX 3 14 4 15 5 16 6 17 18 18 7 19 8 20 9 21 19 22 10 23 11 24
REMARK SMILES IDX 12 25 17 26 13 27 16 28 14 29 15 30 25 31 31 33 32 34 33 35
REMARK SMILES IDX 34 36 35 37 36 38 37 39 98 40 38 41 97 42 39 43 40 44 41 45
REMARK SMILES IDX 91 46 42 47 96 48 90 49 92 50 43 51 95 52 89 53 88 54 44 56
REMARK SMILES IDX 76 57 56 58 75 59 57 60 60 61 74 62 93 63 58 64 59 65 73 67
REMARK SMILES IDX 94 68 61 69 45 70 46 71 54 72 47 73 48 74 52 75 55 76 49 77
REMARK SMILES IDX 50 78 53 79 51 80 77 81 78 82 86 83 79 84 80 85 84 86 87 87
REMARK SMILES IDX 81 88 82 89 85 90 83 91 62 92 63 93 71 94 64 95 65 96 69 97
REMARK SMILES IDX 72 98 66 99 67 100 70 101 68 102
REMARK H PARENT 20 13 25 32 92 55 60 66
REMARK Flexibility Score: inf
ROOT
ATOM      1  O   UNL A   1      33.429  34.083  29.091  1.00  0.00    -0.458 OA
ENDROOT
BRANCH   1   2
ATOM      2  C   UNL A   1      33.337  33.190  28.068  1.00  0.00     0.340 C 
ATOM      3  O   UNL A   1      32.437  33.140  27.246  1.00  0.00    -0.246 OA
BRANCH   2   4
ATOM      4  C   UNL A   1      34.543  32.319  28.002  1.00  0.00     0.087 A 
ATOM      5  C   UNL A   1      34.509  30.959  27.627  1.00  0.00     0.056 A 
ATOM      6  C   UNL A   1      35.721  30.250  27.606  1.00  0.00     0.031 A 
ATOM      7  C   UNL A   1      36.928  30.849  27.990  1.00  0.00     0.048 A 
ATOM      8  C   UNL A   1      35.771  32.928  28.317  1.00  0.00     0.064 A 
ATOM      9  C   UNL A   1      36.938  32.185  28.356  1.00  0.00     0.116 A 
BRANCH   5  10
ATOM     10  N   UNL A   1      33.286  30.380  27.206  1.00  0.00    -0.325 N 
ATOM     11  O   UNL A   1      33.798  29.569  25.103  1.00  0.00    -0.275 OA
ATOM     12  C   UNL A   1      32.978  29.843  25.978  1.00  0.00     0.226 C 
ATOM     13  H   UNL A   1      32.565  30.361  27.876  1.00  0.00     0.169 HD
BRANCH  12  14
ATOM     14  C   UNL A   1      31.492  29.659  25.682  1.00  0.00     0.122 C 
BRANCH  14  15
ATOM     15  C   UNL A   1      31.063  28.510  24.774  1.00  0.00     0.140 C 
BRANCH  15  16
ATOM     16  N   UNL A   1      31.658  27.180  24.948  1.00  0.00    -0.268 N 
ATOM     17  C   UNL A   1      31.480  26.360  26.027  1.00  0.00     0.293 C 
ATOM     18  C   UNL A   1      32.465  26.678  23.940  1.00  0.00     0.268 C 
ATOM     19  O   UNL A   1      30.753  26.539  26.992  1.00  0.00    -0.261 OA
ATOM     20  S   UNL A   1      32.529  24.968  25.921  1.00  0.00    -0.022 SA
ATOM     21  C   UNL A   1      33.174  25.448  24.407  1.00  0.00     0.083 C 
ATOM     22  O   UNL A   1      32.680  27.219  22.864  1.00  0.00    -0.268 OA
ATOM     23  C   UNL A   1      34.282  25.015  23.780  1.00  0.00     0.029 C 
BRANCH  23  24
ATOM     24  C   UNL A   1      35.303  24.077  24.290  1.00  0.00    -0.024 A 
ATOM     25  C   UNL A   1      35.926  24.211  25.537  1.00  0.00     0.011 A 
ATOM     26  C   UNL A   1      35.695  23.010  23.458  1.00  0.00     0.011 A 
ATOM     27  C   UNL A   1      36.976  23.364  25.906  1.00  0.00     0.040 A 
ATOM     28  C   UNL A   1      36.731  22.150  23.835  1.00  0.00     0.040 A 
ATOM     29  C   UNL A   1      37.375  22.349  25.048  1.00  0.00     0.123 A 
ATOM     30  F   UNL A   1      38.391  21.550  25.397  1.00  0.00    -0.207 F 
ENDBRANCH  23  24
ENDBRANCH  15  16
ENDBRANCH  14  15
ENDBRANCH  12  14
ENDBRANCH   5  10
BRANCH   9  31
ATOM     31  O   UNL A   1      38.076  32.812  28.766  1.00  0.00    -0.508 OA
ATOM     32  H   UNL A   1      38.912  32.500  28.478  1.00  0.00     0.293 HD
ENDBRANCH   9  31
ENDBRANCH   2   4
ENDBRANCH   1   2
BRANCH   1  33
ATOM     33  C   UNL A   1      33.177  35.469  28.772  1.00  0.00     0.275 C 
BRANCH  33  34
ATOM     34  C   UNL A   1      32.912  36.342  29.994  1.00  0.00     0.275 C 
BRANCH  34  35
ATOM     35  O   UNL A   1      32.372  35.553  31.055  1.00  0.00    -0.458 OA
BRANCH  35  36
ATOM     36  C   UNL A   1      32.685  36.013  32.284  1.00  0.00     0.338 C 
ATOM     37  O   UNL A   1      32.117  36.869  32.937  1.00  0.00    -0.246 OA
BRANCH  36  38
ATOM     38  C   UNL A   1      33.755  35.179  32.819  1.00  0.00     0.060 A 
ATOM     39  C   UNL A   1      35.033  35.724  32.818  1.00  0.00     0.016 A 
ATOM     40  C   UNL A   1      33.534  33.865  33.204  1.00  0.00     0.016 A 
ATOM     41  C   UNL A   1      36.131  34.931  33.097  1.00  0.00     0.010 A 
ATOM     42  C   UNL A   1      34.629  33.097  33.601  1.00  0.00     0.010 A 
ATOM     43  C   UNL A   1      35.936  33.617  33.528  1.00  0.00    -0.014 A 
BRANCH  43  44
ATOM     44  C   UNL A   1      37.100  32.789  33.919  1.00  0.00     0.031 A 
ATOM     45  C   UNL A   1      37.789  33.049  35.224  1.00  0.00     0.074 A 
ATOM     46  C   UNL A   1      37.538  31.826  33.085  1.00  0.00     0.049 A 
ATOM     47  N   UNL A   1      38.950  32.621  35.642  1.00  0.00    -0.248 NA
ATOM     48  C   UNL A   1      37.087  33.921  36.181  1.00  0.00     0.031 C 
ATOM     49  C   UNL A   1      36.899  31.441  31.824  1.00  0.00     0.029 A 
ATOM     50  N   UNL A   1      38.631  30.999  33.165  1.00  0.00    -0.354 N 
ATOM     51  C   UNL A   1      39.142  33.210  36.884  1.00  0.00     0.074 A 
ATOM     52  C   UNL A   1      37.983  34.032  37.153  1.00  0.00     0.031 C 
ATOM     53  C   UNL A   1      37.595  30.443  31.262  1.00  0.00     0.029 A 
ATOM     54  C   UNL A   1      38.787  30.198  32.061  1.00  0.00     0.049 A 
ATOM     55  H   UNL A   1      39.241  30.983  33.938  1.00  0.00     0.167 HD
ATOM     56  C   UNL A   1      40.202  33.068  37.712  1.00  0.00     0.037 A 
ATOM     57  C   UNL A   1      39.810  29.403  31.696  1.00  0.00     0.037 A 
ATOM     58  C   UNL A   1      41.321  32.207  37.430  1.00  0.00     0.049 A 
ATOM     59  C   UNL A   1      41.010  29.326  32.593  1.00  0.00     0.074 A 
ATOM     60  C   UNL A   1      42.438  31.967  38.209  1.00  0.00     0.029 A 
ATOM     61  N   UNL A   1      41.459  31.442  36.280  1.00  0.00    -0.354 N 
ATOM     62  N   UNL A   1      41.211  29.914  33.748  1.00  0.00    -0.248 NA
ATOM     63  C   UNL A   1      42.134  28.502  32.133  1.00  0.00     0.031 C 
ATOM     64  C   UNL A   1      43.280  31.105  37.504  1.00  0.00     0.029 A 
ATOM     65  C   UNL A   1      42.660  30.754  36.314  1.00  0.00     0.049 A 
ATOM     66  H   UNL A   1      40.800  31.394  35.550  1.00  0.00     0.167 HD
ATOM     67  C   UNL A   1      42.472  29.520  34.162  1.00  0.00     0.074 A 
ATOM     68  C   UNL A   1      42.989  28.632  33.139  1.00  0.00     0.031 C 
ATOM     69  C   UNL A   1      43.144  29.867  35.286  1.00  0.00     0.037 A 
BRANCH  56  70
ATOM     70  C   UNL A   1      40.229  33.869  38.980  1.00  0.00     0.064 A 
ATOM     71  C   UNL A   1      39.544  33.408  40.117  1.00  0.00     0.173 A 
ATOM     72  C   UNL A   1      40.852  35.122  39.056  1.00  0.00     0.173 A 
ATOM     73  F   UNL A   1      38.928  32.217  40.098  1.00  0.00    -0.203 F 
ATOM     74  C   UNL A   1      39.459  34.184  41.269  1.00  0.00     0.198 A 
ATOM     75  C   UNL A   1      40.791  35.883  40.222  1.00  0.00     0.198 A 
ATOM     76  F   UNL A   1      41.532  35.603  38.005  1.00  0.00    -0.203 F 
ATOM     77  F   UNL A   1      38.762  33.741  42.325  1.00  0.00    -0.200 F 
ATOM     78  C   UNL A   1      40.084  35.419  41.322  1.00  0.00     0.200 A 
ATOM     79  F   UNL A   1      41.417  37.067  40.281  1.00  0.00    -0.200 F 
ATOM     80  F   UNL A   1      40.007  36.164  42.434  1.00  0.00    -0.200 F 
ENDBRANCH  56  70
BRANCH  57  81
ATOM     81  C   UNL A   1      39.741  28.670  30.404  1.00  0.00     0.064 A 
ATOM     82  C   UNL A   1      39.234  27.362  30.330  1.00  0.00     0.173 A 
ATOM     83  C   UNL A   1      40.239  29.242  29.227  1.00  0.00     0.173 A 
ATOM     84  F   UNL A   1      38.747  26.765  31.427  1.00  0.00    -0.203 F 
ATOM     85  C   UNL A   1      39.266  26.642  29.138  1.00  0.00     0.198 A 
ATOM     86  C   UNL A   1      40.238  28.532  28.027  1.00  0.00     0.198 A 
ATOM     87  F   UNL A   1      40.713  30.496  29.241  1.00  0.00    -0.203 F 
ATOM     88  F   UNL A   1      38.827  25.375  29.110  1.00  0.00    -0.200 F 
ATOM     89  C   UNL A   1      39.766  27.228  27.986  1.00  0.00     0.200 A 
ATOM     90  F   UNL A   1      40.698  29.112  26.910  1.00  0.00    -0.200 F 
ATOM     91  F   UNL A   1      39.789  26.540  26.837  1.00  0.00    -0.200 F 
ENDBRANCH  57  81
BRANCH  69  92
ATOM     92  C   UNL A   1      44.504  29.274  35.494  1.00  0.00     0.064 A 
ATOM     93  C   UNL A   1      45.633  29.876  34.917  1.00  0.00     0.173 A 
ATOM     94  C   UNL A   1      44.673  28.050  36.155  1.00  0.00     0.173 A 
ATOM     95  F   UNL A   1      45.518  31.044  34.267  1.00  0.00    -0.203 F 
ATOM     96  C   UNL A   1      46.875  29.253  34.961  1.00  0.00     0.198 A 
ATOM     97  C   UNL A   1      45.924  27.445  36.225  1.00  0.00     0.198 A 
ATOM     98  F   UNL A   1      43.625  27.447  36.736  1.00  0.00    -0.203 F 
ATOM     99  F   UNL A   1      47.928  29.817  34.353  1.00  0.00    -0.200 F 
ATOM    100  C   UNL A   1      47.019  28.039  35.613  1.00  0.00     0.200 A 
ATOM    101  F   UNL A   1      46.068  26.281  36.874  1.00  0.00    -0.200 F 
ATOM    102  F   UNL A   1      48.215  27.435  35.650  1.00  0.00    -0.200 F 
ENDBRANCH  69  92
ENDBRANCH  43  44
ENDBRANCH  36  38
ENDBRANCH  35  36
ENDBRANCH  34  35
ENDBRANCH  33  34
ENDBRANCH   1  33
TORSDOF 17
ENDMDL
