MODEL 1
REMARK VINA RESULT:     -12.9      0.000      0.000
REMARK SMILES CC(=O)Nc1ccc(/C=N/c2ccccc2C(=O)OCCOC(=O)c2ccc(-c3c4nc(c(-c5c(F)c(F)c(F)c(F)c5F)c5ccc([nH]5)c(-c5c(F)c(F)c(F)c(F)c5F)c5nc(c(-c6c(F)c(F)c(F)c(F)c6F)c6ccc3[nH]6)C=C5)C=C4)cc2)cc1
REMARK SMILES IDX 20 1 19 2 17 3 18 4 16 5 11 6 12 7 13 8 15 9 14 10 10 11
REMARK SMILES IDX 9 12 8 13 5 14 6 15 89 16 7 17 88 18 4 19 1 20 2 21 3 22
REMARK SMILES IDX 21 24 22 25 23 26 24 27 25 28 26 29 87 30 27 31 86 32 28 33
REMARK SMILES IDX 29 34 30 35 80 36 31 37 85 38 79 39 81 40 32 41 84 42 78 43
REMARK SMILES IDX 77 44 33 46 65 47 45 48 64 49 46 50 49 51 63 52 82 53 47 54
REMARK SMILES IDX 48 55 62 57 83 58 50 59 34 60 35 61 43 62 36 63 37 64 41 65
REMARK SMILES IDX 44 66 38 67 39 68 42 69 40 70 66 71 67 72 75 73 68 74 69 75
REMARK SMILES IDX 73 76 76 77 70 78 71 79 74 80 72 81 51 82 52 83 60 84 53 85
REMARK SMILES IDX 54 86 58 87 61 88 55 89 56 90 59 91 57 92
REMARK H PARENT 4 23 81 45 49 56
REMARK Flexibility Score: inf
ROOT
ATOM      1  C   UNL A   1      33.207  28.827  25.021  1.00  0.00     0.275 C 
ENDROOT
BRANCH   1   2
ATOM      2  O   UNL A   1      33.356  27.616  25.789  1.00  0.00    -0.458 OA
BRANCH   2   3
ATOM      3  C   UNL A   1      33.354  26.448  25.104  1.00  0.00     0.340 C 
ATOM      4  O   UNL A   1      34.075  26.166  24.159  1.00  0.00    -0.246 OA
BRANCH   3   5
ATOM      5  C   UNL A   1      32.377  25.480  25.662  1.00  0.00     0.085 A 
ATOM      6  C   UNL A   1      30.982  25.647  25.577  1.00  0.00     0.077 A 
ATOM      7  C   UNL A   1      30.159  24.658  26.136  1.00  0.00     0.029 A 
ATOM      8  C   UNL A   1      30.694  23.521  26.745  1.00  0.00     0.002 A 
ATOM      9  C   UNL A   1      32.910  24.313  26.243  1.00  0.00     0.018 A 
ATOM     10  C   UNL A   1      32.073  23.346  26.798  1.00  0.00     0.001 A 
BRANCH   6  11
ATOM     11  N   UNL A   1      30.327  26.758  25.016  1.00  0.00    -0.255 NA
ATOM     12  C   UNL A   1      30.235  26.829  23.727  1.00  0.00     0.119 C 
BRANCH  12  13
ATOM     13  C   UNL A   1      29.673  28.019  23.071  1.00  0.00    -0.007 A 
ATOM     14  C   UNL A   1      28.558  30.264  21.832  1.00  0.00     0.041 A 
ATOM     15  C   UNL A   1      29.930  30.007  21.732  1.00  0.00     0.027 A 
ATOM     16  C   UNL A   1      27.743  29.347  22.501  1.00  0.00     0.027 A 
ATOM     17  C   UNL A   1      30.492  28.890  22.355  1.00  0.00     0.012 A 
ATOM     18  C   UNL A   1      28.297  28.232  23.133  1.00  0.00     0.012 A 
BRANCH  14  19
ATOM     19  N   UNL A   1      28.085  31.429  21.211  1.00  0.00    -0.326 N 
ATOM     20  C   UNL A   1      28.813  33.176  22.838  1.00  0.00     0.114 C 
ATOM     21  C   UNL A   1      28.060  32.733  21.614  1.00  0.00     0.221 C 
ATOM     22  O   UNL A   1      27.452  33.554  20.923  1.00  0.00    -0.275 OA
ATOM     23  H   UNL A   1      27.698  31.279  20.318  1.00  0.00     0.169 HD
ENDBRANCH  14  19
ENDBRANCH  12  13
ENDBRANCH   6  11
ENDBRANCH   3   5
ENDBRANCH   2   3
ENDBRANCH   1   2
BRANCH   1  24
ATOM     24  C   UNL A   1      32.174  29.743  25.662  1.00  0.00     0.275 C 
BRANCH  24  25
ATOM     25  O   UNL A   1      32.573  30.002  27.017  1.00  0.00    -0.458 OA
BRANCH  25  26
ATOM     26  C   UNL A   1      33.163  31.192  27.235  1.00  0.00     0.338 C 
ATOM     27  O   UNL A   1      32.696  32.313  27.082  1.00  0.00    -0.246 OA
BRANCH  26  28
ATOM     28  C   UNL A   1      34.504  30.950  27.769  1.00  0.00     0.060 A 
ATOM     29  C   UNL A   1      34.849  29.653  28.142  1.00  0.00     0.016 A 
ATOM     30  C   UNL A   1      35.375  32.012  27.998  1.00  0.00     0.016 A 
ATOM     31  C   UNL A   1      36.047  29.413  28.806  1.00  0.00     0.010 A 
ATOM     32  C   UNL A   1      36.607  31.761  28.606  1.00  0.00     0.010 A 
ATOM     33  C   UNL A   1      36.939  30.465  29.047  1.00  0.00    -0.014 A 
BRANCH  33  34
ATOM     34  C   UNL A   1      38.180  30.234  29.830  1.00  0.00     0.031 A 
ATOM     35  C   UNL A   1      39.279  29.394  29.245  1.00  0.00     0.074 A 
ATOM     36  C   UNL A   1      38.335  30.781  31.051  1.00  0.00     0.049 A 
ATOM     37  N   UNL A   1      40.346  28.898  29.820  1.00  0.00    -0.248 NA
ATOM     38  C   UNL A   1      39.152  29.051  27.820  1.00  0.00     0.031 C 
ATOM     39  C   UNL A   1      37.373  31.659  31.714  1.00  0.00     0.029 A 
ATOM     40  N   UNL A   1      39.365  30.671  31.952  1.00  0.00    -0.354 N 
ATOM     41  C   UNL A   1      40.981  28.138  28.847  1.00  0.00     0.074 A 
ATOM     42  C   UNL A   1      40.183  28.237  27.644  1.00  0.00     0.031 C 
ATOM     43  C   UNL A   1      37.864  32.025  32.908  1.00  0.00     0.029 A 
ATOM     44  C   UNL A   1      39.137  31.345  33.127  1.00  0.00     0.049 A 
ATOM     45  H   UNL A   1      40.187  30.160  31.774  1.00  0.00     0.167 HD
ATOM     46  C   UNL A   1      42.124  27.418  28.954  1.00  0.00     0.037 A 
ATOM     47  C   UNL A   1      39.849  31.375  34.269  1.00  0.00     0.037 A 
ATOM     48  C   UNL A   1      42.940  27.369  30.138  1.00  0.00     0.049 A 
ATOM     49  C   UNL A   1      41.113  30.568  34.368  1.00  0.00     0.074 A 
ATOM     50  C   UNL A   1      44.118  26.674  30.350  1.00  0.00     0.029 A 
ATOM     51  N   UNL A   1      42.669  28.062  31.309  1.00  0.00    -0.354 N 
ATOM     52  N   UNL A   1      41.668  29.790  33.470  1.00  0.00    -0.248 NA
ATOM     53  C   UNL A   1      41.839  30.628  35.643  1.00  0.00     0.031 C 
ATOM     54  C   UNL A   1      44.547  26.928  31.657  1.00  0.00     0.029 A 
ATOM     55  C   UNL A   1      43.656  27.810  32.248  1.00  0.00     0.049 A 
ATOM     56  H   UNL A   1      41.891  28.648  31.452  1.00  0.00     0.167 HD
ATOM     57  C   UNL A   1      42.804  29.265  34.071  1.00  0.00     0.074 A 
ATOM     58  C   UNL A   1      42.875  29.836  35.400  1.00  0.00     0.031 C 
ATOM     59  C   UNL A   1      43.702  28.382  33.569  1.00  0.00     0.037 A 
BRANCH  46  60
ATOM     60  C   UNL A   1      42.532  26.596  27.768  1.00  0.00     0.064 A 
ATOM     61  C   UNL A   1      41.994  25.323  27.524  1.00  0.00     0.173 A 
ATOM     62  C   UNL A   1      43.475  27.095  26.856  1.00  0.00     0.173 A 
ATOM     63  F   UNL A   1      41.102  24.795  28.374  1.00  0.00    -0.203 F 
ATOM     64  C   UNL A   1      42.408  24.570  26.427  1.00  0.00     0.198 A 
ATOM     65  C   UNL A   1      43.866  26.349  25.746  1.00  0.00     0.198 A 
ATOM     66  F   UNL A   1      44.020  28.307  27.041  1.00  0.00    -0.203 F 
ATOM     67  F   UNL A   1      41.918  23.336  26.243  1.00  0.00    -0.200 F 
ATOM     68  C   UNL A   1      43.338  25.085  25.538  1.00  0.00     0.200 A 
ATOM     69  F   UNL A   1      44.759  26.854  24.883  1.00  0.00    -0.200 F 
ATOM     70  F   UNL A   1      43.734  24.358  24.484  1.00  0.00    -0.200 F 
ENDBRANCH  46  60
BRANCH  47  71
ATOM     71  C   UNL A   1      39.349  32.169  35.419  1.00  0.00     0.064 A 
ATOM     72  C   UNL A   1      38.538  31.586  36.401  1.00  0.00     0.173 A 
ATOM     73  C   UNL A   1      39.701  33.517  35.577  1.00  0.00     0.173 A 
ATOM     74  F   UNL A   1      38.154  30.308  36.281  1.00  0.00    -0.203 F 
ATOM     75  C   UNL A   1      38.100  32.323  37.501  1.00  0.00     0.198 A 
ATOM     76  C   UNL A   1      39.286  34.245  36.688  1.00  0.00     0.198 A 
ATOM     77  F   UNL A   1      40.475  34.121  34.662  1.00  0.00    -0.203 F 
ATOM     78  F   UNL A   1      37.304  31.751  38.414  1.00  0.00    -0.200 F 
ATOM     79  C   UNL A   1      38.483  33.649  37.648  1.00  0.00     0.200 A 
ATOM     80  F   UNL A   1      39.671  35.521  36.835  1.00  0.00    -0.200 F 
ATOM     81  F   UNL A   1      38.077  34.351  38.715  1.00  0.00    -0.200 F 
ENDBRANCH  47  71
BRANCH  59  82
ATOM     82  C   UNL A   1      44.840  27.990  34.462  1.00  0.00     0.064 A 
ATOM     83  C   UNL A   1      46.031  28.730  34.495  1.00  0.00     0.173 A 
ATOM     84  C   UNL A   1      44.728  26.882  35.314  1.00  0.00     0.173 A 
ATOM     85  F   UNL A   1      46.190  29.788  33.687  1.00  0.00    -0.203 F 
ATOM     86  C   UNL A   1      47.077  28.361  35.336  1.00  0.00     0.198 A 
ATOM     87  C   UNL A   1      45.767  26.528  36.169  1.00  0.00     0.198 A 
ATOM     88  F   UNL A   1      43.606  26.145  35.321  1.00  0.00    -0.203 F 
ATOM     89  F   UNL A   1      48.222  29.058  35.322  1.00  0.00    -0.200 F 
ATOM     90  C   UNL A   1      46.943  27.265  36.175  1.00  0.00     0.200 A 
ATOM     91  F   UNL A   1      45.634  25.474  36.986  1.00  0.00    -0.200 F 
ATOM     92  F   UNL A   1      47.951  26.912  36.984  1.00  0.00    -0.200 F 
ENDBRANCH  59  82
ENDBRANCH  33  34
ENDBRANCH  26  28
ENDBRANCH  25  26
ENDBRANCH  24  25
ENDBRANCH   1  24
TORSDOF 14
ENDMDL
MODEL 2
REMARK VINA RESULT:     -12.6      0.442      1.219
REMARK SMILES CC(=O)Nc1ccc(/C=N/c2ccccc2C(=O)OCCOC(=O)c2ccc(-c3c4nc(c(-c5c(F)c(F)c(F)c(F)c5F)c5ccc([nH]5)c(-c5c(F)c(F)c(F)c(F)c5F)c5nc(c(-c6c(F)c(F)c(F)c(F)c6F)c6ccc3[nH]6)C=C5)C=C4)cc2)cc1
REMARK SMILES IDX 20 1 19 2 17 3 18 4 16 5 11 6 12 7 13 8 15 9 14 10 10 11
REMARK SMILES IDX 9 12 8 13 5 14 6 15 89 16 7 17 88 18 4 19 1 20 2 21 3 22
REMARK SMILES IDX 21 24 22 25 23 26 24 27 25 28 26 29 87 30 27 31 86 32 28 33
REMARK SMILES IDX 29 34 30 35 80 36 31 37 85 38 79 39 81 40 32 41 84 42 78 43
REMARK SMILES IDX 77 44 33 46 65 47 45 48 64 49 46 50 49 51 63 52 82 53 47 54
REMARK SMILES IDX 48 55 62 57 83 58 50 59 34 60 35 61 43 62 36 63 37 64 41 65
REMARK SMILES IDX 44 66 38 67 39 68 42 69 40 70 66 71 67 72 75 73 68 74 69 75
REMARK SMILES IDX 73 76 76 77 70 78 71 79 74 80 72 81 51 82 52 83 60 84 53 85
REMARK SMILES IDX 54 86 58 87 61 88 55 89 56 90 59 91 57 92
REMARK H PARENT 4 23 81 45 49 56
REMARK Flexibility Score: inf
ROOT
ATOM      1  C   UNL A   1      31.973  28.269  27.256  1.00  0.00     0.275 C 
ENDROOT
BRANCH   1   2
ATOM      2  O   UNL A   1      33.140  27.508  26.882  1.00  0.00    -0.458 OA
BRANCH   2   3
ATOM      3  C   UNL A   1      33.033  26.713  25.792  1.00  0.00     0.340 C 
ATOM      4  O   UNL A   1      33.633  26.852  24.737  1.00  0.00    -0.246 OA
BRANCH   3   5
ATOM      5  C   UNL A   1      32.108  25.576  26.024  1.00  0.00     0.085 A 
ATOM      6  C   UNL A   1      30.756  25.582  25.632  1.00  0.00     0.077 A 
ATOM      7  C   UNL A   1      29.981  24.443  25.898  1.00  0.00     0.029 A 
ATOM      8  C   UNL A   1      30.528  23.316  26.517  1.00  0.00     0.002 A 
ATOM      9  C   UNL A   1      32.662  24.423  26.613  1.00  0.00     0.018 A 
ATOM     10  C   UNL A   1      31.871  23.305  26.874  1.00  0.00     0.001 A 
BRANCH   6  11
ATOM     11  N   UNL A   1      30.087  26.663  25.029  1.00  0.00    -0.255 NA
ATOM     12  C   UNL A   1      30.231  26.840  23.756  1.00  0.00     0.119 C 
BRANCH  12  13
ATOM     13  C   UNL A   1      29.661  28.018  23.085  1.00  0.00    -0.007 A 
ATOM     14  C   UNL A   1      28.530  30.239  21.817  1.00  0.00     0.041 A 
ATOM     15  C   UNL A   1      29.908  30.002  21.739  1.00  0.00     0.027 A 
ATOM     16  C   UNL A   1      27.719  29.314  22.479  1.00  0.00     0.027 A 
ATOM     17  C   UNL A   1      30.477  28.898  22.376  1.00  0.00     0.012 A 
ATOM     18  C   UNL A   1      28.281  28.210  23.126  1.00  0.00     0.012 A 
BRANCH  14  19
ATOM     19  N   UNL A   1      28.049  31.394  21.182  1.00  0.00    -0.326 N 
ATOM     20  C   UNL A   1      28.783  33.166  22.779  1.00  0.00     0.114 C 
ATOM     21  C   UNL A   1      28.022  32.703  21.567  1.00  0.00     0.221 C 
ATOM     22  O   UNL A   1      27.407  33.512  20.868  1.00  0.00    -0.275 OA
ATOM     23  H   UNL A   1      27.656  31.229  20.294  1.00  0.00     0.169 HD
ENDBRANCH  14  19
ENDBRANCH  12  13
ENDBRANCH   6  11
ENDBRANCH   3   5
ENDBRANCH   2   3
ENDBRANCH   1   2
BRANCH   1  24
ATOM     24  C   UNL A   1      31.854  29.521  26.398  1.00  0.00     0.275 C 
BRANCH  24  25
ATOM     25  O   UNL A   1      33.167  30.075  26.216  1.00  0.00    -0.458 OA
BRANCH  25  26
ATOM     26  C   UNL A   1      33.470  31.128  26.999  1.00  0.00     0.338 C 
ATOM     27  O   UNL A   1      32.785  32.110  27.253  1.00  0.00    -0.246 OA
BRANCH  26  28
ATOM     28  C   UNL A   1      34.790  30.899  27.588  1.00  0.00     0.060 A 
ATOM     29  C   UNL A   1      35.232  29.586  27.742  1.00  0.00     0.016 A 
ATOM     30  C   UNL A   1      35.538  31.965  28.081  1.00  0.00     0.016 A 
ATOM     31  C   UNL A   1      36.401  29.322  28.448  1.00  0.00     0.010 A 
ATOM     32  C   UNL A   1      36.745  31.703  28.733  1.00  0.00     0.010 A 
ATOM     33  C   UNL A   1      37.169  30.378  28.953  1.00  0.00    -0.014 A 
BRANCH  33  34
ATOM     34  C   UNL A   1      38.372  30.103  29.781  1.00  0.00     0.031 A 
ATOM     35  C   UNL A   1      39.463  29.227  29.234  1.00  0.00     0.074 A 
ATOM     36  C   UNL A   1      38.500  30.642  31.008  1.00  0.00     0.049 A 
ATOM     37  N   UNL A   1      40.490  28.694  29.847  1.00  0.00    -0.248 NA
ATOM     38  C   UNL A   1      39.377  28.891  27.804  1.00  0.00     0.031 C 
ATOM     39  C   UNL A   1      37.545  31.551  31.638  1.00  0.00     0.029 A 
ATOM     40  N   UNL A   1      39.492  30.495  31.946  1.00  0.00    -0.354 N 
ATOM     41  C   UNL A   1      41.134  27.914  28.895  1.00  0.00     0.074 A 
ATOM     42  C   UNL A   1      40.385  28.042  27.663  1.00  0.00     0.031 C 
ATOM     43  C   UNL A   1      38.003  31.898  32.851  1.00  0.00     0.029 A 
ATOM     44  C   UNL A   1      39.244  31.174  33.114  1.00  0.00     0.049 A 
ATOM     45  H   UNL A   1      40.302  29.957  31.797  1.00  0.00     0.167 HD
ATOM     46  C   UNL A   1      42.247  27.156  29.041  1.00  0.00     0.037 A 
ATOM     47  C   UNL A   1      39.914  31.177  34.282  1.00  0.00     0.037 A 
ATOM     48  C   UNL A   1      43.017  27.077  30.255  1.00  0.00     0.049 A 
ATOM     49  C   UNL A   1      41.144  30.327  34.425  1.00  0.00     0.074 A 
ATOM     50  C   UNL A   1      44.161  26.341  30.508  1.00  0.00     0.029 A 
ATOM     51  N   UNL A   1      42.727  27.776  31.418  1.00  0.00    -0.354 N 
ATOM     52  N   UNL A   1      41.705  29.533  33.546  1.00  0.00    -0.248 NA
ATOM     53  C   UNL A   1      41.824  30.360  35.727  1.00  0.00     0.031 C 
ATOM     54  C   UNL A   1      44.551  26.578  31.831  1.00  0.00     0.029 A 
ATOM     55  C   UNL A   1      43.669  27.489  32.392  1.00  0.00     0.049 A 
ATOM     56  H   UNL A   1      41.964  28.388  31.533  1.00  0.00     0.167 HD
ATOM     57  C   UNL A   1      42.800  28.968  34.186  1.00  0.00     0.074 A 
ATOM     58  C   UNL A   1      42.841  29.534  35.519  1.00  0.00     0.031 C 
ATOM     59  C   UNL A   1      43.686  28.056  33.715  1.00  0.00     0.037 A 
BRANCH  46  60
ATOM     60  C   UNL A   1      42.671  26.322  27.869  1.00  0.00     0.064 A 
ATOM     61  C   UNL A   1      42.142  25.044  27.635  1.00  0.00     0.173 A 
ATOM     62  C   UNL A   1      43.619  26.816  26.960  1.00  0.00     0.173 A 
ATOM     63  F   UNL A   1      41.245  24.520  28.484  1.00  0.00    -0.203 F 
ATOM     64  C   UNL A   1      42.570  24.280  26.551  1.00  0.00     0.198 A 
ATOM     65  C   UNL A   1      44.024  26.060  25.863  1.00  0.00     0.198 A 
ATOM     66  F   UNL A   1      44.155  28.033  27.135  1.00  0.00    -0.203 F 
ATOM     67  F   UNL A   1      42.089  23.041  26.376  1.00  0.00    -0.200 F 
ATOM     68  C   UNL A   1      43.506  24.790  25.664  1.00  0.00     0.200 A 
ATOM     69  F   UNL A   1      44.922  26.560  25.001  1.00  0.00    -0.200 F 
ATOM     70  F   UNL A   1      43.915  24.054  24.622  1.00  0.00    -0.200 F 
ENDBRANCH  46  60
BRANCH  47  71
ATOM     71  C   UNL A   1      39.398  31.986  35.415  1.00  0.00     0.064 A 
ATOM     72  C   UNL A   1      38.554  31.422  36.380  1.00  0.00     0.173 A 
ATOM     73  C   UNL A   1      39.769  33.329  35.575  1.00  0.00     0.173 A 
ATOM     74  F   UNL A   1      38.151  30.150  36.256  1.00  0.00    -0.203 F 
ATOM     75  C   UNL A   1      38.101  32.172  37.464  1.00  0.00     0.198 A 
ATOM     76  C   UNL A   1      39.339  34.070  36.672  1.00  0.00     0.198 A 
ATOM     77  F   UNL A   1      40.576  33.915  34.677  1.00  0.00    -0.203 F 
ATOM     78  F   UNL A   1      37.272  31.619  38.360  1.00  0.00    -0.200 F 
ATOM     79  C   UNL A   1      38.503  33.492  37.615  1.00  0.00     0.200 A 
ATOM     80  F   UNL A   1      39.743  35.339  36.822  1.00  0.00    -0.200 F 
ATOM     81  F   UNL A   1      38.082  34.206  38.668  1.00  0.00    -0.200 F 
ENDBRANCH  47  71
BRANCH  59  82
ATOM     82  C   UNL A   1      44.776  27.623  34.649  1.00  0.00     0.064 A 
ATOM     83  C   UNL A   1      44.627  26.497  35.471  1.00  0.00     0.173 A 
ATOM     84  C   UNL A   1      45.990  28.323  34.698  1.00  0.00     0.173 A 
ATOM     85  F   UNL A   1      43.478  25.807  35.470  1.00  0.00    -0.203 F 
ATOM     86  C   UNL A   1      45.651  26.100  36.327  1.00  0.00     0.198 A 
ATOM     87  C   UNL A   1      47.019  27.910  35.538  1.00  0.00     0.198 A 
ATOM     88  F   UNL A   1      46.180  29.404  33.926  1.00  0.00    -0.203 F 
ATOM     89  F   UNL A   1      45.474  25.045  37.136  1.00  0.00    -0.200 F 
ATOM     90  C   UNL A   1      46.847  26.802  36.356  1.00  0.00     0.200 A 
ATOM     91  F   UNL A   1      48.177  28.584  35.561  1.00  0.00    -0.200 F 
ATOM     92  F   UNL A   1      47.831  26.418  37.180  1.00  0.00    -0.200 F 
ENDBRANCH  59  82
ENDBRANCH  33  34
ENDBRANCH  26  28
ENDBRANCH  25  26
ENDBRANCH  24  25
ENDBRANCH   1  24
TORSDOF 14
ENDMDL
MODEL 3
REMARK VINA RESULT:     -12.4      4.909     10.304
REMARK SMILES CC(=O)Nc1ccc(/C=N/c2ccccc2C(=O)OCCOC(=O)c2ccc(-c3c4nc(c(-c5c(F)c(F)c(F)c(F)c5F)c5ccc([nH]5)c(-c5c(F)c(F)c(F)c(F)c5F)c5nc(c(-c6c(F)c(F)c(F)c(F)c6F)c6ccc3[nH]6)C=C5)C=C4)cc2)cc1
REMARK SMILES IDX 20 1 19 2 17 3 18 4 16 5 11 6 12 7 13 8 15 9 14 10 10 11
REMARK SMILES IDX 9 12 8 13 5 14 6 15 89 16 7 17 88 18 4 19 1 20 2 21 3 22
REMARK SMILES IDX 21 24 22 25 23 26 24 27 25 28 26 29 87 30 27 31 86 32 28 33
REMARK SMILES IDX 29 34 30 35 80 36 31 37 85 38 79 39 81 40 32 41 84 42 78 43
REMARK SMILES IDX 77 44 33 46 65 47 45 48 64 49 46 50 49 51 63 52 82 53 47 54
REMARK SMILES IDX 48 55 62 57 83 58 50 59 34 60 35 61 43 62 36 63 37 64 41 65
REMARK SMILES IDX 44 66 38 67 39 68 42 69 40 70 66 71 67 72 75 73 68 74 69 75
REMARK SMILES IDX 73 76 76 77 70 78 71 79 74 80 72 81 51 82 52 83 60 84 53 85
REMARK SMILES IDX 54 86 58 87 61 88 55 89 56 90 59 91 57 92
REMARK H PARENT 4 23 81 45 49 56
REMARK Flexibility Score: inf
ROOT
ATOM      1  C   UNL A   1      36.567  22.980  23.783  1.00  0.00     0.275 C 
ENDROOT
BRANCH   1   2
ATOM      2  O   UNL A   1      36.196  24.029  24.699  1.00  0.00    -0.458 OA
BRANCH   2   3
ATOM      3  C   UNL A   1      34.878  24.163  24.980  1.00  0.00     0.340 C 
ATOM      4  O   UNL A   1      34.352  23.991  26.069  1.00  0.00    -0.246 OA
BRANCH   3   5
ATOM      5  C   UNL A   1      34.101  24.603  23.794  1.00  0.00     0.085 A 
ATOM      6  C   UNL A   1      33.386  23.721  22.963  1.00  0.00     0.077 A 
ATOM      7  C   UNL A   1      32.680  24.256  21.875  1.00  0.00     0.029 A 
ATOM      8  C   UNL A   1      32.662  25.631  21.622  1.00  0.00     0.002 A 
ATOM      9  C   UNL A   1      34.047  25.990  23.557  1.00  0.00     0.018 A 
ATOM     10  C   UNL A   1      33.345  26.500  22.465  1.00  0.00     0.001 A 
BRANCH   6  11
ATOM     11  N   UNL A   1      33.352  22.321  23.098  1.00  0.00    -0.255 NA
ATOM     12  C   UNL A   1      32.577  21.811  24.000  1.00  0.00     0.119 C 
BRANCH  12  13
ATOM     13  C   UNL A   1      32.584  20.367  24.278  1.00  0.00    -0.007 A 
ATOM     14  C   UNL A   1      32.585  17.612  24.757  1.00  0.00     0.041 A 
ATOM     15  C   UNL A   1      32.668  18.517  25.821  1.00  0.00     0.027 A 
ATOM     16  C   UNL A   1      32.432  18.104  23.458  1.00  0.00     0.027 A 
ATOM     17  C   UNL A   1      32.675  19.893  25.586  1.00  0.00     0.012 A 
ATOM     18  C   UNL A   1      32.445  19.479  23.212  1.00  0.00     0.012 A 
BRANCH  14  19
ATOM     19  N   UNL A   1      32.626  16.248  25.081  1.00  0.00    -0.326 N 
ATOM     20  C   UNL A   1      35.088  15.853  25.203  1.00  0.00     0.114 C 
ATOM     21  C   UNL A   1      33.663  15.369  25.201  1.00  0.00     0.221 C 
ATOM     22  O   UNL A   1      33.410  14.173  25.363  1.00  0.00    -0.275 OA
ATOM     23  H   UNL A   1      31.742  15.849  25.252  1.00  0.00     0.169 HD
ENDBRANCH  14  19
ENDBRANCH  12  13
ENDBRANCH   6  11
ENDBRANCH   3   5
ENDBRANCH   2   3
ENDBRANCH   1   2
BRANCH   1  24
ATOM     24  C   UNL A   1      36.988  21.730  24.545  1.00  0.00     0.275 C 
BRANCH  24  25
ATOM     25  O   UNL A   1      37.478  22.126  25.835  1.00  0.00    -0.458 OA
BRANCH  25  26
ATOM     26  C   UNL A   1      38.765  21.823  26.089  1.00  0.00     0.338 C 
ATOM     27  O   UNL A   1      39.369  20.790  25.834  1.00  0.00    -0.246 OA
BRANCH  26  28
ATOM     28  C   UNL A   1      39.402  22.992  26.699  1.00  0.00     0.060 A 
ATOM     29  C   UNL A   1      38.931  24.259  26.362  1.00  0.00     0.016 A 
ATOM     30  C   UNL A   1      40.521  22.841  27.513  1.00  0.00     0.016 A 
ATOM     31  C   UNL A   1      39.614  25.393  26.786  1.00  0.00     0.010 A 
ATOM     32  C   UNL A   1      41.169  23.981  27.993  1.00  0.00     0.010 A 
ATOM     33  C   UNL A   1      40.742  25.267  27.606  1.00  0.00    -0.014 A 
BRANCH  33  34
ATOM     34  C   UNL A   1      41.528  26.467  27.993  1.00  0.00     0.031 A 
ATOM     35  C   UNL A   1      40.881  27.539  28.824  1.00  0.00     0.074 A 
ATOM     36  C   UNL A   1      42.815  26.596  27.621  1.00  0.00     0.049 A 
ATOM     37  N   UNL A   1      41.303  28.746  29.102  1.00  0.00    -0.248 NA
ATOM     38  C   UNL A   1      39.570  27.212  29.408  1.00  0.00     0.031 C 
ATOM     39  C   UNL A   1      43.580  25.609  26.862  1.00  0.00     0.029 A 
ATOM     40  N   UNL A   1      43.705  27.620  27.831  1.00  0.00    -0.354 N 
ATOM     41  C   UNL A   1      40.288  29.341  29.839  1.00  0.00     0.074 A 
ATOM     42  C   UNL A   1      39.227  28.364  29.966  1.00  0.00     0.031 C 
ATOM     43  C   UNL A   1      44.830  26.065  26.685  1.00  0.00     0.029 A 
ATOM     44  C   UNL A   1      44.930  27.408  27.249  1.00  0.00     0.049 A 
ATOM     45  H   UNL A   1      43.486  28.429  28.349  1.00  0.00     0.167 HD
ATOM     46  C   UNL A   1      40.244  30.593  30.355  1.00  0.00     0.037 A 
ATOM     47  C   UNL A   1      45.999  28.220  27.140  1.00  0.00     0.037 A 
ATOM     48  C   UNL A   1      41.325  31.540  30.270  1.00  0.00     0.049 A 
ATOM     49  C   UNL A   1      45.929  29.606  27.717  1.00  0.00     0.074 A 
ATOM     50  C   UNL A   1      41.384  32.832  30.762  1.00  0.00     0.029 A 
ATOM     51  N   UNL A   1      42.548  31.286  29.666  1.00  0.00    -0.354 N 
ATOM     52  N   UNL A   1      44.938  30.190  28.345  1.00  0.00    -0.248 NA
ATOM     53  C   UNL A   1      47.120  30.451  27.555  1.00  0.00     0.031 C 
ATOM     54  C   UNL A   1      42.635  33.368  30.435  1.00  0.00     0.029 A 
ATOM     55  C   UNL A   1      43.368  32.397  29.770  1.00  0.00     0.049 A 
ATOM     56  H   UNL A   1      42.796  30.440  29.228  1.00  0.00     0.167 HD
ATOM     57  C   UNL A   1      45.380  31.469  28.651  1.00  0.00     0.074 A 
ATOM     58  C   UNL A   1      46.741  31.567  28.163  1.00  0.00     0.031 C 
ATOM     59  C   UNL A   1      44.716  32.476  29.269  1.00  0.00     0.037 A 
BRANCH  46  60
ATOM     60  C   UNL A   1      38.970  31.019  31.022  1.00  0.00     0.064 A 
ATOM     61  C   UNL A   1      38.776  30.894  32.405  1.00  0.00     0.173 A 
ATOM     62  C   UNL A   1      37.927  31.568  30.260  1.00  0.00     0.173 A 
ATOM     63  F   UNL A   1      39.736  30.359  33.175  1.00  0.00    -0.203 F 
ATOM     64  C   UNL A   1      37.574  31.275  32.997  1.00  0.00     0.198 A 
ATOM     65  C   UNL A   1      36.736  31.974  30.860  1.00  0.00     0.198 A 
ATOM     66  F   UNL A   1      38.060  31.713  28.934  1.00  0.00    -0.203 F 
ATOM     67  F   UNL A   1      37.392  31.099  34.314  1.00  0.00    -0.200 F 
ATOM     68  C   UNL A   1      36.558  31.819  32.225  1.00  0.00     0.200 A 
ATOM     69  F   UNL A   1      35.760  32.508  30.112  1.00  0.00    -0.200 F 
ATOM     70  F   UNL A   1      35.403  32.186  32.797  1.00  0.00    -0.200 F 
ENDBRANCH  46  60
BRANCH  47  71
ATOM     71  C   UNL A   1      47.204  27.746  26.415  1.00  0.00     0.064 A 
ATOM     72  C   UNL A   1      48.282  27.175  27.102  1.00  0.00     0.173 A 
ATOM     73  C   UNL A   1      47.285  27.822  25.017  1.00  0.00     0.173 A 
ATOM     74  F   UNL A   1      48.262  27.104  28.441  1.00  0.00    -0.203 F 
ATOM     75  C   UNL A   1      49.398  26.695  26.416  1.00  0.00     0.198 A 
ATOM     76  C   UNL A   1      48.387  27.318  24.331  1.00  0.00     0.198 A 
ATOM     77  F   UNL A   1      46.278  28.361  24.314  1.00  0.00    -0.203 F 
ATOM     78  F   UNL A   1      50.429  26.177  27.098  1.00  0.00    -0.200 F 
ATOM     79  C   UNL A   1      49.443  26.758  25.031  1.00  0.00     0.200 A 
ATOM     80  F   UNL A   1      48.420  27.366  22.992  1.00  0.00    -0.200 F 
ATOM     81  F   UNL A   1      50.508  26.279  24.372  1.00  0.00    -0.200 F 
ENDBRANCH  47  71
BRANCH  59  82
ATOM     82  C   UNL A   1      45.459  33.764  29.459  1.00  0.00     0.064 A 
ATOM     83  C   UNL A   1      45.338  34.818  28.541  1.00  0.00     0.173 A 
ATOM     84  C   UNL A   1      46.273  33.957  30.584  1.00  0.00     0.173 A 
ATOM     85  F   UNL A   1      44.583  34.673  27.443  1.00  0.00    -0.203 F 
ATOM     86  C   UNL A   1      46.026  36.013  28.734  1.00  0.00     0.198 A 
ATOM     87  C   UNL A   1      46.941  35.162  30.785  1.00  0.00     0.198 A 
ATOM     88  F   UNL A   1      46.416  32.980  31.492  1.00  0.00    -0.203 F 
ATOM     89  F   UNL A   1      45.930  36.993  27.823  1.00  0.00    -0.200 F 
ATOM     90  C   UNL A   1      46.822  36.186  29.857  1.00  0.00     0.200 A 
ATOM     91  F   UNL A   1      47.704  35.331  31.873  1.00  0.00    -0.200 F 
ATOM     92  F   UNL A   1      47.482  37.337  30.040  1.00  0.00    -0.200 F 
ENDBRANCH  59  82
ENDBRANCH  33  34
ENDBRANCH  26  28
ENDBRANCH  25  26
ENDBRANCH  24  25
ENDBRANCH   1  24
TORSDOF 14
ENDMDL
