MODEL 1
REMARK VINA RESULT:     -11.7      0.000      0.000
REMARK SMILES CC(C)(C[NH2+]Cc1ccc2c(c1)OCO2)C(=O)OCCOC(=O)c1ccc(-c2c3nc(c(-c4c(F)c(F)c(F)c(F)c4F)c4ccc([nH]4)c(-c4c(F)c(F)c(F)c(F)c4F)c4nc(c(-c5c(F)c(F)c(F)c(F)c5F)c5ccc2[nH]5)C=C4)C=C3)cc1
REMARK SMILES IDX 19 1 18 2 16 3 17 4 2 5 1 6 3 7 4 8 5 9 6 12 7 13 8 14 12 15
REMARK SMILES IDX 9 16 11 17 10 18 13 19 15 20 14 21 20 22 21 23 22 24 23 25
REMARK SMILES IDX 24 26 25 27 86 28 26 29 85 30 27 31 28 32 29 33 79 34 30 35
REMARK SMILES IDX 84 36 78 37 80 38 31 39 83 40 77 41 76 42 32 44 64 45 44 46
REMARK SMILES IDX 63 47 45 48 48 49 62 50 81 51 46 52 47 53 61 55 82 56 49 57
REMARK SMILES IDX 33 58 34 59 42 60 35 61 36 62 40 63 43 64 37 65 38 66 41 67
REMARK SMILES IDX 39 68 65 69 66 70 74 71 67 72 68 73 72 74 75 75 69 76 70 77
REMARK SMILES IDX 73 78 71 79 50 80 51 81 59 82 52 83 53 84 57 85 60 86 54 87
REMARK SMILES IDX 55 88 58 89 56 90
REMARK H PARENT 5 10 5 11 80 43 48 54
REMARK Flexibility Score: inf
ROOT
ATOM      1  C   UNL A   1      31.591  28.555  27.043  1.00  0.00     0.274 C 
ENDROOT
BRANCH   1   2
ATOM      2  O   UNL A   1      32.402  27.370  26.899  1.00  0.00    -0.461 OA
BRANCH   2   3
ATOM      3  C   UNL A   1      31.796  26.287  26.339  1.00  0.00     0.317 C 
ATOM      4  O   UNL A   1      30.628  25.969  26.540  1.00  0.00    -0.251 OA
BRANCH   3   5
ATOM      5  C   UNL A   1      32.757  25.434  25.508  1.00  0.00     0.111 C 
ATOM      6  C   UNL A   1      33.158  24.161  26.278  1.00  0.00     0.029 C 
ATOM      7  C   UNL A   1      34.023  26.294  25.331  1.00  0.00     0.029 C 
BRANCH   5   8
ATOM      8  C   UNL A   1      32.212  25.065  24.107  1.00  0.00     0.279 C 
BRANCH   8   9
ATOM      9  N   UNL A   1      30.983  25.757  23.689  1.00  0.00    -0.342 N 
ATOM     10  H   UNL A   1      30.485  26.075  24.521  1.00  0.00     0.346 HD
ATOM     11  H   UNL A   1      30.421  25.099  23.150  1.00  0.00     0.346 HD
BRANCH   9  12
ATOM     12  C   UNL A   1      31.264  26.921  22.830  1.00  0.00     0.297 C 
BRANCH  12  13
ATOM     13  C   UNL A   1      30.107  27.899  22.784  1.00  0.00     0.010 A 
ATOM     14  C   UNL A   1      28.831  27.517  23.263  1.00  0.00     0.013 A 
ATOM     15  C   UNL A   1      30.312  29.219  22.351  1.00  0.00     0.060 A 
ATOM     16  C   UNL A   1      27.788  28.441  23.367  1.00  0.00     0.051 A 
ATOM     17  C   UNL A   1      29.256  30.104  22.443  1.00  0.00     0.166 A 
ATOM     18  C   UNL A   1      28.035  29.729  22.951  1.00  0.00     0.165 A 
ATOM     19  O   UNL A   1      29.285  31.416  22.083  1.00  0.00    -0.454 OA
ATOM     20  O   UNL A   1      27.148  30.758  22.991  1.00  0.00    -0.454 OA
ATOM     21  C   UNL A   1      27.941  31.820  22.422  1.00  0.00     0.468 C 
ENDBRANCH  12  13
ENDBRANCH   9  12
ENDBRANCH   8   9
ENDBRANCH   5   8
ENDBRANCH   3   5
ENDBRANCH   2   3
ENDBRANCH   1   2
BRANCH   1  22
ATOM     22  C   UNL A   1      31.831  29.503  25.870  1.00  0.00     0.275 C 
BRANCH  22  23
ATOM     23  O   UNL A   1      33.148  30.062  25.996  1.00  0.00    -0.458 OA
BRANCH  23  24
ATOM     24  C   UNL A   1      33.299  31.038  26.919  1.00  0.00     0.338 C 
ATOM     25  O   UNL A   1      32.539  31.962  27.144  1.00  0.00    -0.246 OA
BRANCH  24  26
ATOM     26  C   UNL A   1      34.592  30.839  27.615  1.00  0.00     0.060 A 
ATOM     27  C   UNL A   1      35.430  31.918  27.898  1.00  0.00     0.016 A 
ATOM     28  C   UNL A   1      34.986  29.550  27.973  1.00  0.00     0.016 A 
ATOM     29  C   UNL A   1      36.669  31.722  28.507  1.00  0.00     0.010 A 
ATOM     30  C   UNL A   1      36.189  29.362  28.664  1.00  0.00     0.010 A 
ATOM     31  C   UNL A   1      37.044  30.446  28.937  1.00  0.00    -0.014 A 
BRANCH  31  32
ATOM     32  C   UNL A   1      38.309  30.229  29.690  1.00  0.00     0.031 A 
ATOM     33  C   UNL A   1      39.378  29.341  29.122  1.00  0.00     0.074 A 
ATOM     34  C   UNL A   1      38.482  30.783  30.907  1.00  0.00     0.049 A 
ATOM     35  N   UNL A   1      40.412  28.800  29.715  1.00  0.00    -0.248 NA
ATOM     36  C   UNL A   1      39.257  29.002  27.695  1.00  0.00     0.031 C 
ATOM     37  C   UNL A   1      37.554  31.706  31.563  1.00  0.00     0.029 A 
ATOM     38  N   UNL A   1      39.496  30.632  31.823  1.00  0.00    -0.354 N 
ATOM     39  C   UNL A   1      41.029  28.010  28.753  1.00  0.00     0.074 A 
ATOM     40  C   UNL A   1      40.259  28.147  27.535  1.00  0.00     0.031 C 
ATOM     41  C   UNL A   1      38.042  32.046  32.764  1.00  0.00     0.029 A 
ATOM     42  C   UNL A   1      39.268  31.294  33.006  1.00  0.00     0.049 A 
ATOM     43  H   UNL A   1      40.307  30.102  31.649  1.00  0.00     0.167 HD
ATOM     44  C   UNL A   1      42.132  27.237  28.885  1.00  0.00     0.037 A 
ATOM     45  C   UNL A   1      39.931  31.253  34.178  1.00  0.00     0.037 A 
ATOM     46  C   UNL A   1      42.921  27.149  30.086  1.00  0.00     0.049 A 
ATOM     47  C   UNL A   1      41.122  30.349  34.315  1.00  0.00     0.074 A 
ATOM     48  C   UNL A   1      44.081  26.425  30.307  1.00  0.00     0.029 A 
ATOM     49  N   UNL A   1      42.637  27.817  31.268  1.00  0.00    -0.354 N 
ATOM     50  N   UNL A   1      41.673  29.566  33.420  1.00  0.00    -0.248 NA
ATOM     51  C   UNL A   1      41.766  30.298  35.636  1.00  0.00     0.031 C 
ATOM     52  C   UNL A   1      44.476  26.624  31.634  1.00  0.00     0.029 A 
ATOM     53  C   UNL A   1      43.586  27.503  32.229  1.00  0.00     0.049 A 
ATOM     54  H   UNL A   1      41.874  28.423  31.405  1.00  0.00     0.167 HD
ATOM     55  C   UNL A   1      42.728  28.935  34.062  1.00  0.00     0.074 A 
ATOM     56  C   UNL A   1      42.755  29.441  35.420  1.00  0.00     0.031 C 
ATOM     57  C   UNL A   1      43.593  28.013  33.575  1.00  0.00     0.037 A 
BRANCH  44  58
ATOM     58  C   UNL A   1      42.536  26.392  27.714  1.00  0.00     0.064 A 
ATOM     59  C   UNL A   1      43.482  26.825  26.776  1.00  0.00     0.173 A 
ATOM     60  C   UNL A   1      41.998  25.104  27.559  1.00  0.00     0.173 A 
ATOM     61  F   UNL A   1      44.017  28.052  26.873  1.00  0.00    -0.203 F 
ATOM     62  C   UNL A   1      43.862  26.009  25.713  1.00  0.00     0.198 A 
ATOM     63  C   UNL A   1      42.399  24.281  26.510  1.00  0.00     0.198 A 
ATOM     64  F   UNL A   1      41.093  24.640  28.432  1.00  0.00    -0.203 F 
ATOM     65  F   UNL A   1      44.742  26.458  24.807  1.00  0.00    -0.200 F 
ATOM     66  C   UNL A   1      43.326  24.736  25.585  1.00  0.00     0.200 A 
ATOM     67  F   UNL A   1      41.889  23.047  26.395  1.00  0.00    -0.200 F 
ATOM     68  F   UNL A   1      43.702  23.948  24.568  1.00  0.00    -0.200 F 
ENDBRANCH  44  58
BRANCH  45  69
ATOM     69  C   UNL A   1      39.437  32.047  35.333  1.00  0.00     0.064 A 
ATOM     70  C   UNL A   1      39.825  33.382  35.508  1.00  0.00     0.173 A 
ATOM     71  C   UNL A   1      38.559  31.492  36.277  1.00  0.00     0.173 A 
ATOM     72  F   UNL A   1      40.686  33.947  34.649  1.00  0.00    -0.203 F 
ATOM     73  C   UNL A   1      39.357  34.130  36.586  1.00  0.00     0.198 A 
ATOM     74  C   UNL A   1      38.068  32.251  37.337  1.00  0.00     0.198 A 
ATOM     75  F   UNL A   1      38.162  30.217  36.157  1.00  0.00    -0.203 F 
ATOM     76  F   UNL A   1      39.772  35.394  36.751  1.00  0.00    -0.200 F 
ATOM     77  C   UNL A   1      38.472  33.568  37.494  1.00  0.00     0.200 A 
ATOM     78  F   UNL A   1      37.204  31.706  38.205  1.00  0.00    -0.200 F 
ATOM     79  F   UNL A   1      38.014  34.292  38.524  1.00  0.00    -0.200 F 
ENDBRANCH  45  69
BRANCH  57  80
ATOM     80  C   UNL A   1      44.646  27.502  34.509  1.00  0.00     0.064 A 
ATOM     81  C   UNL A   1      45.871  28.170  34.662  1.00  0.00     0.173 A 
ATOM     82  C   UNL A   1      44.416  26.360  35.289  1.00  0.00     0.173 A 
ATOM     83  F   UNL A   1      46.143  29.257  33.924  1.00  0.00    -0.203 F 
ATOM     84  C   UNL A   1      46.833  27.702  35.552  1.00  0.00     0.198 A 
ATOM     85  C   UNL A   1      45.370  25.908  36.195  1.00  0.00     0.198 A 
ATOM     86  F   UNL A   1      43.260  25.690  35.179  1.00  0.00    -0.203 F 
ATOM     87  F   UNL A   1      48.010  28.334  35.657  1.00  0.00    -0.200 F 
ATOM     88  C   UNL A   1      46.579  26.577  36.323  1.00  0.00     0.200 A 
ATOM     89  F   UNL A   1      45.122  24.827  36.945  1.00  0.00    -0.200 F 
ATOM     90  F   UNL A   1      47.504  26.132  37.184  1.00  0.00    -0.200 F 
ENDBRANCH  57  80
ENDBRANCH  31  32
ENDBRANCH  24  26
ENDBRANCH  23  24
ENDBRANCH  22  23
ENDBRANCH   1  22
TORSDOF 15
ENDMDL
MODEL 2
REMARK VINA RESULT:     -11.6      0.393      1.250
REMARK SMILES CC(C)(C[NH2+]Cc1ccc2c(c1)OCO2)C(=O)OCCOC(=O)c1ccc(-c2c3nc(c(-c4c(F)c(F)c(F)c(F)c4F)c4ccc([nH]4)c(-c4c(F)c(F)c(F)c(F)c4F)c4nc(c(-c5c(F)c(F)c(F)c(F)c5F)c5ccc2[nH]5)C=C4)C=C3)cc1
REMARK SMILES IDX 19 1 18 2 16 3 17 4 2 5 1 6 3 7 4 8 5 9 6 12 7 13 8 14 12 15
REMARK SMILES IDX 9 16 11 17 10 18 13 19 15 20 14 21 20 22 21 23 22 24 23 25
REMARK SMILES IDX 24 26 25 27 86 28 26 29 85 30 27 31 28 32 29 33 79 34 30 35
REMARK SMILES IDX 84 36 78 37 80 38 31 39 83 40 77 41 76 42 32 44 64 45 44 46
REMARK SMILES IDX 63 47 45 48 48 49 62 50 81 51 46 52 47 53 61 55 82 56 49 57
REMARK SMILES IDX 33 58 34 59 42 60 35 61 36 62 40 63 43 64 37 65 38 66 41 67
REMARK SMILES IDX 39 68 65 69 66 70 74 71 67 72 68 73 72 74 75 75 69 76 70 77
REMARK SMILES IDX 73 78 71 79 50 80 51 81 59 82 52 83 53 84 57 85 60 86 54 87
REMARK SMILES IDX 55 88 58 89 56 90
REMARK H PARENT 5 10 5 11 80 43 48 54
REMARK Flexibility Score: inf
ROOT
ATOM      1  C   UNL A   1      31.728  28.368  26.958  1.00  0.00     0.274 C 
ENDROOT
BRANCH   1   2
ATOM      2  O   UNL A   1      32.313  27.155  26.440  1.00  0.00    -0.461 OA
BRANCH   2   3
ATOM      3  C   UNL A   1      31.443  26.175  26.068  1.00  0.00     0.317 C 
ATOM      4  O   UNL A   1      30.278  26.107  26.448  1.00  0.00    -0.251 OA
BRANCH   3   5
ATOM      5  C   UNL A   1      32.099  25.095  25.206  1.00  0.00     0.111 C 
ATOM      6  C   UNL A   1      31.057  24.051  24.757  1.00  0.00     0.029 C 
ATOM      7  C   UNL A   1      33.106  24.386  26.130  1.00  0.00     0.029 C 
BRANCH   5   8
ATOM      8  C   UNL A   1      32.862  25.653  23.980  1.00  0.00     0.279 C 
BRANCH   8   9
ATOM      9  N   UNL A   1      32.582  27.053  23.626  1.00  0.00    -0.342 N 
ATOM     10  H   UNL A   1      33.467  27.546  23.511  1.00  0.00     0.346 HD
ATOM     11  H   UNL A   1      32.026  27.460  24.377  1.00  0.00     0.346 HD
BRANCH   9  12
ATOM     12  C   UNL A   1      31.809  27.167  22.377  1.00  0.00     0.297 C 
BRANCH  12  13
ATOM     13  C   UNL A   1      30.536  27.970  22.556  1.00  0.00     0.010 A 
ATOM     14  C   UNL A   1      29.407  27.387  23.180  1.00  0.00     0.013 A 
ATOM     15  C   UNL A   1      30.493  29.324  22.186  1.00  0.00     0.060 A 
ATOM     16  C   UNL A   1      28.275  28.145  23.488  1.00  0.00     0.051 A 
ATOM     17  C   UNL A   1      29.352  30.042  22.481  1.00  0.00     0.166 A 
ATOM     18  C   UNL A   1      28.280  29.473  23.127  1.00  0.00     0.165 A 
ATOM     19  O   UNL A   1      29.149  31.360  22.208  1.00  0.00    -0.454 OA
ATOM     20  O   UNL A   1      27.277  30.360  23.356  1.00  0.00    -0.454 OA
ATOM     21  C   UNL A   1      27.827  31.550  22.755  1.00  0.00     0.468 C 
ENDBRANCH  12  13
ENDBRANCH   9  12
ENDBRANCH   8   9
ENDBRANCH   5   8
ENDBRANCH   3   5
ENDBRANCH   2   3
ENDBRANCH   1   2
BRANCH   1  22
ATOM     22  C   UNL A   1      31.840  29.489  25.927  1.00  0.00     0.275 C 
BRANCH  22  23
ATOM     23  O   UNL A   1      33.148  30.071  26.024  1.00  0.00    -0.458 OA
BRANCH  23  24
ATOM     24  C   UNL A   1      33.305  31.041  26.952  1.00  0.00     0.338 C 
ATOM     25  O   UNL A   1      32.549  31.966  27.186  1.00  0.00    -0.246 OA
BRANCH  24  26
ATOM     26  C   UNL A   1      34.600  30.833  27.643  1.00  0.00     0.060 A 
ATOM     27  C   UNL A   1      35.448  31.907  27.919  1.00  0.00     0.016 A 
ATOM     28  C   UNL A   1      34.986  29.542  28.002  1.00  0.00     0.016 A 
ATOM     29  C   UNL A   1      36.688  31.702  28.522  1.00  0.00     0.010 A 
ATOM     30  C   UNL A   1      36.191  29.347  28.688  1.00  0.00     0.010 A 
ATOM     31  C   UNL A   1      37.055  30.425  28.954  1.00  0.00    -0.014 A 
BRANCH  31  32
ATOM     32  C   UNL A   1      38.322  30.200  29.702  1.00  0.00     0.031 A 
ATOM     33  C   UNL A   1      39.373  29.287  29.140  1.00  0.00     0.074 A 
ATOM     34  C   UNL A   1      38.512  30.770  30.909  1.00  0.00     0.049 A 
ATOM     35  N   UNL A   1      40.403  28.740  29.734  1.00  0.00    -0.248 NA
ATOM     36  C   UNL A   1      39.237  28.929  27.720  1.00  0.00     0.031 C 
ATOM     37  C   UNL A   1      37.603  31.717  31.557  1.00  0.00     0.029 A 
ATOM     38  N   UNL A   1      39.531  30.618  31.821  1.00  0.00    -0.354 N 
ATOM     39  C   UNL A   1      41.001  27.926  28.781  1.00  0.00     0.074 A 
ATOM     40  C   UNL A   1      40.225  28.056  27.566  1.00  0.00     0.031 C 
ATOM     41  C   UNL A   1      38.105  32.068  32.750  1.00  0.00     0.029 A 
ATOM     42  C   UNL A   1      39.321  31.301  32.994  1.00  0.00     0.049 A 
ATOM     43  H   UNL A   1      40.332  30.072  31.649  1.00  0.00     0.167 HD
ATOM     44  C   UNL A   1      42.093  27.138  28.917  1.00  0.00     0.037 A 
ATOM     45  C   UNL A   1      39.991  31.268  34.162  1.00  0.00     0.037 A 
ATOM     46  C   UNL A   1      42.890  27.056  30.113  1.00  0.00     0.049 A 
ATOM     47  C   UNL A   1      41.170  30.347  34.305  1.00  0.00     0.074 A 
ATOM     48  C   UNL A   1      44.040  26.318  30.337  1.00  0.00     0.029 A 
ATOM     49  N   UNL A   1      42.624  27.746  31.287  1.00  0.00    -0.354 N 
ATOM     50  N   UNL A   1      41.703  29.543  33.419  1.00  0.00    -0.248 NA
ATOM     51  C   UNL A   1      41.822  30.307  35.622  1.00  0.00     0.031 C 
ATOM     52  C   UNL A   1      44.447  26.531  31.658  1.00  0.00     0.029 A 
ATOM     53  C   UNL A   1      43.575  27.433  32.246  1.00  0.00     0.049 A 
ATOM     54  H   UNL A   1      41.871  28.366  31.420  1.00  0.00     0.167 HD
ATOM     55  C   UNL A   1      42.752  28.906  34.063  1.00  0.00     0.074 A 
ATOM     56  C   UNL A   1      42.796  29.432  35.412  1.00  0.00     0.031 C 
ATOM     57  C   UNL A   1      43.599  27.962  33.584  1.00  0.00     0.037 A 
BRANCH  44  58
ATOM     58  C   UNL A   1      42.476  26.268  27.756  1.00  0.00     0.064 A 
ATOM     59  C   UNL A   1      43.419  26.675  26.803  1.00  0.00     0.173 A 
ATOM     60  C   UNL A   1      41.920  24.986  27.627  1.00  0.00     0.173 A 
ATOM     61  F   UNL A   1      43.970  27.896  26.875  1.00  0.00    -0.203 F 
ATOM     62  C   UNL A   1      43.779  25.837  25.750  1.00  0.00     0.198 A 
ATOM     63  C   UNL A   1      42.302  24.140  26.588  1.00  0.00     0.198 A 
ATOM     64  F   UNL A   1      41.017  24.547  28.516  1.00  0.00    -0.203 F 
ATOM     65  F   UNL A   1      44.656  26.259  24.829  1.00  0.00    -0.200 F 
ATOM     66  C   UNL A   1      43.226  24.568  25.648  1.00  0.00     0.200 A 
ATOM     67  F   UNL A   1      41.775  22.911  26.498  1.00  0.00    -0.200 F 
ATOM     68  F   UNL A   1      43.582  23.760  24.640  1.00  0.00    -0.200 F 
ENDBRANCH  44  58
BRANCH  45  69
ATOM     69  C   UNL A   1      39.518  32.087  35.308  1.00  0.00     0.064 A 
ATOM     70  C   UNL A   1      39.946  33.411  35.473  1.00  0.00     0.173 A 
ATOM     71  C   UNL A   1      38.620  31.567  36.254  1.00  0.00     0.173 A 
ATOM     72  F   UNL A   1      40.826  33.942  34.612  1.00  0.00    -0.203 F 
ATOM     73  C   UNL A   1      39.497  34.182  36.542  1.00  0.00     0.198 A 
ATOM     74  C   UNL A   1      38.149  32.350  37.306  1.00  0.00     0.198 A 
ATOM     75  F   UNL A   1      38.185  30.304  36.144  1.00  0.00    -0.203 F 
ATOM     76  F   UNL A   1      39.950  35.434  36.698  1.00  0.00    -0.200 F 
ATOM     77  C   UNL A   1      38.592  33.656  37.452  1.00  0.00     0.200 A 
ATOM     78  F   UNL A   1      37.266  31.839  38.175  1.00  0.00    -0.200 F 
ATOM     79  F   UNL A   1      38.153  34.403  38.474  1.00  0.00    -0.200 F 
ENDBRANCH  45  69
BRANCH  57  80
ATOM     80  C   UNL A   1      44.651  27.450  34.519  1.00  0.00     0.064 A 
ATOM     81  C   UNL A   1      44.438  26.304  35.300  1.00  0.00     0.173 A 
ATOM     82  C   UNL A   1      45.899  28.085  34.605  1.00  0.00     0.173 A 
ATOM     83  F   UNL A   1      43.255  25.675  35.264  1.00  0.00    -0.203 F 
ATOM     84  C   UNL A   1      45.433  25.822  36.145  1.00  0.00     0.198 A 
ATOM     85  C   UNL A   1      46.899  27.586  35.433  1.00  0.00     0.198 A 
ATOM     86  F   UNL A   1      46.150  29.182  33.876  1.00  0.00    -0.203 F 
ATOM     87  F   UNL A   1      45.197  24.747  36.909  1.00  0.00    -0.200 F 
ATOM     88  C   UNL A   1      46.664  26.458  36.206  1.00  0.00     0.200 A 
ATOM     89  F   UNL A   1      48.091  28.196  35.485  1.00  0.00    -0.200 F 
ATOM     90  F   UNL A   1      47.623  25.987  37.015  1.00  0.00    -0.200 F 
ENDBRANCH  57  80
ENDBRANCH  31  32
ENDBRANCH  24  26
ENDBRANCH  23  24
ENDBRANCH  22  23
ENDBRANCH   1  22
TORSDOF 15
ENDMDL
MODEL 3
REMARK VINA RESULT:     -11.4      5.127     10.430
REMARK SMILES CC(C)(C[NH2+]Cc1ccc2c(c1)OCO2)C(=O)OCCOC(=O)c1ccc(-c2c3nc(c(-c4c(F)c(F)c(F)c(F)c4F)c4ccc([nH]4)c(-c4c(F)c(F)c(F)c(F)c4F)c4nc(c(-c5c(F)c(F)c(F)c(F)c5F)c5ccc2[nH]5)C=C4)C=C3)cc1
REMARK SMILES IDX 19 1 18 2 16 3 17 4 2 5 1 6 3 7 4 8 5 9 6 12 7 13 8 14 12 15
REMARK SMILES IDX 9 16 11 17 10 18 13 19 15 20 14 21 20 22 21 23 22 24 23 25
REMARK SMILES IDX 24 26 25 27 86 28 26 29 85 30 27 31 28 32 29 33 79 34 30 35
REMARK SMILES IDX 84 36 78 37 80 38 31 39 83 40 77 41 76 42 32 44 64 45 44 46
REMARK SMILES IDX 63 47 45 48 48 49 62 50 81 51 46 52 47 53 61 55 82 56 49 57
REMARK SMILES IDX 33 58 34 59 42 60 35 61 36 62 40 63 43 64 37 65 38 66 41 67
REMARK SMILES IDX 39 68 65 69 66 70 74 71 67 72 68 73 72 74 75 75 69 76 70 77
REMARK SMILES IDX 73 78 71 79 50 80 51 81 59 82 52 83 53 84 57 85 60 86 54 87
REMARK SMILES IDX 55 88 58 89 56 90
REMARK H PARENT 5 10 5 11 80 43 48 54
REMARK Flexibility Score: inf
ROOT
ATOM      1  C   UNL A   1      35.613  21.410  24.625  1.00  0.00     0.274 C 
ENDROOT
BRANCH   1   2
ATOM      2  O   UNL A   1      35.433  22.837  24.734  1.00  0.00    -0.461 OA
BRANCH   2   3
ATOM      3  C   UNL A   1      34.792  23.447  23.699  1.00  0.00     0.317 C 
ATOM      4  O   UNL A   1      35.115  23.328  22.521  1.00  0.00    -0.251 OA
BRANCH   3   5
ATOM      5  C   UNL A   1      33.683  24.392  24.163  1.00  0.00     0.111 C 
ATOM      6  C   UNL A   1      33.612  25.635  23.255  1.00  0.00     0.029 C 
ATOM      7  C   UNL A   1      34.103  24.862  25.569  1.00  0.00     0.029 C 
BRANCH   5   8
ATOM      8  C   UNL A   1      32.292  23.721  24.265  1.00  0.00     0.279 C 
BRANCH   8   9
ATOM      9  N   UNL A   1      32.205  22.337  23.775  1.00  0.00    -0.342 N 
ATOM     10  H   UNL A   1      33.086  22.092  23.323  1.00  0.00     0.346 HD
ATOM     11  H   UNL A   1      31.426  22.285  23.119  1.00  0.00     0.346 HD
BRANCH   9  12
ATOM     12  C   UNL A   1      31.947  21.377  24.862  1.00  0.00     0.297 C 
BRANCH  12  13
ATOM     13  C   UNL A   1      32.264  19.950  24.462  1.00  0.00     0.010 A 
ATOM     14  C   UNL A   1      32.153  19.547  23.109  1.00  0.00     0.013 A 
ATOM     15  C   UNL A   1      32.755  19.039  25.411  1.00  0.00     0.060 A 
ATOM     16  C   UNL A   1      32.576  18.284  22.690  1.00  0.00     0.051 A 
ATOM     17  C   UNL A   1      33.143  17.789  24.972  1.00  0.00     0.166 A 
ATOM     18  C   UNL A   1      33.070  17.428  23.648  1.00  0.00     0.165 A 
ATOM     19  O   UNL A   1      33.651  16.796  25.751  1.00  0.00    -0.454 OA
ATOM     20  O   UNL A   1      33.537  16.172  23.423  1.00  0.00    -0.454 OA
ATOM     21  C   UNL A   1      33.887  15.770  24.763  1.00  0.00     0.468 C 
ENDBRANCH  12  13
ENDBRANCH   9  12
ENDBRANCH   8   9
ENDBRANCH   5   8
ENDBRANCH   3   5
ENDBRANCH   2   3
ENDBRANCH   1   2
BRANCH   1  22
ATOM     22  C   UNL A   1      37.099  21.061  24.668  1.00  0.00     0.275 C 
BRANCH  22  23
ATOM     23  O   UNL A   1      37.657  21.588  25.881  1.00  0.00    -0.458 OA
BRANCH  23  24
ATOM     24  C   UNL A   1      38.953  21.288  26.125  1.00  0.00     0.338 C 
ATOM     25  O   UNL A   1      39.486  20.197  26.030  1.00  0.00    -0.246 OA
BRANCH  24  26
ATOM     26  C   UNL A   1      39.648  22.514  26.582  1.00  0.00     0.060 A 
ATOM     27  C   UNL A   1      40.698  22.447  27.499  1.00  0.00     0.016 A 
ATOM     28  C   UNL A   1      39.231  23.757  26.105  1.00  0.00     0.016 A 
ATOM     29  C   UNL A   1      41.316  23.606  27.966  1.00  0.00     0.010 A 
ATOM     30  C   UNL A   1      39.909  24.914  26.505  1.00  0.00     0.010 A 
ATOM     31  C   UNL A   1      40.958  24.851  27.441  1.00  0.00    -0.014 A 
BRANCH  31  32
ATOM     32  C   UNL A   1      41.680  26.090  27.839  1.00  0.00     0.031 A 
ATOM     33  C   UNL A   1      40.972  27.147  28.636  1.00  0.00     0.074 A 
ATOM     34  C   UNL A   1      42.953  26.295  27.444  1.00  0.00     0.049 A 
ATOM     35  N   UNL A   1      41.309  28.395  28.846  1.00  0.00    -0.248 NA
ATOM     36  C   UNL A   1      39.705  26.752  29.269  1.00  0.00     0.031 C 
ATOM     37  C   UNL A   1      43.781  25.336  26.710  1.00  0.00     0.029 A 
ATOM     38  N   UNL A   1      43.769  27.392  27.587  1.00  0.00    -0.354 N 
ATOM     39  C   UNL A   1      40.269  28.949  29.581  1.00  0.00     0.074 A 
ATOM     40  C   UNL A   1      39.292  27.901  29.788  1.00  0.00     0.031 C 
ATOM     41  C   UNL A   1      44.985  25.880  26.477  1.00  0.00     0.029 A 
ATOM     42  C   UNL A   1      44.983  27.256  26.959  1.00  0.00     0.049 A 
ATOM     43  H   UNL A   1      43.509  28.197  28.091  1.00  0.00     0.167 HD
ATOM     44  C   UNL A   1      40.143  30.219  30.031  1.00  0.00     0.037 A 
ATOM     45  C   UNL A   1      45.962  28.154  26.735  1.00  0.00     0.037 A 
ATOM     46  C   UNL A   1      41.145  31.240  29.865  1.00  0.00     0.049 A 
ATOM     47  C   UNL A   1      45.778  29.571  27.199  1.00  0.00     0.074 A 
ATOM     48  C   UNL A   1      41.130  32.548  30.321  1.00  0.00     0.029 A 
ATOM     49  N   UNL A   1      42.349  31.064  29.198  1.00  0.00    -0.354 N 
ATOM     50  N   UNL A   1      44.773  30.103  27.850  1.00  0.00    -0.248 NA
ATOM     51  C   UNL A   1      46.851  30.520  26.871  1.00  0.00     0.031 C 
ATOM     52  C   UNL A   1      42.306  33.174  29.897  1.00  0.00     0.029 A 
ATOM     53  C   UNL A   1      43.073  32.246  29.211  1.00  0.00     0.049 A 
ATOM     54  H   UNL A   1      42.644  30.225  28.778  1.00  0.00     0.167 HD
ATOM     55  C   UNL A   1      45.091  31.442  28.014  1.00  0.00     0.074 A 
ATOM     56  C   UNL A   1      46.394  31.641  27.413  1.00  0.00     0.031 C 
ATOM     57  C   UNL A   1      44.366  32.424  28.602  1.00  0.00     0.037 A 
BRANCH  44  58
ATOM     58  C   UNL A   1      38.862  30.594  30.715  1.00  0.00     0.064 A 
ATOM     59  C   UNL A   1      38.717  30.529  32.107  1.00  0.00     0.173 A 
ATOM     60  C   UNL A   1      37.778  31.073  29.962  1.00  0.00     0.173 A 
ATOM     61  F   UNL A   1      39.719  30.066  32.870  1.00  0.00    -0.203 F 
ATOM     62  C   UNL A   1      37.527  30.911  32.721  1.00  0.00     0.198 A 
ATOM     63  C   UNL A   1      36.599  31.479  30.581  1.00  0.00     0.198 A 
ATOM     64  F   UNL A   1      37.869  31.161  28.627  1.00  0.00    -0.203 F 
ATOM     65  F   UNL A   1      37.396  30.806  34.050  1.00  0.00    -0.200 F 
ATOM     66  C   UNL A   1      36.471  31.392  31.958  1.00  0.00     0.200 A 
ATOM     67  F   UNL A   1      35.586  31.955  29.843  1.00  0.00    -0.200 F 
ATOM     68  F   UNL A   1      35.331  31.769  32.552  1.00  0.00    -0.200 F 
ENDBRANCH  44  58
BRANCH  45  69
ATOM     69  C   UNL A   1      47.175  27.750  25.977  1.00  0.00     0.064 A 
ATOM     70  C   UNL A   1      48.333  27.327  26.643  1.00  0.00     0.173 A 
ATOM     71  C   UNL A   1      47.197  27.767  24.573  1.00  0.00     0.173 A 
ATOM     72  F   UNL A   1      48.371  27.323  27.983  1.00  0.00    -0.203 F 
ATOM     73  C   UNL A   1      49.468  26.941  25.933  1.00  0.00     0.198 A 
ATOM     74  C   UNL A   1      48.322  27.351  23.866  1.00  0.00     0.198 A 
ATOM     75  F   UNL A   1      46.115  28.168  23.890  1.00  0.00    -0.203 F 
ATOM     76  F   UNL A   1      50.575  26.576  26.594  1.00  0.00    -0.200 F 
ATOM     77  C   UNL A   1      49.459  26.944  24.546  1.00  0.00     0.200 A 
ATOM     78  F   UNL A   1      48.303  27.345  22.526  1.00  0.00    -0.200 F 
ATOM     79  F   UNL A   1      50.548  26.561  23.865  1.00  0.00    -0.200 F 
ENDBRANCH  45  69
BRANCH  57  80
ATOM     80  C   UNL A   1      44.970  33.794  28.637  1.00  0.00     0.064 A 
ATOM     81  C   UNL A   1      45.829  34.187  29.674  1.00  0.00     0.173 A 
ATOM     82  C   UNL A   1      44.722  34.709  27.603  1.00  0.00     0.173 A 
ATOM     83  F   UNL A   1      46.080  33.352  30.694  1.00  0.00    -0.203 F 
ATOM     84  C   UNL A   1      46.405  35.453  29.683  1.00  0.00     0.198 A 
ATOM     85  C   UNL A   1      45.320  35.966  27.602  1.00  0.00     0.198 A 
ATOM     86  F   UNL A   1      43.910  34.379  26.589  1.00  0.00    -0.203 F 
ATOM     87  F   UNL A   1      47.194  35.821  30.702  1.00  0.00    -0.200 F 
ATOM     88  C   UNL A   1      46.157  36.339  28.644  1.00  0.00     0.200 A 
ATOM     89  F   UNL A   1      45.086  36.817  26.595  1.00  0.00    -0.200 F 
ATOM     90  F   UNL A   1      46.719  37.555  28.651  1.00  0.00    -0.200 F 
ENDBRANCH  57  80
ENDBRANCH  31  32
ENDBRANCH  24  26
ENDBRANCH  23  24
ENDBRANCH  22  23
ENDBRANCH   1  22
TORSDOF 15
ENDMDL
