MODEL 1
REMARK VINA RESULT:     -11.4      0.000      0.000
REMARK SMILES O=C(OCCOC(=O)[C@H]([C@@H]1CCOC1)[C@@H]1CCS(=O)(=O)C1)c1ccc(-c2c3nc(c(-c4c(F)c(F)c(F)c(F)c4F)c4ccc([nH]4)c(-c4c(F)c(F)c(F)c(F)c4F)c4nc(c(-c5c(F)c(F)c(F)c(F)c5F)c5ccc2[nH]5)C=C4)C=C3)cc1
REMARK SMILES IDX 4 1 3 2 2 3 1 4 22 5 23 6 84 7 24 8 83 9 25 10 26 11 27 12
REMARK SMILES IDX 77 13 28 14 82 15 76 16 78 17 29 18 81 19 75 20 74 21 30 23
REMARK SMILES IDX 62 24 42 25 61 26 43 27 46 28 60 29 79 30 44 31 45 32 59 34
REMARK SMILES IDX 80 35 47 36 31 37 32 38 40 39 33 40 34 41 38 42 41 43 35 44
REMARK SMILES IDX 36 45 39 46 37 47 63 48 64 49 72 50 65 51 66 52 70 53 73 54
REMARK SMILES IDX 67 55 68 56 71 57 69 58 48 59 49 60 57 61 50 62 51 63 55 64
REMARK SMILES IDX 58 65 52 66 53 67 56 68 54 69 5 70 6 71 7 72 8 73 9 74 15 75
REMARK SMILES IDX 16 76 21 77 17 78 18 79 19 80 20 81 10 82 11 83 14 84 12 85
REMARK SMILES IDX 13 86
REMARK H PARENT 78 22 46 33
REMARK Flexibility Score: inf
ROOT
ATOM      1  C   UNL A   1      31.727  30.054  25.156  1.00  0.00     0.275 C 
ENDROOT
BRANCH   1   2
ATOM      2  O   UNL A   1      32.168  30.235  26.515  1.00  0.00    -0.458 OA
BRANCH   2   3
ATOM      3  C   UNL A   1      32.927  31.195  27.093  1.00  0.00     0.338 C 
ATOM      4  O   UNL A   1      32.513  32.353  27.044  1.00  0.00    -0.246 OA
BRANCH   3   5
ATOM      5  C   UNL A   1      34.305  30.994  27.669  1.00  0.00     0.060 A 
ATOM      6  C   UNL A   1      35.240  31.981  27.989  1.00  0.00     0.016 A 
ATOM      7  C   UNL A   1      34.661  29.661  27.971  1.00  0.00     0.016 A 
ATOM      8  C   UNL A   1      36.419  31.666  28.688  1.00  0.00     0.010 A 
ATOM      9  C   UNL A   1      35.857  29.335  28.628  1.00  0.00     0.010 A 
ATOM     10  C   UNL A   1      36.731  30.344  29.029  1.00  0.00    -0.014 A 
BRANCH  10  11
ATOM     11  C   UNL A   1      38.029  30.051  29.694  1.00  0.00     0.031 A 
ATOM     12  C   UNL A   1      38.163  30.366  31.141  1.00  0.00     0.074 A 
ATOM     13  C   UNL A   1      39.082  29.530  29.033  1.00  0.00     0.049 A 
ATOM     14  N   UNL A   1      39.136  30.068  31.955  1.00  0.00    -0.248 NA
ATOM     15  C   UNL A   1      37.103  31.199  31.729  1.00  0.00     0.031 C 
ATOM     16  C   UNL A   1      39.136  29.375  27.597  1.00  0.00     0.029 A 
ATOM     17  N   UNL A   1      40.270  28.968  29.450  1.00  0.00    -0.354 N 
ATOM     18  C   UNL A   1      38.872  30.775  33.111  1.00  0.00     0.074 A 
ATOM     19  C   UNL A   1      37.597  31.437  32.934  1.00  0.00     0.031 C 
ATOM     20  C   UNL A   1      40.171  28.601  27.251  1.00  0.00     0.029 A 
ATOM     21  C   UNL A   1      40.874  28.209  28.456  1.00  0.00     0.049 A 
ATOM     22  H   UNL A   1      40.647  29.091  30.351  1.00  0.00     0.167 HD
ATOM     23  C   UNL A   1      39.690  30.925  34.174  1.00  0.00     0.037 A 
ATOM     24  C   UNL A   1      41.817  27.248  28.550  1.00  0.00     0.037 A 
ATOM     25  C   UNL A   1      40.968  30.276  34.295  1.00  0.00     0.049 A 
ATOM     26  C   UNL A   1      42.545  27.178  29.865  1.00  0.00     0.074 A 
ATOM     27  C   UNL A   1      41.888  30.375  35.320  1.00  0.00     0.029 A 
ATOM     28  N   UNL A   1      41.507  29.414  33.348  1.00  0.00    -0.354 N 
ATOM     29  N   UNL A   1      42.258  27.775  30.996  1.00  0.00    -0.248 NA
ATOM     30  C   UNL A   1      43.788  26.395  29.895  1.00  0.00     0.031 C 
ATOM     31  C   UNL A   1      43.009  29.615  34.970  1.00  0.00     0.029 A 
ATOM     32  C   UNL A   1      42.761  28.992  33.757  1.00  0.00     0.049 A 
ATOM     33  H   UNL A   1      41.064  29.145  32.511  1.00  0.00     0.167 HD
ATOM     34  C   UNL A   1      43.322  27.514  31.838  1.00  0.00     0.074 A 
ATOM     35  C   UNL A   1      44.190  26.585  31.142  1.00  0.00     0.031 C 
ATOM     36  C   UNL A   1      43.605  28.073  33.037  1.00  0.00     0.037 A 
BRANCH  23  37
ATOM     37  C   UNL A   1      39.283  31.931  35.203  1.00  0.00     0.064 A 
ATOM     38  C   UNL A   1      39.658  33.277  35.124  1.00  0.00     0.173 A 
ATOM     39  C   UNL A   1      38.513  31.521  36.304  1.00  0.00     0.173 A 
ATOM     40  F   UNL A   1      40.430  33.706  34.115  1.00  0.00    -0.203 F 
ATOM     41  C   UNL A   1      39.287  34.178  36.119  1.00  0.00     0.198 A 
ATOM     42  C   UNL A   1      38.119  32.429  37.279  1.00  0.00     0.198 A 
ATOM     43  F   UNL A   1      38.150  30.236  36.436  1.00  0.00    -0.203 F 
ATOM     44  F   UNL A   1      39.702  35.450  36.055  1.00  0.00    -0.200 F 
ATOM     45  C   UNL A   1      38.511  33.756  37.190  1.00  0.00     0.200 A 
ATOM     46  F   UNL A   1      37.369  32.018  38.311  1.00  0.00    -0.200 F 
ATOM     47  F   UNL A   1      38.151  34.626  38.143  1.00  0.00    -0.200 F 
ENDBRANCH  23  37
BRANCH  24  48
ATOM     48  C   UNL A   1      42.129  26.267  27.457  1.00  0.00     0.064 A 
ATOM     49  C   UNL A   1      41.385  25.073  27.358  1.00  0.00     0.173 A 
ATOM     50  C   UNL A   1      43.172  26.426  26.533  1.00  0.00     0.173 A 
ATOM     51  F   UNL A   1      40.388  24.829  28.224  1.00  0.00    -0.203 F 
ATOM     52  C   UNL A   1      41.701  24.077  26.430  1.00  0.00     0.198 A 
ATOM     53  C   UNL A   1      43.446  25.459  25.560  1.00  0.00     0.198 A 
ATOM     54  F   UNL A   1      43.967  27.505  26.583  1.00  0.00    -0.203 F 
ATOM     55  F   UNL A   1      41.045  22.908  26.452  1.00  0.00    -0.200 F 
ATOM     56  C   UNL A   1      42.726  24.277  25.524  1.00  0.00     0.200 A 
ATOM     57  F   UNL A   1      44.433  25.663  24.677  1.00  0.00    -0.200 F 
ATOM     58  F   UNL A   1      43.045  23.318  24.642  1.00  0.00    -0.200 F 
ENDBRANCH  24  48
BRANCH  36  59
ATOM     59  C   UNL A   1      44.944  27.754  33.624  1.00  0.00     0.064 A 
ATOM     60  C   UNL A   1      45.107  26.651  34.479  1.00  0.00     0.173 A 
ATOM     61  C   UNL A   1      46.077  28.498  33.278  1.00  0.00     0.173 A 
ATOM     62  F   UNL A   1      44.046  25.916  34.848  1.00  0.00    -0.203 F 
ATOM     63  C   UNL A   1      46.359  26.317  34.980  1.00  0.00     0.198 A 
ATOM     64  C   UNL A   1      47.333  28.140  33.756  1.00  0.00     0.198 A 
ATOM     65  F   UNL A   1      45.969  29.554  32.458  1.00  0.00    -0.203 F 
ATOM     66  F   UNL A   1      46.487  25.284  35.824  1.00  0.00    -0.200 F 
ATOM     67  C   UNL A   1      47.474  27.055  34.608  1.00  0.00     0.200 A 
ATOM     68  F   UNL A   1      48.413  28.841  33.383  1.00  0.00    -0.200 F 
ATOM     69  F   UNL A   1      48.683  26.719  35.074  1.00  0.00    -0.200 F 
ENDBRANCH  36  59
ENDBRANCH  10  11
ENDBRANCH   3   5
ENDBRANCH   2   3
ENDBRANCH   1   2
BRANCH   1  70
ATOM     70  C   UNL A   1      32.689  29.193  24.339  1.00  0.00     0.274 C 
BRANCH  70  71
ATOM     71  O   UNL A   1      32.071  28.740  23.125  1.00  0.00    -0.462 OA
BRANCH  71  72
ATOM     72  C   UNL A   1      31.082  27.816  23.276  1.00  0.00     0.309 C 
ATOM     73  O   UNL A   1      29.906  27.997  23.001  1.00  0.00    -0.252 OA
BRANCH  72  74
ATOM     74  C   UNL A   1      31.636  26.532  23.888  1.00  0.00     0.109 C 
BRANCH  74  75
ATOM     75  C   UNL A   1      30.870  26.246  25.224  1.00  0.00     0.019 C 
ATOM     76  C   UNL A   1      31.766  26.029  26.480  1.00  0.00     0.021 C 
ATOM     77  C   UNL A   1      29.962  24.997  25.161  1.00  0.00     0.141 C 
ATOM     78  C   UNL A   1      32.191  24.575  26.520  1.00  0.00     0.137 C 
ATOM     79  S   UNL A   1      30.690  23.710  26.194  1.00  0.00     0.150 S 
ATOM     80  O   UNL A   1      31.050  22.533  25.438  1.00  0.00    -0.229 OA
ATOM     81  O   UNL A   1      29.920  23.615  27.416  1.00  0.00    -0.229 OA
ENDBRANCH  74  75
BRANCH  74  82
ATOM     82  C   UNL A   1      31.606  25.494  22.700  1.00  0.00     0.032 C 
ATOM     83  C   UNL A   1      32.491  24.271  22.875  1.00  0.00     0.035 C 
ATOM     84  C   UNL A   1      32.114  25.951  21.350  1.00  0.00     0.164 C 
ATOM     85  C   UNL A   1      33.804  24.667  22.216  1.00  0.00     0.160 C 
ATOM     86  O   UNL A   1      33.533  25.836  21.424  1.00  0.00    -0.381 OA
ENDBRANCH  74  82
ENDBRANCH  72  74
ENDBRANCH  71  72
ENDBRANCH  70  71
ENDBRANCH   1  70
TORSDOF 13
ENDMDL
MODEL 2
REMARK VINA RESULT:     -11.3      1.023      1.812
REMARK SMILES O=C(OCCOC(=O)[C@H]([C@@H]1CCOC1)[C@@H]1CCS(=O)(=O)C1)c1ccc(-c2c3nc(c(-c4c(F)c(F)c(F)c(F)c4F)c4ccc([nH]4)c(-c4c(F)c(F)c(F)c(F)c4F)c4nc(c(-c5c(F)c(F)c(F)c(F)c5F)c5ccc2[nH]5)C=C4)C=C3)cc1
REMARK SMILES IDX 4 1 3 2 2 3 1 4 22 5 23 6 84 7 24 8 83 9 25 10 26 11 27 12
REMARK SMILES IDX 77 13 28 14 82 15 76 16 78 17 29 18 81 19 75 20 74 21 30 23
REMARK SMILES IDX 62 24 42 25 61 26 43 27 46 28 60 29 79 30 44 31 45 32 59 34
REMARK SMILES IDX 80 35 47 36 31 37 32 38 40 39 33 40 34 41 38 42 41 43 35 44
REMARK SMILES IDX 36 45 39 46 37 47 63 48 64 49 72 50 65 51 66 52 70 53 73 54
REMARK SMILES IDX 67 55 68 56 71 57 69 58 48 59 49 60 57 61 50 62 51 63 55 64
REMARK SMILES IDX 58 65 52 66 53 67 56 68 54 69 5 70 6 71 7 72 8 73 9 74 15 75
REMARK SMILES IDX 16 76 21 77 17 78 18 79 19 80 20 81 10 82 11 83 14 84 12 85
REMARK SMILES IDX 13 86
REMARK H PARENT 78 22 46 33
REMARK Flexibility Score: inf
ROOT
ATOM      1  C   UNL A   1      32.764  29.699  24.996  1.00  0.00     0.275 C 
ENDROOT
BRANCH   1   2
ATOM      2  O   UNL A   1      32.341  30.352  26.209  1.00  0.00    -0.458 OA
BRANCH   2   3
ATOM      3  C   UNL A   1      32.983  31.203  27.042  1.00  0.00     0.338 C 
ATOM      4  O   UNL A   1      32.459  32.297  27.251  1.00  0.00    -0.246 OA
BRANCH   3   5
ATOM      5  C   UNL A   1      34.355  30.988  27.628  1.00  0.00     0.060 A 
ATOM      6  C   UNL A   1      35.302  31.964  27.943  1.00  0.00     0.016 A 
ATOM      7  C   UNL A   1      34.690  29.653  27.945  1.00  0.00     0.016 A 
ATOM      8  C   UNL A   1      36.473  31.640  28.652  1.00  0.00     0.010 A 
ATOM      9  C   UNL A   1      35.878  29.317  28.612  1.00  0.00     0.010 A 
ATOM     10  C   UNL A   1      36.764  30.317  29.008  1.00  0.00    -0.014 A 
BRANCH  10  11
ATOM     11  C   UNL A   1      38.054  30.012  29.683  1.00  0.00     0.031 A 
ATOM     12  C   UNL A   1      38.179  30.326  31.131  1.00  0.00     0.074 A 
ATOM     13  C   UNL A   1      39.108  29.483  29.030  1.00  0.00     0.049 A 
ATOM     14  N   UNL A   1      39.143  30.018  31.952  1.00  0.00    -0.248 NA
ATOM     15  C   UNL A   1      37.121  31.168  31.712  1.00  0.00     0.031 C 
ATOM     16  C   UNL A   1      39.172  29.328  27.594  1.00  0.00     0.029 A 
ATOM     17  N   UNL A   1      40.287  28.911  29.456  1.00  0.00    -0.354 N 
ATOM     18  C   UNL A   1      38.876  30.727  33.107  1.00  0.00     0.074 A 
ATOM     19  C   UNL A   1      37.609  31.401  32.921  1.00  0.00     0.031 C 
ATOM     20  C   UNL A   1      40.203  28.546  27.256  1.00  0.00     0.029 A 
ATOM     21  C   UNL A   1      40.893  28.147  28.466  1.00  0.00     0.049 A 
ATOM     22  H   UNL A   1      40.658  29.029  30.361  1.00  0.00     0.167 HD
ATOM     23  C   UNL A   1      39.687  30.870  34.177  1.00  0.00     0.037 A 
ATOM     24  C   UNL A   1      41.826  27.177  28.567  1.00  0.00     0.037 A 
ATOM     25  C   UNL A   1      40.958  30.209  34.307  1.00  0.00     0.049 A 
ATOM     26  C   UNL A   1      42.543  27.100  29.888  1.00  0.00     0.074 A 
ATOM     27  C   UNL A   1      41.871  30.299  35.339  1.00  0.00     0.029 A 
ATOM     28  N   UNL A   1      41.497  29.343  33.364  1.00  0.00    -0.354 N 
ATOM     29  N   UNL A   1      42.252  27.699  31.017  1.00  0.00    -0.248 NA
ATOM     30  C   UNL A   1      43.779  26.306  29.927  1.00  0.00     0.031 C 
ATOM     31  C   UNL A   1      42.988  29.529  34.998  1.00  0.00     0.029 A 
ATOM     32  C   UNL A   1      42.744  28.910  33.782  1.00  0.00     0.049 A 
ATOM     33  H   UNL A   1      41.059  29.078  32.523  1.00  0.00     0.167 HD
ATOM     34  C   UNL A   1      43.307  27.428  31.867  1.00  0.00     0.074 A 
ATOM     35  C   UNL A   1      44.173  26.492  31.178  1.00  0.00     0.031 C 
ATOM     36  C   UNL A   1      43.586  27.984  33.069  1.00  0.00     0.037 A 
BRANCH  23  37
ATOM     37  C   UNL A   1      39.280  31.878  35.203  1.00  0.00     0.064 A 
ATOM     38  C   UNL A   1      39.647  33.226  35.115  1.00  0.00     0.173 A 
ATOM     39  C   UNL A   1      38.520  31.470  36.311  1.00  0.00     0.173 A 
ATOM     40  F   UNL A   1      40.410  33.655  34.099  1.00  0.00    -0.203 F 
ATOM     41  C   UNL A   1      39.277  34.130  36.108  1.00  0.00     0.198 A 
ATOM     42  C   UNL A   1      38.127  32.380  37.284  1.00  0.00     0.198 A 
ATOM     43  F   UNL A   1      38.166  30.183  36.451  1.00  0.00    -0.203 F 
ATOM     44  F   UNL A   1      39.684  35.404  36.035  1.00  0.00    -0.200 F 
ATOM     45  C   UNL A   1      38.510  33.709  37.185  1.00  0.00     0.200 A 
ATOM     46  F   UNL A   1      37.386  31.970  38.323  1.00  0.00    -0.200 F 
ATOM     47  F   UNL A   1      38.152  34.581  38.136  1.00  0.00    -0.200 F 
ENDBRANCH  23  37
BRANCH  24  48
ATOM     48  C   UNL A   1      42.138  26.194  27.476  1.00  0.00     0.064 A 
ATOM     49  C   UNL A   1      41.419  24.983  27.401  1.00  0.00     0.173 A 
ATOM     50  C   UNL A   1      43.160  26.368  26.531  1.00  0.00     0.173 A 
ATOM     51  F   UNL A   1      40.445  24.725  28.288  1.00  0.00    -0.203 F 
ATOM     52  C   UNL A   1      41.738  23.987  26.475  1.00  0.00     0.198 A 
ATOM     53  C   UNL A   1      43.436  25.400  25.560  1.00  0.00     0.198 A 
ATOM     54  F   UNL A   1      43.932  27.464  26.557  1.00  0.00    -0.203 F 
ATOM     55  F   UNL A   1      41.109  22.804  26.519  1.00  0.00    -0.200 F 
ATOM     56  C   UNL A   1      42.741  24.202  25.547  1.00  0.00     0.200 A 
ATOM     57  F   UNL A   1      44.401  25.617  24.657  1.00  0.00    -0.200 F 
ATOM     58  F   UNL A   1      43.064  23.243  24.667  1.00  0.00    -0.200 F 
ENDBRANCH  24  48
BRANCH  36  59
ATOM     59  C   UNL A   1      44.917  27.653  33.666  1.00  0.00     0.064 A 
ATOM     60  C   UNL A   1      46.042  28.449  33.394  1.00  0.00     0.173 A 
ATOM     61  C   UNL A   1      45.058  26.590  34.565  1.00  0.00     0.173 A 
ATOM     62  F   UNL A   1      45.956  29.471  32.529  1.00  0.00    -0.203 F 
ATOM     63  C   UNL A   1      47.267  28.179  33.991  1.00  0.00     0.198 A 
ATOM     64  C   UNL A   1      46.279  26.343  35.185  1.00  0.00     0.198 A 
ATOM     65  F   UNL A   1      44.009  25.808  34.860  1.00  0.00    -0.203 F 
ATOM     66  F   UNL A   1      48.337  28.928  33.689  1.00  0.00    -0.200 F 
ATOM     67  C   UNL A   1      47.382  27.134  34.896  1.00  0.00     0.200 A 
ATOM     68  F   UNL A   1      46.386  25.345  36.073  1.00  0.00    -0.200 F 
ATOM     69  F   UNL A   1      48.557  26.888  35.487  1.00  0.00    -0.200 F 
ENDBRANCH  36  59
ENDBRANCH  10  11
ENDBRANCH   3   5
ENDBRANCH   2   3
ENDBRANCH   1   2
BRANCH   1  70
ATOM     70  C   UNL A   1      32.772  28.177  25.123  1.00  0.00     0.274 C 
BRANCH  70  71
ATOM     71  O   UNL A   1      31.481  27.686  25.514  1.00  0.00    -0.462 OA
BRANCH  71  72
ATOM     72  C   UNL A   1      31.418  26.356  25.800  1.00  0.00     0.309 C 
ATOM     73  O   UNL A   1      30.689  25.854  26.642  1.00  0.00    -0.252 OA
BRANCH  72  74
ATOM     74  C   UNL A   1      32.427  25.577  24.959  1.00  0.00     0.109 C 
BRANCH  74  75
ATOM     75  C   UNL A   1      33.263  24.656  25.910  1.00  0.00     0.019 C 
ATOM     76  C   UNL A   1      34.794  24.608  25.625  1.00  0.00     0.021 C 
ATOM     77  C   UNL A   1      32.809  23.178  25.897  1.00  0.00     0.141 C 
ATOM     78  C   UNL A   1      35.048  23.573  24.548  1.00  0.00     0.137 C 
ATOM     79  S   UNL A   1      34.082  22.198  25.077  1.00  0.00     0.150 S 
ATOM     80  O   UNL A   1      33.595  21.551  23.880  1.00  0.00    -0.229 OA
ATOM     81  O   UNL A   1      34.811  21.462  26.088  1.00  0.00    -0.229 OA
ENDBRANCH  74  75
BRANCH  74  82
ATOM     82  C   UNL A   1      31.561  24.963  23.791  1.00  0.00     0.032 C 
ATOM     83  C   UNL A   1      32.305  24.699  22.493  1.00  0.00     0.035 C 
ATOM     84  C   UNL A   1      30.427  25.798  23.238  1.00  0.00     0.164 C 
ATOM     85  C   UNL A   1      32.105  25.973  21.686  1.00  0.00     0.160 C 
ATOM     86  O   UNL A   1      31.039  26.700  22.319  1.00  0.00    -0.381 OA
ENDBRANCH  74  82
ENDBRANCH  72  74
ENDBRANCH  71  72
ENDBRANCH  70  71
ENDBRANCH   1  70
TORSDOF 13
ENDMDL
MODEL 3
REMARK VINA RESULT:     -11.3      0.946      1.679
REMARK SMILES O=C(OCCOC(=O)[C@H]([C@@H]1CCOC1)[C@@H]1CCS(=O)(=O)C1)c1ccc(-c2c3nc(c(-c4c(F)c(F)c(F)c(F)c4F)c4ccc([nH]4)c(-c4c(F)c(F)c(F)c(F)c4F)c4nc(c(-c5c(F)c(F)c(F)c(F)c5F)c5ccc2[nH]5)C=C4)C=C3)cc1
REMARK SMILES IDX 4 1 3 2 2 3 1 4 22 5 23 6 84 7 24 8 83 9 25 10 26 11 27 12
REMARK SMILES IDX 77 13 28 14 82 15 76 16 78 17 29 18 81 19 75 20 74 21 30 23
REMARK SMILES IDX 62 24 42 25 61 26 43 27 46 28 60 29 79 30 44 31 45 32 59 34
REMARK SMILES IDX 80 35 47 36 31 37 32 38 40 39 33 40 34 41 38 42 41 43 35 44
REMARK SMILES IDX 36 45 39 46 37 47 63 48 64 49 72 50 65 51 66 52 70 53 73 54
REMARK SMILES IDX 67 55 68 56 71 57 69 58 48 59 49 60 57 61 50 62 51 63 55 64
REMARK SMILES IDX 58 65 52 66 53 67 56 68 54 69 5 70 6 71 7 72 8 73 9 74 15 75
REMARK SMILES IDX 16 76 21 77 17 78 18 79 19 80 20 81 10 82 11 83 14 84 12 85
REMARK SMILES IDX 13 86
REMARK H PARENT 78 22 46 33
REMARK Flexibility Score: inf
ROOT
ATOM      1  C   UNL A   1      31.568  29.803  25.829  1.00  0.00     0.275 C 
ENDROOT
BRANCH   1   2
ATOM      2  O   UNL A   1      32.769  30.593  25.930  1.00  0.00    -0.458 OA
BRANCH   2   3
ATOM      3  C   UNL A   1      33.299  31.294  26.958  1.00  0.00     0.338 C 
ATOM      4  O   UNL A   1      32.677  32.280  27.355  1.00  0.00    -0.246 OA
BRANCH   3   5
ATOM      5  C   UNL A   1      34.656  31.060  27.572  1.00  0.00     0.060 A 
ATOM      6  C   UNL A   1      35.590  32.026  27.950  1.00  0.00     0.016 A 
ATOM      7  C   UNL A   1      34.987  29.714  27.843  1.00  0.00     0.016 A 
ATOM      8  C   UNL A   1      36.742  31.677  28.677  1.00  0.00     0.010 A 
ATOM      9  C   UNL A   1      36.158  29.356  28.528  1.00  0.00     0.010 A 
ATOM     10  C   UNL A   1      37.030  30.341  28.987  1.00  0.00    -0.014 A 
BRANCH  10  11
ATOM     11  C   UNL A   1      38.302  30.014  29.683  1.00  0.00     0.031 A 
ATOM     12  C   UNL A   1      38.400  30.300  31.139  1.00  0.00     0.074 A 
ATOM     13  C   UNL A   1      39.366  29.486  29.044  1.00  0.00     0.049 A 
ATOM     14  N   UNL A   1      39.343  29.970  31.975  1.00  0.00    -0.248 NA
ATOM     15  C   UNL A   1      37.337  31.141  31.713  1.00  0.00     0.031 C 
ATOM     16  C   UNL A   1      39.458  29.357  27.607  1.00  0.00     0.029 A 
ATOM     17  N   UNL A   1      40.531  28.897  29.484  1.00  0.00    -0.354 N 
ATOM     18  C   UNL A   1      39.058  30.660  33.136  1.00  0.00     0.074 A 
ATOM     19  C   UNL A   1      37.800  31.348  32.936  1.00  0.00     0.031 C 
ATOM     20  C   UNL A   1      40.490  28.572  27.276  1.00  0.00     0.029 A 
ATOM     21  C   UNL A   1      41.151  28.146  28.493  1.00  0.00     0.049 A 
ATOM     22  H   UNL A   1      40.883  28.996  30.398  1.00  0.00     0.167 HD
ATOM     23  C   UNL A   1      39.847  30.776  34.226  1.00  0.00     0.037 A 
ATOM     24  C   UNL A   1      42.074  27.166  28.596  1.00  0.00     0.037 A 
ATOM     25  C   UNL A   1      41.109  30.103  34.371  1.00  0.00     0.049 A 
ATOM     26  C   UNL A   1      42.762  27.060  29.930  1.00  0.00     0.074 A 
ATOM     27  C   UNL A   1      42.001  30.167  35.423  1.00  0.00     0.029 A 
ATOM     28  N   UNL A   1      41.661  29.249  33.423  1.00  0.00    -0.354 N 
ATOM     29  N   UNL A   1      42.452  27.641  31.063  1.00  0.00    -0.248 NA
ATOM     30  C   UNL A   1      43.990  26.254  29.981  1.00  0.00     0.031 C 
ATOM     31  C   UNL A   1      43.118  29.393  35.091  1.00  0.00     0.029 A 
ATOM     32  C   UNL A   1      42.896  28.798  33.860  1.00  0.00     0.049 A 
ATOM     33  H   UNL A   1      41.239  29.003  32.569  1.00  0.00     0.167 HD
ATOM     34  C   UNL A   1      43.486  27.345  31.931  1.00  0.00     0.074 A 
ATOM     35  C   UNL A   1      44.359  26.415  31.243  1.00  0.00     0.031 C 
ATOM     36  C   UNL A   1      43.745  27.877  33.148  1.00  0.00     0.037 A 
BRANCH  23  37
ATOM     37  C   UNL A   1      39.427  31.770  35.261  1.00  0.00     0.064 A 
ATOM     38  C   UNL A   1      38.581  31.433  36.324  1.00  0.00     0.173 A 
ATOM     39  C   UNL A   1      39.874  33.098  35.166  1.00  0.00     0.173 A 
ATOM     40  F   UNL A   1      38.093  30.188  36.431  1.00  0.00    -0.203 F 
ATOM     41  C   UNL A   1      38.185  32.394  37.250  1.00  0.00     0.198 A 
ATOM     42  C   UNL A   1      39.501  34.048  36.109  1.00  0.00     0.198 A 
ATOM     43  F   UNL A   1      40.666  33.474  34.150  1.00  0.00    -0.203 F 
ATOM     44  F   UNL A   1      37.331  32.066  38.228  1.00  0.00    -0.200 F 
ATOM     45  C   UNL A   1      38.653  33.697  37.148  1.00  0.00     0.200 A 
ATOM     46  F   UNL A   1      39.956  35.305  36.008  1.00  0.00    -0.200 F 
ATOM     47  F   UNL A   1      38.275  34.619  38.043  1.00  0.00    -0.200 F 
ENDBRANCH  23  37
BRANCH  24  48
ATOM     48  C   UNL A   1      42.401  26.200  27.494  1.00  0.00     0.064 A 
ATOM     49  C   UNL A   1      41.684  24.990  27.392  1.00  0.00     0.173 A 
ATOM     50  C   UNL A   1      43.434  26.389  26.565  1.00  0.00     0.173 A 
ATOM     51  F   UNL A   1      40.699  24.717  28.263  1.00  0.00    -0.203 F 
ATOM     52  C   UNL A   1      42.016  24.008  26.456  1.00  0.00     0.198 A 
ATOM     53  C   UNL A   1      43.723  25.436  25.584  1.00  0.00     0.198 A 
ATOM     54  F   UNL A   1      44.204  27.485  26.617  1.00  0.00    -0.203 F 
ATOM     55  F   UNL A   1      41.388  22.824  26.473  1.00  0.00    -0.200 F 
ATOM     56  C   UNL A   1      43.031  24.237  25.544  1.00  0.00     0.200 A 
ATOM     57  F   UNL A   1      44.700  25.668  24.696  1.00  0.00    -0.200 F 
ATOM     58  F   UNL A   1      43.365  23.292  24.653  1.00  0.00    -0.200 F 
ENDBRANCH  24  48
BRANCH  36  59
ATOM     59  C   UNL A   1      45.060  27.524  33.767  1.00  0.00     0.064 A 
ATOM     60  C   UNL A   1      45.183  26.395  34.594  1.00  0.00     0.173 A 
ATOM     61  C   UNL A   1      46.212  28.264  33.479  1.00  0.00     0.173 A 
ATOM     62  F   UNL A   1      44.102  25.663  34.907  1.00  0.00    -0.203 F 
ATOM     63  C   UNL A   1      46.414  26.030  35.124  1.00  0.00     0.198 A 
ATOM     64  C   UNL A   1      47.449  27.876  33.985  1.00  0.00     0.198 A 
ATOM     65  F   UNL A   1      46.143  29.344  32.688  1.00  0.00    -0.203 F 
ATOM     66  F   UNL A   1      46.503  24.972  35.941  1.00  0.00    -0.200 F 
ATOM     67  C   UNL A   1      47.549  26.764  34.809  1.00  0.00     0.200 A 
ATOM     68  F   UNL A   1      48.548  28.573  33.667  1.00  0.00    -0.200 F 
ATOM     69  F   UNL A   1      48.738  26.400  35.303  1.00  0.00    -0.200 F 
ENDBRANCH  36  59
ENDBRANCH  10  11
ENDBRANCH   3   5
ENDBRANCH   2   3
ENDBRANCH   1   2
BRANCH   1  70
ATOM     70  C   UNL A   1      31.661  28.494  26.610  1.00  0.00     0.274 C 
BRANCH  70  71
ATOM     71  O   UNL A   1      31.558  27.363  25.733  1.00  0.00    -0.462 OA
BRANCH  71  72
ATOM     72  C   UNL A   1      32.712  26.668  25.529  1.00  0.00     0.309 C 
ATOM     73  O   UNL A   1      33.738  26.808  26.176  1.00  0.00    -0.252 OA
BRANCH  72  74
ATOM     74  C   UNL A   1      32.565  25.723  24.339  1.00  0.00     0.109 C 
BRANCH  74  75
ATOM     75  C   UNL A   1      31.618  24.546  24.751  1.00  0.00     0.019 C 
ATOM     76  C   UNL A   1      31.721  24.088  26.236  1.00  0.00     0.021 C 
ATOM     77  C   UNL A   1      31.831  23.259  23.921  1.00  0.00     0.141 C 
ATOM     78  C   UNL A   1      32.857  23.093  26.353  1.00  0.00     0.137 C 
ATOM     79  S   UNL A   1      32.587  22.014  24.986  1.00  0.00     0.150 S 
ATOM     80  O   UNL A   1      33.892  21.607  24.518  1.00  0.00    -0.229 OA
ATOM     81  O   UNL A   1      31.575  21.042  25.338  1.00  0.00    -0.229 OA
ENDBRANCH  74  75
BRANCH  74  82
ATOM     82  C   UNL A   1      32.197  26.674  23.135  1.00  0.00     0.032 C 
ATOM     83  C   UNL A   1      31.513  26.003  21.955  1.00  0.00     0.035 C 
ATOM     84  C   UNL A   1      33.332  27.342  22.390  1.00  0.00     0.164 C 
ATOM     85  C   UNL A   1      32.660  25.624  21.030  1.00  0.00     0.160 C 
ATOM     86  O   UNL A   1      33.812  26.358  21.476  1.00  0.00    -0.381 OA
ENDBRANCH  74  82
ENDBRANCH  72  74
ENDBRANCH  71  72
ENDBRANCH  70  71
ENDBRANCH   1  70
TORSDOF 13
ENDMDL
