MODEL 1
REMARK VINA RESULT:     -11.4      0.000      0.000
REMARK SMILES CC[C@H]1CC(=O)N(CCn2cc(C(=O)OCCOC(=O)c3ccc(-c4c5nc(c(-c6c(F)c(F)c(F)c(F)c6F)c6ccc([nH]6)c(-c6c(F)c(F)c(F)c(F)c6F)c6nc(c(-c7c(F)c(F)c(F)c(F)c7F)c7ccc4[nH]7)C=C6)C=C5)cc3)nn2)C1
REMARK SMILES IDX 16 1 15 2 13 3 14 4 12 5 10 6 11 7 85 8 84 9 9 10 8 11 7 12
REMARK SMILES IDX 3 13 4 14 86 15 5 16 6 17 2 18 1 19 17 20 18 21 19 22 20 23
REMARK SMILES IDX 21 24 22 25 83 26 23 27 82 28 24 29 25 30 26 31 76 32 27 33
REMARK SMILES IDX 81 34 75 35 77 36 28 37 80 38 74 39 73 40 29 42 61 43 41 44
REMARK SMILES IDX 60 45 42 46 45 47 59 48 78 49 43 50 44 51 58 53 79 54 46 55
REMARK SMILES IDX 30 56 31 57 39 58 32 59 33 60 37 61 40 62 34 63 35 64 38 65
REMARK SMILES IDX 36 66 62 67 63 68 71 69 64 70 65 71 69 72 72 73 66 74 67 75
REMARK SMILES IDX 70 76 68 77 47 78 48 79 56 80 49 81 50 82 54 83 57 84 51 85
REMARK SMILES IDX 52 86 55 87 53 88
REMARK H PARENT 77 41 45 52
REMARK Flexibility Score: inf
ROOT
ATOM      1  C   UNL A   1      33.781  34.786  29.153  1.00  0.00     0.275 C 
ENDROOT
BRANCH   1   2
ATOM      2  O   UNL A   1      32.783  35.068  30.152  1.00  0.00    -0.457 OA
BRANCH   2   3
ATOM      3  C   UNL A   1      33.091  36.033  31.085  1.00  0.00     0.360 C 
ATOM      4  O   UNL A   1      32.805  37.215  30.963  1.00  0.00    -0.244 OA
BRANCH   3   5
ATOM      5  C   UNL A   1      33.848  35.482  32.201  1.00  0.00     0.190 A 
ATOM      6  N   UNL A   1      35.077  34.104  33.305  1.00  0.00    -0.250 N 
ATOM      7  C   UNL A   1      33.878  34.175  32.660  1.00  0.00     0.147 A 
ATOM      8  N   UNL A   1      35.520  35.343  33.597  1.00  0.00    -0.066 NA
ATOM      9  N   UNL A   1      34.786  36.200  32.898  1.00  0.00    -0.123 NA
BRANCH   6  10
ATOM     10  C   UNL A   1      35.965  32.971  33.487  1.00  0.00     0.167 C 
BRANCH  10  11
ATOM     11  C   UNL A   1      37.139  33.135  34.475  1.00  0.00     0.143 C 
BRANCH  11  12
ATOM     12  N   UNL A   1      38.445  33.437  33.882  1.00  0.00    -0.341 N 
ATOM     13  C   UNL A   1      40.407  33.187  32.583  1.00  0.00     0.017 C 
ATOM     14  C   UNL A   1      40.338  34.614  33.130  1.00  0.00     0.105 C 
ATOM     15  C   UNL A   1      38.996  32.672  32.803  1.00  0.00     0.123 C 
ATOM     16  C   UNL A   1      39.192  34.578  34.125  1.00  0.00     0.222 C 
ATOM     17  O   UNL A   1      38.938  35.444  34.945  1.00  0.00    -0.275 OA
BRANCH  13  18
ATOM     18  C   UNL A   1      40.775  33.012  31.102  1.00  0.00     0.002 C 
ATOM     19  C   UNL A   1      40.475  34.175  30.182  1.00  0.00     0.004 C 
ENDBRANCH  13  18
ENDBRANCH  11  12
ENDBRANCH  10  11
ENDBRANCH   6  10
ENDBRANCH   3   5
ENDBRANCH   2   3
ENDBRANCH   1   2
BRANCH   1  20
ATOM     20  C   UNL A   1      33.840  33.297  28.861  1.00  0.00     0.275 C 
BRANCH  20  21
ATOM     21  O   UNL A   1      35.112  32.946  28.326  1.00  0.00    -0.458 OA
BRANCH  21  22
ATOM     22  C   UNL A   1      35.187  31.691  27.835  1.00  0.00     0.338 C 
ATOM     23  O   UNL A   1      34.405  31.134  27.083  1.00  0.00    -0.246 OA
BRANCH  22  24
ATOM     24  C   UNL A   1      36.278  30.990  28.503  1.00  0.00     0.060 A 
ATOM     25  C   UNL A   1      37.281  31.766  29.091  1.00  0.00     0.016 A 
ATOM     26  C   UNL A   1      36.422  29.614  28.285  1.00  0.00     0.016 A 
ATOM     27  C   UNL A   1      38.503  31.180  29.328  1.00  0.00     0.010 A 
ATOM     28  C   UNL A   1      37.646  29.037  28.500  1.00  0.00     0.010 A 
ATOM     29  C   UNL A   1      38.684  29.842  28.963  1.00  0.00    -0.014 A 
BRANCH  29  30
ATOM     30  C   UNL A   1      39.981  29.242  29.173  1.00  0.00     0.031 A 
ATOM     31  C   UNL A   1      40.306  29.009  30.597  1.00  0.00     0.074 A 
ATOM     32  C   UNL A   1      40.731  28.801  28.149  1.00  0.00     0.049 A 
ATOM     33  N   UNL A   1      41.316  29.467  31.259  1.00  0.00    -0.248 NA
ATOM     34  C   UNL A   1      39.329  28.275  31.418  1.00  0.00     0.031 C 
ATOM     35  C   UNL A   1      40.371  28.718  26.732  1.00  0.00     0.029 A 
ATOM     36  N   UNL A   1      41.953  28.209  28.195  1.00  0.00    -0.354 N 
ATOM     37  C   UNL A   1      41.188  28.957  32.545  1.00  0.00     0.074 A 
ATOM     38  C   UNL A   1      39.884  28.356  32.626  1.00  0.00     0.031 C 
ATOM     39  C   UNL A   1      41.254  27.910  26.103  1.00  0.00     0.029 A 
ATOM     40  C   UNL A   1      42.287  27.512  27.046  1.00  0.00     0.049 A 
ATOM     41  H   UNL A   1      42.548  28.270  28.976  1.00  0.00     0.167 HD
ATOM     42  C   UNL A   1      42.260  28.878  33.377  1.00  0.00     0.037 A 
ATOM     43  C   UNL A   1      43.291  26.607  26.928  1.00  0.00     0.037 A 
ATOM     44  C   UNL A   1      43.320  29.750  32.948  1.00  0.00     0.049 A 
ATOM     45  C   UNL A   1      44.231  26.838  28.059  1.00  0.00     0.074 A 
ATOM     46  C   UNL A   1      43.423  31.115  32.756  1.00  0.00     0.029 A 
ATOM     47  N   UNL A   1      44.390  29.198  32.286  1.00  0.00    -0.354 N 
ATOM     48  N   UNL A   1      45.001  27.883  28.165  1.00  0.00    -0.248 NA
ATOM     49  C   UNL A   1      43.993  26.113  29.301  1.00  0.00     0.031 C 
ATOM     50  C   UNL A   1      44.252  31.267  31.607  1.00  0.00     0.029 A 
ATOM     51  C   UNL A   1      44.648  29.993  31.200  1.00  0.00     0.049 A 
ATOM     52  H   UNL A   1      44.880  28.384  32.544  1.00  0.00     0.167 HD
ATOM     53  C   UNL A   1      44.981  28.200  29.515  1.00  0.00     0.074 A 
ATOM     54  C   UNL A   1      44.436  27.019  30.178  1.00  0.00     0.031 C 
ATOM     55  C   UNL A   1      45.131  29.489  29.937  1.00  0.00     0.037 A 
BRANCH  42  56
ATOM     56  C   UNL A   1      42.477  27.760  34.360  1.00  0.00     0.064 A 
ATOM     57  C   UNL A   1      43.026  26.547  33.903  1.00  0.00     0.173 A 
ATOM     58  C   UNL A   1      41.891  27.722  35.645  1.00  0.00     0.173 A 
ATOM     59  F   UNL A   1      43.591  26.467  32.689  1.00  0.00    -0.203 F 
ATOM     60  C   UNL A   1      42.918  25.367  34.641  1.00  0.00     0.198 A 
ATOM     61  C   UNL A   1      41.837  26.555  36.402  1.00  0.00     0.198 A 
ATOM     62  F   UNL A   1      41.246  28.770  36.168  1.00  0.00    -0.203 F 
ATOM     63  F   UNL A   1      43.333  24.209  34.107  1.00  0.00    -0.200 F 
ATOM     64  C   UNL A   1      42.318  25.370  35.887  1.00  0.00     0.200 A 
ATOM     65  F   UNL A   1      41.234  26.575  37.600  1.00  0.00    -0.200 F 
ATOM     66  F   UNL A   1      42.153  24.229  36.567  1.00  0.00    -0.200 F 
ENDBRANCH  42  56
BRANCH  43  67
ATOM     67  C   UNL A   1      43.355  25.394  26.078  1.00  0.00     0.064 A 
ATOM     68  C   UNL A   1      44.474  25.147  25.264  1.00  0.00     0.173 A 
ATOM     69  C   UNL A   1      42.453  24.321  26.235  1.00  0.00     0.173 A 
ATOM     70  F   UNL A   1      45.403  26.097  25.088  1.00  0.00    -0.203 F 
ATOM     71  C   UNL A   1      44.695  23.898  24.675  1.00  0.00     0.198 A 
ATOM     72  C   UNL A   1      42.667  23.079  25.634  1.00  0.00     0.198 A 
ATOM     73  F   UNL A   1      41.395  24.418  27.049  1.00  0.00    -0.203 F 
ATOM     74  F   UNL A   1      45.812  23.682  23.967  1.00  0.00    -0.200 F 
ATOM     75  C   UNL A   1      43.797  22.862  24.870  1.00  0.00     0.200 A 
ATOM     76  F   UNL A   1      41.804  22.078  25.855  1.00  0.00    -0.200 F 
ATOM     77  F   UNL A   1      44.039  21.648  24.357  1.00  0.00    -0.200 F 
ENDBRANCH  43  67
BRANCH  55  78
ATOM     78  C   UNL A   1      45.592  30.508  28.935  1.00  0.00     0.064 A 
ATOM     79  C   UNL A   1      44.729  31.219  28.083  1.00  0.00     0.173 A 
ATOM     80  C   UNL A   1      46.942  30.883  28.944  1.00  0.00     0.173 A 
ATOM     81  F   UNL A   1      43.409  30.997  28.094  1.00  0.00    -0.203 F 
ATOM     82  C   UNL A   1      45.207  32.222  27.243  1.00  0.00     0.198 A 
ATOM     83  C   UNL A   1      47.411  31.914  28.134  1.00  0.00     0.198 A 
ATOM     84  F   UNL A   1      47.803  30.280  29.780  1.00  0.00    -0.203 F 
ATOM     85  F   UNL A   1      44.365  32.875  26.429  1.00  0.00    -0.200 F 
ATOM     86  C   UNL A   1      46.546  32.573  27.275  1.00  0.00     0.200 A 
ATOM     87  F   UNL A   1      48.696  32.287  28.207  1.00  0.00    -0.200 F 
ATOM     88  F   UNL A   1      46.998  33.569  26.500  1.00  0.00    -0.200 F 
ENDBRANCH  55  78
ENDBRANCH  29  30
ENDBRANCH  22  24
ENDBRANCH  21  22
ENDBRANCH  20  21
ENDBRANCH   1  20
TORSDOF 15
ENDMDL
MODEL 2
REMARK VINA RESULT:     -11.3      4.570     11.182
REMARK SMILES CC[C@H]1CC(=O)N(CCn2cc(C(=O)OCCOC(=O)c3ccc(-c4c5nc(c(-c6c(F)c(F)c(F)c(F)c6F)c6ccc([nH]6)c(-c6c(F)c(F)c(F)c(F)c6F)c6nc(c(-c7c(F)c(F)c(F)c(F)c7F)c7ccc4[nH]7)C=C6)C=C5)cc3)nn2)C1
REMARK SMILES IDX 16 1 15 2 13 3 14 4 12 5 10 6 11 7 85 8 84 9 9 10 8 11 7 12
REMARK SMILES IDX 3 13 4 14 86 15 5 16 6 17 2 18 1 19 17 20 18 21 19 22 20 23
REMARK SMILES IDX 21 24 22 25 83 26 23 27 82 28 24 29 25 30 26 31 76 32 27 33
REMARK SMILES IDX 81 34 75 35 77 36 28 37 80 38 74 39 73 40 29 42 61 43 41 44
REMARK SMILES IDX 60 45 42 46 45 47 59 48 78 49 43 50 44 51 58 53 79 54 46 55
REMARK SMILES IDX 30 56 31 57 39 58 32 59 33 60 37 61 40 62 34 63 35 64 38 65
REMARK SMILES IDX 36 66 62 67 63 68 71 69 64 70 65 71 69 72 72 73 66 74 67 75
REMARK SMILES IDX 70 76 68 77 47 78 48 79 56 80 49 81 50 82 54 83 57 84 51 85
REMARK SMILES IDX 52 86 55 87 53 88
REMARK H PARENT 77 41 45 52
REMARK Flexibility Score: inf
ROOT
ATOM      1  C   UNL A   1      42.031  19.077  26.304  1.00  0.00     0.275 C 
ENDROOT
BRANCH   1   2
ATOM      2  O   UNL A   1      42.738  19.267  25.064  1.00  0.00    -0.457 OA
BRANCH   2   3
ATOM      3  C   UNL A   1      44.110  19.171  25.108  1.00  0.00     0.360 C 
ATOM      4  O   UNL A   1      44.718  18.112  25.171  1.00  0.00    -0.244 OA
BRANCH   3   5
ATOM      5  C   UNL A   1      44.744  20.483  25.130  1.00  0.00     0.190 A 
ATOM      6  N   UNL A   1      45.169  22.494  25.764  1.00  0.00    -0.250 N 
ATOM      7  C   UNL A   1      44.148  21.723  25.291  1.00  0.00     0.147 A 
ATOM      8  N   UNL A   1      46.354  21.911  25.494  1.00  0.00    -0.066 NA
ATOM      9  N   UNL A   1      46.104  20.659  25.128  1.00  0.00    -0.123 NA
BRANCH   6  10
ATOM     10  C   UNL A   1      45.128  23.641  26.651  1.00  0.00     0.167 C 
BRANCH  10  11
ATOM     11  C   UNL A   1      45.105  25.044  26.006  1.00  0.00     0.143 C 
BRANCH  11  12
ATOM     12  N   UNL A   1      46.267  25.897  26.272  1.00  0.00    -0.341 N 
ATOM     13  C   UNL A   1      48.034  26.941  27.450  1.00  0.00     0.017 C 
ATOM     14  C   UNL A   1      48.183  27.223  25.955  1.00  0.00     0.105 C 
ATOM     15  C   UNL A   1      47.031  25.800  27.481  1.00  0.00     0.123 C 
ATOM     16  C   UNL A   1      46.886  26.721  25.348  1.00  0.00     0.222 C 
ATOM     17  O   UNL A   1      46.498  26.951  24.215  1.00  0.00    -0.275 OA
BRANCH  13  18
ATOM     18  C   UNL A   1      49.292  26.516  28.222  1.00  0.00     0.002 C 
ATOM     19  C   UNL A   1      49.989  25.257  27.752  1.00  0.00     0.004 C 
ENDBRANCH  13  18
ENDBRANCH  11  12
ENDBRANCH  10  11
ENDBRANCH   6  10
ENDBRANCH   3   5
ENDBRANCH   2   3
ENDBRANCH   1   2
BRANCH   1  20
ATOM     20  C   UNL A   1      40.739  19.875  26.312  1.00  0.00     0.275 C 
BRANCH  20  21
ATOM     21  O   UNL A   1      40.937  21.134  26.946  1.00  0.00    -0.458 OA
BRANCH  21  22
ATOM     22  C   UNL A   1      39.971  22.044  26.699  1.00  0.00     0.338 C 
ATOM     23  O   UNL A   1      38.862  21.849  26.232  1.00  0.00    -0.246 OA
BRANCH  22  24
ATOM     24  C   UNL A   1      40.523  23.380  26.897  1.00  0.00     0.060 A 
ATOM     25  C   UNL A   1      41.666  23.496  27.694  1.00  0.00     0.016 A 
ATOM     26  C   UNL A   1      39.746  24.486  26.531  1.00  0.00     0.016 A 
ATOM     27  C   UNL A   1      41.947  24.721  28.253  1.00  0.00     0.010 A 
ATOM     28  C   UNL A   1      40.013  25.700  27.107  1.00  0.00     0.010 A 
ATOM     29  C   UNL A   1      41.075  25.786  28.005  1.00  0.00    -0.014 A 
BRANCH  29  30
ATOM     30  C   UNL A   1      41.351  27.059  28.629  1.00  0.00     0.031 A 
ATOM     31  C   UNL A   1      42.549  27.739  28.091  1.00  0.00     0.074 A 
ATOM     32  C   UNL A   1      40.493  27.621  29.497  1.00  0.00     0.049 A 
ATOM     33  N   UNL A   1      43.598  28.115  28.743  1.00  0.00    -0.248 NA
ATOM     34  C   UNL A   1      42.648  27.918  26.633  1.00  0.00     0.031 C 
ATOM     35  C   UNL A   1      39.150  27.169  29.866  1.00  0.00     0.029 A 
ATOM     36  N   UNL A   1      40.610  28.809  30.145  1.00  0.00    -0.354 N 
ATOM     37  C   UNL A   1      44.430  28.717  27.806  1.00  0.00     0.074 A 
ATOM     38  C   UNL A   1      43.867  28.440  26.512  1.00  0.00     0.031 C 
ATOM     39  C   UNL A   1      38.502  28.182  30.485  1.00  0.00     0.029 A 
ATOM     40  C   UNL A   1      39.416  29.301  30.646  1.00  0.00     0.049 A 
ATOM     41  H   UNL A   1      41.469  29.278  30.250  1.00  0.00     0.167 HD
ATOM     42  C   UNL A   1      45.402  29.585  28.189  1.00  0.00     0.037 A 
ATOM     43  C   UNL A   1      39.195  30.571  31.070  1.00  0.00     0.037 A 
ATOM     44  C   UNL A   1      45.722  29.432  29.582  1.00  0.00     0.049 A 
ATOM     45  C   UNL A   1      40.523  31.184  31.344  1.00  0.00     0.074 A 
ATOM     46  C   UNL A   1      46.195  28.384  30.350  1.00  0.00     0.029 A 
ATOM     47  N   UNL A   1      45.214  30.346  30.472  1.00  0.00    -0.354 N 
ATOM     48  N   UNL A   1      41.293  30.841  32.337  1.00  0.00    -0.248 NA
ATOM     49  C   UNL A   1      41.191  31.880  30.251  1.00  0.00     0.031 C 
ATOM     50  C   UNL A   1      45.518  28.502  31.598  1.00  0.00     0.029 A 
ATOM     51  C   UNL A   1      44.715  29.641  31.537  1.00  0.00     0.049 A 
ATOM     52  H   UNL A   1      45.208  31.325  30.365  1.00  0.00     0.167 HD
ATOM     53  C   UNL A   1      42.578  30.874  31.813  1.00  0.00     0.074 A 
ATOM     54  C   UNL A   1      42.463  31.621  30.564  1.00  0.00     0.031 C 
ATOM     55  C   UNL A   1      43.552  30.045  32.289  1.00  0.00     0.037 A 
BRANCH  42  56
ATOM     56  C   UNL A   1      45.802  30.799  27.393  1.00  0.00     0.064 A 
ATOM     57  C   UNL A   1      47.169  31.048  27.172  1.00  0.00     0.173 A 
ATOM     58  C   UNL A   1      44.930  31.873  27.111  1.00  0.00     0.173 A 
ATOM     59  F   UNL A   1      48.087  30.103  27.426  1.00  0.00    -0.203 F 
ATOM     60  C   UNL A   1      47.633  32.306  26.783  1.00  0.00     0.198 A 
ATOM     61  C   UNL A   1      45.392  33.109  26.667  1.00  0.00     0.198 A 
ATOM     62  F   UNL A   1      43.617  31.814  27.365  1.00  0.00    -0.203 F 
ATOM     63  F   UNL A   1      48.952  32.537  26.717  1.00  0.00    -0.200 F 
ATOM     64  C   UNL A   1      46.745  33.337  26.536  1.00  0.00     0.200 A 
ATOM     65  F   UNL A   1      44.516  34.101  26.452  1.00  0.00    -0.200 F 
ATOM     66  F   UNL A   1      47.190  34.562  26.228  1.00  0.00    -0.200 F 
ENDBRANCH  42  56
BRANCH  43  67
ATOM     67  C   UNL A   1      37.949  31.372  30.995  1.00  0.00     0.064 A 
ATOM     68  C   UNL A   1      37.375  31.690  29.752  1.00  0.00     0.173 A 
ATOM     69  C   UNL A   1      37.150  31.621  32.129  1.00  0.00     0.173 A 
ATOM     70  F   UNL A   1      38.048  31.453  28.617  1.00  0.00    -0.203 F 
ATOM     71  C   UNL A   1      36.073  32.191  29.649  1.00  0.00     0.198 A 
ATOM     72  C   UNL A   1      35.856  32.135  32.026  1.00  0.00     0.198 A 
ATOM     73  F   UNL A   1      37.564  31.284  33.357  1.00  0.00    -0.203 F 
ATOM     74  F   UNL A   1      35.537  32.412  28.441  1.00  0.00    -0.200 F 
ATOM     75  C   UNL A   1      35.311  32.402  30.786  1.00  0.00     0.200 A 
ATOM     76  F   UNL A   1      35.121  32.307  33.134  1.00  0.00    -0.200 F 
ATOM     77  F   UNL A   1      34.043  32.823  30.684  1.00  0.00    -0.200 F 
ENDBRANCH  43  67
BRANCH  55  78
ATOM     78  C   UNL A   1      43.281  29.302  33.566  1.00  0.00     0.064 A 
ATOM     79  C   UNL A   1      42.602  28.073  33.631  1.00  0.00     0.173 A 
ATOM     80  C   UNL A   1      43.862  29.781  34.747  1.00  0.00     0.173 A 
ATOM     81  F   UNL A   1      42.114  27.493  32.528  1.00  0.00    -0.203 F 
ATOM     82  C   UNL A   1      42.469  27.385  34.835  1.00  0.00     0.198 A 
ATOM     83  C   UNL A   1      43.763  29.072  35.941  1.00  0.00     0.198 A 
ATOM     84  F   UNL A   1      44.574  30.920  34.735  1.00  0.00    -0.203 F 
ATOM     85  F   UNL A   1      41.803  26.221  34.873  1.00  0.00    -0.200 F 
ATOM     86  C   UNL A   1      43.056  27.881  35.987  1.00  0.00     0.200 A 
ATOM     87  F   UNL A   1      44.377  29.528  37.041  1.00  0.00    -0.200 F 
ATOM     88  F   UNL A   1      42.965  27.196  37.136  1.00  0.00    -0.200 F 
ENDBRANCH  55  78
ENDBRANCH  29  30
ENDBRANCH  22  24
ENDBRANCH  21  22
ENDBRANCH  20  21
ENDBRANCH   1  20
TORSDOF 15
ENDMDL
MODEL 3
REMARK VINA RESULT:     -11.3      4.569     11.540
REMARK SMILES CC[C@H]1CC(=O)N(CCn2cc(C(=O)OCCOC(=O)c3ccc(-c4c5nc(c(-c6c(F)c(F)c(F)c(F)c6F)c6ccc([nH]6)c(-c6c(F)c(F)c(F)c(F)c6F)c6nc(c(-c7c(F)c(F)c(F)c(F)c7F)c7ccc4[nH]7)C=C6)C=C5)cc3)nn2)C1
REMARK SMILES IDX 16 1 15 2 13 3 14 4 12 5 10 6 11 7 85 8 84 9 9 10 8 11 7 12
REMARK SMILES IDX 3 13 4 14 86 15 5 16 6 17 2 18 1 19 17 20 18 21 19 22 20 23
REMARK SMILES IDX 21 24 22 25 83 26 23 27 82 28 24 29 25 30 26 31 76 32 27 33
REMARK SMILES IDX 81 34 75 35 77 36 28 37 80 38 74 39 73 40 29 42 61 43 41 44
REMARK SMILES IDX 60 45 42 46 45 47 59 48 78 49 43 50 44 51 58 53 79 54 46 55
REMARK SMILES IDX 30 56 31 57 39 58 32 59 33 60 37 61 40 62 34 63 35 64 38 65
REMARK SMILES IDX 36 66 62 67 63 68 71 69 64 70 65 71 69 72 72 73 66 74 67 75
REMARK SMILES IDX 70 76 68 77 47 78 48 79 56 80 49 81 50 82 54 83 57 84 51 85
REMARK SMILES IDX 52 86 55 87 53 88
REMARK H PARENT 77 41 45 52
REMARK Flexibility Score: inf
ROOT
ATOM      1  C   UNL A   1      41.269  19.477  27.290  1.00  0.00     0.275 C 
ENDROOT
BRANCH   1   2
ATOM      2  O   UNL A   1      42.673  19.321  27.015  1.00  0.00    -0.457 OA
BRANCH   2   3
ATOM      3  C   UNL A   1      43.017  18.464  25.994  1.00  0.00     0.360 C 
ATOM      4  O   UNL A   1      42.446  17.407  25.769  1.00  0.00    -0.244 OA
BRANCH   3   5
ATOM      5  C   UNL A   1      44.179  18.943  25.256  1.00  0.00     0.190 A 
ATOM      6  N   UNL A   1      45.622  20.330  24.467  1.00  0.00    -0.250 N 
ATOM      7  C   UNL A   1      44.284  20.067  24.451  1.00  0.00     0.147 A 
ATOM      8  N   UNL A   1      46.305  19.236  24.861  1.00  0.00    -0.066 NA
ATOM      9  N   UNL A   1      45.426  18.385  25.375  1.00  0.00    -0.123 NA
BRANCH   6  10
ATOM     10  C   UNL A   1      46.318  21.597  24.352  1.00  0.00     0.167 C 
BRANCH  10  11
ATOM     11  C   UNL A   1      45.461  22.878  24.266  1.00  0.00     0.143 C 
BRANCH  11  12
ATOM     12  N   UNL A   1      45.420  23.711  25.472  1.00  0.00    -0.341 N 
ATOM     13  C   UNL A   1      45.975  24.545  27.616  1.00  0.00     0.017 C 
ATOM     14  C   UNL A   1      44.994  25.501  26.937  1.00  0.00     0.105 C 
ATOM     15  C   UNL A   1      46.453  23.677  26.465  1.00  0.00     0.123 C 
ATOM     16  C   UNL A   1      44.534  24.750  25.701  1.00  0.00     0.222 C 
ATOM     17  O   UNL A   1      43.588  25.057  24.996  1.00  0.00    -0.275 OA
BRANCH  13  18
ATOM     18  C   UNL A   1      47.197  25.159  28.315  1.00  0.00     0.002 C 
ATOM     19  C   UNL A   1      47.289  26.670  28.326  1.00  0.00     0.004 C 
ENDBRANCH  13  18
ENDBRANCH  11  12
ENDBRANCH  10  11
ENDBRANCH   6  10
ENDBRANCH   3   5
ENDBRANCH   2   3
ENDBRANCH   1   2
BRANCH   1  20
ATOM     20  C   UNL A   1      40.544  20.038  26.079  1.00  0.00     0.275 C 
BRANCH  20  21
ATOM     21  O   UNL A   1      40.121  21.373  26.328  1.00  0.00    -0.458 OA
BRANCH  21  22
ATOM     22  C   UNL A   1      41.059  22.314  26.085  1.00  0.00     0.338 C 
ATOM     23  O   UNL A   1      42.042  22.222  25.371  1.00  0.00    -0.246 OA
BRANCH  22  24
ATOM     24  C   UNL A   1      40.832  23.445  26.979  1.00  0.00     0.060 A 
ATOM     25  C   UNL A   1      39.961  24.448  26.545  1.00  0.00     0.016 A 
ATOM     26  C   UNL A   1      41.691  23.615  28.072  1.00  0.00     0.016 A 
ATOM     27  C   UNL A   1      40.060  25.691  27.126  1.00  0.00     0.010 A 
ATOM     28  C   UNL A   1      41.805  24.859  28.634  1.00  0.00     0.010 A 
ATOM     29  C   UNL A   1      41.030  25.893  28.113  1.00  0.00    -0.014 A 
BRANCH  29  30
ATOM     30  C   UNL A   1      41.159  27.211  28.690  1.00  0.00     0.031 A 
ATOM     31  C   UNL A   1      42.300  27.985  28.156  1.00  0.00     0.074 A 
ATOM     32  C   UNL A   1      40.224  27.719  29.510  1.00  0.00     0.049 A 
ATOM     33  N   UNL A   1      43.286  28.490  28.819  1.00  0.00    -0.248 NA
ATOM     34  C   UNL A   1      42.425  28.116  26.695  1.00  0.00     0.031 C 
ATOM     35  C   UNL A   1      38.921  27.150  29.862  1.00  0.00     0.029 A 
ATOM     36  N   UNL A   1      40.203  28.936  30.111  1.00  0.00    -0.354 N 
ATOM     37  C   UNL A   1      44.083  29.135  27.879  1.00  0.00     0.074 A 
ATOM     38  C   UNL A   1      43.589  28.753  26.584  1.00  0.00     0.031 C 
ATOM     39  C   UNL A   1      38.157  28.115  30.421  1.00  0.00     0.029 A 
ATOM     40  C   UNL A   1      38.951  29.326  30.558  1.00  0.00     0.049 A 
ATOM     41  H   UNL A   1      41.007  29.493  30.218  1.00  0.00     0.167 HD
ATOM     42  C   UNL A   1      44.952  30.111  28.250  1.00  0.00     0.037 A 
ATOM     43  C   UNL A   1      38.592  30.583  30.922  1.00  0.00     0.037 A 
ATOM     44  C   UNL A   1      45.243  30.045  29.657  1.00  0.00     0.049 A 
ATOM     45  C   UNL A   1      39.844  31.337  31.205  1.00  0.00     0.074 A 
ATOM     46  C   UNL A   1      45.794  29.081  30.481  1.00  0.00     0.029 A 
ATOM     47  N   UNL A   1      44.619  30.939  30.494  1.00  0.00    -0.354 N 
ATOM     48  N   UNL A   1      40.614  31.112  32.232  1.00  0.00    -0.248 NA
ATOM     49  C   UNL A   1      40.473  32.052  30.102  1.00  0.00     0.031 C 
ATOM     50  C   UNL A   1      45.070  29.180  31.704  1.00  0.00     0.029 A 
ATOM     51  C   UNL A   1      44.161  30.230  31.574  1.00  0.00     0.049 A 
ATOM     52  H   UNL A   1      44.520  31.907  30.345  1.00  0.00     0.167 HD
ATOM     53  C   UNL A   1      41.904  31.252  31.741  1.00  0.00     0.074 A 
ATOM     54  C   UNL A   1      41.755  31.934  30.459  1.00  0.00     0.031 C 
ATOM     55  C   UNL A   1      42.941  30.545  32.277  1.00  0.00     0.037 A 
BRANCH  42  56
ATOM     56  C   UNL A   1      45.254  31.326  27.415  1.00  0.00     0.064 A 
ATOM     57  C   UNL A   1      46.570  31.530  26.960  1.00  0.00     0.173 A 
ATOM     58  C   UNL A   1      44.390  32.437  27.308  1.00  0.00     0.173 A 
ATOM     59  F   UNL A   1      47.479  30.546  27.032  1.00  0.00    -0.203 F 
ATOM     60  C   UNL A   1      47.008  32.778  26.513  1.00  0.00     0.198 A 
ATOM     61  C   UNL A   1      44.815  33.665  26.808  1.00  0.00     0.198 A 
ATOM     62  F   UNL A   1      43.141  32.422  27.790  1.00  0.00    -0.203 F 
ATOM     63  F   UNL A   1      48.303  32.961  26.219  1.00  0.00    -0.200 F 
ATOM     64  C   UNL A   1      46.132  33.846  26.443  1.00  0.00     0.200 A 
ATOM     65  F   UNL A   1      43.956  34.693  26.767  1.00  0.00    -0.200 F 
ATOM     66  F   UNL A   1      46.565  35.060  26.079  1.00  0.00    -0.200 F 
ENDBRANCH  42  56
BRANCH  43  67
ATOM     67  C   UNL A   1      37.277  31.252  30.781  1.00  0.00     0.064 A 
ATOM     68  C   UNL A   1      36.490  31.533  31.912  1.00  0.00     0.173 A 
ATOM     69  C   UNL A   1      36.875  31.868  29.578  1.00  0.00     0.173 A 
ATOM     70  F   UNL A   1      36.819  31.021  33.106  1.00  0.00    -0.203 F 
ATOM     71  C   UNL A   1      35.395  32.401  31.850  1.00  0.00     0.198 A 
ATOM     72  C   UNL A   1      35.773  32.722  29.514  1.00  0.00     0.198 A 
ATOM     73  F   UNL A   1      37.595  31.734  28.456  1.00  0.00    -0.203 F 
ATOM     74  F   UNL A   1      34.716  32.700  32.966  1.00  0.00    -0.200 F 
ATOM     75  C   UNL A   1      35.044  33.003  30.653  1.00  0.00     0.200 A 
ATOM     76  F   UNL A   1      35.464  33.319  28.354  1.00  0.00    -0.200 F 
ATOM     77  F   UNL A   1      34.034  33.882  30.606  1.00  0.00    -0.200 F 
ENDBRANCH  43  67
BRANCH  55  78
ATOM     78  C   UNL A   1      42.706  29.830  33.576  1.00  0.00     0.064 A 
ATOM     79  C   UNL A   1      42.801  30.441  34.839  1.00  0.00     0.173 A 
ATOM     80  C   UNL A   1      42.223  28.515  33.532  1.00  0.00     0.173 A 
ATOM     81  F   UNL A   1      43.149  31.728  34.959  1.00  0.00    -0.203 F 
ATOM     82  C   UNL A   1      42.475  29.750  36.003  1.00  0.00     0.198 A 
ATOM     83  C   UNL A   1      41.858  27.840  34.693  1.00  0.00     0.198 A 
ATOM     84  F   UNL A   1      42.054  27.899  32.351  1.00  0.00    -0.203 F 
ATOM     85  F   UNL A   1      42.589  30.351  37.196  1.00  0.00    -0.200 F 
ATOM     86  C   UNL A   1      41.997  28.452  35.928  1.00  0.00     0.200 A 
ATOM     87  F   UNL A   1      41.347  26.604  34.613  1.00  0.00    -0.200 F 
ATOM     88  F   UNL A   1      41.642  27.802  37.046  1.00  0.00    -0.200 F 
ENDBRANCH  55  78
ENDBRANCH  29  30
ENDBRANCH  22  24
ENDBRANCH  21  22
ENDBRANCH  20  21
ENDBRANCH   1  20
TORSDOF 15
ENDMDL
