MODEL 1
REMARK VINA RESULT:     -12.2      0.000      0.000
REMARK SMILES CC(C)CSc1cc2c(cc1Cl)C=C(C(=O)OCCOC(=O)c1ccc(-c3c4nc(c(-c5c(F)c(F)c(F)c(F)c5F)c5ccc([nH]5)c(-c5c(F)c(F)c(F)c(F)c5F)c5nc(c(-c6c(F)c(F)c(F)c(F)c6F)c6ccc3[nH]6)C=C5)C=C4)cc1)[C@@H](C(F)(F)F)O2
REMARK SMILES IDX 18 1 17 2 15 3 16 4 14 5 6 6 7 7 11 8 8 9 10 10 12 11 9 12
REMARK SMILES IDX 91 13 13 14 86 15 5 16 4 17 2 18 1 19 3 20 87 21 88 22 89 23
REMARK SMILES IDX 90 24 19 25 20 26 21 27 22 28 23 29 24 30 85 31 25 32 84 33
REMARK SMILES IDX 26 34 27 35 28 36 78 37 29 38 83 39 77 40 79 41 30 42 82 43
REMARK SMILES IDX 76 44 75 45 31 47 63 48 43 49 62 50 44 51 47 52 61 53 80 54
REMARK SMILES IDX 45 55 46 56 60 58 81 59 48 60 32 61 33 62 41 63 34 64 35 65
REMARK SMILES IDX 39 66 42 67 36 68 37 69 40 70 38 71 64 72 65 73 73 74 66 75
REMARK SMILES IDX 67 76 71 77 74 78 68 79 69 80 72 81 70 82 49 83 50 84 58 85
REMARK SMILES IDX 51 86 52 87 56 88 59 89 53 90 54 91 57 92 55 93
REMARK H PARENT 79 46 47 57
REMARK Flexibility Score: inf
ROOT
ATOM      1  C   UNL A   1      31.601  29.054  24.667  1.00  0.00     0.275 C 
ENDROOT
BRANCH   1   2
ATOM      2  O   UNL A   1      32.357  27.870  25.008  1.00  0.00    -0.459 OA
BRANCH   2   3
ATOM      3  C   UNL A   1      32.919  27.214  23.965  1.00  0.00     0.338 C 
ATOM      4  O   UNL A   1      33.317  27.704  22.923  1.00  0.00    -0.246 OA
BRANCH   3   5
ATOM      5  C   UNL A   1      33.050  25.778  24.275  1.00  0.00     0.087 C 
ATOM      6  C   UNL A   1      34.815  21.081  24.666  1.00  0.00     0.030 A 
ATOM      7  C   UNL A   1      33.526  21.654  24.669  1.00  0.00     0.063 A 
ATOM      8  C   UNL A   1      35.927  21.937  24.698  1.00  0.00     0.055 A 
ATOM      9  C   UNL A   1      33.348  23.036  24.599  1.00  0.00     0.129 A 
ATOM     10  C   UNL A   1      35.748  23.317  24.598  1.00  0.00     0.033 A 
ATOM     11  Cl  UNL A   1      37.554  21.391  24.907  1.00  0.00    -0.083 Cl
ATOM     12  C   UNL A   1      34.463  23.859  24.520  1.00  0.00     0.019 A 
ATOM     13  O   UNL A   1      32.064  23.501  24.597  1.00  0.00    -0.475 OA
ATOM     14  C   UNL A   1      34.289  25.279  24.323  1.00  0.00     0.027 C 
ATOM     15  C   UNL A   1      31.818  24.929  24.416  1.00  0.00     0.316 C 
BRANCH   6  16
ATOM     16  S   UNL A   1      34.870  19.292  24.626  1.00  0.00    -0.124 SA
BRANCH  16  17
ATOM     17  C   UNL A   1      33.105  18.808  24.453  1.00  0.00     0.078 C 
BRANCH  17  18
ATOM     18  C   UNL A   1      32.776  17.709  23.425  1.00  0.00    -0.007 C 
ATOM     19  C   UNL A   1      32.319  18.245  22.067  1.00  0.00     0.008 C 
ATOM     20  C   UNL A   1      34.028  16.847  23.210  1.00  0.00     0.008 C 
ENDBRANCH  17  18
ENDBRANCH  16  17
ENDBRANCH   6  16
BRANCH  15  21
ATOM     21  C   UNL A   1      30.870  25.098  23.217  1.00  0.00     0.430 C 
ATOM     22  F   UNL A   1      31.557  25.166  22.052  1.00  0.00    -0.167 F 
ATOM     23  F   UNL A   1      30.016  24.053  23.101  1.00  0.00    -0.167 F 
ATOM     24  F   UNL A   1      30.124  26.222  23.317  1.00  0.00    -0.167 F 
ENDBRANCH  15  21
ENDBRANCH   3   5
ENDBRANCH   2   3
ENDBRANCH   1   2
BRANCH   1  25
ATOM     25  C   UNL A   1      31.743  30.134  25.741  1.00  0.00     0.275 C 
BRANCH  25  26
ATOM     26  O   UNL A   1      33.133  30.392  26.018  1.00  0.00    -0.458 OA
BRANCH  26  27
ATOM     27  C   UNL A   1      33.376  31.292  26.993  1.00  0.00     0.338 C 
ATOM     28  O   UNL A   1      32.645  32.190  27.386  1.00  0.00    -0.246 OA
BRANCH  27  29
ATOM     29  C   UNL A   1      34.665  30.985  27.622  1.00  0.00     0.060 A 
ATOM     30  C   UNL A   1      35.545  31.992  28.002  1.00  0.00     0.016 A 
ATOM     31  C   UNL A   1      34.937  29.660  27.945  1.00  0.00     0.016 A 
ATOM     32  C   UNL A   1      36.718  31.646  28.685  1.00  0.00     0.010 A 
ATOM     33  C   UNL A   1      36.017  29.338  28.755  1.00  0.00     0.010 A 
ATOM     34  C   UNL A   1      36.956  30.318  29.093  1.00  0.00    -0.014 A 
BRANCH  34  35
ATOM     35  C   UNL A   1      38.197  29.924  29.818  1.00  0.00     0.031 A 
ATOM     36  C   UNL A   1      38.442  30.407  31.230  1.00  0.00     0.074 A 
ATOM     37  C   UNL A   1      39.127  29.169  29.201  1.00  0.00     0.049 A 
ATOM     38  N   UNL A   1      39.477  30.208  32.007  1.00  0.00    -0.248 NA
ATOM     39  C   UNL A   1      37.407  31.263  31.835  1.00  0.00     0.031 C 
ATOM     40  C   UNL A   1      39.059  28.706  27.815  1.00  0.00     0.029 A 
ATOM     41  N   UNL A   1      40.309  28.647  29.667  1.00  0.00    -0.354 N 
ATOM     42  C   UNL A   1      39.229  30.938  33.165  1.00  0.00     0.074 A 
ATOM     43  C   UNL A   1      37.986  31.643  32.964  1.00  0.00     0.031 C 
ATOM     44  C   UNL A   1      40.111  27.912  27.564  1.00  0.00     0.029 A 
ATOM     45  C   UNL A   1      40.950  27.841  28.757  1.00  0.00     0.049 A 
ATOM     46  H   UNL A   1      40.663  28.832  30.566  1.00  0.00     0.167 HD
ATOM     47  C   UNL A   1      39.948  30.983  34.313  1.00  0.00     0.037 A 
ATOM     48  C   UNL A   1      42.077  27.115  28.876  1.00  0.00     0.037 A 
ATOM     49  C   UNL A   1      41.145  30.223  34.542  1.00  0.00     0.049 A 
ATOM     50  C   UNL A   1      42.826  27.132  30.180  1.00  0.00     0.074 A 
ATOM     51  C   UNL A   1      41.908  30.140  35.695  1.00  0.00     0.029 A 
ATOM     52  N   UNL A   1      41.745  29.398  33.603  1.00  0.00    -0.354 N 
ATOM     53  N   UNL A   1      42.551  27.783  31.284  1.00  0.00    -0.248 NA
ATOM     54  C   UNL A   1      44.041  26.308  30.257  1.00  0.00     0.031 C 
ATOM     55  C   UNL A   1      42.983  29.282  35.444  1.00  0.00     0.029 A 
ATOM     56  C   UNL A   1      42.870  28.802  34.149  1.00  0.00     0.049 A 
ATOM     57  H   UNL A   1      41.419  29.255  32.685  1.00  0.00     0.167 HD
ATOM     58  C   UNL A   1      43.545  27.440  32.189  1.00  0.00     0.074 A 
ATOM     59  C   UNL A   1      44.419  26.502  31.513  1.00  0.00     0.031 C 
ATOM     60  C   UNL A   1      43.723  27.869  33.461  1.00  0.00     0.037 A 
BRANCH  47  61
ATOM     61  C   UNL A   1      39.432  31.850  35.426  1.00  0.00     0.064 A 
ATOM     62  C   UNL A   1      38.553  31.348  36.398  1.00  0.00     0.173 A 
ATOM     63  C   UNL A   1      39.858  33.181  35.554  1.00  0.00     0.173 A 
ATOM     64  F   UNL A   1      38.107  30.086  36.318  1.00  0.00    -0.203 F 
ATOM     65  C   UNL A   1      38.097  32.153  37.440  1.00  0.00     0.198 A 
ATOM     66  C   UNL A   1      39.424  33.974  36.615  1.00  0.00     0.198 A 
ATOM     67  F   UNL A   1      40.704  33.710  34.658  1.00  0.00    -0.203 F 
ATOM     68  F   UNL A   1      37.220  31.664  38.327  1.00  0.00    -0.200 F 
ATOM     69  C   UNL A   1      38.539  33.462  37.551  1.00  0.00     0.200 A 
ATOM     70  F   UNL A   1      39.864  35.235  36.730  1.00  0.00    -0.200 F 
ATOM     71  F   UNL A   1      38.108  34.232  38.561  1.00  0.00    -0.200 F 
ENDBRANCH  47  61
BRANCH  48  72
ATOM     72  C   UNL A   1      42.523  26.257  27.748  1.00  0.00     0.064 A 
ATOM     73  C   UNL A   1      43.508  26.707  26.856  1.00  0.00     0.173 A 
ATOM     74  C   UNL A   1      42.006  24.968  27.553  1.00  0.00     0.173 A 
ATOM     75  F   UNL A   1      44.018  27.940  26.990  1.00  0.00    -0.203 F 
ATOM     76  C   UNL A   1      43.953  25.904  25.809  1.00  0.00     0.198 A 
ATOM     77  C   UNL A   1      42.471  24.156  26.521  1.00  0.00     0.198 A 
ATOM     78  F   UNL A   1      41.068  24.490  28.382  1.00  0.00    -0.203 F 
ATOM     79  F   UNL A   1      44.874  26.370  24.955  1.00  0.00    -0.200 F 
ATOM     80  C   UNL A   1      43.440  24.625  25.646  1.00  0.00     0.200 A 
ATOM     81  F   UNL A   1      41.984  22.915  26.376  1.00  0.00    -0.200 F 
ATOM     82  F   UNL A   1      43.879  23.848  24.648  1.00  0.00    -0.200 F 
ENDBRANCH  48  72
BRANCH  60  83
ATOM     83  C   UNL A   1      44.899  27.324  34.214  1.00  0.00     0.064 A 
ATOM     84  C   UNL A   1      46.133  27.991  34.222  1.00  0.00     0.173 A 
ATOM     85  C   UNL A   1      44.773  26.161  34.988  1.00  0.00     0.173 A 
ATOM     86  F   UNL A   1      46.305  29.100  33.488  1.00  0.00    -0.203 F 
ATOM     87  C   UNL A   1      47.204  27.501  34.963  1.00  0.00     0.198 A 
ATOM     88  C   UNL A   1      45.838  25.690  35.749  1.00  0.00     0.198 A 
ATOM     89  F   UNL A   1      43.609  25.494  35.021  1.00  0.00    -0.203 F 
ATOM     90  F   UNL A   1      48.385  28.134  34.927  1.00  0.00    -0.200 F 
ATOM     91  C   UNL A   1      47.054  26.357  35.732  1.00  0.00     0.200 A 
ATOM     92  F   UNL A   1      45.687  24.593  36.503  1.00  0.00    -0.200 F 
ATOM     93  F   UNL A   1      48.083  25.895  36.455  1.00  0.00    -0.200 F 
ENDBRANCH  60  83
ENDBRANCH  34  35
ENDBRANCH  27  29
ENDBRANCH  26  27
ENDBRANCH  25  26
ENDBRANCH   1  25
TORSDOF 15
ENDMDL
MODEL 2
REMARK VINA RESULT:     -12.0      4.623     10.027
REMARK SMILES CC(C)CSc1cc2c(cc1Cl)C=C(C(=O)OCCOC(=O)c1ccc(-c3c4nc(c(-c5c(F)c(F)c(F)c(F)c5F)c5ccc([nH]5)c(-c5c(F)c(F)c(F)c(F)c5F)c5nc(c(-c6c(F)c(F)c(F)c(F)c6F)c6ccc3[nH]6)C=C5)C=C4)cc1)[C@@H](C(F)(F)F)O2
REMARK SMILES IDX 18 1 17 2 15 3 16 4 14 5 6 6 7 7 11 8 8 9 10 10 12 11 9 12
REMARK SMILES IDX 91 13 13 14 86 15 5 16 4 17 2 18 1 19 3 20 87 21 88 22 89 23
REMARK SMILES IDX 90 24 19 25 20 26 21 27 22 28 23 29 24 30 85 31 25 32 84 33
REMARK SMILES IDX 26 34 27 35 28 36 78 37 29 38 83 39 77 40 79 41 30 42 82 43
REMARK SMILES IDX 76 44 75 45 31 47 63 48 43 49 62 50 44 51 47 52 61 53 80 54
REMARK SMILES IDX 45 55 46 56 60 58 81 59 48 60 32 61 33 62 41 63 34 64 35 65
REMARK SMILES IDX 39 66 42 67 36 68 37 69 40 70 38 71 64 72 65 73 73 74 66 75
REMARK SMILES IDX 67 76 71 77 74 78 68 79 69 80 72 81 70 82 49 83 50 84 58 85
REMARK SMILES IDX 51 86 52 87 56 88 59 89 53 90 54 91 57 92 55 93
REMARK H PARENT 79 46 47 57
REMARK Flexibility Score: inf
ROOT
ATOM      1  C   UNL A   1      36.474  19.886  25.001  1.00  0.00     0.275 C 
ENDROOT
BRANCH   1   2
ATOM      2  O   UNL A   1      35.718  21.063  24.637  1.00  0.00    -0.459 OA
BRANCH   2   3
ATOM      3  C   UNL A   1      34.373  20.912  24.622  1.00  0.00     0.338 C 
ATOM      4  O   UNL A   1      33.756  19.868  24.514  1.00  0.00    -0.246 OA
BRANCH   3   5
ATOM      5  C   UNL A   1      33.710  22.216  24.818  1.00  0.00     0.087 C 
ATOM      6  C   UNL A   1      32.599  27.122  24.663  1.00  0.00     0.030 A 
ATOM      7  C   UNL A   1      32.274  26.064  25.537  1.00  0.00     0.063 A 
ATOM      8  C   UNL A   1      33.269  26.819  23.467  1.00  0.00     0.055 A 
ATOM      9  C   UNL A   1      32.694  24.758  25.282  1.00  0.00     0.129 A 
ATOM     10  C   UNL A   1      33.715  25.518  23.227  1.00  0.00     0.033 A 
ATOM     11  Cl  UNL A   1      33.550  27.967  22.206  1.00  0.00    -0.083 Cl
ATOM     12  C   UNL A   1      33.451  24.500  24.147  1.00  0.00     0.019 A 
ATOM     13  O   UNL A   1      32.341  23.800  26.188  1.00  0.00    -0.475 OA
ATOM     14  C   UNL A   1      33.995  23.179  23.937  1.00  0.00     0.027 C 
ATOM     15  C   UNL A   1      32.845  22.438  26.027  1.00  0.00     0.316 C 
BRANCH   6  16
ATOM     16  S   UNL A   1      32.100  28.755  25.200  1.00  0.00    -0.124 SA
BRANCH  16  17
ATOM     17  C   UNL A   1      33.680  29.545  25.709  1.00  0.00     0.078 C 
BRANCH  17  18
ATOM     18  C   UNL A   1      33.933  29.698  27.222  1.00  0.00    -0.007 C 
ATOM     19  C   UNL A   1      35.358  29.352  27.652  1.00  0.00     0.008 C 
ATOM     20  C   UNL A   1      33.646  31.153  27.622  1.00  0.00     0.008 C 
ENDBRANCH  17  18
ENDBRANCH  16  17
ENDBRANCH   6  16
BRANCH  15  21
ATOM     21  C   UNL A   1      33.570  22.045  27.325  1.00  0.00     0.430 C 
ATOM     22  F   UNL A   1      34.831  22.539  27.354  1.00  0.00    -0.167 F 
ATOM     23  F   UNL A   1      32.939  22.533  28.420  1.00  0.00    -0.167 F 
ATOM     24  F   UNL A   1      33.654  20.703  27.470  1.00  0.00    -0.167 F 
ENDBRANCH  15  21
ENDBRANCH   3   5
ENDBRANCH   2   3
ENDBRANCH   1   2
BRANCH   1  25
ATOM     25  C   UNL A   1      37.980  20.135  24.893  1.00  0.00     0.275 C 
BRANCH  25  26
ATOM     26  O   UNL A   1      38.375  21.221  25.753  1.00  0.00    -0.458 OA
BRANCH  26  27
ATOM     27  C   UNL A   1      39.487  21.009  26.486  1.00  0.00     0.338 C 
ATOM     28  O   UNL A   1      40.037  19.944  26.727  1.00  0.00    -0.246 OA
BRANCH  27  29
ATOM     29  C   UNL A   1      40.041  22.301  26.908  1.00  0.00     0.060 A 
ATOM     30  C   UNL A   1      41.134  22.378  27.764  1.00  0.00     0.016 A 
ATOM     31  C   UNL A   1      39.521  23.455  26.333  1.00  0.00     0.016 A 
ATOM     32  C   UNL A   1      41.680  23.634  28.057  1.00  0.00     0.010 A 
ATOM     33  C   UNL A   1      40.158  24.677  26.501  1.00  0.00     0.010 A 
ATOM     34  C   UNL A   1      41.215  24.797  27.409  1.00  0.00    -0.014 A 
BRANCH  34  35
ATOM     35  C   UNL A   1      41.777  26.144  27.706  1.00  0.00     0.031 A 
ATOM     36  C   UNL A   1      43.139  26.536  27.180  1.00  0.00     0.074 A 
ATOM     37  C   UNL A   1      41.089  27.005  28.482  1.00  0.00     0.049 A 
ATOM     38  N   UNL A   1      43.813  27.643  27.367  1.00  0.00    -0.248 NA
ATOM     39  C   UNL A   1      43.859  25.537  26.373  1.00  0.00     0.031 C 
ATOM     40  C   UNL A   1      39.804  26.726  29.125  1.00  0.00     0.029 A 
ATOM     41  N   UNL A   1      41.370  28.298  28.852  1.00  0.00    -0.354 N 
ATOM     42  C   UNL A   1      45.038  27.454  26.734  1.00  0.00     0.074 A 
ATOM     43  C   UNL A   1      45.046  26.104  26.222  1.00  0.00     0.031 C 
ATOM     44  C   UNL A   1      39.374  27.834  29.749  1.00  0.00     0.029 A 
ATOM     45  C   UNL A   1      40.369  28.889  29.586  1.00  0.00     0.049 A 
ATOM     46  H   UNL A   1      42.207  28.757  28.614  1.00  0.00     0.167 HD
ATOM     47  C   UNL A   1      46.048  28.338  26.553  1.00  0.00     0.037 A 
ATOM     48  C   UNL A   1      40.260  30.145  30.059  1.00  0.00     0.037 A 
ATOM     49  C   UNL A   1      46.010  29.704  26.997  1.00  0.00     0.049 A 
ATOM     50  C   UNL A   1      41.366  31.128  29.794  1.00  0.00     0.074 A 
ATOM     51  C   UNL A   1      46.948  30.703  26.800  1.00  0.00     0.029 A 
ATOM     52  N   UNL A   1      44.965  30.270  27.712  1.00  0.00    -0.354 N 
ATOM     53  N   UNL A   1      42.492  30.951  29.147  1.00  0.00    -0.248 NA
ATOM     54  C   UNL A   1      41.185  32.488  30.321  1.00  0.00     0.031 C 
ATOM     55  C   UNL A   1      46.482  31.867  27.418  1.00  0.00     0.029 A 
ATOM     56  C   UNL A   1      45.237  31.605  27.967  1.00  0.00     0.049 A 
ATOM     57  H   UNL A   1      44.151  29.795  27.995  1.00  0.00     0.167 HD
ATOM     58  C   UNL A   1      43.147  32.174  29.176  1.00  0.00     0.074 A 
ATOM     59  C   UNL A   1      42.280  33.094  29.885  1.00  0.00     0.031 C 
ATOM     60  C   UNL A   1      44.359  32.504  28.670  1.00  0.00     0.037 A 
BRANCH  47  61
ATOM     61  C   UNL A   1      47.263  27.868  25.805  1.00  0.00     0.064 A 
ATOM     62  C   UNL A   1      47.298  27.850  24.402  1.00  0.00     0.173 A 
ATOM     63  C   UNL A   1      48.422  27.478  26.494  1.00  0.00     0.173 A 
ATOM     64  F   UNL A   1      46.214  28.203  23.695  1.00  0.00    -0.203 F 
ATOM     65  C   UNL A   1      48.436  27.432  23.717  1.00  0.00     0.198 A 
ATOM     66  C   UNL A   1      49.570  27.091  25.804  1.00  0.00     0.198 A 
ATOM     67  F   UNL A   1      48.448  27.484  27.834  1.00  0.00    -0.203 F 
ATOM     68  F   UNL A   1      48.427  27.378  22.378  1.00  0.00    -0.200 F 
ATOM     69  C   UNL A   1      49.573  27.062  24.418  1.00  0.00     0.200 A 
ATOM     70  F   UNL A   1      50.673  26.747  26.482  1.00  0.00    -0.200 F 
ATOM     71  F   UNL A   1      50.671  26.671  23.756  1.00  0.00    -0.200 F 
ENDBRANCH  47  61
BRANCH  48  72
ATOM     72  C   UNL A   1      39.022  30.557  30.769  1.00  0.00     0.064 A 
ATOM     73  C   UNL A   1      38.951  30.498  32.169  1.00  0.00     0.173 A 
ATOM     74  C   UNL A   1      37.904  31.047  30.079  1.00  0.00     0.173 A 
ATOM     75  F   UNL A   1      39.987  30.020  32.872  1.00  0.00    -0.203 F 
ATOM     76  C   UNL A   1      37.806  30.906  32.850  1.00  0.00     0.198 A 
ATOM     77  C   UNL A   1      36.769  31.478  30.763  1.00  0.00     0.198 A 
ATOM     78  F   UNL A   1      37.925  31.130  28.742  1.00  0.00    -0.203 F 
ATOM     79  F   UNL A   1      37.754  30.812  34.185  1.00  0.00    -0.200 F 
ATOM     80  C   UNL A   1      36.718  31.404  32.147  1.00  0.00     0.200 A 
ATOM     81  F   UNL A   1      35.726  31.973  30.082  1.00  0.00    -0.200 F 
ATOM     82  F   UNL A   1      35.624  31.809  32.804  1.00  0.00    -0.200 F 
ENDBRANCH  48  72
BRANCH  60  83
ATOM     83  C   UNL A   1      44.821  33.918  28.851  1.00  0.00     0.064 A 
ATOM     84  C   UNL A   1      45.611  34.292  29.948  1.00  0.00     0.173 A 
ATOM     85  C   UNL A   1      44.527  34.892  27.886  1.00  0.00     0.173 A 
ATOM     86  F   UNL A   1      45.908  33.398  30.902  1.00  0.00    -0.203 F 
ATOM     87  C   UNL A   1      46.073  35.598  30.081  1.00  0.00     0.198 A 
ATOM     88  C   UNL A   1      45.015  36.190  28.009  1.00  0.00     0.198 A 
ATOM     89  F   UNL A   1      43.784  34.580  26.814  1.00  0.00    -0.203 F 
ATOM     90  F   UNL A   1      46.796  35.943  31.156  1.00  0.00    -0.200 F 
ATOM     91  C   UNL A   1      45.783  36.543  29.109  1.00  0.00     0.200 A 
ATOM     92  F   UNL A   1      44.745  37.098  27.061  1.00  0.00    -0.200 F 
ATOM     93  F   UNL A   1      46.240  37.796  29.232  1.00  0.00    -0.200 F 
ENDBRANCH  60  83
ENDBRANCH  34  35
ENDBRANCH  27  29
ENDBRANCH  26  27
ENDBRANCH  25  26
ENDBRANCH   1  25
TORSDOF 15
ENDMDL
MODEL 3
REMARK VINA RESULT:     -11.9      4.464      9.810
REMARK SMILES CC(C)CSc1cc2c(cc1Cl)C=C(C(=O)OCCOC(=O)c1ccc(-c3c4nc(c(-c5c(F)c(F)c(F)c(F)c5F)c5ccc([nH]5)c(-c5c(F)c(F)c(F)c(F)c5F)c5nc(c(-c6c(F)c(F)c(F)c(F)c6F)c6ccc3[nH]6)C=C5)C=C4)cc1)[C@@H](C(F)(F)F)O2
REMARK SMILES IDX 18 1 17 2 15 3 16 4 14 5 6 6 7 7 11 8 8 9 10 10 12 11 9 12
REMARK SMILES IDX 91 13 13 14 86 15 5 16 4 17 2 18 1 19 3 20 87 21 88 22 89 23
REMARK SMILES IDX 90 24 19 25 20 26 21 27 22 28 23 29 24 30 85 31 25 32 84 33
REMARK SMILES IDX 26 34 27 35 28 36 78 37 29 38 83 39 77 40 79 41 30 42 82 43
REMARK SMILES IDX 76 44 75 45 31 47 63 48 43 49 62 50 44 51 47 52 61 53 80 54
REMARK SMILES IDX 45 55 46 56 60 58 81 59 48 60 32 61 33 62 41 63 34 64 35 65
REMARK SMILES IDX 39 66 42 67 36 68 37 69 40 70 38 71 64 72 65 73 73 74 66 75
REMARK SMILES IDX 67 76 71 77 74 78 68 79 69 80 72 81 70 82 49 83 50 84 58 85
REMARK SMILES IDX 51 86 52 87 56 88 59 89 53 90 54 91 57 92 55 93
REMARK H PARENT 79 46 47 57
REMARK Flexibility Score: inf
ROOT
ATOM      1  C   UNL A   1      35.035  21.016  25.206  1.00  0.00     0.275 C 
ENDROOT
BRANCH   1   2
ATOM      2  O   UNL A   1      34.828  22.446  25.200  1.00  0.00    -0.459 OA
BRANCH   2   3
ATOM      3  C   UNL A   1      33.777  22.888  25.931  1.00  0.00     0.338 C 
ATOM      4  O   UNL A   1      33.334  22.387  26.949  1.00  0.00    -0.246 OA
BRANCH   3   5
ATOM      5  C   UNL A   1      33.243  24.136  25.355  1.00  0.00     0.087 C 
ATOM      6  C   UNL A   1      31.424  28.799  24.825  1.00  0.00     0.030 A 
ATOM      7  C   UNL A   1      31.357  27.620  24.053  1.00  0.00     0.063 A 
ATOM      8  C   UNL A   1      32.271  28.818  25.943  1.00  0.00     0.055 A 
ATOM      9  C   UNL A   1      32.031  26.461  24.441  1.00  0.00     0.129 A 
ATOM     10  C   UNL A   1      32.921  27.650  26.347  1.00  0.00     0.033 A 
ATOM     11  Cl  UNL A   1      32.619  30.241  26.861  1.00  0.00    -0.083 Cl
ATOM     12  C   UNL A   1      32.776  26.471  25.612  1.00  0.00     0.019 A 
ATOM     13  O   UNL A   1      31.901  25.365  23.637  1.00  0.00    -0.475 OA
ATOM     14  C   UNL A   1      33.375  25.246  26.087  1.00  0.00     0.027 C 
ATOM     15  C   UNL A   1      32.496  24.097  24.052  1.00  0.00     0.316 C 
BRANCH   6  16
ATOM     16  S   UNL A   1      30.398  30.154  24.263  1.00  0.00    -0.124 SA
BRANCH  16  17
ATOM     17  C   UNL A   1      29.382  29.404  22.927  1.00  0.00     0.078 C 
BRANCH  17  18
ATOM     18  C   UNL A   1      28.027  30.070  22.618  1.00  0.00    -0.007 C 
ATOM     19  C   UNL A   1      27.713  31.279  23.500  1.00  0.00     0.008 C 
ATOM     20  C   UNL A   1      28.028  30.526  21.152  1.00  0.00     0.008 C 
ENDBRANCH  17  18
ENDBRANCH  16  17
ENDBRANCH   6  16
BRANCH  15  21
ATOM     21  C   UNL A   1      31.383  23.035  24.065  1.00  0.00     0.430 C 
ATOM     22  F   UNL A   1      30.449  23.287  23.118  1.00  0.00    -0.167 F 
ATOM     23  F   UNL A   1      31.868  21.796  23.809  1.00  0.00    -0.167 F 
ATOM     24  F   UNL A   1      30.750  22.983  25.260  1.00  0.00    -0.167 F 
ENDBRANCH  15  21
ENDBRANCH   3   5
ENDBRANCH   2   3
ENDBRANCH   1   2
BRANCH   1  25
ATOM     25  C   UNL A   1      36.520  20.667  25.087  1.00  0.00     0.275 C 
BRANCH  25  26
ATOM     26  O   UNL A   1      37.335  21.763  25.544  1.00  0.00    -0.458 OA
BRANCH  26  27
ATOM     27  C   UNL A   1      38.573  21.433  25.966  1.00  0.00     0.338 C 
ATOM     28  O   UNL A   1      39.132  20.348  25.881  1.00  0.00    -0.246 OA
BRANCH  27  29
ATOM     29  C   UNL A   1      39.241  22.631  26.487  1.00  0.00     0.060 A 
ATOM     30  C   UNL A   1      40.407  22.543  27.239  1.00  0.00     0.016 A 
ATOM     31  C   UNL A   1      38.746  23.874  26.108  1.00  0.00     0.016 A 
ATOM     32  C   UNL A   1      41.054  23.722  27.629  1.00  0.00     0.010 A 
ATOM     33  C   UNL A   1      39.470  25.030  26.362  1.00  0.00     0.010 A 
ATOM     34  C   UNL A   1      40.608  24.980  27.174  1.00  0.00    -0.014 A 
BRANCH  34  35
ATOM     35  C   UNL A   1      41.277  26.248  27.578  1.00  0.00     0.031 A 
ATOM     36  C   UNL A   1      42.689  26.544  27.127  1.00  0.00     0.074 A 
ATOM     37  C   UNL A   1      40.639  27.120  28.383  1.00  0.00     0.049 A 
ATOM     38  N   UNL A   1      43.453  27.570  27.409  1.00  0.00    -0.248 NA
ATOM     39  C   UNL A   1      43.350  25.533  26.283  1.00  0.00     0.031 C 
ATOM     40  C   UNL A   1      39.308  26.923  28.959  1.00  0.00     0.029 A 
ATOM     41  N   UNL A   1      41.019  28.356  28.846  1.00  0.00    -0.354 N 
ATOM     42  C   UNL A   1      44.680  27.307  26.809  1.00  0.00     0.074 A 
ATOM     43  C   UNL A   1      44.588  25.996  26.211  1.00  0.00     0.031 C 
ATOM     44  C   UNL A   1      38.955  28.026  29.638  1.00  0.00     0.029 A 
ATOM     45  C   UNL A   1      40.047  28.991  29.580  1.00  0.00     0.049 A 
ATOM     46  H   UNL A   1      41.904  28.749  28.668  1.00  0.00     0.167 HD
ATOM     47  C   UNL A   1      45.773  28.103  26.722  1.00  0.00     0.037 A 
ATOM     48  C   UNL A   1      40.032  30.221  30.129  1.00  0.00     0.037 A 
ATOM     49  C   UNL A   1      45.841  29.436  27.252  1.00  0.00     0.049 A 
ATOM     50  C   UNL A   1      41.233  31.111  29.968  1.00  0.00     0.074 A 
ATOM     51  C   UNL A   1      46.873  30.353  27.154  1.00  0.00     0.029 A 
ATOM     52  N   UNL A   1      44.823  30.052  27.965  1.00  0.00    -0.354 N 
ATOM     53  N   UNL A   1      42.364  30.870  29.351  1.00  0.00    -0.248 NA
ATOM     54  C   UNL A   1      41.154  32.447  30.576  1.00  0.00     0.031 C 
ATOM     55  C   UNL A   1      46.489  31.515  27.829  1.00  0.00     0.029 A 
ATOM     56  C   UNL A   1      45.204  31.337  28.315  1.00  0.00     0.049 A 
ATOM     57  H   UNL A   1      43.958  29.638  28.187  1.00  0.00     0.167 HD
ATOM     58  C   UNL A   1      43.125  32.023  29.484  1.00  0.00     0.074 A 
ATOM     59  C   UNL A   1      42.317  32.975  30.219  1.00  0.00     0.031 C 
ATOM     60  C   UNL A   1      44.382  32.269  29.043  1.00  0.00     0.037 A 
BRANCH  47  61
ATOM     61  C   UNL A   1      46.971  27.568  25.989  1.00  0.00     0.064 A 
ATOM     62  C   UNL A   1      47.100  27.706  24.598  1.00  0.00     0.173 A 
ATOM     63  C   UNL A   1      48.024  26.956  26.687  1.00  0.00     0.173 A 
ATOM     64  F   UNL A   1      46.118  28.274  23.882  1.00  0.00    -0.203 F 
ATOM     65  C   UNL A   1      48.224  27.226  23.930  1.00  0.00     0.198 A 
ATOM     66  C   UNL A   1      49.161  26.505  26.018  1.00  0.00     0.198 A 
ATOM     67  F   UNL A   1      47.957  26.805  28.017  1.00  0.00    -0.203 F 
ATOM     68  F   UNL A   1      48.300  27.327  22.595  1.00  0.00    -0.200 F 
ATOM     69  C   UNL A   1      49.255  26.634  24.641  1.00  0.00     0.200 A 
ATOM     70  F   UNL A   1      50.164  25.947  26.707  1.00  0.00    -0.200 F 
ATOM     71  F   UNL A   1      50.341  26.184  23.996  1.00  0.00    -0.200 F 
ENDBRANCH  47  61
BRANCH  48  72
ATOM     72  C   UNL A   1      38.808  30.702  30.821  1.00  0.00     0.064 A 
ATOM     73  C   UNL A   1      37.723  31.200  30.084  1.00  0.00     0.173 A 
ATOM     74  C   UNL A   1      38.680  30.646  32.216  1.00  0.00     0.173 A 
ATOM     75  F   UNL A   1      37.805  31.290  28.749  1.00  0.00    -0.203 F 
ATOM     76  C   UNL A   1      36.560  31.631  30.718  1.00  0.00     0.198 A 
ATOM     77  C   UNL A   1      37.506  31.054  32.847  1.00  0.00     0.198 A 
ATOM     78  F   UNL A   1      39.686  30.173  32.963  1.00  0.00    -0.203 F 
ATOM     79  F   UNL A   1      35.549  32.129  29.993  1.00  0.00    -0.200 F 
ATOM     80  C   UNL A   1      36.449  31.550  32.099  1.00  0.00     0.200 A 
ATOM     81  F   UNL A   1      37.396  30.960  34.179  1.00  0.00    -0.200 F 
ATOM     82  F   UNL A   1      35.324  31.951  32.706  1.00  0.00    -0.200 F 
ENDBRANCH  48  72
BRANCH  60  83
ATOM     83  C   UNL A   1      44.963  33.620  29.332  1.00  0.00     0.064 A 
ATOM     84  C   UNL A   1      45.742  33.850  30.475  1.00  0.00     0.173 A 
ATOM     85  C   UNL A   1      44.793  34.677  28.426  1.00  0.00     0.173 A 
ATOM     86  F   UNL A   1      45.922  32.873  31.377  1.00  0.00    -0.203 F 
ATOM     87  C   UNL A   1      46.315  35.096  30.709  1.00  0.00     0.198 A 
ATOM     88  C   UNL A   1      45.390  35.914  28.650  1.00  0.00     0.198 A 
ATOM     89  F   UNL A   1      44.065  34.503  27.312  1.00  0.00    -0.203 F 
ATOM     90  F   UNL A   1      47.026  35.305  31.827  1.00  0.00    -0.200 F 
ATOM     91  C   UNL A   1      46.146  36.124  29.793  1.00  0.00     0.200 A 
ATOM     92  F   UNL A   1      45.238  36.901  27.756  1.00  0.00    -0.200 F 
ATOM     93  F   UNL A   1      46.709  37.319  30.014  1.00  0.00    -0.200 F 
ENDBRANCH  60  83
ENDBRANCH  34  35
ENDBRANCH  27  29
ENDBRANCH  26  27
ENDBRANCH  25  26
ENDBRANCH   1  25
TORSDOF 15
ENDMDL
