MODEL 1
REMARK VINA RESULT:     -12.1      0.000      0.000
REMARK SMILES CC(C)c1cc(O)cc(C(C)C)c1O[C@@H]1O[C@@H](C(=O)OCCOC(=O)c2ccc(-c3c4nc(c(-c5c(F)c(F)c(F)c(F)c5F)c5ccc([nH]5)c(-c5c(F)c(F)c(F)c(F)c5F)c5nc(c(-c6c(F)c(F)c(F)c(F)c6F)c6ccc3[nH]6)C=C5)C=C4)cc2)[C@@H](O)[C@H](O)[C@@H]1O
REMARK SMILES IDX 21 1 20 2 18 3 19 4 17 5 15 6 16 7 93 8 91 9 89 10 14 11
REMARK SMILES IDX 13 12 4 13 5 14 6 15 9 16 8 17 2 18 1 19 3 20 7 21 10 23
REMARK SMILES IDX 11 24 12 25 94 26 92 28 90 30 22 32 23 33 24 34 25 35 26 36
REMARK SMILES IDX 27 37 88 38 28 39 87 40 29 41 30 42 31 43 81 44 32 45 86 46
REMARK SMILES IDX 80 47 82 48 33 49 85 50 79 51 78 52 34 54 66 55 46 56 65 57
REMARK SMILES IDX 47 58 50 59 64 60 83 61 48 62 49 63 63 65 84 66 51 67 35 68
REMARK SMILES IDX 36 69 44 70 37 71 38 72 42 73 45 74 39 75 40 76 43 77 41 78
REMARK SMILES IDX 67 79 68 80 76 81 69 82 70 83 74 84 77 85 71 86 72 87 75 88
REMARK SMILES IDX 73 89 52 90 53 91 61 92 54 93 55 94 59 95 62 96 56 97 57 98
REMARK SMILES IDX 60 99 58 100
REMARK H PARENT 7 22 94 27 92 29 90 31 82 53 50 64
REMARK Flexibility Score: inf
ROOT
ATOM      1  C   UNL A   1      36.055  21.681  24.471  1.00  0.00     0.274 C 
ENDROOT
BRANCH   1   2
ATOM      2  O   UNL A   1      35.543  22.456  25.573  1.00  0.00    -0.460 OA
BRANCH   2   3
ATOM      3  C   UNL A   1      34.313  22.089  26.033  1.00  0.00     0.338 C 
ATOM      4  O   UNL A   1      34.127  21.453  27.063  1.00  0.00    -0.249 OA
BRANCH   3   5
ATOM      5  C   UNL A   1      33.182  22.609  25.120  1.00  0.00     0.263 C 
ATOM      6  C   UNL A   1      33.127  24.866  25.946  1.00  0.00     0.339 C 
ATOM      7  O   UNL A   1      33.314  24.004  24.822  1.00  0.00    -0.322 OA
ATOM      8  C   UNL A   1      31.924  24.559  26.889  1.00  0.00     0.214 C 
ATOM      9  C   UNL A   1      31.614  23.054  27.011  1.00  0.00     0.181 C 
ATOM     10  C   UNL A   1      31.780  22.326  25.669  1.00  0.00     0.186 C 
BRANCH   6  11
ATOM     11  O   UNL A   1      33.228  26.256  25.633  1.00  0.00    -0.461 OA
BRANCH  11  12
ATOM     12  C   UNL A   1      32.436  27.111  24.936  1.00  0.00     0.130 A 
ATOM     13  C   UNL A   1      32.337  28.392  25.574  1.00  0.00     0.001 A 
ATOM     14  C   UNL A   1      31.403  29.335  25.082  1.00  0.00     0.054 A 
ATOM     15  C   UNL A   1      30.660  29.078  23.949  1.00  0.00     0.116 A 
ATOM     16  C   UNL A   1      31.679  26.865  23.758  1.00  0.00     0.001 A 
ATOM     17  C   UNL A   1      30.817  27.882  23.282  1.00  0.00     0.054 A 
BRANCH  13  18
ATOM     18  C   UNL A   1      33.161  28.882  26.787  1.00  0.00     0.017 C 
ATOM     19  C   UNL A   1      34.689  28.953  26.691  1.00  0.00     0.012 C 
ATOM     20  C   UNL A   1      32.676  30.274  27.251  1.00  0.00     0.012 C 
ENDBRANCH  13  18
BRANCH  15  21
ATOM     21  O   UNL A   1      29.772  29.978  23.448  1.00  0.00    -0.508 OA
ATOM     22  H   UNL A   1      29.701  30.102  22.522  1.00  0.00     0.293 HD
ENDBRANCH  15  21
BRANCH  16  23
ATOM     23  C   UNL A   1      31.706  25.611  22.897  1.00  0.00     0.017 C 
ATOM     24  C   UNL A   1      30.524  24.656  23.125  1.00  0.00     0.012 C 
ATOM     25  C   UNL A   1      31.850  25.953  21.411  1.00  0.00     0.012 C 
ENDBRANCH  16  23
ENDBRANCH  11  12
ENDBRANCH   6  11
BRANCH   8  26
ATOM     26  O   UNL A   1      30.706  25.222  26.499  1.00  0.00    -0.384 OA
ATOM     27  H   UNL A   1      30.901  25.875  25.808  1.00  0.00     0.211 HD
ENDBRANCH   8  26
BRANCH   9  28
ATOM     28  O   UNL A   1      30.277  22.888  27.505  1.00  0.00    -0.387 OA
ATOM     29  H   UNL A   1      29.644  23.171  26.826  1.00  0.00     0.211 HD
ENDBRANCH   9  28
BRANCH  10  30
ATOM     30  O   UNL A   1      31.488  20.928  25.751  1.00  0.00    -0.387 OA
ATOM     31  H   UNL A   1      32.308  20.435  25.910  1.00  0.00     0.211 HD
ENDBRANCH  10  30
ENDBRANCH   3   5
ENDBRANCH   2   3
ENDBRANCH   1   2
BRANCH   1  32
ATOM     32  C   UNL A   1      37.393  21.022  24.826  1.00  0.00     0.275 C 
BRANCH  32  33
ATOM     33  O   UNL A   1      37.889  21.442  26.113  1.00  0.00    -0.458 OA
BRANCH  33  34
ATOM     34  C   UNL A   1      39.224  21.301  26.294  1.00  0.00     0.338 C 
ATOM     35  O   UNL A   1      39.898  20.317  26.018  1.00  0.00    -0.246 OA
BRANCH  34  36
ATOM     36  C   UNL A   1      39.821  22.569  26.747  1.00  0.00     0.060 A 
ATOM     37  C   UNL A   1      39.372  23.761  26.164  1.00  0.00     0.016 A 
ATOM     38  C   UNL A   1      40.861  22.586  27.676  1.00  0.00     0.016 A 
ATOM     39  C   UNL A   1      39.966  24.973  26.501  1.00  0.00     0.010 A 
ATOM     40  C   UNL A   1      41.460  23.804  28.011  1.00  0.00     0.010 A 
ATOM     41  C   UNL A   1      41.025  25.001  27.415  1.00  0.00    -0.014 A 
BRANCH  41  42
ATOM     42  C   UNL A   1      41.722  26.277  27.700  1.00  0.00     0.031 A 
ATOM     43  C   UNL A   1      41.014  27.353  28.470  1.00  0.00     0.074 A 
ATOM     44  C   UNL A   1      42.986  26.463  27.279  1.00  0.00     0.049 A 
ATOM     45  N   UNL A   1      41.405  28.572  28.743  1.00  0.00    -0.248 NA
ATOM     46  C   UNL A   1      39.686  27.011  29.001  1.00  0.00     0.031 C 
ATOM     47  C   UNL A   1      43.792  25.471  26.568  1.00  0.00     0.029 A 
ATOM     48  N   UNL A   1      43.807  27.557  27.379  1.00  0.00    -0.354 N 
ATOM     49  C   UNL A   1      40.367  29.147  29.464  1.00  0.00     0.074 A 
ATOM     50  C   UNL A   1      39.320  28.153  29.567  1.00  0.00     0.031 C 
ATOM     51  C   UNL A   1      44.993  26.006  26.288  1.00  0.00     0.029 A 
ATOM     52  C   UNL A   1      45.020  27.389  26.759  1.00  0.00     0.049 A 
ATOM     53  H   UNL A   1      43.551  28.383  27.850  1.00  0.00     0.167 HD
ATOM     54  C   UNL A   1      40.299  30.393  29.992  1.00  0.00     0.037 A 
ATOM     55  C   UNL A   1      46.025  28.264  26.568  1.00  0.00     0.037 A 
ATOM     56  C   UNL A   1      41.348  31.373  29.896  1.00  0.00     0.049 A 
ATOM     57  C   UNL A   1      45.894  29.665  27.103  1.00  0.00     0.074 A 
ATOM     58  C   UNL A   1      41.381  32.657  30.413  1.00  0.00     0.029 A 
ATOM     59  N   UNL A   1      42.551  31.179  29.233  1.00  0.00    -0.354 N 
ATOM     60  N   UNL A   1      44.913  30.203  27.787  1.00  0.00    -0.248 NA
ATOM     61  C   UNL A   1      47.011  30.583  26.837  1.00  0.00     0.031 C 
ATOM     62  C   UNL A   1      42.584  33.255  30.021  1.00  0.00     0.029 A 
ATOM     63  C   UNL A   1      43.323  32.327  29.306  1.00  0.00     0.049 A 
ATOM     64  H   UNL A   1      42.817  30.346  28.778  1.00  0.00     0.167 HD
ATOM     65  C   UNL A   1      45.303  31.508  28.055  1.00  0.00     0.074 A 
ATOM     66  C   UNL A   1      46.617  31.678  27.471  1.00  0.00     0.031 C 
ATOM     67  C   UNL A   1      44.634  32.477  28.726  1.00  0.00     0.037 A 
BRANCH  54  68
ATOM     68  C   UNL A   1      39.031  30.778  30.697  1.00  0.00     0.064 A 
ATOM     69  C   UNL A   1      38.883  30.636  32.084  1.00  0.00     0.173 A 
ATOM     70  C   UNL A   1      37.962  31.331  29.976  1.00  0.00     0.173 A 
ATOM     71  F   UNL A   1      39.870  30.100  32.817  1.00  0.00    -0.203 F 
ATOM     72  C   UNL A   1      37.702  31.012  32.720  1.00  0.00     0.198 A 
ATOM     73  C   UNL A   1      36.793  31.731  30.619  1.00  0.00     0.198 A 
ATOM     74  F   UNL A   1      38.053  31.493  28.647  1.00  0.00    -0.203 F 
ATOM     75  F   UNL A   1      37.565  30.827  34.041  1.00  0.00    -0.200 F 
ATOM     76  C   UNL A   1      36.661  31.564  31.989  1.00  0.00     0.200 A 
ATOM     77  F   UNL A   1      35.794  32.276  29.911  1.00  0.00    -0.200 F 
ATOM     78  F   UNL A   1      35.528  31.931  32.604  1.00  0.00    -0.200 F 
ENDBRANCH  54  68
BRANCH  55  79
ATOM     79  C   UNL A   1      47.238  27.847  25.819  1.00  0.00     0.064 A 
ATOM     80  C   UNL A   1      47.256  27.840  24.418  1.00  0.00     0.173 A 
ATOM     81  C   UNL A   1      48.400  27.432  26.490  1.00  0.00     0.173 A 
ATOM     82  F   UNL A   1      46.162  28.203  23.733  1.00  0.00    -0.203 F 
ATOM     83  C   UNL A   1      48.383  27.419  23.715  1.00  0.00     0.198 A 
ATOM     84  C   UNL A   1      49.535  27.040  25.786  1.00  0.00     0.198 A 
ATOM     85  F   UNL A   1      48.433  27.418  27.830  1.00  0.00    -0.203 F 
ATOM     86  F   UNL A   1      48.359  27.379  22.377  1.00  0.00    -0.200 F 
ATOM     87  C   UNL A   1      49.524  27.026  24.400  1.00  0.00     0.200 A 
ATOM     88  F   UNL A   1      50.639  26.671  26.450  1.00  0.00    -0.200 F 
ATOM     89  F   UNL A   1      50.609  26.624  23.722  1.00  0.00    -0.200 F 
ENDBRANCH  55  79
BRANCH  67  90
ATOM     90  C   UNL A   1      45.328  33.798  28.901  1.00  0.00     0.064 A 
ATOM     91  C   UNL A   1      46.185  34.043  29.983  1.00  0.00     0.173 A 
ATOM     92  C   UNL A   1      45.161  34.816  27.950  1.00  0.00     0.173 A 
ATOM     93  F   UNL A   1      46.365  33.107  30.927  1.00  0.00    -0.203 F 
ATOM     94  C   UNL A   1      46.830  35.269  30.121  1.00  0.00     0.198 A 
ATOM     95  C   UNL A   1      45.831  36.030  28.075  1.00  0.00     0.198 A 
ATOM     96  F   UNL A   1      44.357  34.630  26.892  1.00  0.00    -0.203 F 
ATOM     97  F   UNL A   1      47.608  35.498  31.188  1.00  0.00    -0.200 F 
ATOM     98  C   UNL A   1      46.660  36.258  29.163  1.00  0.00     0.200 A 
ATOM     99  F   UNL A   1      45.675  36.980  27.143  1.00  0.00    -0.200 F 
ATOM    100  F   UNL A   1      47.288  37.434  29.294  1.00  0.00    -0.200 F 
ENDBRANCH  67  90
ENDBRANCH  41  42
ENDBRANCH  34  36
ENDBRANCH  33  34
ENDBRANCH  32  33
ENDBRANCH   1  32
TORSDOF 19
ENDMDL
MODEL 2
REMARK VINA RESULT:     -12.0      0.395      1.162
REMARK SMILES CC(C)c1cc(O)cc(C(C)C)c1O[C@@H]1O[C@@H](C(=O)OCCOC(=O)c2ccc(-c3c4nc(c(-c5c(F)c(F)c(F)c(F)c5F)c5ccc([nH]5)c(-c5c(F)c(F)c(F)c(F)c5F)c5nc(c(-c6c(F)c(F)c(F)c(F)c6F)c6ccc3[nH]6)C=C5)C=C4)cc2)[C@@H](O)[C@H](O)[C@@H]1O
REMARK SMILES IDX 21 1 20 2 18 3 19 4 17 5 15 6 16 7 93 8 91 9 89 10 14 11
REMARK SMILES IDX 13 12 4 13 5 14 6 15 9 16 8 17 2 18 1 19 3 20 7 21 10 23
REMARK SMILES IDX 11 24 12 25 94 26 92 28 90 30 22 32 23 33 24 34 25 35 26 36
REMARK SMILES IDX 27 37 88 38 28 39 87 40 29 41 30 42 31 43 81 44 32 45 86 46
REMARK SMILES IDX 80 47 82 48 33 49 85 50 79 51 78 52 34 54 66 55 46 56 65 57
REMARK SMILES IDX 47 58 50 59 64 60 83 61 48 62 49 63 63 65 84 66 51 67 35 68
REMARK SMILES IDX 36 69 44 70 37 71 38 72 42 73 45 74 39 75 40 76 43 77 41 78
REMARK SMILES IDX 67 79 68 80 76 81 69 82 70 83 74 84 77 85 71 86 72 87 75 88
REMARK SMILES IDX 73 89 52 90 53 91 61 92 54 93 55 94 59 95 62 96 56 97 57 98
REMARK SMILES IDX 60 99 58 100
REMARK H PARENT 7 22 94 27 92 29 90 31 82 53 50 64
REMARK Flexibility Score: inf
ROOT
ATOM      1  C   UNL A   1      35.560  20.723  25.071  1.00  0.00     0.274 C 
ENDROOT
BRANCH   1   2
ATOM      2  O   UNL A   1      35.203  21.978  25.683  1.00  0.00    -0.460 OA
BRANCH   2   3
ATOM      3  C   UNL A   1      33.958  22.034  26.234  1.00  0.00     0.338 C 
ATOM      4  O   UNL A   1      33.701  21.706  27.386  1.00  0.00    -0.249 OA
BRANCH   3   5
ATOM      5  C   UNL A   1      32.919  22.602  25.243  1.00  0.00     0.263 C 
ATOM      6  C   UNL A   1      32.951  24.875  26.026  1.00  0.00     0.339 C 
ATOM      7  O   UNL A   1      33.154  23.981  24.931  1.00  0.00    -0.322 OA
ATOM      8  C   UNL A   1      31.676  24.661  26.898  1.00  0.00     0.214 C 
ATOM      9  C   UNL A   1      31.268  23.180  27.025  1.00  0.00     0.181 C 
ATOM     10  C   UNL A   1      31.471  22.415  25.708  1.00  0.00     0.186 C 
BRANCH   6  11
ATOM     11  O   UNL A   1      33.156  26.250  25.697  1.00  0.00    -0.461 OA
BRANCH  11  12
ATOM     12  C   UNL A   1      32.443  27.147  24.969  1.00  0.00     0.130 A 
ATOM     13  C   UNL A   1      32.390  28.433  25.603  1.00  0.00     0.001 A 
ATOM     14  C   UNL A   1      31.531  29.425  25.075  1.00  0.00     0.054 A 
ATOM     15  C   UNL A   1      30.822  29.209  23.912  1.00  0.00     0.116 A 
ATOM     16  C   UNL A   1      31.722  26.942  23.761  1.00  0.00     0.001 A 
ATOM     17  C   UNL A   1      30.937  28.005  23.251  1.00  0.00     0.054 A 
BRANCH  13  18
ATOM     18  C   UNL A   1      33.190  28.877  26.849  1.00  0.00     0.017 C 
ATOM     19  C   UNL A   1      34.722  28.901  26.801  1.00  0.00     0.012 C 
ATOM     20  C   UNL A   1      32.735  30.277  27.320  1.00  0.00     0.012 C 
ENDBRANCH  13  18
BRANCH  15  21
ATOM     21  O   UNL A   1      30.007  30.157  23.376  1.00  0.00    -0.508 OA
ATOM     22  H   UNL A   1      29.645  30.036  22.520  1.00  0.00     0.293 HD
ENDBRANCH  15  21
BRANCH  16  23
ATOM     23  C   UNL A   1      31.713  25.687  22.901  1.00  0.00     0.017 C 
ATOM     24  C   UNL A   1      30.486  24.785  23.103  1.00  0.00     0.012 C 
ATOM     25  C   UNL A   1      31.903  26.021  21.419  1.00  0.00     0.012 C 
ENDBRANCH  16  23
ENDBRANCH  11  12
ENDBRANCH   6  11
BRANCH   8  26
ATOM     26  O   UNL A   1      30.527  25.387  26.420  1.00  0.00    -0.384 OA
ATOM     27  H   UNL A   1      29.909  24.771  25.997  1.00  0.00     0.211 HD
ENDBRANCH   8  26
BRANCH   9  28
ATOM     28  O   UNL A   1      29.895  23.105  27.437  1.00  0.00    -0.387 OA
ATOM     29  H   UNL A   1      29.320  23.180  26.660  1.00  0.00     0.211 HD
ENDBRANCH   9  28
BRANCH  10  30
ATOM     30  O   UNL A   1      31.089  21.040  25.796  1.00  0.00    -0.387 OA
ATOM     31  H   UNL A   1      30.442  20.928  26.510  1.00  0.00     0.211 HD
ENDBRANCH  10  30
ENDBRANCH   3   5
ENDBRANCH   2   3
ENDBRANCH   1   2
BRANCH   1  32
ATOM     32  C   UNL A   1      37.081  20.542  25.012  1.00  0.00     0.275 C 
BRANCH  32  33
ATOM     33  O   UNL A   1      37.791  21.682  25.536  1.00  0.00    -0.458 OA
BRANCH  33  34
ATOM     34  C   UNL A   1      38.988  21.407  26.107  1.00  0.00     0.338 C 
ATOM     35  O   UNL A   1      39.566  20.328  26.107  1.00  0.00    -0.246 OA
BRANCH  34  36
ATOM     36  C   UNL A   1      39.608  22.638  26.625  1.00  0.00     0.060 A 
ATOM     37  C   UNL A   1      39.175  23.868  26.113  1.00  0.00     0.016 A 
ATOM     38  C   UNL A   1      40.654  22.587  27.547  1.00  0.00     0.016 A 
ATOM     39  C   UNL A   1      39.791  25.050  26.513  1.00  0.00     0.010 A 
ATOM     40  C   UNL A   1      41.275  23.775  27.946  1.00  0.00     0.010 A 
ATOM     41  C   UNL A   1      40.856  25.010  27.420  1.00  0.00    -0.014 A 
BRANCH  41  42
ATOM     42  C   UNL A   1      41.576  26.256  27.772  1.00  0.00     0.031 A 
ATOM     43  C   UNL A   1      40.862  27.335  28.532  1.00  0.00     0.074 A 
ATOM     44  C   UNL A   1      42.864  26.413  27.417  1.00  0.00     0.049 A 
ATOM     45  N   UNL A   1      41.274  28.535  28.855  1.00  0.00    -0.248 NA
ATOM     46  C   UNL A   1      39.499  27.022  28.989  1.00  0.00     0.031 C 
ATOM     47  C   UNL A   1      43.674  25.415  26.723  1.00  0.00     0.029 A 
ATOM     48  N   UNL A   1      43.711  27.479  27.586  1.00  0.00    -0.354 N 
ATOM     49  C   UNL A   1      40.219  29.125  29.538  1.00  0.00     0.074 A 
ATOM     50  C   UNL A   1      39.140  28.161  29.565  1.00  0.00     0.031 C 
ATOM     51  C   UNL A   1      44.903  25.918  26.516  1.00  0.00     0.029 A 
ATOM     52  C   UNL A   1      44.948  27.288  27.022  1.00  0.00     0.049 A 
ATOM     53  H   UNL A   1      43.457  28.301  28.064  1.00  0.00     0.167 HD
ATOM     54  C   UNL A   1      40.162  30.359  30.093  1.00  0.00     0.037 A 
ATOM     55  C   UNL A   1      45.987  28.136  26.903  1.00  0.00     0.037 A 
ATOM     56  C   UNL A   1      41.244  31.309  30.074  1.00  0.00     0.049 A 
ATOM     57  C   UNL A   1      45.870  29.527  27.466  1.00  0.00     0.074 A 
ATOM     58  C   UNL A   1      41.289  32.578  30.624  1.00  0.00     0.029 A 
ATOM     59  N   UNL A   1      42.472  31.093  29.466  1.00  0.00    -0.354 N 
ATOM     60  N   UNL A   1      44.873  30.079  28.114  1.00  0.00    -0.248 NA
ATOM     61  C   UNL A   1      47.026  30.417  27.278  1.00  0.00     0.031 C 
ATOM     62  C   UNL A   1      42.527  33.148  30.307  1.00  0.00     0.029 A 
ATOM     63  C   UNL A   1      43.273  32.215  29.606  1.00  0.00     0.049 A 
ATOM     64  H   UNL A   1      42.736  30.264  29.004  1.00  0.00     0.167 HD
ATOM     65  C   UNL A   1      45.288  31.365  28.434  1.00  0.00     0.074 A 
ATOM     66  C   UNL A   1      46.634  31.508  27.920  1.00  0.00     0.031 C 
ATOM     67  C   UNL A   1      44.616  32.338  29.095  1.00  0.00     0.037 A 
BRANCH  54  68
ATOM     68  C   UNL A   1      38.873  30.766  30.745  1.00  0.00     0.064 A 
ATOM     69  C   UNL A   1      38.693  30.705  32.134  1.00  0.00     0.173 A 
ATOM     70  C   UNL A   1      37.814  31.260  29.968  1.00  0.00     0.173 A 
ATOM     71  F   UNL A   1      39.669  30.228  32.920  1.00  0.00    -0.203 F 
ATOM     72  C   UNL A   1      37.493  31.100  32.719  1.00  0.00     0.198 A 
ATOM     73  C   UNL A   1      36.624  31.680  30.558  1.00  0.00     0.198 A 
ATOM     74  F   UNL A   1      37.935  31.344  28.634  1.00  0.00    -0.203 F 
ATOM     75  F   UNL A   1      37.327  30.991  34.045  1.00  0.00    -0.200 F 
ATOM     76  C   UNL A   1      36.462  31.592  31.932  1.00  0.00     0.200 A 
ATOM     77  F   UNL A   1      35.636  32.167  29.796  1.00  0.00    -0.200 F 
ATOM     78  F   UNL A   1      35.309  31.978  32.498  1.00  0.00    -0.200 F 
ENDBRANCH  54  68
BRANCH  55  79
ATOM     79  C   UNL A   1      47.223  27.699  26.204  1.00  0.00     0.064 A 
ATOM     80  C   UNL A   1      47.314  27.734  24.807  1.00  0.00     0.173 A 
ATOM     81  C   UNL A   1      48.333  27.225  26.920  1.00  0.00     0.173 A 
ATOM     82  F   UNL A   1      46.269  28.154  24.078  1.00  0.00    -0.203 F 
ATOM     83  C   UNL A   1      48.461  27.295  24.149  1.00  0.00     0.198 A 
ATOM     84  C   UNL A   1      49.491  26.815  26.263  1.00  0.00     0.198 A 
ATOM     85  F   UNL A   1      48.297  27.170  28.259  1.00  0.00    -0.203 F 
ATOM     86  F   UNL A   1      48.505  27.295  22.811  1.00  0.00    -0.200 F 
ATOM     87  C   UNL A   1      49.551  26.842  24.879  1.00  0.00     0.200 A 
ATOM     88  F   UNL A   1      50.545  26.388  26.971  1.00  0.00    -0.200 F 
ATOM     89  F   UNL A   1      50.656  26.423  24.245  1.00  0.00    -0.200 F 
ENDBRANCH  55  79
BRANCH  67  90
ATOM     90  C   UNL A   1      45.338  33.632  29.337  1.00  0.00     0.064 A 
ATOM     91  C   UNL A   1      45.279  34.691  28.420  1.00  0.00     0.173 A 
ATOM     92  C   UNL A   1      46.066  33.826  30.520  1.00  0.00     0.173 A 
ATOM     93  F   UNL A   1      44.610  34.549  27.266  1.00  0.00    -0.203 F 
ATOM     94  C   UNL A   1      45.944  35.889  28.667  1.00  0.00     0.198 A 
ATOM     95  C   UNL A   1      46.705  35.036  30.778  1.00  0.00     0.198 A 
ATOM     96  F   UNL A   1      46.148  32.847  31.434  1.00  0.00    -0.203 F 
ATOM     97  F   UNL A   1      45.914  36.871  27.756  1.00  0.00    -0.200 F 
ATOM     98  C   UNL A   1      46.649  36.064  29.850  1.00  0.00     0.200 A 
ATOM     99  F   UNL A   1      47.375  35.207  31.926  1.00  0.00    -0.200 F 
ATOM    100  F   UNL A   1      47.282  37.220  30.089  1.00  0.00    -0.200 F 
ENDBRANCH  67  90
ENDBRANCH  41  42
ENDBRANCH  34  36
ENDBRANCH  33  34
ENDBRANCH  32  33
ENDBRANCH   1  32
TORSDOF 19
ENDMDL
MODEL 3
REMARK VINA RESULT:     -11.9      1.020      7.158
REMARK SMILES CC(C)c1cc(O)cc(C(C)C)c1O[C@@H]1O[C@@H](C(=O)OCCOC(=O)c2ccc(-c3c4nc(c(-c5c(F)c(F)c(F)c(F)c5F)c5ccc([nH]5)c(-c5c(F)c(F)c(F)c(F)c5F)c5nc(c(-c6c(F)c(F)c(F)c(F)c6F)c6ccc3[nH]6)C=C5)C=C4)cc2)[C@@H](O)[C@H](O)[C@@H]1O
REMARK SMILES IDX 21 1 20 2 18 3 19 4 17 5 15 6 16 7 93 8 91 9 89 10 14 11
REMARK SMILES IDX 13 12 4 13 5 14 6 15 9 16 8 17 2 18 1 19 3 20 7 21 10 23
REMARK SMILES IDX 11 24 12 25 94 26 92 28 90 30 22 32 23 33 24 34 25 35 26 36
REMARK SMILES IDX 27 37 88 38 28 39 87 40 29 41 30 42 31 43 81 44 32 45 86 46
REMARK SMILES IDX 80 47 82 48 33 49 85 50 79 51 78 52 34 54 66 55 46 56 65 57
REMARK SMILES IDX 47 58 50 59 64 60 83 61 48 62 49 63 63 65 84 66 51 67 35 68
REMARK SMILES IDX 36 69 44 70 37 71 38 72 42 73 45 74 39 75 40 76 43 77 41 78
REMARK SMILES IDX 67 79 68 80 76 81 69 82 70 83 74 84 77 85 71 86 72 87 75 88
REMARK SMILES IDX 73 89 52 90 53 91 61 92 54 93 55 94 59 95 62 96 56 97 57 98
REMARK SMILES IDX 60 99 58 100
REMARK H PARENT 7 22 94 27 92 29 90 31 82 53 50 64
REMARK Flexibility Score: inf
ROOT
ATOM      1  C   UNL A   1      38.128  20.549  24.998  1.00  0.00     0.274 C 
ENDROOT
BRANCH   1   2
ATOM      2  O   UNL A   1      37.259  21.190  25.952  1.00  0.00    -0.460 OA
BRANCH   2   3
ATOM      3  C   UNL A   1      36.846  22.448  25.625  1.00  0.00     0.338 C 
ATOM      4  O   UNL A   1      37.398  23.472  26.006  1.00  0.00    -0.249 OA
BRANCH   3   5
ATOM      5  C   UNL A   1      35.624  22.422  24.681  1.00  0.00     0.263 C 
ATOM      6  C   UNL A   1      34.651  24.508  25.375  1.00  0.00     0.339 C 
ATOM      7  O   UNL A   1      35.195  23.736  24.303  1.00  0.00    -0.322 OA
ATOM      8  C   UNL A   1      33.648  23.796  26.332  1.00  0.00     0.214 C 
ATOM      9  C   UNL A   1      33.963  22.301  26.541  1.00  0.00     0.181 C 
ATOM     10  C   UNL A   1      34.439  21.631  25.244  1.00  0.00     0.186 C 
BRANCH   6  11
ATOM     11  O   UNL A   1      34.196  25.805  24.982  1.00  0.00    -0.461 OA
BRANCH  11  12
ATOM     12  C   UNL A   1      33.032  26.258  24.450  1.00  0.00     0.130 A 
ATOM     13  C   UNL A   1      32.324  27.114  25.357  1.00  0.00     0.001 A 
ATOM     14  C   UNL A   1      31.007  27.518  25.036  1.00  0.00     0.054 A 
ATOM     15  C   UNL A   1      30.433  27.183  23.828  1.00  0.00     0.116 A 
ATOM     16  C   UNL A   1      32.437  25.934  23.199  1.00  0.00     0.001 A 
ATOM     17  C   UNL A   1      31.143  26.433  22.915  1.00  0.00     0.054 A 
BRANCH  13  18
ATOM     18  C   UNL A   1      32.851  27.665  26.702  1.00  0.00     0.017 C 
ATOM     19  C   UNL A   1      33.876  28.805  26.708  1.00  0.00     0.012 C 
ATOM     20  C   UNL A   1      31.681  28.110  27.608  1.00  0.00     0.012 C 
ENDBRANCH  13  18
BRANCH  15  21
ATOM     21  O   UNL A   1      29.176  27.578  23.491  1.00  0.00    -0.508 OA
ATOM     22  H   UNL A   1      28.818  28.365  23.854  1.00  0.00     0.293 HD
ENDBRANCH  15  21
BRANCH  16  23
ATOM     23  C   UNL A   1      33.055  25.114  22.076  1.00  0.00     0.017 C 
ATOM     24  C   UNL A   1      32.817  23.600  22.188  1.00  0.00     0.012 C 
ATOM     25  C   UNL A   1      32.624  25.632  20.701  1.00  0.00     0.012 C 
ENDBRANCH  16  23
ENDBRANCH  11  12
ENDBRANCH   6  11
BRANCH   8  26
ATOM     26  O   UNL A   1      32.277  23.894  25.902  1.00  0.00    -0.384 OA
ATOM     27  H   UNL A   1      31.825  23.052  26.070  1.00  0.00     0.211 HD
ENDBRANCH   8  26
BRANCH   9  28
ATOM     28  O   UNL A   1      32.792  21.640  27.042  1.00  0.00    -0.387 OA
ATOM     29  H   UNL A   1      32.124  21.590  26.340  1.00  0.00     0.211 HD
ENDBRANCH   9  28
BRANCH  10  30
ATOM     30  O   UNL A   1      34.728  20.239  25.407  1.00  0.00    -0.387 OA
ATOM     31  H   UNL A   1      35.686  20.098  25.342  1.00  0.00     0.211 HD
ENDBRANCH  10  30
ENDBRANCH   3   5
ENDBRANCH   2   3
ENDBRANCH   1   2
BRANCH   1  32
ATOM     32  C   UNL A   1      39.130  19.619  25.692  1.00  0.00     0.275 C 
BRANCH  32  33
ATOM     33  O   UNL A   1      40.419  20.238  25.877  1.00  0.00    -0.458 OA
BRANCH  33  34
ATOM     34  C   UNL A   1      40.794  20.420  27.165  1.00  0.00     0.338 C 
ATOM     35  O   UNL A   1      40.993  19.545  27.998  1.00  0.00    -0.246 OA
BRANCH  34  36
ATOM     36  C   UNL A   1      41.088  21.840  27.422  1.00  0.00     0.060 A 
ATOM     37  C   UNL A   1      40.592  22.795  26.525  1.00  0.00     0.016 A 
ATOM     38  C   UNL A   1      41.903  22.227  28.486  1.00  0.00     0.016 A 
ATOM     39  C   UNL A   1      40.916  24.139  26.683  1.00  0.00     0.010 A 
ATOM     40  C   UNL A   1      42.231  23.578  28.641  1.00  0.00     0.010 A 
ATOM     41  C   UNL A   1      41.750  24.538  27.733  1.00  0.00    -0.014 A 
BRANCH  41  42
ATOM     42  C   UNL A   1      42.174  25.953  27.844  1.00  0.00     0.031 A 
ATOM     43  C   UNL A   1      43.489  26.382  27.262  1.00  0.00     0.074 A 
ATOM     44  C   UNL A   1      41.379  26.848  28.457  1.00  0.00     0.049 A 
ATOM     45  N   UNL A   1      44.090  27.542  27.333  1.00  0.00    -0.248 NA
ATOM     46  C   UNL A   1      44.229  25.364  26.499  1.00  0.00     0.031 C 
ATOM     47  C   UNL A   1      40.059  26.560  29.015  1.00  0.00     0.029 A 
ATOM     48  N   UNL A   1      41.574  28.180  28.721  1.00  0.00    -0.354 N 
ATOM     49  C   UNL A   1      45.283  27.392  26.638  1.00  0.00     0.074 A 
ATOM     50  C   UNL A   1      45.333  26.023  26.172  1.00  0.00     0.031 C 
ATOM     51  C   UNL A   1      39.563  27.682  29.564  1.00  0.00     0.029 A 
ATOM     52  C   UNL A   1      40.551  28.751  29.436  1.00  0.00     0.049 A 
ATOM     53  H   UNL A   1      42.371  28.678  28.427  1.00  0.00     0.167 HD
ATOM     54  C   UNL A   1      46.246  28.318  26.411  1.00  0.00     0.037 A 
ATOM     55  C   UNL A   1      40.440  29.989  29.953  1.00  0.00     0.037 A 
ATOM     56  C   UNL A   1      46.184  29.681  26.867  1.00  0.00     0.049 A 
ATOM     57  C   UNL A   1      41.557  30.977  29.747  1.00  0.00     0.074 A 
ATOM     58  C   UNL A   1      47.101  30.700  26.672  1.00  0.00     0.029 A 
ATOM     59  N   UNL A   1      45.146  30.217  27.616  1.00  0.00    -0.354 N 
ATOM     60  N   UNL A   1      42.681  30.832  29.087  1.00  0.00    -0.248 NA
ATOM     61  C   UNL A   1      41.392  32.302  30.362  1.00  0.00     0.031 C 
ATOM     62  C   UNL A   1      46.641  31.837  27.344  1.00  0.00     0.029 A 
ATOM     63  C   UNL A   1      45.412  31.544  27.913  1.00  0.00     0.049 A 
ATOM     64  H   UNL A   1      44.339  29.726  27.895  1.00  0.00     0.167 HD
ATOM     65  C   UNL A   1      43.342  32.049  29.183  1.00  0.00     0.074 A 
ATOM     66  C   UNL A   1      42.487  32.927  29.955  1.00  0.00     0.031 C 
ATOM     67  C   UNL A   1      44.546  32.408  28.676  1.00  0.00     0.037 A 
BRANCH  54  68
ATOM     68  C   UNL A   1      47.466  27.876  25.657  1.00  0.00     0.064 A 
ATOM     69  C   UNL A   1      48.642  27.487  26.314  1.00  0.00     0.173 A 
ATOM     70  C   UNL A   1      47.444  27.807  24.256  1.00  0.00     0.173 A 
ATOM     71  F   UNL A   1      48.719  27.547  27.652  1.00  0.00    -0.203 F 
ATOM     72  C   UNL A   1      49.759  27.069  25.595  1.00  0.00     0.198 A 
ATOM     73  C   UNL A   1      48.553  27.362  23.541  1.00  0.00     0.198 A 
ATOM     74  F   UNL A   1      46.342  28.164  23.578  1.00  0.00    -0.203 F 
ATOM     75  F   UNL A   1      50.887  26.743  26.242  1.00  0.00    -0.200 F 
ATOM     76  C   UNL A   1      49.712  27.001  24.211  1.00  0.00     0.200 A 
ATOM     77  F   UNL A   1      48.501  27.286  22.204  1.00  0.00    -0.200 F 
ATOM     78  F   UNL A   1      50.786  26.591  23.521  1.00  0.00    -0.200 F 
ENDBRANCH  54  68
BRANCH  55  79
ATOM     79  C   UNL A   1      39.232  30.360  30.734  1.00  0.00     0.064 A 
ATOM     80  C   UNL A   1      38.133  30.972  30.118  1.00  0.00     0.173 A 
ATOM     81  C   UNL A   1      39.159  30.123  32.116  1.00  0.00     0.173 A 
ATOM     82  F   UNL A   1      38.167  31.243  28.805  1.00  0.00    -0.203 F 
ATOM     83  C   UNL A   1      37.013  31.349  30.856  1.00  0.00     0.198 A 
ATOM     84  C   UNL A   1      38.026  30.474  32.847  1.00  0.00     0.198 A 
ATOM     85  F   UNL A   1      40.185  29.542  32.754  1.00  0.00    -0.203 F 
ATOM     86  F   UNL A   1      35.994  31.974  30.250  1.00  0.00    -0.200 F 
ATOM     87  C   UNL A   1      36.958  31.094  32.218  1.00  0.00     0.200 A 
ATOM     88  F   UNL A   1      37.973  30.216  34.161  1.00  0.00    -0.200 F 
ATOM     89  F   UNL A   1      35.878  31.454  32.926  1.00  0.00    -0.200 F 
ENDBRANCH  55  79
BRANCH  67  90
ATOM     90  C   UNL A   1      44.996  33.822  28.905  1.00  0.00     0.064 A 
ATOM     91  C   UNL A   1      45.793  34.173  30.004  1.00  0.00     0.173 A 
ATOM     92  C   UNL A   1      44.657  34.830  27.989  1.00  0.00     0.173 A 
ATOM     93  F   UNL A   1      46.130  33.249  30.916  1.00  0.00    -0.203 F 
ATOM     94  C   UNL A   1      46.212  35.487  30.193  1.00  0.00     0.198 A 
ATOM     95  C   UNL A   1      45.104  36.137  28.165  1.00  0.00     0.198 A 
ATOM     96  F   UNL A   1      43.903  34.545  26.917  1.00  0.00    -0.203 F 
ATOM     97  F   UNL A   1      46.933  35.810  31.275  1.00  0.00    -0.200 F 
ATOM     98  C   UNL A   1      45.875  36.466  29.269  1.00  0.00     0.200 A 
ATOM     99  F   UNL A   1      44.788  37.078  27.265  1.00  0.00    -0.200 F 
ATOM    100  F   UNL A   1      46.287  37.728  29.449  1.00  0.00    -0.200 F 
ENDBRANCH  67  90
ENDBRANCH  41  42
ENDBRANCH  34  36
ENDBRANCH  33  34
ENDBRANCH  32  33
ENDBRANCH   1  32
TORSDOF 19
ENDMDL
