MODEL 1
REMARK VINA RESULT:     -11.8      0.000      0.000
REMARK SMILES C[C@H](C(=O)OCCOC(=O)c1ccc(-c2c3nc(c(-c4c(F)c(F)c(F)c(F)c4F)c4ccc([nH]4)c(-c4c(F)c(F)c(F)c(F)c4F)c4nc(c(-c5c(F)c(F)c(F)c(F)c5F)c5ccc2[nH]5)C=C4)C=C3)cc1)c1ccc(-c2ccccc2)c(F)c1
REMARK SMILES IDX 6 1 5 2 3 3 4 4 2 5 1 6 74 7 75 8 86 9 76 10 84 11 77 12
REMARK SMILES IDX 85 13 78 14 79 15 83 16 80 17 82 18 81 19 7 20 8 21 9 22
REMARK SMILES IDX 10 23 11 24 12 25 73 26 13 27 72 28 14 29 15 30 16 31 66 32
REMARK SMILES IDX 17 33 71 34 65 35 67 36 18 37 70 38 64 39 63 40 19 42 51 43
REMARK SMILES IDX 31 44 50 45 32 46 35 47 49 48 68 49 33 50 34 51 48 53 69 54
REMARK SMILES IDX 36 55 20 56 21 57 29 58 22 59 23 60 27 61 30 62 24 63 25 64
REMARK SMILES IDX 28 65 26 66 52 67 53 68 61 69 54 70 55 71 59 72 62 73 56 74
REMARK SMILES IDX 57 75 60 76 58 77 37 78 38 79 46 80 39 81 40 82 44 83 47 84
REMARK SMILES IDX 41 85 42 86 45 87 43 88
REMARK H PARENT 67 41 35 52
REMARK Flexibility Score: inf
ROOT
ATOM      1  C   UNL A   1      33.370  34.916  28.784  1.00  0.00     0.274 C 
ENDROOT
BRANCH   1   2
ATOM      2  O   UNL A   1      34.609  34.331  29.235  1.00  0.00    -0.462 OA
BRANCH   2   3
ATOM      3  C   UNL A   1      34.641  32.971  29.315  1.00  0.00     0.313 C 
ATOM      4  O   UNL A   1      34.353  32.329  30.320  1.00  0.00    -0.252 OA
BRANCH   3   5
ATOM      5  C   UNL A   1      35.153  32.340  28.022  1.00  0.00     0.126 C 
ATOM      6  C   UNL A   1      36.624  31.924  28.168  1.00  0.00     0.025 C 
BRANCH   5   7
ATOM      7  C   UNL A   1      34.277  31.210  27.497  1.00  0.00    -0.031 A 
ATOM      8  C   UNL A   1      32.919  31.460  27.251  1.00  0.00     0.005 A 
ATOM      9  C   UNL A   1      34.759  29.919  27.244  1.00  0.00     0.044 A 
ATOM     10  C   UNL A   1      32.081  30.463  26.738  1.00  0.00     0.012 A 
ATOM     11  C   UNL A   1      33.915  28.924  26.741  1.00  0.00     0.131 A 
ATOM     12  C   UNL A   1      32.567  29.175  26.460  1.00  0.00     0.017 A 
ATOM     13  F   UNL A   1      34.443  27.712  26.502  1.00  0.00    -0.206 F 
BRANCH  12  14
ATOM     14  C   UNL A   1      31.685  28.158  25.873  1.00  0.00    -0.015 A 
ATOM     15  C   UNL A   1      31.136  28.344  24.592  1.00  0.00     0.009 A 
ATOM     16  C   UNL A   1      31.351  26.987  26.570  1.00  0.00     0.009 A 
ATOM     17  C   UNL A   1      30.277  27.397  24.029  1.00  0.00     0.001 A 
ATOM     18  C   UNL A   1      30.488  26.040  26.010  1.00  0.00     0.001 A 
ATOM     19  C   UNL A   1      29.950  26.247  24.741  1.00  0.00     0.000 A 
ENDBRANCH  12  14
ENDBRANCH   5   7
ENDBRANCH   3   5
ENDBRANCH   2   3
ENDBRANCH   1   2
BRANCH   1  20
ATOM     20  C   UNL A   1      32.903  35.986  29.767  1.00  0.00     0.275 C 
BRANCH  20  21
ATOM     21  O   UNL A   1      32.355  35.342  30.928  1.00  0.00    -0.458 OA
BRANCH  21  22
ATOM     22  C   UNL A   1      32.697  35.881  32.119  1.00  0.00     0.338 C 
ATOM     23  O   UNL A   1      32.169  36.819  32.690  1.00  0.00    -0.246 OA
BRANCH  22  24
ATOM     24  C   UNL A   1      33.871  35.167  32.651  1.00  0.00     0.060 A 
ATOM     25  C   UNL A   1      35.153  35.703  32.515  1.00  0.00     0.016 A 
ATOM     26  C   UNL A   1      33.698  33.907  33.222  1.00  0.00     0.016 A 
ATOM     27  C   UNL A   1      36.270  34.953  32.880  1.00  0.00     0.010 A 
ATOM     28  C   UNL A   1      34.813  33.191  33.666  1.00  0.00     0.010 A 
ATOM     29  C   UNL A   1      36.113  33.693  33.471  1.00  0.00    -0.014 A 
BRANCH  29  30
ATOM     30  C   UNL A   1      37.294  32.873  33.850  1.00  0.00     0.031 A 
ATOM     31  C   UNL A   1      37.967  33.097  35.177  1.00  0.00     0.074 A 
ATOM     32  C   UNL A   1      37.777  31.939  33.010  1.00  0.00     0.049 A 
ATOM     33  N   UNL A   1      39.116  32.647  35.612  1.00  0.00    -0.248 NA
ATOM     34  C   UNL A   1      37.256  33.957  36.137  1.00  0.00     0.031 C 
ATOM     35  C   UNL A   1      37.200  31.584  31.712  1.00  0.00     0.029 A 
ATOM     36  N   UNL A   1      38.873  31.118  33.121  1.00  0.00    -0.354 N 
ATOM     37  C   UNL A   1      39.291  33.211  36.870  1.00  0.00     0.074 A 
ATOM     38  C   UNL A   1      38.131  34.036  37.128  1.00  0.00     0.031 C 
ATOM     39  C   UNL A   1      37.933  30.607  31.158  1.00  0.00     0.029 A 
ATOM     40  C   UNL A   1      39.073  30.318  32.022  1.00  0.00     0.049 A 
ATOM     41  H   UNL A   1      39.458  31.104  33.913  1.00  0.00     0.167 HD
ATOM     42  C   UNL A   1      40.328  33.053  37.727  1.00  0.00     0.037 A 
ATOM     43  C   UNL A   1      40.083  29.479  31.724  1.00  0.00     0.037 A 
ATOM     44  C   UNL A   1      41.455  32.189  37.491  1.00  0.00     0.049 A 
ATOM     45  C   UNL A   1      41.230  29.332  32.684  1.00  0.00     0.074 A 
ATOM     46  C   UNL A   1      42.550  31.953  38.305  1.00  0.00     0.029 A 
ATOM     47  N   UNL A   1      41.621  31.403  36.361  1.00  0.00    -0.354 N 
ATOM     48  N   UNL A   1      41.417  29.914  33.842  1.00  0.00    -0.248 NA
ATOM     49  C   UNL A   1      42.315  28.424  32.285  1.00  0.00     0.031 C 
ATOM     50  C   UNL A   1      43.391  31.043  37.655  1.00  0.00     0.029 A 
ATOM     51  C   UNL A   1      42.803  30.685  36.454  1.00  0.00     0.049 A 
ATOM     52  H   UNL A   1      40.993  31.361  35.604  1.00  0.00     0.167 HD
ATOM     53  C   UNL A   1      42.632  29.441  34.315  1.00  0.00     0.074 A 
ATOM     54  C   UNL A   1      43.130  28.507  33.327  1.00  0.00     0.031 C 
ATOM     55  C   UNL A   1      43.282  29.758  35.462  1.00  0.00     0.037 A 
BRANCH  42  56
ATOM     56  C   UNL A   1      40.308  33.858  38.992  1.00  0.00     0.064 A 
ATOM     57  C   UNL A   1      39.625  33.423  40.137  1.00  0.00     0.173 A 
ATOM     58  C   UNL A   1      41.013  35.070  39.068  1.00  0.00     0.173 A 
ATOM     59  F   UNL A   1      38.927  32.277  40.110  1.00  0.00    -0.203 F 
ATOM     60  C   UNL A   1      39.631  34.181  41.305  1.00  0.00     0.198 A 
ATOM     61  C   UNL A   1      41.037  35.813  40.244  1.00  0.00     0.198 A 
ATOM     62  F   UNL A   1      41.686  35.527  38.001  1.00  0.00    -0.203 F 
ATOM     63  F   UNL A   1      38.940  33.766  42.375  1.00  0.00    -0.200 F 
ATOM     64  C   UNL A   1      40.341  35.372  41.360  1.00  0.00     0.200 A 
ATOM     65  F   UNL A   1      41.733  36.957  40.299  1.00  0.00    -0.200 F 
ATOM     66  F   UNL A   1      40.351  36.097  42.486  1.00  0.00    -0.200 F 
ENDBRANCH  42  56
BRANCH  43  67
ATOM     67  C   UNL A   1      40.067  28.739  30.437  1.00  0.00     0.064 A 
ATOM     68  C   UNL A   1      40.680  29.268  29.294  1.00  0.00     0.173 A 
ATOM     69  C   UNL A   1      39.451  27.483  30.326  1.00  0.00     0.173 A 
ATOM     70  F   UNL A   1      41.260  30.477  29.344  1.00  0.00    -0.203 F 
ATOM     71  C   UNL A   1      40.673  28.572  28.088  1.00  0.00     0.198 A 
ATOM     72  C   UNL A   1      39.467  26.777  29.127  1.00  0.00     0.198 A 
ATOM     73  F   UNL A   1      38.847  26.936  31.392  1.00  0.00    -0.203 F 
ATOM     74  F   UNL A   1      41.238  29.115  27.000  1.00  0.00    -0.200 F 
ATOM     75  C   UNL A   1      40.074  27.324  28.006  1.00  0.00     0.200 A 
ATOM     76  F   UNL A   1      38.898  25.565  29.057  1.00  0.00    -0.200 F 
ATOM     77  F   UNL A   1      40.077  26.650  26.848  1.00  0.00    -0.200 F 
ENDBRANCH  43  67
BRANCH  55  78
ATOM     78  C   UNL A   1      44.589  29.073  35.717  1.00  0.00     0.064 A 
ATOM     79  C   UNL A   1      45.803  29.633  35.295  1.00  0.00     0.173 A 
ATOM     80  C   UNL A   1      44.630  27.859  36.420  1.00  0.00     0.173 A 
ATOM     81  F   UNL A   1      45.811  30.784  34.605  1.00  0.00    -0.203 F 
ATOM     82  C   UNL A   1      47.013  28.992  35.550  1.00  0.00     0.198 A 
ATOM     83  C   UNL A   1      45.843  27.233  36.692  1.00  0.00     0.198 A 
ATOM     84  F   UNL A   1      43.495  27.286  36.846  1.00  0.00    -0.203 F 
ATOM     85  F   UNL A   1      48.158  29.525  35.104  1.00  0.00    -0.200 F 
ATOM     86  C   UNL A   1      47.031  27.796  36.253  1.00  0.00     0.200 A 
ATOM     87  F   UNL A   1      45.861  26.081  37.377  1.00  0.00    -0.200 F 
ATOM     88  F   UNL A   1      48.197  27.182  36.499  1.00  0.00    -0.200 F 
ENDBRANCH  55  78
ENDBRANCH  29  30
ENDBRANCH  22  24
ENDBRANCH  21  22
ENDBRANCH  20  21
ENDBRANCH   1  20
TORSDOF 13
ENDMDL
MODEL 2
REMARK VINA RESULT:     -11.7      0.088      2.053
REMARK SMILES C[C@H](C(=O)OCCOC(=O)c1ccc(-c2c3nc(c(-c4c(F)c(F)c(F)c(F)c4F)c4ccc([nH]4)c(-c4c(F)c(F)c(F)c(F)c4F)c4nc(c(-c5c(F)c(F)c(F)c(F)c5F)c5ccc2[nH]5)C=C4)C=C3)cc1)c1ccc(-c2ccccc2)c(F)c1
REMARK SMILES IDX 6 1 5 2 3 3 4 4 2 5 1 6 74 7 75 8 86 9 76 10 84 11 77 12
REMARK SMILES IDX 85 13 78 14 79 15 83 16 80 17 82 18 81 19 7 20 8 21 9 22
REMARK SMILES IDX 10 23 11 24 12 25 73 26 13 27 72 28 14 29 15 30 16 31 66 32
REMARK SMILES IDX 17 33 71 34 65 35 67 36 18 37 70 38 64 39 63 40 19 42 51 43
REMARK SMILES IDX 31 44 50 45 32 46 35 47 49 48 68 49 33 50 34 51 48 53 69 54
REMARK SMILES IDX 36 55 20 56 21 57 29 58 22 59 23 60 27 61 30 62 24 63 25 64
REMARK SMILES IDX 28 65 26 66 52 67 53 68 61 69 54 70 55 71 59 72 62 73 56 74
REMARK SMILES IDX 57 75 60 76 58 77 37 78 38 79 46 80 39 81 40 82 44 83 47 84
REMARK SMILES IDX 41 85 42 86 45 87 43 88
REMARK H PARENT 67 41 35 52
REMARK Flexibility Score: inf
ROOT
ATOM      1  C   UNL A   1      33.350  34.943  28.739  1.00  0.00     0.274 C 
ENDROOT
BRANCH   1   2
ATOM      2  O   UNL A   1      34.601  34.356  29.152  1.00  0.00    -0.462 OA
BRANCH   2   3
ATOM      3  C   UNL A   1      34.621  32.998  29.271  1.00  0.00     0.313 C 
ATOM      4  O   UNL A   1      34.312  32.387  30.289  1.00  0.00    -0.252 OA
BRANCH   3   5
ATOM      5  C   UNL A   1      35.148  32.327  28.005  1.00  0.00     0.126 C 
ATOM      6  C   UNL A   1      36.608  31.890  28.192  1.00  0.00     0.025 C 
BRANCH   5   7
ATOM      7  C   UNL A   1      34.263  31.200  27.489  1.00  0.00    -0.031 A 
ATOM      8  C   UNL A   1      32.904  31.456  27.251  1.00  0.00     0.005 A 
ATOM      9  C   UNL A   1      34.737  29.906  27.237  1.00  0.00     0.044 A 
ATOM     10  C   UNL A   1      32.059  30.461  26.746  1.00  0.00     0.012 A 
ATOM     11  C   UNL A   1      33.885  28.913  26.742  1.00  0.00     0.131 A 
ATOM     12  C   UNL A   1      32.537  29.171  26.469  1.00  0.00     0.017 A 
ATOM     13  F   UNL A   1      34.406  27.699  26.502  1.00  0.00    -0.206 F 
BRANCH  12  14
ATOM     14  C   UNL A   1      31.646  28.156  25.891  1.00  0.00    -0.015 A 
ATOM     15  C   UNL A   1      31.333  26.989  26.611  1.00  0.00     0.009 A 
ATOM     16  C   UNL A   1      31.097  28.306  24.608  1.00  0.00     0.009 A 
ATOM     17  C   UNL A   1      30.506  26.004  26.067  1.00  0.00     0.001 A 
ATOM     18  C   UNL A   1      30.273  27.319  24.060  1.00  0.00     0.001 A 
ATOM     19  C   UNL A   1      29.980  26.168  24.789  1.00  0.00     0.000 A 
ENDBRANCH  12  14
ENDBRANCH   5   7
ENDBRANCH   3   5
ENDBRANCH   2   3
ENDBRANCH   1   2
BRANCH   1  20
ATOM     20  C   UNL A   1      32.903  35.997  29.748  1.00  0.00     0.275 C 
BRANCH  20  21
ATOM     21  O   UNL A   1      32.362  35.336  30.902  1.00  0.00    -0.458 OA
BRANCH  21  22
ATOM     22  C   UNL A   1      32.690  35.873  32.098  1.00  0.00     0.338 C 
ATOM     23  O   UNL A   1      32.153  36.807  32.666  1.00  0.00    -0.246 OA
BRANCH  22  24
ATOM     24  C   UNL A   1      33.861  35.162  32.640  1.00  0.00     0.060 A 
ATOM     25  C   UNL A   1      35.143  35.700  32.513  1.00  0.00     0.016 A 
ATOM     26  C   UNL A   1      33.687  33.902  33.212  1.00  0.00     0.016 A 
ATOM     27  C   UNL A   1      36.259  34.953  32.888  1.00  0.00     0.010 A 
ATOM     28  C   UNL A   1      34.799  33.189  33.665  1.00  0.00     0.010 A 
ATOM     29  C   UNL A   1      36.099  33.694  33.480  1.00  0.00    -0.014 A 
BRANCH  29  30
ATOM     30  C   UNL A   1      37.279  32.876  33.869  1.00  0.00     0.031 A 
ATOM     31  C   UNL A   1      37.940  33.102  35.201  1.00  0.00     0.074 A 
ATOM     32  C   UNL A   1      37.771  31.943  33.033  1.00  0.00     0.049 A 
ATOM     33  N   UNL A   1      39.087  32.655  35.646  1.00  0.00    -0.248 NA
ATOM     34  C   UNL A   1      37.219  33.961  36.155  1.00  0.00     0.031 C 
ATOM     35  C   UNL A   1      37.206  31.586  31.731  1.00  0.00     0.029 A 
ATOM     36  N   UNL A   1      38.868  31.125  33.153  1.00  0.00    -0.354 N 
ATOM     37  C   UNL A   1      39.250  33.220  36.905  1.00  0.00     0.074 A 
ATOM     38  C   UNL A   1      38.085  34.043  37.154  1.00  0.00     0.031 C 
ATOM     39  C   UNL A   1      37.946  30.611  31.183  1.00  0.00     0.029 A 
ATOM     40  C   UNL A   1      39.079  30.325  32.057  1.00  0.00     0.049 A 
ATOM     41  H   UNL A   1      39.447  31.112  33.950  1.00  0.00     0.167 HD
ATOM     42  C   UNL A   1      40.280  33.065  37.771  1.00  0.00     0.037 A 
ATOM     43  C   UNL A   1      40.094  29.488  31.768  1.00  0.00     0.037 A 
ATOM     44  C   UNL A   1      41.411  32.203  37.546  1.00  0.00     0.049 A 
ATOM     45  C   UNL A   1      41.233  29.344  32.738  1.00  0.00     0.074 A 
ATOM     46  C   UNL A   1      42.499  31.970  38.368  1.00  0.00     0.029 A 
ATOM     47  N   UNL A   1      41.588  31.417  36.417  1.00  0.00    -0.354 N 
ATOM     48  N   UNL A   1      41.409  29.927  33.897  1.00  0.00    -0.248 NA
ATOM     49  C   UNL A   1      42.323  28.439  32.348  1.00  0.00     0.031 C 
ATOM     50  C   UNL A   1      43.347  31.062  37.726  1.00  0.00     0.029 A 
ATOM     51  C   UNL A   1      42.771  30.702  36.520  1.00  0.00     0.049 A 
ATOM     52  H   UNL A   1      40.966  31.373  35.654  1.00  0.00     0.167 HD
ATOM     53  C   UNL A   1      42.621  29.457  34.380  1.00  0.00     0.074 A 
ATOM     54  C   UNL A   1      43.129  28.523  33.397  1.00  0.00     0.031 C 
ATOM     55  C   UNL A   1      43.260  29.776  35.532  1.00  0.00     0.037 A 
BRANCH  42  56
ATOM     56  C   UNL A   1      40.247  33.870  39.036  1.00  0.00     0.064 A 
ATOM     57  C   UNL A   1      40.860  35.128  39.130  1.00  0.00     0.173 A 
ATOM     58  C   UNL A   1      39.561  33.388  40.161  1.00  0.00     0.173 A 
ATOM     59  F   UNL A   1      41.539  35.626  38.085  1.00  0.00    -0.203 F 
ATOM     60  C   UNL A   1      40.806  35.864  40.311  1.00  0.00     0.198 A 
ATOM     61  C   UNL A   1      39.487  34.137  41.332  1.00  0.00     0.198 A 
ATOM     62  F   UNL A   1      38.953  32.192  40.121  1.00  0.00    -0.203 F 
ATOM     63  F   UNL A   1      41.432  37.045  40.391  1.00  0.00    -0.200 F 
ATOM     64  C   UNL A   1      40.115  35.371  41.408  1.00  0.00     0.200 A 
ATOM     65  F   UNL A   1      38.810  33.664  42.387  1.00  0.00    -0.200 F 
ATOM     66  F   UNL A   1      40.058  36.083  42.541  1.00  0.00    -0.200 F 
ENDBRANCH  42  56
BRANCH  43  67
ATOM     67  C   UNL A   1      40.090  28.747  30.481  1.00  0.00     0.064 A 
ATOM     68  C   UNL A   1      39.471  27.496  30.372  1.00  0.00     0.173 A 
ATOM     69  C   UNL A   1      40.693  29.281  29.332  1.00  0.00     0.173 A 
ATOM     70  F   UNL A   1      38.903  26.934  31.449  1.00  0.00    -0.203 F 
ATOM     71  C   UNL A   1      39.460  26.803  29.164  1.00  0.00     0.198 A 
ATOM     72  C   UNL A   1      40.659  28.599  28.118  1.00  0.00     0.198 A 
ATOM     73  F   UNL A   1      41.301  30.475  29.386  1.00  0.00    -0.203 F 
ATOM     74  F   UNL A   1      38.890  25.591  29.093  1.00  0.00    -0.200 F 
ATOM     75  C   UNL A   1      40.046  27.358  28.036  1.00  0.00     0.200 A 
ATOM     76  F   UNL A   1      41.216  29.146  27.029  1.00  0.00    -0.200 F 
ATOM     77  F   UNL A   1      40.026  26.695  26.872  1.00  0.00    -0.200 F 
ENDBRANCH  43  67
BRANCH  55  78
ATOM     78  C   UNL A   1      44.567  29.093  35.799  1.00  0.00     0.064 A 
ATOM     79  C   UNL A   1      44.624  27.859  36.462  1.00  0.00     0.173 A 
ATOM     80  C   UNL A   1      45.770  29.664  35.360  1.00  0.00     0.173 A 
ATOM     81  F   UNL A   1      43.500  27.283  36.914  1.00  0.00    -0.203 F 
ATOM     82  C   UNL A   1      45.844  27.228  36.692  1.00  0.00     0.198 A 
ATOM     83  C   UNL A   1      46.985  29.019  35.573  1.00  0.00     0.198 A 
ATOM     84  F   UNL A   1      45.766  30.842  34.720  1.00  0.00    -0.203 F 
ATOM     85  F   UNL A   1      45.880  26.067  37.361  1.00  0.00    -0.200 F 
ATOM     86  C   UNL A   1      47.022  27.806  36.243  1.00  0.00     0.200 A 
ATOM     87  F   UNL A   1      48.123  29.576  35.133  1.00  0.00    -0.200 F 
ATOM     88  F   UNL A   1      48.195  27.197  36.464  1.00  0.00    -0.200 F 
ENDBRANCH  55  78
ENDBRANCH  29  30
ENDBRANCH  22  24
ENDBRANCH  21  22
ENDBRANCH  20  21
ENDBRANCH   1  20
TORSDOF 13
ENDMDL
MODEL 3
REMARK VINA RESULT:     -11.6      6.599     12.859
REMARK SMILES C[C@H](C(=O)OCCOC(=O)c1ccc(-c2c3nc(c(-c4c(F)c(F)c(F)c(F)c4F)c4ccc([nH]4)c(-c4c(F)c(F)c(F)c(F)c4F)c4nc(c(-c5c(F)c(F)c(F)c(F)c5F)c5ccc2[nH]5)C=C4)C=C3)cc1)c1ccc(-c2ccccc2)c(F)c1
REMARK SMILES IDX 6 1 5 2 3 3 4 4 2 5 1 6 74 7 75 8 86 9 76 10 84 11 77 12
REMARK SMILES IDX 85 13 78 14 79 15 83 16 80 17 82 18 81 19 7 20 8 21 9 22
REMARK SMILES IDX 10 23 11 24 12 25 73 26 13 27 72 28 14 29 15 30 16 31 66 32
REMARK SMILES IDX 17 33 71 34 65 35 67 36 18 37 70 38 64 39 63 40 19 42 51 43
REMARK SMILES IDX 31 44 50 45 32 46 35 47 49 48 68 49 33 50 34 51 48 53 69 54
REMARK SMILES IDX 36 55 20 56 21 57 29 58 22 59 23 60 27 61 30 62 24 63 25 64
REMARK SMILES IDX 28 65 26 66 52 67 53 68 61 69 54 70 55 71 59 72 62 73 56 74
REMARK SMILES IDX 57 75 60 76 58 77 37 78 38 79 46 80 39 81 40 82 44 83 47 84
REMARK SMILES IDX 41 85 42 86 45 87 43 88
REMARK H PARENT 67 41 35 52
REMARK Flexibility Score: inf
ROOT
ATOM      1  C   UNL A   1      42.667  19.921  26.353  1.00  0.00     0.274 C 
ENDROOT
BRANCH   1   2
ATOM      2  O   UNL A   1      43.211  20.499  25.150  1.00  0.00    -0.462 OA
BRANCH   2   3
ATOM      3  C   UNL A   1      43.667  21.781  25.248  1.00  0.00     0.313 C 
ATOM      4  O   UNL A   1      43.000  22.776  24.984  1.00  0.00    -0.252 OA
BRANCH   3   5
ATOM      5  C   UNL A   1      45.137  21.827  25.658  1.00  0.00     0.126 C 
ATOM      6  C   UNL A   1      46.036  22.011  24.426  1.00  0.00     0.025 C 
BRANCH   5   7
ATOM      7  C   UNL A   1      45.441  22.837  26.757  1.00  0.00    -0.031 A 
ATOM      8  C   UNL A   1      46.569  23.661  26.632  1.00  0.00     0.005 A 
ATOM      9  C   UNL A   1      44.646  22.989  27.901  1.00  0.00     0.044 A 
ATOM     10  C   UNL A   1      46.871  24.625  27.600  1.00  0.00     0.012 A 
ATOM     11  C   UNL A   1      44.958  23.948  28.870  1.00  0.00     0.131 A 
ATOM     12  C   UNL A   1      46.062  24.797  28.735  1.00  0.00     0.017 A 
ATOM     13  F   UNL A   1      44.145  24.056  29.933  1.00  0.00    -0.206 F 
BRANCH  12  14
ATOM     14  C   UNL A   1      46.367  25.849  29.713  1.00  0.00    -0.015 A 
ATOM     15  C   UNL A   1      45.468  26.911  29.921  1.00  0.00     0.009 A 
ATOM     16  C   UNL A   1      47.559  25.841  30.452  1.00  0.00     0.009 A 
ATOM     17  C   UNL A   1      45.753  27.932  30.831  1.00  0.00     0.001 A 
ATOM     18  C   UNL A   1      47.848  26.864  31.360  1.00  0.00     0.001 A 
ATOM     19  C   UNL A   1      46.946  27.909  31.547  1.00  0.00     0.000 A 
ENDBRANCH  12  14
ENDBRANCH   5   7
ENDBRANCH   3   5
ENDBRANCH   2   3
ENDBRANCH   1   2
BRANCH   1  20
ATOM     20  C   UNL A   1      41.185  19.610  26.166  1.00  0.00     0.275 C 
BRANCH  20  21
ATOM     21  O   UNL A   1      40.421  20.426  27.068  1.00  0.00    -0.458 OA
BRANCH  21  22
ATOM     22  C   UNL A   1      39.552  21.288  26.493  1.00  0.00     0.338 C 
ATOM     23  O   UNL A   1      38.595  21.021  25.790  1.00  0.00    -0.246 OA
BRANCH  22  24
ATOM     24  C   UNL A   1      39.954  22.667  26.824  1.00  0.00     0.060 A 
ATOM     25  C   UNL A   1      39.425  23.751  26.122  1.00  0.00     0.016 A 
ATOM     26  C   UNL A   1      40.933  22.875  27.794  1.00  0.00     0.016 A 
ATOM     27  C   UNL A   1      39.923  25.035  26.333  1.00  0.00     0.010 A 
ATOM     28  C   UNL A   1      41.372  24.173  28.066  1.00  0.00     0.010 A 
ATOM     29  C   UNL A   1      40.894  25.264  27.317  1.00  0.00    -0.014 A 
BRANCH  29  30
ATOM     30  C   UNL A   1      41.449  26.625  27.543  1.00  0.00     0.031 A 
ATOM     31  C   UNL A   1      42.821  26.969  27.031  1.00  0.00     0.074 A 
ATOM     32  C   UNL A   1      40.739  27.550  28.216  1.00  0.00     0.049 A 
ATOM     33  N   UNL A   1      43.569  28.010  27.294  1.00  0.00    -0.248 NA
ATOM     34  C   UNL A   1      43.439  26.002  26.110  1.00  0.00     0.031 C 
ATOM     35  C   UNL A   1      39.381  27.371  28.730  1.00  0.00     0.029 A 
ATOM     36  N   UNL A   1      41.068  28.831  28.588  1.00  0.00    -0.354 N 
ATOM     37  C   UNL A   1      44.764  27.797  26.619  1.00  0.00     0.074 A 
ATOM     38  C   UNL A   1      44.642  26.528  25.933  1.00  0.00     0.031 C 
ATOM     39  C   UNL A   1      38.986  28.502  29.332  1.00  0.00     0.029 A 
ATOM     40  C   UNL A   1      40.086  29.461  29.314  1.00  0.00     0.049 A 
ATOM     41  H   UNL A   1      41.925  29.257  28.356  1.00  0.00     0.167 HD
ATOM     42  C   UNL A   1      45.862  28.590  26.577  1.00  0.00     0.037 A 
ATOM     43  C   UNL A   1      40.088  30.656  29.933  1.00  0.00     0.037 A 
ATOM     44  C   UNL A   1      45.961  29.876  27.215  1.00  0.00     0.049 A 
ATOM     45  C   UNL A   1      41.322  31.511  29.886  1.00  0.00     0.074 A 
ATOM     46  C   UNL A   1      47.027  30.760  27.221  1.00  0.00     0.029 A 
ATOM     47  N   UNL A   1      44.944  30.472  27.947  1.00  0.00    -0.354 N 
ATOM     48  N   UNL A   1      42.468  31.277  29.296  1.00  0.00    -0.248 NA
ATOM     49  C   UNL A   1      41.269  32.791  30.608  1.00  0.00     0.031 C 
ATOM     50  C   UNL A   1      46.664  31.879  27.978  1.00  0.00     0.029 A 
ATOM     51  C   UNL A   1      45.361  31.709  28.414  1.00  0.00     0.049 A 
ATOM     52  H   UNL A   1      44.058  30.076  28.112  1.00  0.00     0.167 HD
ATOM     53  C   UNL A   1      43.268  32.377  29.566  1.00  0.00     0.074 A 
ATOM     54  C   UNL A   1      42.471  33.291  30.357  1.00  0.00     0.031 C 
ATOM     55  C   UNL A   1      44.553  32.606  29.198  1.00  0.00     0.037 A 
BRANCH  42  56
ATOM     56  C   UNL A   1      47.061  28.073  25.840  1.00  0.00     0.064 A 
ATOM     57  C   UNL A   1      47.100  28.012  24.440  1.00  0.00     0.173 A 
ATOM     58  C   UNL A   1      48.202  27.665  26.548  1.00  0.00     0.173 A 
ATOM     59  F   UNL A   1      46.030  28.380  23.719  1.00  0.00    -0.203 F 
ATOM     60  C   UNL A   1      48.230  27.540  23.776  1.00  0.00     0.198 A 
ATOM     61  C   UNL A   1      49.338  27.217  25.880  1.00  0.00     0.198 A 
ATOM     62  F   UNL A   1      48.216  27.709  27.889  1.00  0.00    -0.203 F 
ATOM     63  F   UNL A   1      48.231  27.453  22.439  1.00  0.00    -0.200 F 
ATOM     64  C   UNL A   1      49.349  27.149  24.495  1.00  0.00     0.200 A 
ATOM     65  F   UNL A   1      50.422  26.850  26.577  1.00  0.00    -0.200 F 
ATOM     66  F   UNL A   1      50.437  26.701  23.855  1.00  0.00    -0.200 F 
ENDBRANCH  42  56
BRANCH  43  67
ATOM     67  C   UNL A   1      38.883  31.096  30.682  1.00  0.00     0.064 A 
ATOM     68  C   UNL A   1      37.870  31.829  30.050  1.00  0.00     0.173 A 
ATOM     69  C   UNL A   1      38.714  30.782  32.039  1.00  0.00     0.173 A 
ATOM     70  F   UNL A   1      37.999  32.175  28.761  1.00  0.00    -0.203 F 
ATOM     71  C   UNL A   1      36.736  32.237  30.749  1.00  0.00     0.198 A 
ATOM     72  C   UNL A   1      37.569  31.168  32.730  1.00  0.00     0.198 A 
ATOM     73  F   UNL A   1      39.658  30.085  32.689  1.00  0.00    -0.203 F 
ATOM     74  F   UNL A   1      35.797  32.966  30.131  1.00  0.00    -0.200 F 
ATOM     75  C   UNL A   1      36.582  31.899  32.085  1.00  0.00     0.200 A 
ATOM     76  F   UNL A   1      37.419  30.828  34.017  1.00  0.00    -0.200 F 
ATOM     77  F   UNL A   1      35.486  32.282  32.754  1.00  0.00    -0.200 F 
ENDBRANCH  43  67
BRANCH  55  78
ATOM     78  C   UNL A   1      45.165  33.904  29.629  1.00  0.00     0.064 A 
ATOM     79  C   UNL A   1      45.869  34.014  30.837  1.00  0.00     0.173 A 
ATOM     80  C   UNL A   1      45.073  35.040  28.812  1.00  0.00     0.173 A 
ATOM     81  F   UNL A   1      45.968  32.958  31.659  1.00  0.00    -0.203 F 
ATOM     82  C   UNL A   1      46.445  35.222  31.221  1.00  0.00     0.198 A 
ATOM     83  C   UNL A   1      45.669  36.240  29.189  1.00  0.00     0.198 A 
ATOM     84  F   UNL A   1      44.413  34.982  27.646  1.00  0.00    -0.203 F 
ATOM     85  F   UNL A   1      47.080  35.317  32.396  1.00  0.00    -0.200 F 
ATOM     86  C   UNL A   1      46.348  36.332  30.393  1.00  0.00     0.200 A 
ATOM     87  F   UNL A   1      45.581  37.310  28.385  1.00  0.00    -0.200 F 
ATOM     88  F   UNL A   1      46.904  37.494  30.763  1.00  0.00    -0.200 F 
ENDBRANCH  55  78
ENDBRANCH  29  30
ENDBRANCH  22  24
ENDBRANCH  21  22
ENDBRANCH  20  21
ENDBRANCH   1  20
TORSDOF 13
ENDMDL
