MODEL 1
REMARK VINA RESULT:     -12.1      0.000      0.000
REMARK SMILES CC[C@H](C)c1ccccc1Oc1cccc(F)c1C(=O)OCCOC(=O)c1ccc(-c2c3nc(c(-c4c(F)c(F)c(F)c(F)c4F)c4ccc([nH]4)c(-c4c(F)c(F)c(F)c(F)c4F)c4nc(c(-c5c(F)c(F)c(F)c(F)c5F)c5ccc2[nH]5)C=C4)C=C3)cc1
REMARK SMILES IDX 22 1 21 2 19 3 20 4 18 5 12 6 13 7 14 8 16 9 15 10 17 11
REMARK SMILES IDX 11 12 10 13 5 14 6 15 7 16 9 17 8 18 3 19 4 20 2 21 1 22
REMARK SMILES IDX 23 23 24 24 25 25 26 26 27 27 28 28 89 29 29 30 88 31 30 32
REMARK SMILES IDX 31 33 32 34 82 35 33 36 87 37 81 38 83 39 34 40 86 41 80 42
REMARK SMILES IDX 79 43 35 45 67 46 47 47 66 48 48 49 51 50 65 51 84 52 49 53
REMARK SMILES IDX 50 54 64 56 85 57 52 58 36 59 37 60 45 61 38 62 39 63 43 64
REMARK SMILES IDX 46 65 40 66 41 67 44 68 42 69 68 70 69 71 77 72 70 73 71 74
REMARK SMILES IDX 75 75 78 76 72 77 73 78 76 79 74 80 53 81 54 82 62 83 55 84
REMARK SMILES IDX 56 85 60 86 63 87 57 88 58 89 61 90 59 91
REMARK H PARENT 83 44 51 55
REMARK Flexibility Score: inf
ROOT
ATOM      1  C   UNL A   1      31.235  29.735  25.105  1.00  0.00     0.275 C 
ENDROOT
BRANCH   1   2
ATOM      2  O   UNL A   1      32.200  28.670  24.968  1.00  0.00    -0.458 OA
BRANCH   2   3
ATOM      3  C   UNL A   1      31.616  27.466  24.772  1.00  0.00     0.345 C 
ATOM      4  O   UNL A   1      30.697  27.019  25.439  1.00  0.00    -0.246 OA
BRANCH   3   5
ATOM      5  C   UNL A   1      32.211  26.690  23.679  1.00  0.00     0.138 A 
ATOM      6  C   UNL A   1      33.281  25.818  23.857  1.00  0.00     0.144 A 
ATOM      7  C   UNL A   1      33.728  25.038  22.770  1.00  0.00     0.048 A 
ATOM      8  C   UNL A   1      33.035  25.010  21.564  1.00  0.00     0.007 A 
ATOM      9  C   UNL A   1      31.538  26.667  22.452  1.00  0.00     0.141 A 
ATOM     10  C   UNL A   1      31.921  25.819  21.413  1.00  0.00     0.040 A 
ATOM     11  F   UNL A   1      30.484  27.455  22.230  1.00  0.00    -0.206 F 
BRANCH   6  12
ATOM     12  O   UNL A   1      34.023  25.589  24.979  1.00  0.00    -0.456 OA
BRANCH  12  13
ATOM     13  C   UNL A   1      34.031  24.410  25.685  1.00  0.00     0.130 A 
ATOM     14  C   UNL A   1      35.136  23.583  26.014  1.00  0.00    -0.002 A 
ATOM     15  C   UNL A   1      34.860  22.546  26.936  1.00  0.00     0.008 A 
ATOM     16  C   UNL A   1      33.589  22.323  27.482  1.00  0.00     0.001 A 
ATOM     17  C   UNL A   1      32.759  24.185  26.253  1.00  0.00     0.047 A 
ATOM     18  C   UNL A   1      32.531  23.141  27.137  1.00  0.00     0.004 A 
BRANCH  14  19
ATOM     19  C   UNL A   1      36.535  23.675  25.376  1.00  0.00     0.019 C 
ATOM     20  C   UNL A   1      37.687  23.997  26.341  1.00  0.00     0.013 C 
BRANCH  19  21
ATOM     21  C   UNL A   1      36.986  22.545  24.401  1.00  0.00     0.005 C 
ATOM     22  C   UNL A   1      36.629  22.864  22.948  1.00  0.00     0.004 C 
ENDBRANCH  19  21
ENDBRANCH  14  19
ENDBRANCH  12  13
ENDBRANCH   6  12
ENDBRANCH   3   5
ENDBRANCH   2   3
ENDBRANCH   1   2
BRANCH   1  23
ATOM     23  C   UNL A   1      31.663  30.802  26.121  1.00  0.00     0.275 C 
BRANCH  23  24
ATOM     24  O   UNL A   1      33.083  30.783  26.370  1.00  0.00    -0.458 OA
BRANCH  24  25
ATOM     25  C   UNL A   1      33.529  31.714  27.244  1.00  0.00     0.338 C 
ATOM     26  O   UNL A   1      32.959  32.744  27.575  1.00  0.00    -0.246 OA
BRANCH  25  27
ATOM     27  C   UNL A   1      34.856  31.355  27.778  1.00  0.00     0.060 A 
ATOM     28  C   UNL A   1      35.110  30.061  28.228  1.00  0.00     0.016 A 
ATOM     29  C   UNL A   1      35.790  32.362  28.018  1.00  0.00     0.016 A 
ATOM     30  C   UNL A   1      36.222  29.790  29.011  1.00  0.00     0.010 A 
ATOM     31  C   UNL A   1      36.980  32.055  28.685  1.00  0.00     0.010 A 
ATOM     32  C   UNL A   1      37.200  30.767  29.206  1.00  0.00    -0.014 A 
BRANCH  32  33
ATOM     33  C   UNL A   1      38.454  30.434  29.926  1.00  0.00     0.031 A 
ATOM     34  C   UNL A   1      39.456  29.506  29.305  1.00  0.00     0.074 A 
ATOM     35  C   UNL A   1      38.674  30.950  31.152  1.00  0.00     0.049 A 
ATOM     36  N   UNL A   1      40.456  28.874  29.865  1.00  0.00    -0.248 NA
ATOM     37  C   UNL A   1      39.307  29.241  27.866  1.00  0.00     0.031 C 
ATOM     38  C   UNL A   1      37.819  31.927  31.831  1.00  0.00     0.029 A 
ATOM     39  N   UNL A   1      39.680  30.715  32.056  1.00  0.00    -0.354 N 
ATOM     40  C   UNL A   1      41.013  28.087  28.865  1.00  0.00     0.074 A 
ATOM     41  C   UNL A   1      40.248  28.328  27.660  1.00  0.00     0.031 C 
ATOM     42  C   UNL A   1      38.344  32.225  33.026  1.00  0.00     0.029 A 
ATOM     43  C   UNL A   1      39.497  31.368  33.252  1.00  0.00     0.049 A 
ATOM     44  H   UNL A   1      40.455  30.137  31.867  1.00  0.00     0.167 HD
ATOM     45  C   UNL A   1      42.059  27.233  28.964  1.00  0.00     0.037 A 
ATOM     46  C   UNL A   1      40.133  31.233  34.430  1.00  0.00     0.037 A 
ATOM     47  C   UNL A   1      42.829  27.047  30.168  1.00  0.00     0.049 A 
ATOM     48  C   UNL A   1      41.229  30.214  34.537  1.00  0.00     0.074 A 
ATOM     49  C   UNL A   1      43.929  26.234  30.374  1.00  0.00     0.029 A 
ATOM     50  N   UNL A   1      42.576  27.691  31.372  1.00  0.00    -0.354 N 
ATOM     51  N   UNL A   1      41.725  29.434  33.608  1.00  0.00    -0.248 NA
ATOM     52  C   UNL A   1      41.832  30.033  35.864  1.00  0.00     0.031 C 
ATOM     53  C   UNL A   1      44.304  26.340  31.717  1.00  0.00     0.029 A 
ATOM     54  C   UNL A   1      43.476  27.265  32.335  1.00  0.00     0.049 A 
ATOM     55  H   UNL A   1      41.863  28.353  31.520  1.00  0.00     0.167 HD
ATOM     56  C   UNL A   1      42.707  28.679  34.230  1.00  0.00     0.074 A 
ATOM     57  C   UNL A   1      42.751  29.111  35.613  1.00  0.00     0.031 C 
ATOM     58  C   UNL A   1      43.500  27.713  33.705  1.00  0.00     0.037 A 
BRANCH  45  59
ATOM     59  C   UNL A   1      42.399  26.393  27.766  1.00  0.00     0.064 A 
ATOM     60  C   UNL A   1      43.418  26.739  26.868  1.00  0.00     0.173 A 
ATOM     61  C   UNL A   1      41.709  25.189  27.537  1.00  0.00     0.173 A 
ATOM     62  F   UNL A   1      44.102  27.881  27.031  1.00  0.00    -0.203 F 
ATOM     63  C   UNL A   1      43.717  25.928  25.774  1.00  0.00     0.198 A 
ATOM     64  C   UNL A   1      42.032  24.366  26.462  1.00  0.00     0.198 A 
ATOM     65  F   UNL A   1      40.728  24.804  28.367  1.00  0.00    -0.203 F 
ATOM     66  F   UNL A   1      44.665  26.302  24.904  1.00  0.00    -0.200 F 
ATOM     67  C   UNL A   1      43.031  24.740  25.576  1.00  0.00     0.200 A 
ATOM     68  F   UNL A   1      41.376  23.211  26.283  1.00  0.00    -0.200 F 
ATOM     69  F   UNL A   1      43.326  23.957  24.529  1.00  0.00    -0.200 F 
ENDBRANCH  45  59
BRANCH  46  70
ATOM     70  C   UNL A   1      39.696  32.033  35.604  1.00  0.00     0.064 A 
ATOM     71  C   UNL A   1      38.685  31.565  36.454  1.00  0.00     0.173 A 
ATOM     72  C   UNL A   1      40.287  33.268  35.913  1.00  0.00     0.173 A 
ATOM     73  F   UNL A   1      38.072  30.403  36.188  1.00  0.00    -0.203 F 
ATOM     74  C   UNL A   1      38.279  32.305  37.563  1.00  0.00     0.198 A 
ATOM     75  C   UNL A   1      39.906  33.989  37.042  1.00  0.00     0.198 A 
ATOM     76  F   UNL A   1      41.260  33.764  35.133  1.00  0.00    -0.203 F 
ATOM     77  F   UNL A   1      37.283  31.853  38.337  1.00  0.00    -0.200 F 
ATOM     78  C   UNL A   1      38.896  33.511  37.863  1.00  0.00     0.200 A 
ATOM     79  F   UNL A   1      40.519  35.143  37.338  1.00  0.00    -0.200 F 
ATOM     80  F   UNL A   1      38.514  34.213  38.937  1.00  0.00    -0.200 F 
ENDBRANCH  46  70
BRANCH  58  81
ATOM     81  C   UNL A   1      44.501  27.081  34.625  1.00  0.00     0.064 A 
ATOM     82  C   UNL A   1      45.771  27.641  34.825  1.00  0.00     0.173 A 
ATOM     83  C   UNL A   1      44.168  25.925  35.346  1.00  0.00     0.173 A 
ATOM     84  F   UNL A   1      46.142  28.734  34.140  1.00  0.00    -0.203 F 
ATOM     85  C   UNL A   1      46.677  27.057  35.704  1.00  0.00     0.198 A 
ATOM     86  C   UNL A   1      45.066  25.362  36.249  1.00  0.00     0.198 A 
ATOM     87  F   UNL A   1      42.965  25.353  35.190  1.00  0.00    -0.203 F 
ATOM     88  F   UNL A   1      47.901  27.584  35.849  1.00  0.00    -0.200 F 
ATOM     89  C   UNL A   1      46.320  25.926  36.423  1.00  0.00     0.200 A 
ATOM     90  F   UNL A   1      44.714  24.277  36.951  1.00  0.00    -0.200 F 
ATOM     91  F   UNL A   1      47.190  25.373  37.279  1.00  0.00    -0.200 F 
ENDBRANCH  58  81
ENDBRANCH  32  33
ENDBRANCH  25  27
ENDBRANCH  24  25
ENDBRANCH  23  24
ENDBRANCH   1  23
TORSDOF 15
ENDMDL
MODEL 2
REMARK VINA RESULT:     -12.1      0.893      1.527
REMARK SMILES CC[C@H](C)c1ccccc1Oc1cccc(F)c1C(=O)OCCOC(=O)c1ccc(-c2c3nc(c(-c4c(F)c(F)c(F)c(F)c4F)c4ccc([nH]4)c(-c4c(F)c(F)c(F)c(F)c4F)c4nc(c(-c5c(F)c(F)c(F)c(F)c5F)c5ccc2[nH]5)C=C4)C=C3)cc1
REMARK SMILES IDX 22 1 21 2 19 3 20 4 18 5 12 6 13 7 14 8 16 9 15 10 17 11
REMARK SMILES IDX 11 12 10 13 5 14 6 15 7 16 9 17 8 18 3 19 4 20 2 21 1 22
REMARK SMILES IDX 23 23 24 24 25 25 26 26 27 27 28 28 89 29 29 30 88 31 30 32
REMARK SMILES IDX 31 33 32 34 82 35 33 36 87 37 81 38 83 39 34 40 86 41 80 42
REMARK SMILES IDX 79 43 35 45 67 46 47 47 66 48 48 49 51 50 65 51 84 52 49 53
REMARK SMILES IDX 50 54 64 56 85 57 52 58 36 59 37 60 45 61 38 62 39 63 43 64
REMARK SMILES IDX 46 65 40 66 41 67 44 68 42 69 68 70 69 71 77 72 70 73 71 74
REMARK SMILES IDX 75 75 78 76 72 77 73 78 76 79 74 80 53 81 54 82 62 83 55 84
REMARK SMILES IDX 56 85 60 86 63 87 57 88 58 89 61 90 59 91
REMARK H PARENT 83 44 51 55
REMARK Flexibility Score: inf
ROOT
ATOM      1  C   UNL A   1      31.780  28.384  27.237  1.00  0.00     0.275 C 
ENDROOT
BRANCH   1   2
ATOM      2  O   UNL A   1      32.708  27.337  26.880  1.00  0.00    -0.458 OA
BRANCH   2   3
ATOM      3  C   UNL A   1      32.093  26.268  26.325  1.00  0.00     0.345 C 
ATOM      4  O   UNL A   1      31.240  25.590  26.874  1.00  0.00    -0.246 OA
BRANCH   3   5
ATOM      5  C   UNL A   1      32.566  25.948  24.974  1.00  0.00     0.138 A 
ATOM      6  C   UNL A   1      33.705  25.188  24.724  1.00  0.00     0.144 A 
ATOM      7  C   UNL A   1      34.033  24.845  23.396  1.00  0.00     0.048 A 
ATOM      8  C   UNL A   1      33.170  25.124  22.341  1.00  0.00     0.007 A 
ATOM      9  C   UNL A   1      31.720  26.239  23.898  1.00  0.00     0.141 A 
ATOM     10  C   UNL A   1      31.996  25.811  22.600  1.00  0.00     0.040 A 
ATOM     11  F   UNL A   1      30.595  26.936  24.077  1.00  0.00    -0.206 F 
BRANCH   6  12
ATOM     12  O   UNL A   1      34.620  24.699  25.611  1.00  0.00    -0.456 OA
BRANCH  12  13
ATOM     13  C   UNL A   1      35.196  23.454  25.535  1.00  0.00     0.130 A 
ATOM     14  C   UNL A   1      34.583  22.183  25.677  1.00  0.00    -0.002 A 
ATOM     15  C   UNL A   1      35.395  21.078  25.330  1.00  0.00     0.008 A 
ATOM     16  C   UNL A   1      36.720  21.207  24.894  1.00  0.00     0.001 A 
ATOM     17  C   UNL A   1      36.528  23.572  25.079  1.00  0.00     0.047 A 
ATOM     18  C   UNL A   1      37.293  22.458  24.772  1.00  0.00     0.004 A 
BRANCH  14  19
ATOM     19  C   UNL A   1      33.178  21.935  26.260  1.00  0.00     0.019 C 
ATOM     20  C   UNL A   1      32.903  22.575  27.630  1.00  0.00     0.013 C 
BRANCH  19  21
ATOM     21  C   UNL A   1      31.939  22.150  25.338  1.00  0.00     0.005 C 
ATOM     22  C   UNL A   1      32.231  21.767  23.886  1.00  0.00     0.004 C 
ENDBRANCH  19  21
ENDBRANCH  14  19
ENDBRANCH  12  13
ENDBRANCH   6  12
ENDBRANCH   3   5
ENDBRANCH   2   3
ENDBRANCH   1   2
BRANCH   1  23
ATOM     23  C   UNL A   1      31.772  29.543  26.234  1.00  0.00     0.275 C 
BRANCH  23  24
ATOM     24  O   UNL A   1      33.081  30.119  26.051  1.00  0.00    -0.458 OA
BRANCH  24  25
ATOM     25  C   UNL A   1      33.423  31.073  26.946  1.00  0.00     0.338 C 
ATOM     26  O   UNL A   1      32.759  32.047  27.273  1.00  0.00    -0.246 OA
BRANCH  25  27
ATOM     27  C   UNL A   1      34.763  30.823  27.511  1.00  0.00     0.060 A 
ATOM     28  C   UNL A   1      35.142  29.534  27.884  1.00  0.00     0.016 A 
ATOM     29  C   UNL A   1      35.571  31.905  27.858  1.00  0.00     0.016 A 
ATOM     30  C   UNL A   1      36.250  29.330  28.694  1.00  0.00     0.010 A 
ATOM     31  C   UNL A   1      36.763  31.681  28.553  1.00  0.00     0.010 A 
ATOM     32  C   UNL A   1      37.106  30.390  28.995  1.00  0.00    -0.014 A 
BRANCH  32  33
ATOM     33  C   UNL A   1      38.363  30.144  29.744  1.00  0.00     0.031 A 
ATOM     34  C   UNL A   1      39.426  29.259  29.163  1.00  0.00     0.074 A 
ATOM     35  C   UNL A   1      38.532  30.699  30.961  1.00  0.00     0.049 A 
ATOM     36  N   UNL A   1      40.450  28.698  29.753  1.00  0.00    -0.248 NA
ATOM     37  C   UNL A   1      39.318  28.954  27.727  1.00  0.00     0.031 C 
ATOM     38  C   UNL A   1      37.611  31.642  31.603  1.00  0.00     0.029 A 
ATOM     39  N   UNL A   1      39.533  30.541  31.888  1.00  0.00    -0.354 N 
ATOM     40  C   UNL A   1      41.067  27.920  28.782  1.00  0.00     0.074 A 
ATOM     41  C   UNL A   1      40.312  28.091  27.559  1.00  0.00     0.031 C 
ATOM     42  C   UNL A   1      38.097  31.996  32.798  1.00  0.00     0.029 A 
ATOM     43  C   UNL A   1      39.292  31.209  33.064  1.00  0.00     0.049 A 
ATOM     44  H   UNL A   1      40.342  30.003  31.725  1.00  0.00     0.167 HD
ATOM     45  C   UNL A   1      42.157  27.128  28.918  1.00  0.00     0.037 A 
ATOM     46  C   UNL A   1      39.913  31.136  34.256  1.00  0.00     0.037 A 
ATOM     47  C   UNL A   1      42.914  27.013  30.140  1.00  0.00     0.049 A 
ATOM     48  C   UNL A   1      41.061  30.183  34.406  1.00  0.00     0.074 A 
ATOM     49  C   UNL A   1      44.053  26.267  30.383  1.00  0.00     0.029 A 
ATOM     50  N   UNL A   1      42.604  27.669  31.324  1.00  0.00    -0.354 N 
ATOM     51  N   UNL A   1      41.616  29.411  33.504  1.00  0.00    -0.248 NA
ATOM     52  C   UNL A   1      41.649  30.065  35.746  1.00  0.00     0.031 C 
ATOM     53  C   UNL A   1      44.397  26.424  31.730  1.00  0.00     0.029 A 
ATOM     54  C   UNL A   1      43.508  27.315  32.312  1.00  0.00     0.049 A 
ATOM     55  H   UNL A   1      41.852  28.293  31.444  1.00  0.00     0.167 HD
ATOM     56  C   UNL A   1      42.628  28.727  34.159  1.00  0.00     0.074 A 
ATOM     57  C   UNL A   1      42.622  29.191  35.532  1.00  0.00     0.031 C 
ATOM     58  C   UNL A   1      43.482  27.795  33.671  1.00  0.00     0.037 A 
BRANCH  45  59
ATOM     59  C   UNL A   1      42.564  26.281  27.746  1.00  0.00     0.064 A 
ATOM     60  C   UNL A   1      43.566  26.673  26.847  1.00  0.00     0.173 A 
ATOM     61  C   UNL A   1      41.961  25.028  27.546  1.00  0.00     0.173 A 
ATOM     62  F   UNL A   1      44.168  27.863  26.984  1.00  0.00    -0.203 F 
ATOM     63  C   UNL A   1      43.930  25.855  25.778  1.00  0.00     0.198 A 
ATOM     64  C   UNL A   1      42.349  24.200  26.496  1.00  0.00     0.198 A 
ATOM     65  F   UNL A   1      41.001  24.598  28.379  1.00  0.00    -0.203 F 
ATOM     66  F   UNL A   1      44.858  26.271  24.905  1.00  0.00    -0.200 F 
ATOM     67  C   UNL A   1      43.328  24.618  25.608  1.00  0.00     0.200 A 
ATOM     68  F   UNL A   1      41.776  22.998  26.344  1.00  0.00    -0.200 F 
ATOM     69  F   UNL A   1      43.686  23.830  24.585  1.00  0.00    -0.200 F 
ENDBRANCH  45  59
BRANCH  46  70
ATOM     70  C   UNL A   1      39.410  31.937  35.404  1.00  0.00     0.064 A 
ATOM     71  C   UNL A   1      38.532  31.375  36.339  1.00  0.00     0.173 A 
ATOM     72  C   UNL A   1      39.808  33.269  35.600  1.00  0.00     0.173 A 
ATOM     73  F   UNL A   1      38.103  30.115  36.183  1.00  0.00    -0.203 F 
ATOM     74  C   UNL A   1      38.067  32.117  37.424  1.00  0.00     0.198 A 
ATOM     75  C   UNL A   1      39.371  33.997  36.704  1.00  0.00     0.198 A 
ATOM     76  F   UNL A   1      40.648  33.857  34.735  1.00  0.00    -0.203 F 
ATOM     77  F   UNL A   1      37.197  31.568  38.282  1.00  0.00    -0.200 F 
ATOM     78  C   UNL A   1      38.495  33.423  37.612  1.00  0.00     0.200 A 
ATOM     79  F   UNL A   1      39.804  35.252  36.891  1.00  0.00    -0.200 F 
ATOM     80  F   UNL A   1      38.058  34.130  38.662  1.00  0.00    -0.200 F 
ENDBRANCH  46  70
BRANCH  58  81
ATOM     81  C   UNL A   1      44.500  27.240  34.622  1.00  0.00     0.064 A 
ATOM     82  C   UNL A   1      45.727  27.882  34.841  1.00  0.00     0.173 A 
ATOM     83  C   UNL A   1      44.223  26.076  35.354  1.00  0.00     0.173 A 
ATOM     84  F   UNL A   1      46.045  28.986  34.147  1.00  0.00    -0.203 F 
ATOM     85  C   UNL A   1      46.648  27.369  35.749  1.00  0.00     0.198 A 
ATOM     86  C   UNL A   1      45.134  25.584  36.285  1.00  0.00     0.198 A 
ATOM     87  F   UNL A   1      43.062  25.427  35.181  1.00  0.00    -0.203 F 
ATOM     88  F   UNL A   1      47.832  27.974  35.912  1.00  0.00    -0.200 F 
ATOM     89  C   UNL A   1      46.346  26.228  36.477  1.00  0.00     0.200 A 
ATOM     90  F   UNL A   1      44.835  24.489  36.997  1.00  0.00    -0.200 F 
ATOM     91  F   UNL A   1      47.230  25.743  37.361  1.00  0.00    -0.200 F 
ENDBRANCH  58  81
ENDBRANCH  32  33
ENDBRANCH  25  27
ENDBRANCH  24  25
ENDBRANCH  23  24
ENDBRANCH   1  23
TORSDOF 15
ENDMDL
MODEL 3
REMARK VINA RESULT:     -12.0      0.878      2.253
REMARK SMILES CC[C@H](C)c1ccccc1Oc1cccc(F)c1C(=O)OCCOC(=O)c1ccc(-c2c3nc(c(-c4c(F)c(F)c(F)c(F)c4F)c4ccc([nH]4)c(-c4c(F)c(F)c(F)c(F)c4F)c4nc(c(-c5c(F)c(F)c(F)c(F)c5F)c5ccc2[nH]5)C=C4)C=C3)cc1
REMARK SMILES IDX 22 1 21 2 19 3 20 4 18 5 12 6 13 7 14 8 16 9 15 10 17 11
REMARK SMILES IDX 11 12 10 13 5 14 6 15 7 16 9 17 8 18 3 19 4 20 2 21 1 22
REMARK SMILES IDX 23 23 24 24 25 25 26 26 27 27 28 28 89 29 29 30 88 31 30 32
REMARK SMILES IDX 31 33 32 34 82 35 33 36 87 37 81 38 83 39 34 40 86 41 80 42
REMARK SMILES IDX 79 43 35 45 67 46 47 47 66 48 48 49 51 50 65 51 84 52 49 53
REMARK SMILES IDX 50 54 64 56 85 57 52 58 36 59 37 60 45 61 38 62 39 63 43 64
REMARK SMILES IDX 46 65 40 66 41 67 44 68 42 69 68 70 69 71 77 72 70 73 71 74
REMARK SMILES IDX 75 75 78 76 72 77 73 78 76 79 74 80 53 81 54 82 62 83 55 84
REMARK SMILES IDX 56 85 60 86 63 87 57 88 58 89 61 90 59 91
REMARK H PARENT 83 44 51 55
REMARK Flexibility Score: inf
ROOT
ATOM      1  C   UNL A   1      31.829  28.238  27.170  1.00  0.00     0.275 C 
ENDROOT
BRANCH   1   2
ATOM      2  O   UNL A   1      32.596  27.453  26.232  1.00  0.00    -0.458 OA
BRANCH   2   3
ATOM      3  C   UNL A   1      31.812  26.721  25.408  1.00  0.00     0.345 C 
ATOM      4  O   UNL A   1      31.219  27.161  24.436  1.00  0.00    -0.246 OA
BRANCH   3   5
ATOM      5  C   UNL A   1      31.691  25.313  25.800  1.00  0.00     0.138 A 
ATOM      6  C   UNL A   1      32.788  24.485  26.016  1.00  0.00     0.144 A 
ATOM      7  C   UNL A   1      32.584  23.171  26.487  1.00  0.00     0.048 A 
ATOM      8  C   UNL A   1      31.324  22.729  26.879  1.00  0.00     0.007 A 
ATOM      9  C   UNL A   1      30.428  24.846  26.179  1.00  0.00     0.141 A 
ATOM     10  C   UNL A   1      30.242  23.582  26.740  1.00  0.00     0.040 A 
ATOM     11  F   UNL A   1      29.339  25.605  26.029  1.00  0.00    -0.206 F 
BRANCH   6  12
ATOM     12  O   UNL A   1      34.113  24.749  25.823  1.00  0.00    -0.456 OA
BRANCH  12  13
ATOM     13  C   UNL A   1      34.997  23.904  25.198  1.00  0.00     0.130 A 
ATOM     14  C   UNL A   1      35.111  23.606  23.816  1.00  0.00    -0.002 A 
ATOM     15  C   UNL A   1      36.259  22.865  23.450  1.00  0.00     0.008 A 
ATOM     16  C   UNL A   1      37.218  22.430  24.375  1.00  0.00     0.001 A 
ATOM     17  C   UNL A   1      35.978  23.473  26.118  1.00  0.00     0.047 A 
ATOM     18  C   UNL A   1      37.077  22.730  25.716  1.00  0.00     0.004 A 
BRANCH  14  19
ATOM     19  C   UNL A   1      34.052  23.936  22.746  1.00  0.00     0.019 C 
ATOM     20  C   UNL A   1      32.781  23.074  22.777  1.00  0.00     0.013 C 
BRANCH  19  21
ATOM     21  C   UNL A   1      33.653  25.428  22.528  1.00  0.00     0.005 C 
ATOM     22  C   UNL A   1      32.532  25.578  21.499  1.00  0.00     0.004 C 
ENDBRANCH  19  21
ENDBRANCH  14  19
ENDBRANCH  12  13
ENDBRANCH   6  12
ENDBRANCH   3   5
ENDBRANCH   2   3
ENDBRANCH   1   2
BRANCH   1  23
ATOM     23  C   UNL A   1      31.764  29.723  26.794  1.00  0.00     0.275 C 
BRANCH  23  24
ATOM     24  O   UNL A   1      33.050  30.246  26.402  1.00  0.00    -0.458 OA
BRANCH  24  25
ATOM     25  C   UNL A   1      33.517  31.261  27.164  1.00  0.00     0.338 C 
ATOM     26  O   UNL A   1      32.959  32.324  27.394  1.00  0.00    -0.246 OA
BRANCH  25  27
ATOM     27  C   UNL A   1      34.854  30.952  27.706  1.00  0.00     0.060 A 
ATOM     28  C   UNL A   1      35.169  29.656  28.112  1.00  0.00     0.016 A 
ATOM     29  C   UNL A   1      35.729  31.997  28.001  1.00  0.00     0.016 A 
ATOM     30  C   UNL A   1      36.282  29.414  28.904  1.00  0.00     0.010 A 
ATOM     31  C   UNL A   1      36.923  31.727  28.676  1.00  0.00     0.010 A 
ATOM     32  C   UNL A   1      37.203  30.433  29.152  1.00  0.00    -0.014 A 
BRANCH  32  33
ATOM     33  C   UNL A   1      38.461  30.139  29.881  1.00  0.00     0.031 A 
ATOM     34  C   UNL A   1      39.493  29.235  29.271  1.00  0.00     0.074 A 
ATOM     35  C   UNL A   1      38.661  30.668  31.105  1.00  0.00     0.049 A 
ATOM     36  N   UNL A   1      40.507  28.635  29.839  1.00  0.00    -0.248 NA
ATOM     37  C   UNL A   1      39.359  28.958  27.832  1.00  0.00     0.031 C 
ATOM     38  C   UNL A   1      37.775  31.624  31.774  1.00  0.00     0.029 A 
ATOM     39  N   UNL A   1      39.668  30.465  32.016  1.00  0.00    -0.354 N 
ATOM     40  C   UNL A   1      41.090  27.857  28.846  1.00  0.00     0.074 A 
ATOM     41  C   UNL A   1      40.326  28.071  27.636  1.00  0.00     0.031 C 
ATOM     42  C   UNL A   1      38.284  31.943  32.970  1.00  0.00     0.029 A 
ATOM     43  C   UNL A   1      39.460  31.119  33.207  1.00  0.00     0.049 A 
ATOM     44  H   UNL A   1      40.460  29.908  31.835  1.00  0.00     0.167 HD
ATOM     45  C   UNL A   1      42.159  27.033  28.956  1.00  0.00     0.037 A 
ATOM     46  C   UNL A   1      40.093  31.008  34.389  1.00  0.00     0.037 A 
ATOM     47  C   UNL A   1      42.927  26.876  30.166  1.00  0.00     0.049 A 
ATOM     48  C   UNL A   1      41.216  30.020  34.508  1.00  0.00     0.074 A 
ATOM     49  C   UNL A   1      44.048  26.094  30.382  1.00  0.00     0.029 A 
ATOM     50  N   UNL A   1      42.650  27.519  31.364  1.00  0.00    -0.354 N 
ATOM     51  N   UNL A   1      41.738  29.249  33.587  1.00  0.00    -0.248 NA
ATOM     52  C   UNL A   1      41.816  29.863  35.839  1.00  0.00     0.031 C 
ATOM     53  C   UNL A   1      44.413  26.218  31.726  1.00  0.00     0.029 A 
ATOM     54  C   UNL A   1      43.556  27.123  32.335  1.00  0.00     0.049 A 
ATOM     55  H   UNL A   1      41.918  28.162  31.505  1.00  0.00     0.167 HD
ATOM     56  C   UNL A   1      42.738  28.526  34.217  1.00  0.00     0.074 A 
ATOM     57  C   UNL A   1      42.762  28.966  35.598  1.00  0.00     0.031 C 
ATOM     58  C   UNL A   1      43.560  27.579  33.702  1.00  0.00     0.037 A 
BRANCH  45  59
ATOM     59  C   UNL A   1      42.529  26.196  27.764  1.00  0.00     0.064 A 
ATOM     60  C   UNL A   1      43.537  26.571  26.865  1.00  0.00     0.173 A 
ATOM     61  C   UNL A   1      41.881  24.969  27.544  1.00  0.00     0.173 A 
ATOM     62  F   UNL A   1      44.182  27.736  27.021  1.00  0.00    -0.203 F 
ATOM     63  C   UNL A   1      43.865  25.762  25.778  1.00  0.00     0.198 A 
ATOM     64  C   UNL A   1      42.233  24.149  26.475  1.00  0.00     0.198 A 
ATOM     65  F   UNL A   1      40.912  24.556  28.376  1.00  0.00    -0.203 F 
ATOM     66  F   UNL A   1      44.801  26.162  24.906  1.00  0.00    -0.200 F 
ATOM     67  C   UNL A   1      43.219  24.550  25.588  1.00  0.00     0.200 A 
ATOM     68  F   UNL A   1      41.617  22.971  26.304  1.00  0.00    -0.200 F 
ATOM     69  F   UNL A   1      43.542  23.770  24.547  1.00  0.00    -0.200 F 
ENDBRANCH  45  59
BRANCH  46  70
ATOM     70  C   UNL A   1      39.627  31.802  35.557  1.00  0.00     0.064 A 
ATOM     71  C   UNL A   1      40.172  33.062  35.831  1.00  0.00     0.173 A 
ATOM     72  C   UNL A   1      38.618  31.328  36.411  1.00  0.00     0.173 A 
ATOM     73  F   UNL A   1      41.155  33.548  35.060  1.00  0.00    -0.203 F 
ATOM     74  C   UNL A   1      39.730  33.816  36.917  1.00  0.00     0.198 A 
ATOM     75  C   UNL A   1      38.152  32.098  37.475  1.00  0.00     0.198 A 
ATOM     76  F   UNL A   1      38.060  30.127  36.195  1.00  0.00    -0.203 F 
ATOM     77  F   UNL A   1      40.297  35.001  37.179  1.00  0.00    -0.200 F 
ATOM     78  C   UNL A   1      38.714  33.338  37.732  1.00  0.00     0.200 A 
ATOM     79  F   UNL A   1      37.157  31.640  38.246  1.00  0.00    -0.200 F 
ATOM     80  F   UNL A   1      38.281  34.071  38.766  1.00  0.00    -0.200 F 
ENDBRANCH  46  70
BRANCH  58  81
ATOM     81  C   UNL A   1      44.573  26.980  34.631  1.00  0.00     0.064 A 
ATOM     82  C   UNL A   1      45.821  27.583  34.844  1.00  0.00     0.173 A 
ATOM     83  C   UNL A   1      44.272  25.812  35.348  1.00  0.00     0.173 A 
ATOM     84  F   UNL A   1      46.162  28.688  34.165  1.00  0.00    -0.203 F 
ATOM     85  C   UNL A   1      46.738  27.029  35.732  1.00  0.00     0.198 A 
ATOM     86  C   UNL A   1      45.180  25.279  36.258  1.00  0.00     0.198 A 
ATOM     87  F   UNL A   1      43.091  25.200  35.179  1.00  0.00    -0.203 F 
ATOM     88  F   UNL A   1      47.941  27.596  35.889  1.00  0.00    -0.200 F 
ATOM     89  C   UNL A   1      46.413  25.885  36.445  1.00  0.00     0.200 A 
ATOM     90  F   UNL A   1      44.858  24.181  36.956  1.00  0.00    -0.200 F 
ATOM     91  F   UNL A   1      47.293  25.360  37.310  1.00  0.00    -0.200 F 
ENDBRANCH  58  81
ENDBRANCH  32  33
ENDBRANCH  25  27
ENDBRANCH  24  25
ENDBRANCH  23  24
ENDBRANCH   1  23
TORSDOF 15
ENDMDL
