MODEL 1
REMARK VINA RESULT:     -12.6      0.000      0.000
REMARK SMILES C#Cc1cc(Cl)c2c(c1)C=C(C(=O)OCCOC(=O)c1ccc(-c3c4nc(c(-c5c(F)c(F)c(F)c(F)c5F)c5ccc([nH]5)c(-c5c(F)c(F)c(F)c(F)c5F)c5nc(c(-c6c(F)c(F)c(F)c(F)c6F)c6ccc3[nH]6)C=C5)C=C4)cc1)[C@@H](C(F)(F)F)O2
REMARK SMILES IDX 16 1 15 2 14 3 12 4 13 5 11 6 3 7 4 8 9 9 5 10 8 11 6 12
REMARK SMILES IDX 7 13 10 14 88 15 83 16 2 17 1 18 84 19 85 20 86 21 87 22
REMARK SMILES IDX 17 23 18 24 19 25 20 26 21 27 82 28 22 29 81 30 23 31 24 32
REMARK SMILES IDX 25 33 75 34 26 35 80 36 74 37 76 38 27 39 79 40 73 41 72 42
REMARK SMILES IDX 28 44 60 45 40 46 59 47 41 48 44 49 58 50 77 51 42 52 43 53
REMARK SMILES IDX 57 55 78 56 45 57 29 58 30 59 38 60 31 61 32 62 36 63 39 64
REMARK SMILES IDX 33 65 34 66 37 67 35 68 61 69 62 70 70 71 63 72 64 73 68 74
REMARK SMILES IDX 71 75 65 76 66 77 69 78 67 79 46 80 47 81 55 82 48 83 49 84
REMARK SMILES IDX 53 85 56 86 50 87 51 88 54 89 52 90
REMARK H PARENT 76 43 44 54
REMARK Flexibility Score: inf
ROOT
ATOM      1  C   UNL A   1      31.765  29.952  25.401  1.00  0.00     0.275 C 
ENDROOT
BRANCH   1   2
ATOM      2  C   UNL A   1      31.691  28.560  24.770  1.00  0.00     0.275 C 
BRANCH   2   3
ATOM      3  O   UNL A   1      32.409  27.583  25.558  1.00  0.00    -0.459 OA
BRANCH   3   4
ATOM      4  C   UNL A   1      31.641  26.671  26.195  1.00  0.00     0.338 C 
ATOM      5  O   UNL A   1      30.655  26.901  26.877  1.00  0.00    -0.246 OA
BRANCH   4   6
ATOM      6  C   UNL A   1      32.136  25.300  25.953  1.00  0.00     0.087 C 
ATOM      7  C   UNL A   1      35.937  22.371  25.505  1.00  0.00     0.027 A 
ATOM      8  C   UNL A   1      35.134  21.405  24.899  1.00  0.00     0.041 A 
ATOM      9  C   UNL A   1      35.362  23.552  25.966  1.00  0.00     0.029 A 
ATOM     10  C   UNL A   1      33.758  21.629  24.757  1.00  0.00     0.084 A 
ATOM     11  C   UNL A   1      33.987  23.779  25.802  1.00  0.00     0.020 A 
ATOM     12  Cl  UNL A   1      32.809  20.403  23.994  1.00  0.00    -0.080 Cl
ATOM     13  C   UNL A   1      33.173  22.822  25.200  1.00  0.00     0.146 A 
ATOM     14  C   UNL A   1      33.421  25.044  26.216  1.00  0.00     0.027 C 
ATOM     15  O   UNL A   1      31.823  23.002  25.040  1.00  0.00    -0.474 OA
ATOM     16  C   UNL A   1      31.238  24.317  25.267  1.00  0.00     0.316 C 
BRANCH   7  17
ATOM     17  C   UNL A   1      37.348  22.172  25.640  1.00  0.00    -0.070 C 
ATOM     18  C   UNL A   1      38.529  21.975  25.746  1.00  0.00     0.010 C 
ENDBRANCH   7  17
BRANCH  16  19
ATOM     19  C   UNL A   1      30.728  24.882  23.930  1.00  0.00     0.430 C 
ATOM     20  F   UNL A   1      30.256  23.903  23.125  1.00  0.00    -0.167 F 
ATOM     21  F   UNL A   1      29.709  25.755  24.117  1.00  0.00    -0.167 F 
ATOM     22  F   UNL A   1      31.701  25.536  23.255  1.00  0.00    -0.167 F 
ENDBRANCH  16  19
ENDBRANCH   4   6
ENDBRANCH   3   4
ENDBRANCH   2   3
ENDBRANCH   1   2
BRANCH   1  23
ATOM     23  O   UNL A   1      32.417  29.903  26.685  1.00  0.00    -0.458 OA
BRANCH  23  24
ATOM     24  C   UNL A   1      32.984  31.065  27.070  1.00  0.00     0.338 C 
ATOM     25  O   UNL A   1      32.440  32.147  27.216  1.00  0.00    -0.246 OA
BRANCH  24  26
ATOM     26  C   UNL A   1      34.389  30.858  27.438  1.00  0.00     0.060 A 
ATOM     27  C   UNL A   1      34.816  29.553  27.628  1.00  0.00     0.016 A 
ATOM     28  C   UNL A   1      35.187  31.919  27.851  1.00  0.00     0.016 A 
ATOM     29  C   UNL A   1      35.923  29.293  28.420  1.00  0.00     0.010 A 
ATOM     30  C   UNL A   1      36.410  31.649  28.480  1.00  0.00     0.010 A 
ATOM     31  C   UNL A   1      36.765  30.332  28.827  1.00  0.00    -0.014 A 
BRANCH  31  32
ATOM     32  C   UNL A   1      37.996  30.028  29.614  1.00  0.00     0.031 A 
ATOM     33  C   UNL A   1      39.077  29.153  29.033  1.00  0.00     0.074 A 
ATOM     34  C   UNL A   1      38.156  30.558  30.845  1.00  0.00     0.049 A 
ATOM     35  N   UNL A   1      40.123  28.630  29.624  1.00  0.00    -0.248 NA
ATOM     36  C   UNL A   1      38.966  28.804  27.606  1.00  0.00     0.031 C 
ATOM     37  C   UNL A   1      37.218  31.472  31.507  1.00  0.00     0.029 A 
ATOM     38  N   UNL A   1      39.169  30.419  31.763  1.00  0.00    -0.354 N 
ATOM     39  C   UNL A   1      40.760  27.858  28.660  1.00  0.00     0.074 A 
ATOM     40  C   UNL A   1      39.976  27.960  27.449  1.00  0.00     0.031 C 
ATOM     41  C   UNL A   1      37.723  31.852  32.687  1.00  0.00     0.029 A 
ATOM     42  C   UNL A   1      38.952  31.113  32.930  1.00  0.00     0.049 A 
ATOM     43  H   UNL A   1      39.972  29.874  31.601  1.00  0.00     0.167 HD
ATOM     44  C   UNL A   1      41.901  27.139  28.778  1.00  0.00     0.037 A 
ATOM     45  C   UNL A   1      39.627  31.115  34.095  1.00  0.00     0.037 A 
ATOM     46  C   UNL A   1      42.700  27.086  29.976  1.00  0.00     0.049 A 
ATOM     47  C   UNL A   1      40.840  30.240  34.224  1.00  0.00     0.074 A 
ATOM     48  C   UNL A   1      43.876  26.392  30.195  1.00  0.00     0.029 A 
ATOM     49  N   UNL A   1      42.411  27.764  31.151  1.00  0.00    -0.354 N 
ATOM     50  N   UNL A   1      41.410  29.483  33.319  1.00  0.00    -0.248 NA
ATOM     51  C   UNL A   1      41.494  30.205  35.538  1.00  0.00     0.031 C 
ATOM     52  C   UNL A   1      44.268  26.601  31.519  1.00  0.00     0.029 A 
ATOM     53  C   UNL A   1      43.374  27.482  32.107  1.00  0.00     0.049 A 
ATOM     54  H   UNL A   1      41.636  28.357  31.287  1.00  0.00     0.167 HD
ATOM     55  C   UNL A   1      42.503  28.902  33.945  1.00  0.00     0.074 A 
ATOM     56  C   UNL A   1      42.531  29.414  35.299  1.00  0.00     0.031 C 
ATOM     57  C   UNL A   1      43.398  28.016  33.445  1.00  0.00     0.037 A 
BRANCH  44  58
ATOM     58  C   UNL A   1      42.368  26.335  27.597  1.00  0.00     0.064 A 
ATOM     59  C   UNL A   1      43.374  26.798  26.737  1.00  0.00     0.173 A 
ATOM     60  C   UNL A   1      41.877  25.035  27.389  1.00  0.00     0.173 A 
ATOM     61  F   UNL A   1      43.870  28.036  26.884  1.00  0.00    -0.203 F 
ATOM     62  C   UNL A   1      43.866  25.994  25.711  1.00  0.00     0.198 A 
ATOM     63  C   UNL A   1      42.395  24.222  26.384  1.00  0.00     0.198 A 
ATOM     64  F   UNL A   1      40.920  24.538  28.186  1.00  0.00    -0.203 F 
ATOM     65  F   UNL A   1      44.811  26.469  24.886  1.00  0.00    -0.200 F 
ATOM     66  C   UNL A   1      43.388  24.703  25.545  1.00  0.00     0.200 A 
ATOM     67  F   UNL A   1      41.945  22.969  26.238  1.00  0.00    -0.200 F 
ATOM     68  F   UNL A   1      43.887  23.921  24.578  1.00  0.00    -0.200 F 
ENDBRANCH  44  58
BRANCH  45  69
ATOM     69  C   UNL A   1      39.144  31.939  35.238  1.00  0.00     0.064 A 
ATOM     70  C   UNL A   1      39.435  33.308  35.310  1.00  0.00     0.173 A 
ATOM     71  C   UNL A   1      38.379  31.382  36.276  1.00  0.00     0.173 A 
ATOM     72  F   UNL A   1      40.180  33.885  34.356  1.00  0.00    -0.203 F 
ATOM     73  C   UNL A   1      38.995  34.083  36.381  1.00  0.00     0.198 A 
ATOM     74  C   UNL A   1      37.905  32.166  37.325  1.00  0.00     0.198 A 
ATOM     75  F   UNL A   1      38.069  30.077  36.259  1.00  0.00    -0.203 F 
ATOM     76  F   UNL A   1      39.333  35.378  36.450  1.00  0.00    -0.200 F 
ATOM     77  C   UNL A   1      38.222  33.514  37.382  1.00  0.00     0.200 A 
ATOM     78  F   UNL A   1      37.139  31.616  38.277  1.00  0.00    -0.200 F 
ATOM     79  F   UNL A   1      37.790  34.263  38.406  1.00  0.00    -0.200 F 
ENDBRANCH  45  69
BRANCH  57  80
ATOM     80  C   UNL A   1      44.508  27.566  34.348  1.00  0.00     0.064 A 
ATOM     81  C   UNL A   1      44.400  26.402  35.122  1.00  0.00     0.173 A 
ATOM     82  C   UNL A   1      45.723  28.268  34.380  1.00  0.00     0.173 A 
ATOM     83  F   UNL A   1      43.254  25.704  35.136  1.00  0.00    -0.203 F 
ATOM     84  C   UNL A   1      45.462  25.966  35.908  1.00  0.00     0.198 A 
ATOM     85  C   UNL A   1      46.796  27.808  35.138  1.00  0.00     0.198 A 
ATOM     86  F   UNL A   1      45.881  29.383  33.651  1.00  0.00    -0.203 F 
ATOM     87  F   UNL A   1      45.322  24.875  36.674  1.00  0.00    -0.200 F 
ATOM     88  C   UNL A   1      46.662  26.662  35.905  1.00  0.00     0.200 A 
ATOM     89  F   UNL A   1      47.962  28.469  35.116  1.00  0.00    -0.200 F 
ATOM     90  F   UNL A   1      47.691  26.226  36.645  1.00  0.00    -0.200 F 
ENDBRANCH  57  80
ENDBRANCH  31  32
ENDBRANCH  24  26
ENDBRANCH  23  24
ENDBRANCH   1  23
TORSDOF 13
ENDMDL
MODEL 2
REMARK VINA RESULT:     -12.6      0.060      1.203
REMARK SMILES C#Cc1cc(Cl)c2c(c1)C=C(C(=O)OCCOC(=O)c1ccc(-c3c4nc(c(-c5c(F)c(F)c(F)c(F)c5F)c5ccc([nH]5)c(-c5c(F)c(F)c(F)c(F)c5F)c5nc(c(-c6c(F)c(F)c(F)c(F)c6F)c6ccc3[nH]6)C=C5)C=C4)cc1)[C@@H](C(F)(F)F)O2
REMARK SMILES IDX 16 1 15 2 14 3 12 4 13 5 11 6 3 7 4 8 9 9 5 10 8 11 6 12
REMARK SMILES IDX 7 13 10 14 88 15 83 16 2 17 1 18 84 19 85 20 86 21 87 22
REMARK SMILES IDX 17 23 18 24 19 25 20 26 21 27 82 28 22 29 81 30 23 31 24 32
REMARK SMILES IDX 25 33 75 34 26 35 80 36 74 37 76 38 27 39 79 40 73 41 72 42
REMARK SMILES IDX 28 44 60 45 40 46 59 47 41 48 44 49 58 50 77 51 42 52 43 53
REMARK SMILES IDX 57 55 78 56 45 57 29 58 30 59 38 60 31 61 32 62 36 63 39 64
REMARK SMILES IDX 33 65 34 66 37 67 35 68 61 69 62 70 70 71 63 72 64 73 68 74
REMARK SMILES IDX 71 75 65 76 66 77 69 78 67 79 46 80 47 81 55 82 48 83 49 84
REMARK SMILES IDX 53 85 56 86 50 87 51 88 54 89 52 90
REMARK H PARENT 76 43 44 54
REMARK Flexibility Score: inf
ROOT
ATOM      1  C   UNL A   1      32.080  29.952  25.263  1.00  0.00     0.275 C 
ENDROOT
BRANCH   1   2
ATOM      2  C   UNL A   1      31.746  28.530  24.809  1.00  0.00     0.275 C 
BRANCH   2   3
ATOM      3  O   UNL A   1      32.440  27.543  25.607  1.00  0.00    -0.459 OA
BRANCH   3   4
ATOM      4  C   UNL A   1      31.652  26.628  26.215  1.00  0.00     0.338 C 
ATOM      5  O   UNL A   1      30.653  26.855  26.878  1.00  0.00    -0.246 OA
BRANCH   4   6
ATOM      6  C   UNL A   1      32.145  25.257  25.967  1.00  0.00     0.087 C 
ATOM      7  C   UNL A   1      35.939  22.321  25.502  1.00  0.00     0.027 A 
ATOM      8  C   UNL A   1      35.133  21.360  24.893  1.00  0.00     0.041 A 
ATOM      9  C   UNL A   1      35.366  23.502  25.969  1.00  0.00     0.029 A 
ATOM     10  C   UNL A   1      33.757  21.587  24.753  1.00  0.00     0.084 A 
ATOM     11  C   UNL A   1      33.992  23.732  25.807  1.00  0.00     0.020 A 
ATOM     12  Cl  UNL A   1      32.805  20.367  23.986  1.00  0.00    -0.080 Cl
ATOM     13  C   UNL A   1      33.175  22.780  25.202  1.00  0.00     0.146 A 
ATOM     14  C   UNL A   1      33.429  24.996  26.227  1.00  0.00     0.027 C 
ATOM     15  O   UNL A   1      31.826  22.963  25.044  1.00  0.00    -0.474 OA
ATOM     16  C   UNL A   1      31.244  24.279  25.277  1.00  0.00     0.316 C 
BRANCH   7  17
ATOM     17  C   UNL A   1      37.349  22.119  25.635  1.00  0.00    -0.070 C 
ATOM     18  C   UNL A   1      38.528  21.918  25.750  1.00  0.00     0.010 C 
ENDBRANCH   7  17
BRANCH  16  19
ATOM     19  C   UNL A   1      30.733  24.850  23.944  1.00  0.00     0.430 C 
ATOM     20  F   UNL A   1      29.726  25.733  24.135  1.00  0.00    -0.167 F 
ATOM     21  F   UNL A   1      31.711  25.516  23.281  1.00  0.00    -0.167 F 
ATOM     22  F   UNL A   1      30.278  23.879  23.120  1.00  0.00    -0.167 F 
ENDBRANCH  16  19
ENDBRANCH   4   6
ENDBRANCH   3   4
ENDBRANCH   2   3
ENDBRANCH   1   2
BRANCH   1  23
ATOM     23  O   UNL A   1      32.407  29.983  26.666  1.00  0.00    -0.458 OA
BRANCH  23  24
ATOM     24  C   UNL A   1      32.988  31.128  27.080  1.00  0.00     0.338 C 
ATOM     25  O   UNL A   1      32.458  32.213  27.251  1.00  0.00    -0.246 OA
BRANCH  24  26
ATOM     26  C   UNL A   1      34.390  30.894  27.446  1.00  0.00     0.060 A 
ATOM     27  C   UNL A   1      34.779  29.585  27.689  1.00  0.00     0.016 A 
ATOM     28  C   UNL A   1      35.223  31.946  27.809  1.00  0.00     0.016 A 
ATOM     29  C   UNL A   1      35.884  29.325  28.484  1.00  0.00     0.010 A 
ATOM     30  C   UNL A   1      36.442  31.666  28.440  1.00  0.00     0.010 A 
ATOM     31  C   UNL A   1      36.760  30.354  28.841  1.00  0.00    -0.014 A 
BRANCH  31  32
ATOM     32  C   UNL A   1      37.987  30.046  29.632  1.00  0.00     0.031 A 
ATOM     33  C   UNL A   1      39.068  29.168  29.054  1.00  0.00     0.074 A 
ATOM     34  C   UNL A   1      38.145  30.576  30.863  1.00  0.00     0.049 A 
ATOM     35  N   UNL A   1      40.111  28.642  29.648  1.00  0.00    -0.248 NA
ATOM     36  C   UNL A   1      38.960  28.821  27.626  1.00  0.00     0.031 C 
ATOM     37  C   UNL A   1      37.208  31.492  31.523  1.00  0.00     0.029 A 
ATOM     38  N   UNL A   1      39.154  30.433  31.785  1.00  0.00    -0.354 N 
ATOM     39  C   UNL A   1      40.749  27.869  28.685  1.00  0.00     0.074 A 
ATOM     40  C   UNL A   1      39.969  27.973  27.472  1.00  0.00     0.031 C 
ATOM     41  C   UNL A   1      37.710  31.870  32.705  1.00  0.00     0.029 A 
ATOM     42  C   UNL A   1      38.936  31.127  32.952  1.00  0.00     0.049 A 
ATOM     43  H   UNL A   1      39.957  29.885  31.625  1.00  0.00     0.167 HD
ATOM     44  C   UNL A   1      41.887  27.146  28.807  1.00  0.00     0.037 A 
ATOM     45  C   UNL A   1      39.607  31.127  34.119  1.00  0.00     0.037 A 
ATOM     46  C   UNL A   1      42.681  27.091  30.007  1.00  0.00     0.049 A 
ATOM     47  C   UNL A   1      40.818  30.248  34.251  1.00  0.00     0.074 A 
ATOM     48  C   UNL A   1      43.855  26.392  30.230  1.00  0.00     0.029 A 
ATOM     49  N   UNL A   1      42.391  27.768  31.182  1.00  0.00    -0.354 N 
ATOM     50  N   UNL A   1      41.388  29.489  33.347  1.00  0.00    -0.248 NA
ATOM     51  C   UNL A   1      41.467  30.210  35.567  1.00  0.00     0.031 C 
ATOM     52  C   UNL A   1      44.243  26.600  31.555  1.00  0.00     0.029 A 
ATOM     53  C   UNL A   1      43.350  27.483  32.140  1.00  0.00     0.049 A 
ATOM     54  H   UNL A   1      41.617  28.364  31.315  1.00  0.00     0.167 HD
ATOM     55  C   UNL A   1      42.477  28.905  33.977  1.00  0.00     0.074 A 
ATOM     56  C   UNL A   1      42.502  29.416  35.331  1.00  0.00     0.031 C 
ATOM     57  C   UNL A   1      43.371  28.016  33.479  1.00  0.00     0.037 A 
BRANCH  44  58
ATOM     58  C   UNL A   1      42.356  26.341  27.628  1.00  0.00     0.064 A 
ATOM     59  C   UNL A   1      43.359  26.806  26.766  1.00  0.00     0.173 A 
ATOM     60  C   UNL A   1      41.868  25.039  27.422  1.00  0.00     0.173 A 
ATOM     61  F   UNL A   1      43.852  28.045  26.910  1.00  0.00    -0.203 F 
ATOM     62  C   UNL A   1      43.853  26.001  25.741  1.00  0.00     0.198 A 
ATOM     63  C   UNL A   1      42.387  24.226  26.418  1.00  0.00     0.198 A 
ATOM     64  F   UNL A   1      40.912  24.542  28.220  1.00  0.00    -0.203 F 
ATOM     65  F   UNL A   1      44.796  26.477  24.915  1.00  0.00    -0.200 F 
ATOM     66  C   UNL A   1      43.378  24.709  25.577  1.00  0.00     0.200 A 
ATOM     67  F   UNL A   1      41.940  22.972  26.274  1.00  0.00    -0.200 F 
ATOM     68  F   UNL A   1      43.878  23.926  24.611  1.00  0.00    -0.200 F 
ENDBRANCH  44  58
BRANCH  45  69
ATOM     69  C   UNL A   1      39.123  31.951  35.260  1.00  0.00     0.064 A 
ATOM     70  C   UNL A   1      38.363  31.378  36.289  1.00  0.00     0.173 A 
ATOM     71  C   UNL A   1      39.413  33.322  35.353  1.00  0.00     0.173 A 
ATOM     72  F   UNL A   1      38.041  30.078  36.237  1.00  0.00    -0.203 F 
ATOM     73  C   UNL A   1      37.898  32.146  37.355  1.00  0.00     0.198 A 
ATOM     74  C   UNL A   1      38.983  34.080  36.440  1.00  0.00     0.198 A 
ATOM     75  F   UNL A   1      40.138  33.925  34.399  1.00  0.00    -0.203 F 
ATOM     76  F   UNL A   1      37.129  31.582  38.296  1.00  0.00    -0.200 F 
ATOM     77  C   UNL A   1      38.217  33.493  37.435  1.00  0.00     0.200 A 
ATOM     78  F   UNL A   1      39.313  35.376  36.524  1.00  0.00    -0.200 F 
ATOM     79  F   UNL A   1      37.778  34.228  38.467  1.00  0.00    -0.200 F 
ENDBRANCH  45  69
BRANCH  57  80
ATOM     80  C   UNL A   1      44.477  27.563  34.386  1.00  0.00     0.064 A 
ATOM     81  C   UNL A   1      44.360  26.402  35.164  1.00  0.00     0.173 A 
ATOM     82  C   UNL A   1      45.697  28.257  34.416  1.00  0.00     0.173 A 
ATOM     83  F   UNL A   1      43.210  25.712  35.179  1.00  0.00    -0.203 F 
ATOM     84  C   UNL A   1      45.418  25.963  35.953  1.00  0.00     0.198 A 
ATOM     85  C   UNL A   1      46.766  27.793  35.178  1.00  0.00     0.198 A 
ATOM     86  F   UNL A   1      45.863  29.369  33.684  1.00  0.00    -0.203 F 
ATOM     87  F   UNL A   1      45.270  24.875  36.723  1.00  0.00    -0.200 F 
ATOM     88  C   UNL A   1      46.623  26.650  35.950  1.00  0.00     0.200 A 
ATOM     89  F   UNL A   1      47.935  28.446  35.155  1.00  0.00    -0.200 F 
ATOM     90  F   UNL A   1      47.648  26.212  36.692  1.00  0.00    -0.200 F 
ENDBRANCH  57  80
ENDBRANCH  31  32
ENDBRANCH  24  26
ENDBRANCH  23  24
ENDBRANCH   1  23
TORSDOF 13
ENDMDL
MODEL 3
REMARK VINA RESULT:     -12.6      0.158      1.609
REMARK SMILES C#Cc1cc(Cl)c2c(c1)C=C(C(=O)OCCOC(=O)c1ccc(-c3c4nc(c(-c5c(F)c(F)c(F)c(F)c5F)c5ccc([nH]5)c(-c5c(F)c(F)c(F)c(F)c5F)c5nc(c(-c6c(F)c(F)c(F)c(F)c6F)c6ccc3[nH]6)C=C5)C=C4)cc1)[C@@H](C(F)(F)F)O2
REMARK SMILES IDX 16 1 15 2 14 3 12 4 13 5 11 6 3 7 4 8 9 9 5 10 8 11 6 12
REMARK SMILES IDX 7 13 10 14 88 15 83 16 2 17 1 18 84 19 85 20 86 21 87 22
REMARK SMILES IDX 17 23 18 24 19 25 20 26 21 27 82 28 22 29 81 30 23 31 24 32
REMARK SMILES IDX 25 33 75 34 26 35 80 36 74 37 76 38 27 39 79 40 73 41 72 42
REMARK SMILES IDX 28 44 60 45 40 46 59 47 41 48 44 49 58 50 77 51 42 52 43 53
REMARK SMILES IDX 57 55 78 56 45 57 29 58 30 59 38 60 31 61 32 62 36 63 39 64
REMARK SMILES IDX 33 65 34 66 37 67 35 68 61 69 62 70 70 71 63 72 64 73 68 74
REMARK SMILES IDX 71 75 65 76 66 77 69 78 67 79 46 80 47 81 55 82 48 83 49 84
REMARK SMILES IDX 53 85 56 86 50 87 51 88 54 89 52 90
REMARK H PARENT 76 43 44 54
REMARK Flexibility Score: inf
ROOT
ATOM      1  C   UNL A   1      32.256  29.845  25.281  1.00  0.00     0.275 C 
ENDROOT
BRANCH   1   2
ATOM      2  C   UNL A   1      31.631  28.494  24.924  1.00  0.00     0.275 C 
BRANCH   2   3
ATOM      3  O   UNL A   1      32.370  27.398  25.511  1.00  0.00    -0.459 OA
BRANCH   3   4
ATOM      4  C   UNL A   1      31.626  26.485  26.175  1.00  0.00     0.338 C 
ATOM      5  O   UNL A   1      30.653  26.712  26.876  1.00  0.00    -0.246 OA
BRANCH   4   6
ATOM      6  C   UNL A   1      32.130  25.117  25.935  1.00  0.00     0.087 C 
ATOM      7  C   UNL A   1      35.949  22.209  25.498  1.00  0.00     0.027 A 
ATOM      8  C   UNL A   1      35.153  21.239  24.891  1.00  0.00     0.041 A 
ATOM      9  C   UNL A   1      35.366  23.388  25.957  1.00  0.00     0.029 A 
ATOM     10  C   UNL A   1      33.776  21.454  24.745  1.00  0.00     0.084 A 
ATOM     11  C   UNL A   1      33.990  23.606  25.789  1.00  0.00     0.020 A 
ATOM     12  Cl  UNL A   1      32.836  20.222  23.982  1.00  0.00    -0.080 Cl
ATOM     13  C   UNL A   1      33.182  22.644  25.187  1.00  0.00     0.146 A 
ATOM     14  C   UNL A   1      33.416  24.868  26.201  1.00  0.00     0.027 C 
ATOM     15  O   UNL A   1      31.832  22.815  25.023  1.00  0.00    -0.474 OA
ATOM     16  C   UNL A   1      31.239  24.128  25.247  1.00  0.00     0.316 C 
BRANCH   7  17
ATOM     17  C   UNL A   1      37.360  22.019  25.636  1.00  0.00    -0.070 C 
ATOM     18  C   UNL A   1      38.541  21.828  25.751  1.00  0.00     0.010 C 
ENDBRANCH   7  17
BRANCH  16  19
ATOM     19  C   UNL A   1      30.729  24.688  23.909  1.00  0.00     0.430 C 
ATOM     20  F   UNL A   1      30.267  23.705  23.102  1.00  0.00    -0.167 F 
ATOM     21  F   UNL A   1      29.702  25.553  24.092  1.00  0.00    -0.167 F 
ATOM     22  F   UNL A   1      31.698  25.350  23.237  1.00  0.00    -0.167 F 
ENDBRANCH  16  19
ENDBRANCH   4   6
ENDBRANCH   3   4
ENDBRANCH   2   3
ENDBRANCH   1   2
BRANCH   1  23
ATOM     23  O   UNL A   1      32.421  29.977  26.706  1.00  0.00    -0.458 OA
BRANCH  23  24
ATOM     24  C   UNL A   1      33.009  31.126  27.098  1.00  0.00     0.338 C 
ATOM     25  O   UNL A   1      32.484  32.217  27.251  1.00  0.00    -0.246 OA
BRANCH  24  26
ATOM     26  C   UNL A   1      34.410  30.891  27.463  1.00  0.00     0.060 A 
ATOM     27  C   UNL A   1      34.797  29.584  27.716  1.00  0.00     0.016 A 
ATOM     28  C   UNL A   1      35.246  31.945  27.816  1.00  0.00     0.016 A 
ATOM     29  C   UNL A   1      35.903  29.328  28.510  1.00  0.00     0.010 A 
ATOM     30  C   UNL A   1      36.466  31.667  28.447  1.00  0.00     0.010 A 
ATOM     31  C   UNL A   1      36.782  30.358  28.857  1.00  0.00    -0.014 A 
BRANCH  31  32
ATOM     32  C   UNL A   1      38.010  30.053  29.648  1.00  0.00     0.031 A 
ATOM     33  C   UNL A   1      39.095  29.181  29.069  1.00  0.00     0.074 A 
ATOM     34  C   UNL A   1      38.165  30.581  30.881  1.00  0.00     0.049 A 
ATOM     35  N   UNL A   1      40.140  28.658  29.662  1.00  0.00    -0.248 NA
ATOM     36  C   UNL A   1      38.989  28.836  27.641  1.00  0.00     0.031 C 
ATOM     37  C   UNL A   1      37.224  31.491  31.542  1.00  0.00     0.029 A 
ATOM     38  N   UNL A   1      39.174  30.440  31.803  1.00  0.00    -0.354 N 
ATOM     39  C   UNL A   1      40.781  27.890  28.698  1.00  0.00     0.074 A 
ATOM     40  C   UNL A   1      40.002  27.994  27.484  1.00  0.00     0.031 C 
ATOM     41  C   UNL A   1      37.723  31.869  32.725  1.00  0.00     0.029 A 
ATOM     42  C   UNL A   1      38.952  31.130  32.971  1.00  0.00     0.049 A 
ATOM     43  H   UNL A   1      39.979  29.896  31.642  1.00  0.00     0.167 HD
ATOM     44  C   UNL A   1      41.922  27.172  28.819  1.00  0.00     0.037 A 
ATOM     45  C   UNL A   1      39.623  31.130  34.138  1.00  0.00     0.037 A 
ATOM     46  C   UNL A   1      42.717  27.117  30.019  1.00  0.00     0.049 A 
ATOM     47  C   UNL A   1      40.837  30.257  34.270  1.00  0.00     0.074 A 
ATOM     48  C   UNL A   1      43.893  26.423  30.241  1.00  0.00     0.029 A 
ATOM     49  N   UNL A   1      42.423  27.791  31.196  1.00  0.00    -0.354 N 
ATOM     50  N   UNL A   1      41.411  29.502  33.364  1.00  0.00    -0.248 NA
ATOM     51  C   UNL A   1      41.486  30.219  35.585  1.00  0.00     0.031 C 
ATOM     52  C   UNL A   1      44.280  26.630  31.567  1.00  0.00     0.029 A 
ATOM     53  C   UNL A   1      43.382  27.508  32.154  1.00  0.00     0.049 A 
ATOM     54  H   UNL A   1      41.646  28.382  31.330  1.00  0.00     0.167 HD
ATOM     55  C   UNL A   1      42.503  28.921  33.993  1.00  0.00     0.074 A 
ATOM     56  C   UNL A   1      42.524  29.429  35.349  1.00  0.00     0.031 C 
ATOM     57  C   UNL A   1      43.400  28.038  33.494  1.00  0.00     0.037 A 
BRANCH  44  58
ATOM     58  C   UNL A   1      42.395  26.371  27.638  1.00  0.00     0.064 A 
ATOM     59  C   UNL A   1      43.399  26.841  26.779  1.00  0.00     0.173 A 
ATOM     60  C   UNL A   1      41.911  25.069  27.427  1.00  0.00     0.173 A 
ATOM     61  F   UNL A   1      43.889  28.081  26.929  1.00  0.00    -0.203 F 
ATOM     62  C   UNL A   1      43.898  26.041  25.753  1.00  0.00     0.198 A 
ATOM     63  C   UNL A   1      42.434  24.261  26.422  1.00  0.00     0.198 A 
ATOM     64  F   UNL A   1      40.955  24.567  28.223  1.00  0.00    -0.203 F 
ATOM     65  F   UNL A   1      44.841  26.521  24.930  1.00  0.00    -0.200 F 
ATOM     66  C   UNL A   1      43.426  24.748  25.585  1.00  0.00     0.200 A 
ATOM     67  F   UNL A   1      41.991  23.005  26.274  1.00  0.00    -0.200 F 
ATOM     68  F   UNL A   1      43.930  23.969  24.617  1.00  0.00    -0.200 F 
ENDBRANCH  44  58
BRANCH  45  69
ATOM     69  C   UNL A   1      39.135  31.950  35.281  1.00  0.00     0.064 A 
ATOM     70  C   UNL A   1      38.361  31.376  36.299  1.00  0.00     0.173 A 
ATOM     71  C   UNL A   1      39.434  33.318  35.388  1.00  0.00     0.173 A 
ATOM     72  F   UNL A   1      38.029  30.078  36.235  1.00  0.00    -0.203 F 
ATOM     73  C   UNL A   1      37.892  32.139  37.366  1.00  0.00     0.198 A 
ATOM     74  C   UNL A   1      39.000  34.071  36.476  1.00  0.00     0.198 A 
ATOM     75  F   UNL A   1      40.172  33.922  34.444  1.00  0.00    -0.203 F 
ATOM     76  F   UNL A   1      37.110  31.574  38.296  1.00  0.00    -0.200 F 
ATOM     77  C   UNL A   1      38.220  33.483  37.460  1.00  0.00     0.200 A 
ATOM     78  F   UNL A   1      39.339  35.364  36.573  1.00  0.00    -0.200 F 
ATOM     79  F   UNL A   1      37.778  34.213  38.492  1.00  0.00    -0.200 F 
ENDBRANCH  45  69
BRANCH  57  80
ATOM     80  C   UNL A   1      44.508  27.587  34.400  1.00  0.00     0.064 A 
ATOM     81  C   UNL A   1      45.717  28.293  34.489  1.00  0.00     0.173 A 
ATOM     82  C   UNL A   1      44.327  26.481  35.244  1.00  0.00     0.173 A 
ATOM     83  F   UNL A   1      45.943  29.349  33.694  1.00  0.00    -0.203 F 
ATOM     84  C   UNL A   1      46.710  27.897  35.380  1.00  0.00     0.198 A 
ATOM     85  C   UNL A   1      45.307  26.111  36.160  1.00  0.00     0.198 A 
ATOM     86  F   UNL A   1      43.186  25.777  35.203  1.00  0.00    -0.203 F 
ATOM     87  F   UNL A   1      47.875  28.559  35.418  1.00  0.00    -0.200 F 
ATOM     88  C   UNL A   1      46.500  26.815  36.222  1.00  0.00     0.200 A 
ATOM     89  F   UNL A   1      45.093  25.079  36.988  1.00  0.00    -0.200 F 
ATOM     90  F   UNL A   1      47.449  26.450  37.095  1.00  0.00    -0.200 F 
ENDBRANCH  57  80
ENDBRANCH  31  32
ENDBRANCH  24  26
ENDBRANCH  23  24
ENDBRANCH   1  23
TORSDOF 13
ENDMDL
