MODEL 1
REMARK VINA RESULT:     -11.1      0.000      0.000
REMARK SMILES CC/C(=C/C(=O)[C@H](Cc1ccc(Cl)cc1Cl)C(=O)OCCOC(=O)c1ccc(-c2c3nc(c(-c4c(F)c(F)c(F)c(F)c4F)c4ccc([nH]4)c(-c4c(F)c(F)c(F)c(F)c4F)c4nc(c(-c5c(F)c(F)c(F)c(F)c5F)c5ccc2[nH]5)C=C4)C=C3)cc1)N(C)C
REMARK SMILES IDX 20 1 19 2 17 3 18 4 7 5 5 6 6 7 4 8 3 9 2 10 1 11 88 12
REMARK SMILES IDX 89 13 90 14 8 15 9 16 10 17 15 18 11 19 14 20 16 21 12 22
REMARK SMILES IDX 13 23 21 24 22 25 23 26 24 27 25 28 26 29 87 30 27 31 86 32
REMARK SMILES IDX 28 33 29 34 30 35 80 36 31 37 85 38 79 39 81 40 32 41 84 42
REMARK SMILES IDX 78 43 77 44 33 46 65 47 45 48 64 49 46 50 49 51 63 52 82 53
REMARK SMILES IDX 47 54 48 55 62 57 83 58 50 59 34 60 35 61 43 62 36 63 37 64
REMARK SMILES IDX 41 65 44 66 38 67 39 68 42 69 40 70 66 71 67 72 75 73 68 74
REMARK SMILES IDX 69 75 73 76 76 77 70 78 71 79 74 80 72 81 51 82 52 83 60 84
REMARK SMILES IDX 53 85 54 86 58 87 61 88 55 89 56 90 59 91 57 92
REMARK H PARENT 81 45 49 56
REMARK Flexibility Score: inf
ROOT
ATOM      1  C   UNL A   1      31.751  28.388  27.090  1.00  0.00     0.274 C 
ENDROOT
BRANCH   1   2
ATOM      2  O   UNL A   1      32.923  27.593  26.846  1.00  0.00    -0.461 OA
BRANCH   2   3
ATOM      3  C   UNL A   1      32.960  26.804  25.755  1.00  0.00     0.317 C 
ATOM      4  O   UNL A   1      33.981  26.605  25.110  1.00  0.00    -0.251 OA
BRANCH   3   5
ATOM      5  C   UNL A   1      31.627  26.093  25.548  1.00  0.00     0.175 C 
BRANCH   5   6
ATOM      6  C   UNL A   1      31.706  24.652  26.098  1.00  0.00     0.171 C 
ATOM      7  O   UNL A   1      31.321  24.410  27.251  1.00  0.00    -0.294 OA
BRANCH   6   8
ATOM      8  C   UNL A   1      32.128  23.435  25.294  1.00  0.00     0.069 C 
ATOM      9  C   UNL A   1      33.046  22.434  25.289  1.00  0.00     0.016 C 
BRANCH   9  10
ATOM     10  C   UNL A   1      32.884  21.398  24.154  1.00  0.00     0.050 C 
ATOM     11  C   UNL A   1      32.544  19.992  24.646  1.00  0.00     0.010 C 
ENDBRANCH   9  10
BRANCH   9  12
ATOM     12  N   UNL A   1      34.081  22.161  26.197  1.00  0.00    -0.381 N 
ATOM     13  C   UNL A   1      33.908  21.842  27.624  1.00  0.00     0.143 C 
ATOM     14  C   UNL A   1      35.457  22.016  25.797  1.00  0.00     0.143 C 
ENDBRANCH   9  12
ENDBRANCH   6   8
ENDBRANCH   5   6
BRANCH   5  15
ATOM     15  C   UNL A   1      31.113  26.089  24.051  1.00  0.00     0.060 C 
BRANCH  15  16
ATOM     16  C   UNL A   1      30.277  27.275  23.544  1.00  0.00    -0.028 A 
ATOM     17  C   UNL A   1      28.869  27.166  23.502  1.00  0.00     0.007 A 
ATOM     18  C   UNL A   1      30.830  28.501  23.118  1.00  0.00     0.045 A 
ATOM     19  C   UNL A   1      28.059  28.272  23.196  1.00  0.00     0.021 A 
ATOM     20  C   UNL A   1      30.024  29.630  22.900  1.00  0.00     0.041 A 
ATOM     21  Cl  UNL A   1      32.514  28.678  22.762  1.00  0.00    -0.084 Cl
ATOM     22  C   UNL A   1      28.641  29.515  22.970  1.00  0.00     0.042 A 
ATOM     23  Cl  UNL A   1      27.650  30.909  22.773  1.00  0.00    -0.084 Cl
ENDBRANCH  15  16
ENDBRANCH   5  15
ENDBRANCH   3   5
ENDBRANCH   2   3
ENDBRANCH   1   2
BRANCH   1  24
ATOM     24  C   UNL A   1      31.925  29.719  26.351  1.00  0.00     0.275 C 
BRANCH  24  25
ATOM     25  O   UNL A   1      33.314  30.132  26.270  1.00  0.00    -0.458 OA
BRANCH  25  26
ATOM     26  C   UNL A   1      33.644  31.166  27.074  1.00  0.00     0.338 C 
ATOM     27  O   UNL A   1      32.989  32.179  27.265  1.00  0.00    -0.246 OA
BRANCH  26  28
ATOM     28  C   UNL A   1      34.873  30.951  27.847  1.00  0.00     0.060 A 
ATOM     29  C   UNL A   1      35.018  29.700  28.462  1.00  0.00     0.016 A 
ATOM     30  C   UNL A   1      35.853  31.930  28.000  1.00  0.00     0.016 A 
ATOM     31  C   UNL A   1      36.204  29.371  29.101  1.00  0.00     0.010 A 
ATOM     32  C   UNL A   1      37.021  31.623  28.707  1.00  0.00     0.010 A 
ATOM     33  C   UNL A   1      37.217  30.328  29.215  1.00  0.00    -0.014 A 
BRANCH  33  34
ATOM     34  C   UNL A   1      38.451  29.935  29.922  1.00  0.00     0.031 A 
ATOM     35  C   UNL A   1      38.671  30.440  31.311  1.00  0.00     0.074 A 
ATOM     36  C   UNL A   1      39.275  29.026  29.371  1.00  0.00     0.049 A 
ATOM     37  N   UNL A   1      39.647  30.183  32.141  1.00  0.00    -0.248 NA
ATOM     38  C   UNL A   1      37.636  31.337  31.848  1.00  0.00     0.031 C 
ATOM     39  C   UNL A   1      39.074  28.389  28.070  1.00  0.00     0.029 A 
ATOM     40  N   UNL A   1      40.429  28.458  29.846  1.00  0.00    -0.354 N 
ATOM     41  C   UNL A   1      39.343  30.884  33.298  1.00  0.00     0.074 A 
ATOM     42  C   UNL A   1      38.093  31.574  33.068  1.00  0.00     0.031 C 
ATOM     43  C   UNL A   1      40.067  27.509  27.855  1.00  0.00     0.029 A 
ATOM     44  C   UNL A   1      40.999  27.558  28.979  1.00  0.00     0.049 A 
ATOM     45  H   UNL A   1      40.813  28.675  30.726  1.00  0.00     0.167 HD
ATOM     46  C   UNL A   1      40.060  30.955  34.443  1.00  0.00     0.037 A 
ATOM     47  C   UNL A   1      42.160  26.879  29.078  1.00  0.00     0.037 A 
ATOM     48  C   UNL A   1      41.326  30.298  34.633  1.00  0.00     0.049 A 
ATOM     49  C   UNL A   1      43.000  27.079  30.316  1.00  0.00     0.074 A 
ATOM     50  C   UNL A   1      42.176  30.355  35.722  1.00  0.00     0.029 A 
ATOM     51  N   UNL A   1      41.931  29.473  33.694  1.00  0.00    -0.354 N 
ATOM     52  N   UNL A   1      42.733  27.776  31.395  1.00  0.00    -0.248 NA
ATOM     53  C   UNL A   1      44.308  26.411  30.344  1.00  0.00     0.031 C 
ATOM     54  C   UNL A   1      43.323  29.616  35.416  1.00  0.00     0.029 A 
ATOM     55  C   UNL A   1      43.159  29.039  34.166  1.00  0.00     0.049 A 
ATOM     56  H   UNL A   1      41.546  29.233  32.820  1.00  0.00     0.167 HD
ATOM     57  C   UNL A   1      43.827  27.618  32.236  1.00  0.00     0.074 A 
ATOM     58  C   UNL A   1      44.750  26.735  31.551  1.00  0.00     0.031 C 
ATOM     59  C   UNL A   1      44.056  28.159  33.459  1.00  0.00     0.037 A 
BRANCH  46  60
ATOM     60  C   UNL A   1      39.527  31.843  35.526  1.00  0.00     0.064 A 
ATOM     61  C   UNL A   1      39.954  33.171  35.679  1.00  0.00     0.173 A 
ATOM     62  C   UNL A   1      38.588  31.347  36.444  1.00  0.00     0.173 A 
ATOM     63  F   UNL A   1      40.872  33.685  34.847  1.00  0.00    -0.203 F 
ATOM     64  C   UNL A   1      39.483  33.958  36.728  1.00  0.00     0.198 A 
ATOM     65  C   UNL A   1      38.097  32.145  37.471  1.00  0.00     0.198 A 
ATOM     66  F   UNL A   1      38.153  30.081  36.348  1.00  0.00    -0.203 F 
ATOM     67  F   UNL A   1      39.953  35.203  36.892  1.00  0.00    -0.200 F 
ATOM     68  C   UNL A   1      38.552  33.446  37.620  1.00  0.00     0.200 A 
ATOM     69  F   UNL A   1      37.194  31.650  38.329  1.00  0.00    -0.200 F 
ATOM     70  F   UNL A   1      38.105  34.203  38.631  1.00  0.00    -0.200 F 
ENDBRANCH  46  60
BRANCH  47  71
ATOM     71  C   UNL A   1      42.628  26.003  27.967  1.00  0.00     0.064 A 
ATOM     72  C   UNL A   1      43.503  26.476  26.978  1.00  0.00     0.173 A 
ATOM     73  C   UNL A   1      42.168  24.683  27.841  1.00  0.00     0.173 A 
ATOM     74  F   UNL A   1      43.953  27.738  27.030  1.00  0.00    -0.203 F 
ATOM     75  C   UNL A   1      43.879  25.674  25.900  1.00  0.00     0.198 A 
ATOM     76  C   UNL A   1      42.573  23.869  26.785  1.00  0.00     0.198 A 
ATOM     77  F   UNL A   1      41.322  24.176  28.751  1.00  0.00    -0.203 F 
ATOM     78  F   UNL A   1      44.667  26.174  24.938  1.00  0.00    -0.200 F 
ATOM     79  C   UNL A   1      43.418  24.370  25.807  1.00  0.00     0.200 A 
ATOM     80  F   UNL A   1      42.135  22.606  26.709  1.00  0.00    -0.200 F 
ATOM     81  F   UNL A   1      43.779  23.599  24.772  1.00  0.00    -0.200 F 
ENDBRANCH  47  71
BRANCH  59  82
ATOM     82  C   UNL A   1      45.342  27.786  34.142  1.00  0.00     0.064 A 
ATOM     83  C   UNL A   1      46.509  28.550  33.989  1.00  0.00     0.173 A 
ATOM     84  C   UNL A   1      45.393  26.673  34.995  1.00  0.00     0.173 A 
ATOM     85  F   UNL A   1      46.516  29.617  33.175  1.00  0.00    -0.203 F 
ATOM     86  C   UNL A   1      47.687  28.193  34.639  1.00  0.00     0.198 A 
ATOM     87  C   UNL A   1      46.563  26.341  35.671  1.00  0.00     0.198 A 
ATOM     88  F   UNL A   1      44.302  25.914  35.184  1.00  0.00    -0.203 F 
ATOM     89  F   UNL A   1      48.804  28.904  34.433  1.00  0.00    -0.200 F 
ATOM     90  C   UNL A   1      47.711  27.095  35.486  1.00  0.00     0.200 A 
ATOM     91  F   UNL A   1      46.579  25.290  36.504  1.00  0.00    -0.200 F 
ATOM     92  F   UNL A   1      48.844  26.759  36.117  1.00  0.00    -0.200 F 
ENDBRANCH  59  82
ENDBRANCH  33  34
ENDBRANCH  26  28
ENDBRANCH  25  26
ENDBRANCH  24  25
ENDBRANCH   1  24
TORSDOF 17
ENDMDL
MODEL 2
REMARK VINA RESULT:     -11.0      0.491      7.495
REMARK SMILES CC/C(=C/C(=O)[C@H](Cc1ccc(Cl)cc1Cl)C(=O)OCCOC(=O)c1ccc(-c2c3nc(c(-c4c(F)c(F)c(F)c(F)c4F)c4ccc([nH]4)c(-c4c(F)c(F)c(F)c(F)c4F)c4nc(c(-c5c(F)c(F)c(F)c(F)c5F)c5ccc2[nH]5)C=C4)C=C3)cc1)N(C)C
REMARK SMILES IDX 20 1 19 2 17 3 18 4 7 5 5 6 6 7 4 8 3 9 2 10 1 11 88 12
REMARK SMILES IDX 89 13 90 14 8 15 9 16 10 17 15 18 11 19 14 20 16 21 12 22
REMARK SMILES IDX 13 23 21 24 22 25 23 26 24 27 25 28 26 29 87 30 27 31 86 32
REMARK SMILES IDX 28 33 29 34 30 35 80 36 31 37 85 38 79 39 81 40 32 41 84 42
REMARK SMILES IDX 78 43 77 44 33 46 65 47 45 48 64 49 46 50 49 51 63 52 82 53
REMARK SMILES IDX 47 54 48 55 62 57 83 58 50 59 34 60 35 61 43 62 36 63 37 64
REMARK SMILES IDX 41 65 44 66 38 67 39 68 42 69 40 70 66 71 67 72 75 73 68 74
REMARK SMILES IDX 69 75 73 76 76 77 70 78 71 79 74 80 72 81 51 82 52 83 60 84
REMARK SMILES IDX 53 85 54 86 58 87 61 88 55 89 56 90 59 91 57 92
REMARK H PARENT 81 45 49 56
REMARK Flexibility Score: inf
ROOT
ATOM      1  C   UNL A   1      31.717  28.378  26.858  1.00  0.00     0.274 C 
ENDROOT
BRANCH   1   2
ATOM      2  O   UNL A   1      32.846  27.526  26.608  1.00  0.00    -0.461 OA
BRANCH   2   3
ATOM      3  C   UNL A   1      32.790  26.653  25.583  1.00  0.00     0.317 C 
ATOM      4  O   UNL A   1      33.775  26.309  24.945  1.00  0.00    -0.251 OA
BRANCH   3   5
ATOM      5  C   UNL A   1      31.393  26.055  25.448  1.00  0.00     0.175 C 
BRANCH   5   6
ATOM      6  C   UNL A   1      31.379  24.616  26.008  1.00  0.00     0.171 C 
ATOM      7  O   UNL A   1      30.812  24.378  27.085  1.00  0.00    -0.294 OA
BRANCH   6   8
ATOM      8  C   UNL A   1      31.922  23.396  25.286  1.00  0.00     0.069 C 
ATOM      9  C   UNL A   1      32.949  22.506  25.331  1.00  0.00     0.016 C 
BRANCH   9  10
ATOM     10  C   UNL A   1      32.886  21.375  24.282  1.00  0.00     0.050 C 
ATOM     11  C   UNL A   1      32.367  21.825  22.917  1.00  0.00     0.010 C 
ENDBRANCH   9  10
BRANCH   9  12
ATOM     12  N   UNL A   1      34.023  22.422  26.231  1.00  0.00    -0.381 N 
ATOM     13  C   UNL A   1      35.421  22.777  25.933  1.00  0.00     0.143 C 
ATOM     14  C   UNL A   1      33.855  22.108  27.626  1.00  0.00     0.143 C 
ENDBRANCH   9  12
ENDBRANCH   6   8
ENDBRANCH   5   6
BRANCH   5  15
ATOM     15  C   UNL A   1      30.806  26.086  23.979  1.00  0.00     0.060 C 
BRANCH  15  16
ATOM     16  C   UNL A   1      30.042  27.332  23.505  1.00  0.00    -0.028 A 
ATOM     17  C   UNL A   1      28.629  27.321  23.501  1.00  0.00     0.007 A 
ATOM     18  C   UNL A   1      30.666  28.520  23.073  1.00  0.00     0.045 A 
ATOM     19  C   UNL A   1      27.889  28.483  23.227  1.00  0.00     0.021 A 
ATOM     20  C   UNL A   1      29.935  29.704  22.887  1.00  0.00     0.041 A 
ATOM     21  Cl  UNL A   1      32.349  28.584  22.672  1.00  0.00    -0.084 Cl
ATOM     22  C   UNL A   1      28.550  29.685  22.995  1.00  0.00     0.042 A 
ATOM     23  Cl  UNL A   1      27.653  31.147  22.836  1.00  0.00    -0.084 Cl
ENDBRANCH  15  16
ENDBRANCH   5  15
ENDBRANCH   3   5
ENDBRANCH   2   3
ENDBRANCH   1   2
BRANCH   1  24
ATOM     24  C   UNL A   1      31.936  29.685  26.087  1.00  0.00     0.275 C 
BRANCH  24  25
ATOM     25  O   UNL A   1      33.318  30.124  26.121  1.00  0.00    -0.458 OA
BRANCH  25  26
ATOM     26  C   UNL A   1      33.564  31.151  26.965  1.00  0.00     0.338 C 
ATOM     27  O   UNL A   1      32.881  32.151  27.114  1.00  0.00    -0.246 OA
BRANCH  26  28
ATOM     28  C   UNL A   1      34.727  30.941  27.836  1.00  0.00     0.060 A 
ATOM     29  C   UNL A   1      34.779  29.727  28.534  1.00  0.00     0.016 A 
ATOM     30  C   UNL A   1      35.733  31.892  28.000  1.00  0.00     0.016 A 
ATOM     31  C   UNL A   1      35.903  29.397  29.276  1.00  0.00     0.010 A 
ATOM     32  C   UNL A   1      36.835  31.588  28.805  1.00  0.00     0.010 A 
ATOM     33  C   UNL A   1      36.943  30.321  29.403  1.00  0.00    -0.014 A 
BRANCH  33  34
ATOM     34  C   UNL A   1      38.108  29.930  30.220  1.00  0.00     0.031 A 
ATOM     35  C   UNL A   1      39.146  29.046  29.607  1.00  0.00     0.074 A 
ATOM     36  C   UNL A   1      38.289  30.481  31.433  1.00  0.00     0.049 A 
ATOM     37  N   UNL A   1      40.274  28.622  30.111  1.00  0.00    -0.248 NA
ATOM     38  C   UNL A   1      38.890  28.601  28.229  1.00  0.00     0.031 C 
ATOM     39  C   UNL A   1      37.387  31.447  32.059  1.00  0.00     0.029 A 
ATOM     40  N   UNL A   1      39.305  30.334  32.342  1.00  0.00    -0.354 N 
ATOM     41  C   UNL A   1      40.864  27.862  29.111  1.00  0.00     0.074 A 
ATOM     42  C   UNL A   1      39.974  27.886  27.971  1.00  0.00     0.031 C 
ATOM     43  C   UNL A   1      37.896  31.815  33.247  1.00  0.00     0.029 A 
ATOM     44  C   UNL A   1      39.131  31.072  33.487  1.00  0.00     0.049 A 
ATOM     45  H   UNL A   1      40.085  29.754  32.188  1.00  0.00     0.167 HD
ATOM     46  C   UNL A   1      42.038  27.192  29.155  1.00  0.00     0.037 A 
ATOM     47  C   UNL A   1      39.877  31.113  34.610  1.00  0.00     0.037 A 
ATOM     48  C   UNL A   1      42.885  27.144  30.317  1.00  0.00     0.049 A 
ATOM     49  C   UNL A   1      41.115  30.254  34.675  1.00  0.00     0.074 A 
ATOM     50  C   UNL A   1      44.061  26.440  30.501  1.00  0.00     0.029 A 
ATOM     51  N   UNL A   1      42.631  27.820  31.503  1.00  0.00    -0.354 N 
ATOM     52  N   UNL A   1      41.653  29.501  33.744  1.00  0.00    -0.248 NA
ATOM     53  C   UNL A   1      41.844  30.237  35.951  1.00  0.00     0.031 C 
ATOM     54  C   UNL A   1      44.484  26.641  31.820  1.00  0.00     0.029 A 
ATOM     55  C   UNL A   1      43.612  27.526  32.436  1.00  0.00     0.049 A 
ATOM     56  H   UNL A   1      41.866  28.419  31.659  1.00  0.00     0.167 HD
ATOM     57  C   UNL A   1      42.787  28.936  34.312  1.00  0.00     0.074 A 
ATOM     58  C   UNL A   1      42.876  29.456  35.662  1.00  0.00     0.031 C 
ATOM     59  C   UNL A   1      43.673  28.060  33.773  1.00  0.00     0.037 A 
BRANCH  46  60
ATOM     60  C   UNL A   1      42.411  26.393  27.943  1.00  0.00     0.064 A 
ATOM     61  C   UNL A   1      41.942  25.086  27.738  1.00  0.00     0.173 A 
ATOM     62  C   UNL A   1      43.276  26.938  26.981  1.00  0.00     0.173 A 
ATOM     63  F   UNL A   1      41.138  24.509  28.642  1.00  0.00    -0.203 F 
ATOM     64  C   UNL A   1      42.349  24.346  26.630  1.00  0.00     0.198 A 
ATOM     65  C   UNL A   1      43.655  26.206  25.860  1.00  0.00     0.198 A 
ATOM     66  F   UNL A   1      43.760  28.180  27.133  1.00  0.00    -0.203 F 
ATOM     67  F   UNL A   1      41.939  23.078  26.488  1.00  0.00    -0.200 F 
ATOM     68  C   UNL A   1      43.201  24.908  25.691  1.00  0.00     0.200 A 
ATOM     69  F   UNL A   1      44.474  26.753  24.951  1.00  0.00    -0.200 F 
ATOM     70  F   UNL A   1      43.595  24.192  24.629  1.00  0.00    -0.200 F 
ENDBRANCH  46  60
BRANCH  47  71
ATOM     71  C   UNL A   1      39.454  31.938  35.778  1.00  0.00     0.064 A 
ATOM     72  C   UNL A   1      38.466  31.495  36.670  1.00  0.00     0.173 A 
ATOM     73  C   UNL A   1      39.994  33.214  35.998  1.00  0.00     0.173 A 
ATOM     74  F   UNL A   1      37.893  30.296  36.492  1.00  0.00    -0.203 F 
ATOM     75  C   UNL A   1      38.021  32.303  37.717  1.00  0.00     0.198 A 
ATOM     76  C   UNL A   1      39.576  34.006  37.065  1.00  0.00     0.198 A 
ATOM     77  F   UNL A   1      40.936  33.697  35.173  1.00  0.00    -0.203 F 
ATOM     78  F   UNL A   1      37.032  31.877  38.515  1.00  0.00    -0.200 F 
ATOM     79  C   UNL A   1      38.580  33.555  37.917  1.00  0.00     0.200 A 
ATOM     80  F   UNL A   1      40.131  35.210  37.262  1.00  0.00    -0.200 F 
ATOM     81  F   UNL A   1      38.154  34.331  38.923  1.00  0.00    -0.200 F 
ENDBRANCH  47  71
BRANCH  59  82
ATOM     82  C   UNL A   1      44.826  27.634  34.638  1.00  0.00     0.064 A 
ATOM     83  C   UNL A   1      44.763  26.485  35.441  1.00  0.00     0.173 A 
ATOM     84  C   UNL A   1      46.024  28.365  34.629  1.00  0.00     0.173 A 
ATOM     85  F   UNL A   1      43.636  25.759  35.494  1.00  0.00    -0.203 F 
ATOM     86  C   UNL A   1      45.846  26.102  36.227  1.00  0.00     0.198 A 
ATOM     87  C   UNL A   1      47.117  27.958  35.388  1.00  0.00     0.198 A 
ATOM     88  F   UNL A   1      46.140  29.466  33.872  1.00  0.00    -0.203 F 
ATOM     89  F   UNL A   1      45.744  25.034  37.029  1.00  0.00    -0.200 F 
ATOM     90  C   UNL A   1      47.025  26.833  36.193  1.00  0.00     0.200 A 
ATOM     91  F   UNL A   1      48.261  28.655  35.340  1.00  0.00    -0.200 F 
ATOM     92  F   UNL A   1      48.069  26.458  36.944  1.00  0.00    -0.200 F 
ENDBRANCH  59  82
ENDBRANCH  33  34
ENDBRANCH  26  28
ENDBRANCH  25  26
ENDBRANCH  24  25
ENDBRANCH   1  24
TORSDOF 17
ENDMDL
MODEL 3
REMARK VINA RESULT:     -11.0      1.889      3.556
REMARK SMILES CC/C(=C/C(=O)[C@H](Cc1ccc(Cl)cc1Cl)C(=O)OCCOC(=O)c1ccc(-c2c3nc(c(-c4c(F)c(F)c(F)c(F)c4F)c4ccc([nH]4)c(-c4c(F)c(F)c(F)c(F)c4F)c4nc(c(-c5c(F)c(F)c(F)c(F)c5F)c5ccc2[nH]5)C=C4)C=C3)cc1)N(C)C
REMARK SMILES IDX 20 1 19 2 17 3 18 4 7 5 5 6 6 7 4 8 3 9 2 10 1 11 88 12
REMARK SMILES IDX 89 13 90 14 8 15 9 16 10 17 15 18 11 19 14 20 16 21 12 22
REMARK SMILES IDX 13 23 21 24 22 25 23 26 24 27 25 28 26 29 87 30 27 31 86 32
REMARK SMILES IDX 28 33 29 34 30 35 80 36 31 37 85 38 79 39 81 40 32 41 84 42
REMARK SMILES IDX 78 43 77 44 33 46 65 47 45 48 64 49 46 50 49 51 63 52 82 53
REMARK SMILES IDX 47 54 48 55 62 57 83 58 50 59 34 60 35 61 43 62 36 63 37 64
REMARK SMILES IDX 41 65 44 66 38 67 39 68 42 69 40 70 66 71 67 72 75 73 68 74
REMARK SMILES IDX 69 75 73 76 76 77 70 78 71 79 74 80 72 81 51 82 52 83 60 84
REMARK SMILES IDX 53 85 54 86 58 87 61 88 55 89 56 90 59 91 57 92
REMARK H PARENT 81 45 49 56
REMARK Flexibility Score: inf
ROOT
ATOM      1  C   UNL A   1      31.769  28.674  25.624  1.00  0.00     0.274 C 
ENDROOT
BRANCH   1   2
ATOM      2  O   UNL A   1      32.928  27.826  25.659  1.00  0.00    -0.461 OA
BRANCH   2   3
ATOM      3  C   UNL A   1      33.511  27.471  24.497  1.00  0.00     0.317 C 
ATOM      4  O   UNL A   1      34.031  28.277  23.739  1.00  0.00    -0.251 OA
BRANCH   3   5
ATOM      5  C   UNL A   1      33.567  25.953  24.354  1.00  0.00     0.175 C 
BRANCH   5   6
ATOM      6  C   UNL A   1      32.146  25.394  24.119  1.00  0.00     0.171 C 
ATOM      7  O   UNL A   1      31.432  25.877  23.229  1.00  0.00    -0.294 OA
BRANCH   6   8
ATOM      8  C   UNL A   1      31.557  24.189  24.831  1.00  0.00     0.069 C 
ATOM      9  C   UNL A   1      31.528  22.832  24.772  1.00  0.00     0.016 C 
BRANCH   9  10
ATOM     10  C   UNL A   1      30.750  22.140  25.913  1.00  0.00     0.050 C 
ATOM     11  C   UNL A   1      30.089  23.112  26.889  1.00  0.00     0.010 C 
ENDBRANCH   9  10
BRANCH   9  12
ATOM     12  N   UNL A   1      32.155  21.960  23.868  1.00  0.00    -0.381 N 
ATOM     13  C   UNL A   1      32.565  22.296  22.494  1.00  0.00     0.143 C 
ATOM     14  C   UNL A   1      32.614  20.646  24.237  1.00  0.00     0.143 C 
ENDBRANCH   9  12
ENDBRANCH   6   8
ENDBRANCH   5   6
BRANCH   5  15
ATOM     15  C   UNL A   1      34.265  25.206  25.562  1.00  0.00     0.060 C 
BRANCH  15  16
ATOM     16  C   UNL A   1      34.964  23.862  25.305  1.00  0.00    -0.028 A 
ATOM     17  C   UNL A   1      35.682  23.669  24.104  1.00  0.00     0.007 A 
ATOM     18  C   UNL A   1      34.947  22.782  26.212  1.00  0.00     0.045 A 
ATOM     19  C   UNL A   1      36.462  22.521  23.894  1.00  0.00     0.021 A 
ATOM     20  C   UNL A   1      35.796  21.675  26.046  1.00  0.00     0.041 A 
ATOM     21  Cl  UNL A   1      33.837  22.708  27.538  1.00  0.00    -0.084 Cl
ATOM     22  C   UNL A   1      36.572  21.566  24.899  1.00  0.00     0.042 A 
ATOM     23  Cl  UNL A   1      37.665  20.247  24.722  1.00  0.00    -0.084 Cl
ENDBRANCH  15  16
ENDBRANCH   5  15
ENDBRANCH   3   5
ENDBRANCH   2   3
ENDBRANCH   1   2
BRANCH   1  24
ATOM     24  C   UNL A   1      32.035  29.870  26.545  1.00  0.00     0.275 C 
BRANCH  24  25
ATOM     25  O   UNL A   1      33.339  30.465  26.319  1.00  0.00    -0.458 OA
BRANCH  25  26
ATOM     26  C   UNL A   1      33.662  31.461  27.174  1.00  0.00     0.338 C 
ATOM     27  O   UNL A   1      32.989  32.446  27.432  1.00  0.00    -0.246 OA
BRANCH  26  28
ATOM     28  C   UNL A   1      34.909  31.230  27.912  1.00  0.00     0.060 A 
ATOM     29  C   UNL A   1      35.023  30.008  28.588  1.00  0.00     0.016 A 
ATOM     30  C   UNL A   1      35.936  32.170  27.977  1.00  0.00     0.016 A 
ATOM     31  C   UNL A   1      36.217  29.659  29.202  1.00  0.00     0.010 A 
ATOM     32  C   UNL A   1      37.115  31.847  28.657  1.00  0.00     0.010 A 
ATOM     33  C   UNL A   1      37.274  30.573  29.227  1.00  0.00    -0.014 A 
BRANCH  33  34
ATOM     34  C   UNL A   1      38.516  30.161  29.909  1.00  0.00     0.031 A 
ATOM     35  C   UNL A   1      38.762  30.646  31.301  1.00  0.00     0.074 A 
ATOM     36  C   UNL A   1      39.325  29.254  29.333  1.00  0.00     0.049 A 
ATOM     37  N   UNL A   1      39.748  30.371  32.112  1.00  0.00    -0.248 NA
ATOM     38  C   UNL A   1      37.742  31.544  31.866  1.00  0.00     0.031 C 
ATOM     39  C   UNL A   1      39.099  28.636  28.027  1.00  0.00     0.029 A 
ATOM     40  N   UNL A   1      40.482  28.672  29.783  1.00  0.00    -0.354 N 
ATOM     41  C   UNL A   1      39.468  31.059  33.283  1.00  0.00     0.074 A 
ATOM     42  C   UNL A   1      38.219  31.761  33.082  1.00  0.00     0.031 C 
ATOM     43  C   UNL A   1      40.081  27.752  27.785  1.00  0.00     0.029 A 
ATOM     44  C   UNL A   1      41.031  27.780  28.895  1.00  0.00     0.049 A 
ATOM     45  H   UNL A   1      40.880  28.874  30.660  1.00  0.00     0.167 HD
ATOM     46  C   UNL A   1      40.203  31.109  34.418  1.00  0.00     0.037 A 
ATOM     47  C   UNL A   1      42.188  27.090  28.967  1.00  0.00     0.037 A 
ATOM     48  C   UNL A   1      41.466  30.441  34.578  1.00  0.00     0.049 A 
ATOM     49  C   UNL A   1      43.049  27.268  30.193  1.00  0.00     0.074 A 
ATOM     50  C   UNL A   1      42.334  30.477  35.655  1.00  0.00     0.029 A 
ATOM     51  N   UNL A   1      42.051  29.624  33.619  1.00  0.00    -0.354 N 
ATOM     52  N   UNL A   1      42.804  27.952  31.286  1.00  0.00    -0.248 NA
ATOM     53  C   UNL A   1      44.352  26.590  30.192  1.00  0.00     0.031 C 
ATOM     54  C   UNL A   1      43.470  29.734  35.321  1.00  0.00     0.029 A 
ATOM     55  C   UNL A   1      43.283  29.175  34.066  1.00  0.00     0.049 A 
ATOM     56  H   UNL A   1      41.650  29.398  32.749  1.00  0.00     0.167 HD
ATOM     57  C   UNL A   1      43.910  27.775  32.107  1.00  0.00     0.074 A 
ATOM     58  C   UNL A   1      44.816  26.894  31.396  1.00  0.00     0.031 C 
ATOM     59  C   UNL A   1      44.162  28.298  33.334  1.00  0.00     0.037 A 
BRANCH  46  60
ATOM     60  C   UNL A   1      39.693  31.987  35.520  1.00  0.00     0.064 A 
ATOM     61  C   UNL A   1      40.165  33.295  35.711  1.00  0.00     0.173 A 
ATOM     62  C   UNL A   1      38.732  31.500  36.419  1.00  0.00     0.173 A 
ATOM     63  F   UNL A   1      41.106  33.798  34.899  1.00  0.00    -0.203 F 
ATOM     64  C   UNL A   1      39.715  34.069  36.778  1.00  0.00     0.198 A 
ATOM     65  C   UNL A   1      38.261  32.287  37.464  1.00  0.00     0.198 A 
ATOM     66  F   UNL A   1      38.253  30.253  36.286  1.00  0.00    -0.203 F 
ATOM     67  F   UNL A   1      40.227  35.292  36.978  1.00  0.00    -0.200 F 
ATOM     68  C   UNL A   1      38.760  33.567  37.650  1.00  0.00     0.200 A 
ATOM     69  F   UNL A   1      37.335  31.802  38.302  1.00  0.00    -0.200 F 
ATOM     70  F   UNL A   1      38.332  34.312  38.679  1.00  0.00    -0.200 F 
ENDBRANCH  46  60
BRANCH  47  71
ATOM     71  C   UNL A   1      42.633  26.226  27.837  1.00  0.00     0.064 A 
ATOM     72  C   UNL A   1      42.262  24.875  27.756  1.00  0.00     0.173 A 
ATOM     73  C   UNL A   1      43.484  26.721  26.836  1.00  0.00     0.173 A 
ATOM     74  F   UNL A   1      41.475  24.340  28.700  1.00  0.00    -0.203 F 
ATOM     75  C   UNL A   1      42.742  24.053  26.737  1.00  0.00     0.198 A 
ATOM     76  C   UNL A   1      43.933  25.908  25.797  1.00  0.00     0.198 A 
ATOM     77  F   UNL A   1      43.881  28.002  26.863  1.00  0.00    -0.203 F 
ATOM     78  F   UNL A   1      42.420  22.752  26.721  1.00  0.00    -0.200 F 
ATOM     79  C   UNL A   1      43.572  24.571  25.755  1.00  0.00     0.200 A 
ATOM     80  F   UNL A   1      44.724  26.419  24.844  1.00  0.00    -0.200 F 
ATOM     81  F   UNL A   1      44.033  23.781  24.775  1.00  0.00    -0.200 F 
ENDBRANCH  47  71
BRANCH  59  82
ATOM     82  C   UNL A   1      45.456  27.906  33.992  1.00  0.00     0.064 A 
ATOM     83  C   UNL A   1      45.562  26.758  34.790  1.00  0.00     0.173 A 
ATOM     84  C   UNL A   1      46.614  28.671  33.785  1.00  0.00     0.173 A 
ATOM     85  F   UNL A   1      44.481  25.999  35.029  1.00  0.00    -0.203 F 
ATOM     86  C   UNL A   1      46.772  26.408  35.382  1.00  0.00     0.198 A 
ATOM     87  C   UNL A   1      47.830  28.298  34.348  1.00  0.00     0.198 A 
ATOM     88  F   UNL A   1      46.569  29.775  33.022  1.00  0.00    -0.203 F 
ATOM     89  F   UNL A   1      46.837  25.337  36.186  1.00  0.00    -0.200 F 
ATOM     90  C   UNL A   1      47.907  27.172  35.153  1.00  0.00     0.200 A 
ATOM     91  F   UNL A   1      48.930  29.028  34.111  1.00  0.00    -0.200 F 
ATOM     92  F   UNL A   1      49.072  26.828  35.717  1.00  0.00    -0.200 F 
ENDBRANCH  59  82
ENDBRANCH  33  34
ENDBRANCH  26  28
ENDBRANCH  25  26
ENDBRANCH  24  25
ENDBRANCH   1  24
TORSDOF 17
ENDMDL
