MODEL 1
REMARK VINA RESULT:     -12.1      0.000      0.000
REMARK SMILES CC(C)c1cc(OCC(=O)OCCOC(=O)c2ccc(-c3c4nc(c(-c5c(F)c(F)c(F)c(F)c5F)c5ccc([nH]5)c(-c5c(F)c(F)c(F)c(F)c5F)c5nc(c(-c6c(F)c(F)c(F)c(F)c6F)c6ccc3[nH]6)C=C5)C=C4)cc2)nc(Nc2ccc(F)cc2F)n1
REMARK SMILES IDX 12 1 11 2 9 3 10 4 8 5 7 6 6 7 4 8 5 9 91 10 81 11 80 12
REMARK SMILES IDX 2 13 1 14 3 15 82 16 83 18 84 19 89 20 85 21 88 22 90 23
REMARK SMILES IDX 86 24 87 25 13 26 14 27 15 28 16 29 17 30 18 31 79 32 19 33
REMARK SMILES IDX 78 34 20 35 21 36 22 37 72 38 23 39 77 40 71 41 73 42 24 43
REMARK SMILES IDX 76 44 70 45 69 46 25 48 57 49 37 50 56 51 38 52 41 53 55 54
REMARK SMILES IDX 74 55 39 56 40 57 54 59 75 60 42 61 26 62 27 63 35 64 28 65
REMARK SMILES IDX 29 66 33 67 36 68 30 69 31 70 34 71 32 72 58 73 59 74 67 75
REMARK SMILES IDX 60 76 61 77 65 78 68 79 62 80 63 81 66 82 64 83 43 84 44 85
REMARK SMILES IDX 52 86 45 87 46 88 50 89 53 90 47 91 48 92 51 93 49 94
REMARK H PARENT 82 17 73 47 41 58
REMARK Flexibility Score: inf
ROOT
ATOM      1  C   UNL A   1      32.284  31.791  27.188  1.00  0.00     0.274 C 
ENDROOT
BRANCH   1   2
ATOM      2  O   UNL A   1      33.232  30.716  27.345  1.00  0.00    -0.460 OA
BRANCH   2   3
ATOM      3  C   UNL A   1      32.792  29.484  26.979  1.00  0.00     0.344 C 
ATOM      4  O   UNL A   1      31.992  28.805  27.616  1.00  0.00    -0.248 OA
BRANCH   3   5
ATOM      5  C   UNL A   1      33.398  28.999  25.664  1.00  0.00     0.353 C 
BRANCH   5   6
ATOM      6  O   UNL A   1      32.996  29.631  24.463  1.00  0.00    -0.466 OA
BRANCH   6   7
ATOM      7  C   UNL A   1      31.894  29.138  23.819  1.00  0.00     0.218 A 
ATOM      8  C   UNL A   1      29.680  29.162  23.055  1.00  0.00     0.052 A 
ATOM      9  C   UNL A   1      30.658  29.749  23.828  1.00  0.00     0.092 A 
ATOM     10  N   UNL A   1      29.931  28.051  22.365  1.00  0.00    -0.217 NA
ATOM     11  C   UNL A   1      31.167  27.537  22.365  1.00  0.00     0.230 A 
ATOM     12  N   UNL A   1      32.161  28.025  23.110  1.00  0.00    -0.177 NA
BRANCH   8  13
ATOM     13  C   UNL A   1      28.294  29.738  22.917  1.00  0.00     0.032 C 
ATOM     14  C   UNL A   1      28.042  30.420  21.564  1.00  0.00     0.014 C 
ATOM     15  C   UNL A   1      27.235  28.670  23.125  1.00  0.00     0.014 C 
ENDBRANCH   8  13
BRANCH  11  16
ATOM     16  N   UNL A   1      31.378  26.411  21.575  1.00  0.00    -0.322 N 
ATOM     17  H   UNL A   1      31.237  26.491  20.603  1.00  0.00     0.170 HD
BRANCH  16  18
ATOM     18  C   UNL A   1      31.782  25.167  22.085  1.00  0.00     0.077 A 
ATOM     19  C   UNL A   1      33.023  24.632  21.724  1.00  0.00     0.032 A 
ATOM     20  C   UNL A   1      31.066  24.538  23.128  1.00  0.00     0.149 A 
ATOM     21  C   UNL A   1      33.543  23.532  22.414  1.00  0.00     0.041 A 
ATOM     22  C   UNL A   1      31.571  23.439  23.810  1.00  0.00     0.080 A 
ATOM     23  F   UNL A   1      29.861  25.006  23.492  1.00  0.00    -0.205 F 
ATOM     24  C   UNL A   1      32.817  22.955  23.454  1.00  0.00     0.126 A 
ATOM     25  F   UNL A   1      33.341  21.926  24.132  1.00  0.00    -0.207 F 
ENDBRANCH  16  18
ENDBRANCH  11  16
ENDBRANCH   6   7
ENDBRANCH   5   6
ENDBRANCH   3   5
ENDBRANCH   2   3
ENDBRANCH   1   2
BRANCH   1  26
ATOM     26  C   UNL A   1      32.954  33.158  27.294  1.00  0.00     0.275 C 
BRANCH  26  27
ATOM     27  O   UNL A   1      32.168  34.045  28.115  1.00  0.00    -0.458 OA
BRANCH  27  28
ATOM     28  C   UNL A   1      32.869  35.030  28.712  1.00  0.00     0.338 C 
ATOM     29  O   UNL A   1      32.575  36.219  28.751  1.00  0.00    -0.246 OA
BRANCH  28  30
ATOM     30  C   UNL A   1      34.098  34.530  29.353  1.00  0.00     0.060 A 
ATOM     31  C   UNL A   1      35.352  34.666  28.751  1.00  0.00     0.016 A 
ATOM     32  C   UNL A   1      33.957  33.763  30.513  1.00  0.00     0.016 A 
ATOM     33  C   UNL A   1      36.456  33.992  29.291  1.00  0.00     0.010 A 
ATOM     34  C   UNL A   1      35.069  33.137  31.081  1.00  0.00     0.010 A 
ATOM     35  C   UNL A   1      36.326  33.224  30.462  1.00  0.00    -0.014 A 
BRANCH  35  36
ATOM     36  C   UNL A   1      37.505  32.571  31.093  1.00  0.00     0.031 A 
ATOM     37  C   UNL A   1      38.207  31.402  30.455  1.00  0.00     0.074 A 
ATOM     38  C   UNL A   1      37.918  33.011  32.293  1.00  0.00     0.049 A 
ATOM     39  N   UNL A   1      39.217  30.687  30.886  1.00  0.00    -0.248 NA
ATOM     40  C   UNL A   1      37.712  30.985  29.144  1.00  0.00     0.031 C 
ATOM     41  C   UNL A   1      37.333  34.131  33.026  1.00  0.00     0.029 A 
ATOM     42  N   UNL A   1      38.911  32.545  33.116  1.00  0.00    -0.354 N 
ATOM     43  C   UNL A   1      39.487  29.764  29.881  1.00  0.00     0.074 A 
ATOM     44  C   UNL A   1      38.522  29.986  28.830  1.00  0.00     0.031 C 
ATOM     45  C   UNL A   1      37.966  34.258  34.202  1.00  0.00     0.029 A 
ATOM     46  C   UNL A   1      38.965  33.199  34.319  1.00  0.00     0.049 A 
ATOM     47  H   UNL A   1      39.522  31.814  32.868  1.00  0.00     0.167 HD
ATOM     48  C   UNL A   1      40.452  28.814  29.837  1.00  0.00     0.037 A 
ATOM     49  C   UNL A   1      39.707  32.947  35.412  1.00  0.00     0.037 A 
ATOM     50  C   UNL A   1      41.373  28.547  30.907  1.00  0.00     0.049 A 
ATOM     51  C   UNL A   1      40.683  31.809  35.399  1.00  0.00     0.074 A 
ATOM     52  C   UNL A   1      42.394  27.615  30.962  1.00  0.00     0.029 A 
ATOM     53  N   UNL A   1      41.359  29.199  32.129  1.00  0.00    -0.354 N 
ATOM     54  N   UNL A   1      40.966  30.975  34.428  1.00  0.00    -0.248 NA
ATOM     55  C   UNL A   1      41.437  31.572  36.636  1.00  0.00     0.031 C 
ATOM     56  C   UNL A   1      42.965  27.670  32.239  1.00  0.00     0.029 A 
ATOM     57  C   UNL A   1      42.324  28.662  32.963  1.00  0.00     0.049 A 
ATOM     58  H   UNL A   1      40.752  29.937  32.369  1.00  0.00     0.167 HD
ATOM     59  C   UNL A   1      41.938  30.123  34.930  1.00  0.00     0.074 A 
ATOM     60  C   UNL A   1      42.202  30.545  36.291  1.00  0.00     0.031 C 
ATOM     61  C   UNL A   1      42.560  29.086  34.318  1.00  0.00     0.037 A 
BRANCH  48  62
ATOM     62  C   UNL A   1      40.547  27.975  28.597  1.00  0.00     0.064 A 
ATOM     63  C   UNL A   1      41.318  28.383  27.498  1.00  0.00     0.173 A 
ATOM     64  C   UNL A   1      39.902  26.732  28.525  1.00  0.00     0.173 A 
ATOM     65  F   UNL A   1      41.943  29.569  27.517  1.00  0.00    -0.203 F 
ATOM     66  C   UNL A   1      41.434  27.578  26.367  1.00  0.00     0.198 A 
ATOM     67  C   UNL A   1      40.032  25.923  27.398  1.00  0.00     0.198 A 
ATOM     68  F   UNL A   1      39.153  26.299  29.549  1.00  0.00    -0.203 F 
ATOM     69  F   UNL A   1      42.160  27.996  25.321  1.00  0.00    -0.200 F 
ATOM     70  C   UNL A   1      40.796  26.347  26.320  1.00  0.00     0.200 A 
ATOM     71  F   UNL A   1      39.419  24.732  27.355  1.00  0.00    -0.200 F 
ATOM     72  F   UNL A   1      40.914  25.571  25.234  1.00  0.00    -0.200 F 
ENDBRANCH  48  62
BRANCH  49  73
ATOM     73  C   UNL A   1      39.513  33.790  36.615  1.00  0.00     0.064 A 
ATOM     74  C   UNL A   1      38.691  33.367  37.665  1.00  0.00     0.173 A 
ATOM     75  C   UNL A   1      40.202  35.003  36.761  1.00  0.00     0.173 A 
ATOM     76  F   UNL A   1      38.003  32.222  37.557  1.00  0.00    -0.203 F 
ATOM     77  C   UNL A   1      38.567  34.128  38.825  1.00  0.00     0.198 A 
ATOM     78  C   UNL A   1      40.094  35.751  37.931  1.00  0.00     0.198 A 
ATOM     79  F   UNL A   1      41.006  35.442  35.782  1.00  0.00    -0.203 F 
ATOM     80  F   UNL A   1      37.764  33.712  39.813  1.00  0.00    -0.200 F 
ATOM     81  C   UNL A   1      39.277  35.314  38.960  1.00  0.00     0.200 A 
ATOM     82  F   UNL A   1      40.794  36.886  38.064  1.00  0.00    -0.200 F 
ATOM     83  F   UNL A   1      39.172  36.034  40.085  1.00  0.00    -0.200 F 
ENDBRANCH  49  73
BRANCH  61  84
ATOM     84  C   UNL A   1      43.587  28.342  35.112  1.00  0.00     0.064 A 
ATOM     85  C   UNL A   1      44.930  28.742  35.121  1.00  0.00     0.173 A 
ATOM     86  C   UNL A   1      43.219  27.239  35.896  1.00  0.00     0.173 A 
ATOM     87  F   UNL A   1      45.329  29.782  34.374  1.00  0.00    -0.203 F 
ATOM     88  C   UNL A   1      45.875  28.049  35.872  1.00  0.00     0.198 A 
ATOM     89  C   UNL A   1      44.162  26.562  36.662  1.00  0.00     0.198 A 
ATOM     90  F   UNL A   1      41.944  26.823  35.922  1.00  0.00    -0.203 F 
ATOM     91  F   UNL A   1      47.161  28.424  35.838  1.00  0.00    -0.200 F 
ATOM     92  C   UNL A   1      45.490  26.964  36.646  1.00  0.00     0.200 A 
ATOM     93  F   UNL A   1      43.788  25.518  37.414  1.00  0.00    -0.200 F 
ATOM     94  F   UNL A   1      46.401  26.300  37.369  1.00  0.00    -0.200 F 
ENDBRANCH  61  84
ENDBRANCH  35  36
ENDBRANCH  28  30
ENDBRANCH  27  28
ENDBRANCH  26  27
ENDBRANCH   1  26
TORSDOF 16
ENDMDL
MODEL 2
REMARK VINA RESULT:     -12.0      6.061     11.436
REMARK SMILES CC(C)c1cc(OCC(=O)OCCOC(=O)c2ccc(-c3c4nc(c(-c5c(F)c(F)c(F)c(F)c5F)c5ccc([nH]5)c(-c5c(F)c(F)c(F)c(F)c5F)c5nc(c(-c6c(F)c(F)c(F)c(F)c6F)c6ccc3[nH]6)C=C5)C=C4)cc2)nc(Nc2ccc(F)cc2F)n1
REMARK SMILES IDX 12 1 11 2 9 3 10 4 8 5 7 6 6 7 4 8 5 9 91 10 81 11 80 12
REMARK SMILES IDX 2 13 1 14 3 15 82 16 83 18 84 19 89 20 85 21 88 22 90 23
REMARK SMILES IDX 86 24 87 25 13 26 14 27 15 28 16 29 17 30 18 31 79 32 19 33
REMARK SMILES IDX 78 34 20 35 21 36 22 37 72 38 23 39 77 40 71 41 73 42 24 43
REMARK SMILES IDX 76 44 70 45 69 46 25 48 57 49 37 50 56 51 38 52 41 53 55 54
REMARK SMILES IDX 74 55 39 56 40 57 54 59 75 60 42 61 26 62 27 63 35 64 28 65
REMARK SMILES IDX 29 66 33 67 36 68 30 69 31 70 34 71 32 72 58 73 59 74 67 75
REMARK SMILES IDX 60 76 61 77 65 78 68 79 62 80 63 81 66 82 64 83 43 84 44 85
REMARK SMILES IDX 52 86 45 87 46 88 50 89 53 90 47 91 48 92 51 93 49 94
REMARK H PARENT 82 17 73 47 41 58
REMARK Flexibility Score: inf
ROOT
ATOM      1  C   UNL A   1      39.091  20.638  25.377  1.00  0.00     0.274 C 
ENDROOT
BRANCH   1   2
ATOM      2  O   UNL A   1      39.223  21.928  26.008  1.00  0.00    -0.460 OA
BRANCH   2   3
ATOM      3  C   UNL A   1      38.119  22.719  25.969  1.00  0.00     0.344 C 
ATOM      4  O   UNL A   1      38.077  23.886  26.347  1.00  0.00    -0.248 OA
BRANCH   3   5
ATOM      5  C   UNL A   1      36.894  22.010  25.396  1.00  0.00     0.353 C 
BRANCH   5   6
ATOM      6  O   UNL A   1      35.611  22.495  25.743  1.00  0.00    -0.466 OA
BRANCH   6   7
ATOM      7  C   UNL A   1      34.528  21.719  25.430  1.00  0.00     0.218 A 
ATOM      8  C   UNL A   1      33.422  19.750  24.809  1.00  0.00     0.052 A 
ATOM      9  C   UNL A   1      34.615  20.412  24.997  1.00  0.00     0.092 A 
ATOM     10  N   UNL A   1      32.259  20.365  25.017  1.00  0.00    -0.217 NA
ATOM     11  C   UNL A   1      32.249  21.620  25.481  1.00  0.00     0.230 A 
ATOM     12  N   UNL A   1      33.357  22.343  25.660  1.00  0.00    -0.177 NA
BRANCH   8  13
ATOM     13  C   UNL A   1      33.349  18.303  24.390  1.00  0.00     0.032 C 
ATOM     14  C   UNL A   1      32.582  18.080  23.079  1.00  0.00     0.014 C 
ATOM     15  C   UNL A   1      34.736  17.704  24.248  1.00  0.00     0.014 C 
ENDBRANCH   8  13
BRANCH  11  16
ATOM     16  N   UNL A   1      31.003  22.185  25.736  1.00  0.00    -0.322 N 
ATOM     17  H   UNL A   1      30.329  21.636  26.198  1.00  0.00     0.170 HD
BRANCH  16  18
ATOM     18  C   UNL A   1      30.652  23.494  25.368  1.00  0.00     0.077 A 
ATOM     19  C   UNL A   1      30.510  24.481  26.349  1.00  0.00     0.032 A 
ATOM     20  C   UNL A   1      30.653  23.899  24.015  1.00  0.00     0.149 A 
ATOM     21  C   UNL A   1      30.415  25.828  25.983  1.00  0.00     0.041 A 
ATOM     22  C   UNL A   1      30.548  25.232  23.644  1.00  0.00     0.080 A 
ATOM     23  F   UNL A   1      30.766  22.982  23.040  1.00  0.00    -0.205 F 
ATOM     24  C   UNL A   1      30.445  26.189  24.638  1.00  0.00     0.126 A 
ATOM     25  F   UNL A   1      30.390  27.484  24.302  1.00  0.00    -0.207 F 
ENDBRANCH  16  18
ENDBRANCH  11  16
ENDBRANCH   6   7
ENDBRANCH   5   6
ENDBRANCH   3   5
ENDBRANCH   2   3
ENDBRANCH   1   2
BRANCH   1  26
ATOM     26  C   UNL A   1      39.862  19.557  26.128  1.00  0.00     0.275 C 
BRANCH  26  27
ATOM     27  O   UNL A   1      41.010  19.131  25.367  1.00  0.00    -0.458 OA
BRANCH  27  28
ATOM     28  C   UNL A   1      42.158  19.061  26.070  1.00  0.00     0.338 C 
ATOM     29  O   UNL A   1      42.763  18.042  26.383  1.00  0.00    -0.246 OA
BRANCH  28  30
ATOM     30  C   UNL A   1      42.656  20.391  26.460  1.00  0.00     0.060 A 
ATOM     31  C   UNL A   1      42.600  20.843  27.782  1.00  0.00     0.016 A 
ATOM     32  C   UNL A   1      43.041  21.264  25.437  1.00  0.00     0.016 A 
ATOM     33  C   UNL A   1      42.886  22.185  28.067  1.00  0.00     0.010 A 
ATOM     34  C   UNL A   1      43.378  22.586  25.732  1.00  0.00     0.010 A 
ATOM     35  C   UNL A   1      43.281  23.068  27.047  1.00  0.00    -0.014 A 
BRANCH  35  36
ATOM     36  C   UNL A   1      43.667  24.473  27.348  1.00  0.00     0.031 A 
ATOM     37  C   UNL A   1      42.663  25.498  27.804  1.00  0.00     0.074 A 
ATOM     38  C   UNL A   1      44.943  24.845  27.153  1.00  0.00     0.049 A 
ATOM     39  N   UNL A   1      42.817  26.772  28.066  1.00  0.00    -0.248 NA
ATOM     40  C   UNL A   1      41.296  25.021  28.006  1.00  0.00     0.031 C 
ATOM     41  C   UNL A   1      46.020  23.960  26.714  1.00  0.00     0.029 A 
ATOM     42  N   UNL A   1      45.539  26.074  27.276  1.00  0.00    -0.354 N 
ATOM     43  C   UNL A   1      41.573  27.228  28.490  1.00  0.00     0.074 A 
ATOM     44  C   UNL A   1      40.665  26.107  28.426  1.00  0.00     0.031 C 
ATOM     45  C   UNL A   1      47.146  24.678  26.586  1.00  0.00     0.029 A 
ATOM     46  C   UNL A   1      46.853  26.077  26.889  1.00  0.00     0.049 A 
ATOM     47  H   UNL A   1      45.069  26.873  27.608  1.00  0.00     0.167 HD
ATOM     48  C   UNL A   1      41.216  28.470  28.896  1.00  0.00     0.037 A 
ATOM     49  C   UNL A   1      47.716  27.099  26.751  1.00  0.00     0.037 A 
ATOM     50  C   UNL A   1      42.100  29.604  28.900  1.00  0.00     0.049 A 
ATOM     51  C   UNL A   1      47.271  28.493  27.079  1.00  0.00     0.074 A 
ATOM     52  C   UNL A   1      41.843  30.904  29.298  1.00  0.00     0.029 A 
ATOM     53  N   UNL A   1      43.409  29.574  28.449  1.00  0.00    -0.354 N 
ATOM     54  N   UNL A   1      46.110  28.906  27.526  1.00  0.00    -0.248 NA
ATOM     55  C   UNL A   1      48.254  29.564  26.876  1.00  0.00     0.031 C 
ATOM     56  C   UNL A   1      42.985  31.672  29.042  1.00  0.00     0.029 A 
ATOM     57  C   UNL A   1      43.962  30.840  28.519  1.00  0.00     0.049 A 
ATOM     58  H   UNL A   1      43.878  28.769  28.127  1.00  0.00     0.167 HD
ATOM     59  C   UNL A   1      46.225  30.280  27.671  1.00  0.00     0.074 A 
ATOM     60  C   UNL A   1      47.573  30.631  27.270  1.00  0.00     0.031 C 
ATOM     61  C   UNL A   1      45.299  31.171  28.101  1.00  0.00     0.037 A 
BRANCH  48  62
ATOM     62  C   UNL A   1      39.802  28.676  29.348  1.00  0.00     0.064 A 
ATOM     63  C   UNL A   1      39.423  28.452  30.680  1.00  0.00     0.173 A 
ATOM     64  C   UNL A   1      38.827  29.145  28.456  1.00  0.00     0.173 A 
ATOM     65  F   UNL A   1      40.317  27.993  31.568  1.00  0.00    -0.203 F 
ATOM     66  C   UNL A   1      38.115  28.686  31.102  1.00  0.00     0.198 A 
ATOM     67  C   UNL A   1      37.524  29.390  28.883  1.00  0.00     0.198 A 
ATOM     68  F   UNL A   1      39.139  29.371  27.172  1.00  0.00    -0.203 F 
ATOM     69  F   UNL A   1      37.770  28.448  32.375  1.00  0.00    -0.200 F 
ATOM     70  C   UNL A   1      37.169  29.160  30.205  1.00  0.00     0.200 A 
ATOM     71  F   UNL A   1      36.611  29.852  28.018  1.00  0.00    -0.200 F 
ATOM     72  F   UNL A   1      35.913  29.389  30.612  1.00  0.00    -0.200 F 
ENDBRANCH  48  62
BRANCH  49  73
ATOM     73  C   UNL A   1      49.080  26.818  26.245  1.00  0.00     0.064 A 
ATOM     74  C   UNL A   1      50.078  26.338  27.099  1.00  0.00     0.173 A 
ATOM     75  C   UNL A   1      49.386  26.963  24.884  1.00  0.00     0.173 A 
ATOM     76  F   UNL A   1      49.831  26.200  28.409  1.00  0.00    -0.203 F 
ATOM     77  C   UNL A   1      51.339  26.008  26.607  1.00  0.00     0.198 A 
ATOM     78  C   UNL A   1      50.639  26.612  24.391  1.00  0.00     0.198 A 
ATOM     79  F   UNL A   1      48.455  27.414  24.030  1.00  0.00    -0.203 F 
ATOM     80  F   UNL A   1      52.286  25.563  27.444  1.00  0.00    -0.200 F 
ATOM     81  C   UNL A   1      51.614  26.135  25.253  1.00  0.00     0.200 A 
ATOM     82  F   UNL A   1      50.895  26.720  23.080  1.00  0.00    -0.200 F 
ATOM     83  F   UNL A   1      52.821  25.797  24.778  1.00  0.00    -0.200 F 
ENDBRANCH  49  73
BRANCH  61  84
ATOM     84  C   UNL A   1      45.714  32.608  28.165  1.00  0.00     0.064 A 
ATOM     85  C   UNL A   1      46.326  33.138  29.308  1.00  0.00     0.173 A 
ATOM     86  C   UNL A   1      45.524  33.453  27.061  1.00  0.00     0.173 A 
ATOM     87  F   UNL A   1      46.513  32.370  30.391  1.00  0.00    -0.203 F 
ATOM     88  C   UNL A   1      46.718  34.474  29.352  1.00  0.00     0.198 A 
ATOM     89  C   UNL A   1      45.936  34.781  27.101  1.00  0.00     0.198 A 
ATOM     90  F   UNL A   1      44.946  32.987  25.944  1.00  0.00    -0.203 F 
ATOM     91  F   UNL A   1      47.269  34.972  30.467  1.00  0.00    -0.200 F 
ATOM     92  C   UNL A   1      46.527  35.292  28.247  1.00  0.00     0.200 A 
ATOM     93  F   UNL A   1      45.758  35.569  26.032  1.00  0.00    -0.200 F 
ATOM     94  F   UNL A   1      46.906  36.576  28.292  1.00  0.00    -0.200 F 
ENDBRANCH  61  84
ENDBRANCH  35  36
ENDBRANCH  28  30
ENDBRANCH  27  28
ENDBRANCH  26  27
ENDBRANCH   1  26
TORSDOF 16
ENDMDL
MODEL 3
REMARK VINA RESULT:     -12.0      5.884     10.937
REMARK SMILES CC(C)c1cc(OCC(=O)OCCOC(=O)c2ccc(-c3c4nc(c(-c5c(F)c(F)c(F)c(F)c5F)c5ccc([nH]5)c(-c5c(F)c(F)c(F)c(F)c5F)c5nc(c(-c6c(F)c(F)c(F)c(F)c6F)c6ccc3[nH]6)C=C5)C=C4)cc2)nc(Nc2ccc(F)cc2F)n1
REMARK SMILES IDX 12 1 11 2 9 3 10 4 8 5 7 6 6 7 4 8 5 9 91 10 81 11 80 12
REMARK SMILES IDX 2 13 1 14 3 15 82 16 83 18 84 19 89 20 85 21 88 22 90 23
REMARK SMILES IDX 86 24 87 25 13 26 14 27 15 28 16 29 17 30 18 31 79 32 19 33
REMARK SMILES IDX 78 34 20 35 21 36 22 37 72 38 23 39 77 40 71 41 73 42 24 43
REMARK SMILES IDX 76 44 70 45 69 46 25 48 57 49 37 50 56 51 38 52 41 53 55 54
REMARK SMILES IDX 74 55 39 56 40 57 54 59 75 60 42 61 26 62 27 63 35 64 28 65
REMARK SMILES IDX 29 66 33 67 36 68 30 69 31 70 34 71 32 72 58 73 59 74 67 75
REMARK SMILES IDX 60 76 61 77 65 78 68 79 62 80 63 81 66 82 64 83 43 84 44 85
REMARK SMILES IDX 52 86 45 87 46 88 50 89 53 90 47 91 48 92 51 93 49 94
REMARK H PARENT 82 17 73 47 41 58
REMARK Flexibility Score: inf
ROOT
ATOM      1  C   UNL A   1      38.313  21.087  25.426  1.00  0.00     0.274 C 
ENDROOT
BRANCH   1   2
ATOM      2  O   UNL A   1      37.382  21.227  24.334  1.00  0.00    -0.460 OA
BRANCH   2   3
ATOM      3  C   UNL A   1      36.983  22.496  24.058  1.00  0.00     0.344 C 
ATOM      4  O   UNL A   1      36.648  22.901  22.948  1.00  0.00    -0.248 OA
BRANCH   3   5
ATOM      5  C   UNL A   1      36.986  23.405  25.284  1.00  0.00     0.353 C 
BRANCH   5   6
ATOM      6  O   UNL A   1      35.928  23.284  26.216  1.00  0.00    -0.466 OA
BRANCH   6   7
ATOM      7  C   UNL A   1      34.647  23.342  25.738  1.00  0.00     0.218 A 
ATOM      8  C   UNL A   1      32.825  24.309  24.630  1.00  0.00     0.052 A 
ATOM      9  C   UNL A   1      34.100  24.452  25.129  1.00  0.00     0.092 A 
ATOM     10  N   UNL A   1      32.165  23.159  24.761  1.00  0.00    -0.217 NA
ATOM     11  C   UNL A   1      32.774  22.108  25.321  1.00  0.00     0.230 A 
ATOM     12  N   UNL A   1      33.994  22.170  25.858  1.00  0.00    -0.177 NA
BRANCH   8  13
ATOM     13  C   UNL A   1      32.109  25.411  23.891  1.00  0.00     0.032 C 
ATOM     14  C   UNL A   1      30.654  25.072  23.537  1.00  0.00     0.014 C 
ATOM     15  C   UNL A   1      32.124  26.703  24.688  1.00  0.00     0.014 C 
ENDBRANCH   8  13
BRANCH  11  16
ATOM     16  N   UNL A   1      32.052  20.918  25.372  1.00  0.00    -0.322 N 
ATOM     17  H   UNL A   1      31.149  20.938  25.765  1.00  0.00     0.170 HD
BRANCH  16  18
ATOM     18  C   UNL A   1      32.541  19.691  24.895  1.00  0.00     0.077 A 
ATOM     19  C   UNL A   1      32.893  18.681  25.797  1.00  0.00     0.032 A 
ATOM     20  C   UNL A   1      32.481  19.365  23.523  1.00  0.00     0.149 A 
ATOM     21  C   UNL A   1      33.135  17.382  25.338  1.00  0.00     0.041 A 
ATOM     22  C   UNL A   1      32.731  18.081  23.058  1.00  0.00     0.080 A 
ATOM     23  F   UNL A   1      32.168  20.310  22.621  1.00  0.00    -0.205 F 
ATOM     24  C   UNL A   1      33.042  17.094  23.977  1.00  0.00     0.126 A 
ATOM     25  F   UNL A   1      33.239  15.839  23.554  1.00  0.00    -0.207 F 
ENDBRANCH  16  18
ENDBRANCH  11  16
ENDBRANCH   6   7
ENDBRANCH   5   6
ENDBRANCH   3   5
ENDBRANCH   2   3
ENDBRANCH   1   2
BRANCH   1  26
ATOM     26  C   UNL A   1      39.063  19.760  25.367  1.00  0.00     0.275 C 
BRANCH  26  27
ATOM     27  O   UNL A   1      39.962  19.635  26.487  1.00  0.00    -0.458 OA
BRANCH  27  28
ATOM     28  C   UNL A   1      41.271  19.697  26.170  1.00  0.00     0.338 C 
ATOM     29  O   UNL A   1      41.936  18.820  25.631  1.00  0.00    -0.246 OA
BRANCH  28  30
ATOM     30  C   UNL A   1      41.877  20.985  26.552  1.00  0.00     0.060 A 
ATOM     31  C   UNL A   1      42.196  21.287  27.879  1.00  0.00     0.016 A 
ATOM     32  C   UNL A   1      41.975  21.971  25.565  1.00  0.00     0.016 A 
ATOM     33  C   UNL A   1      42.570  22.593  28.220  1.00  0.00     0.010 A 
ATOM     34  C   UNL A   1      42.400  23.258  25.899  1.00  0.00     0.010 A 
ATOM     35  C   UNL A   1      42.678  23.590  27.235  1.00  0.00    -0.014 A 
BRANCH  35  36
ATOM     36  C   UNL A   1      43.153  24.960  27.571  1.00  0.00     0.031 A 
ATOM     37  C   UNL A   1      42.228  26.014  28.118  1.00  0.00     0.074 A 
ATOM     38  C   UNL A   1      44.436  25.274  27.325  1.00  0.00     0.049 A 
ATOM     39  N   UNL A   1      42.463  27.267  28.422  1.00  0.00    -0.248 NA
ATOM     40  C   UNL A   1      40.850  25.599  28.373  1.00  0.00     0.031 C 
ATOM     41  C   UNL A   1      45.441  24.355  26.796  1.00  0.00     0.029 A 
ATOM     42  N   UNL A   1      45.101  26.465  27.465  1.00  0.00    -0.354 N 
ATOM     43  C   UNL A   1      41.268  27.767  28.929  1.00  0.00     0.074 A 
ATOM     44  C   UNL A   1      40.300  26.698  28.868  1.00  0.00     0.031 C 
ATOM     45  C   UNL A   1      46.595  25.020  26.638  1.00  0.00     0.029 A 
ATOM     46  C   UNL A   1      46.393  26.417  27.010  1.00  0.00     0.049 A 
ATOM     47  H   UNL A   1      44.692  27.272  27.852  1.00  0.00     0.167 HD
ATOM     48  C   UNL A   1      40.998  29.008  29.401  1.00  0.00     0.037 A 
ATOM     49  C   UNL A   1      47.300  27.399  26.868  1.00  0.00     0.037 A 
ATOM     50  C   UNL A   1      41.939  30.094  29.404  1.00  0.00     0.049 A 
ATOM     51  C   UNL A   1      46.947  28.799  27.275  1.00  0.00     0.074 A 
ATOM     52  C   UNL A   1      41.772  31.387  29.867  1.00  0.00     0.029 A 
ATOM     53  N   UNL A   1      43.222  30.016  28.885  1.00  0.00    -0.354 N 
ATOM     54  N   UNL A   1      45.834  29.251  27.797  1.00  0.00    -0.248 NA
ATOM     55  C   UNL A   1      47.974  29.826  27.064  1.00  0.00     0.031 C 
ATOM     56  C   UNL A   1      42.939  32.106  29.582  1.00  0.00     0.029 A 
ATOM     57  C   UNL A   1      43.844  31.249  28.977  1.00  0.00     0.049 A 
ATOM     58  H   UNL A   1      43.630  29.203  28.508  1.00  0.00     0.167 HD
ATOM     59  C   UNL A   1      46.029  30.610  27.991  1.00  0.00     0.074 A 
ATOM     60  C   UNL A   1      47.371  30.909  27.535  1.00  0.00     0.031 C 
ATOM     61  C   UNL A   1      45.174  31.529  28.503  1.00  0.00     0.037 A 
BRANCH  48  62
ATOM     62  C   UNL A   1      39.621  29.266  29.934  1.00  0.00     0.064 A 
ATOM     63  C   UNL A   1      39.333  29.140  31.302  1.00  0.00     0.173 A 
ATOM     64  C   UNL A   1      38.591  29.689  29.081  1.00  0.00     0.173 A 
ATOM     65  F   UNL A   1      40.282  28.728  32.155  1.00  0.00    -0.203 F 
ATOM     66  C   UNL A   1      38.060  29.421  31.795  1.00  0.00     0.198 A 
ATOM     67  C   UNL A   1      37.324  29.983  29.579  1.00  0.00     0.198 A 
ATOM     68  F   UNL A   1      38.816  29.823  27.766  1.00  0.00    -0.203 F 
ATOM     69  F   UNL A   1      37.802  29.276  33.101  1.00  0.00    -0.200 F 
ATOM     70  C   UNL A   1      37.059  29.849  30.934  1.00  0.00     0.200 A 
ATOM     71  F   UNL A   1      36.358  30.399  28.748  1.00  0.00    -0.200 F 
ATOM     72  F   UNL A   1      35.837  30.125  31.410  1.00  0.00    -0.200 F 
ENDBRANCH  48  62
BRANCH  49  73
ATOM     73  C   UNL A   1      48.621  27.071  26.282  1.00  0.00     0.064 A 
ATOM     74  C   UNL A   1      49.670  26.612  27.085  1.00  0.00     0.173 A 
ATOM     75  C   UNL A   1      48.832  27.148  24.897  1.00  0.00     0.173 A 
ATOM     76  F   UNL A   1      49.514  26.538  28.414  1.00  0.00    -0.203 F 
ATOM     77  C   UNL A   1      50.888  26.236  26.522  1.00  0.00     0.198 A 
ATOM     78  C   UNL A   1      50.041  26.751  24.334  1.00  0.00     0.198 A 
ATOM     79  F   UNL A   1      47.849  27.576  24.091  1.00  0.00    -0.203 F 
ATOM     80  F   UNL A   1      51.885  25.812  27.309  1.00  0.00    -0.200 F 
ATOM     81  C   UNL A   1      51.068  26.297  25.147  1.00  0.00     0.200 A 
ATOM     82  F   UNL A   1      50.205  26.795  23.005  1.00  0.00    -0.200 F 
ATOM     83  F   UNL A   1      52.233  25.916  24.605  1.00  0.00    -0.200 F 
ENDBRANCH  49  73
BRANCH  61  84
ATOM     84  C   UNL A   1      45.667  32.938  28.602  1.00  0.00     0.064 A 
ATOM     85  C   UNL A   1      46.392  33.379  29.717  1.00  0.00     0.173 A 
ATOM     86  C   UNL A   1      45.438  33.847  27.558  1.00  0.00     0.173 A 
ATOM     87  F   UNL A   1      46.620  32.548  30.744  1.00  0.00    -0.203 F 
ATOM     88  C   UNL A   1      46.856  34.690  29.793  1.00  0.00     0.198 A 
ATOM     89  C   UNL A   1      45.921  35.149  27.628  1.00  0.00     0.198 A 
ATOM     90  F   UNL A   1      44.753  33.468  26.470  1.00  0.00    -0.203 F 
ATOM     91  F   UNL A   1      47.515  35.102  30.884  1.00  0.00    -0.200 F 
ATOM     92  C   UNL A   1      46.624  35.571  28.747  1.00  0.00     0.200 A 
ATOM     93  F   UNL A   1      45.703  35.999  26.615  1.00  0.00    -0.200 F 
ATOM     94  F   UNL A   1      47.072  36.832  28.823  1.00  0.00    -0.200 F 
ENDBRANCH  61  84
ENDBRANCH  35  36
ENDBRANCH  28  30
ENDBRANCH  27  28
ENDBRANCH  26  27
ENDBRANCH   1  26
TORSDOF 16
ENDMDL
