MODEL 1
REMARK VINA RESULT:     -13.1      0.000      0.000
REMARK SMILES CC1=C(C(=O)OCC(C)C)[C@@H](c2ccc(C(=O)OCCOC(=O)c3ccc(-c4c5nc(c(-c6c(F)c(F)c(F)c(F)c6F)c6ccc([nH]6)c(-c6c(F)c(F)c(F)c(F)c6F)c6nc(c(-c7c(F)c(F)c(F)c(F)c7F)c7ccc4[nH]7)C=C6)C=C5)cc3)cc2)c2c(n(C)c(=O)n(C)c2=O)N1
REMARK SMILES IDX 18 1 16 2 17 3 15 4 12 5 13 6 88 7 14 8 87 9 11 10 1 11 2 12
REMARK SMILES IDX 3 13 99 14 90 15 89 17 91 18 97 19 92 20 93 21 95 22 98 23
REMARK SMILES IDX 94 24 96 25 4 26 5 27 6 28 7 29 8 30 9 31 10 32 19 33 20 34
REMARK SMILES IDX 21 35 22 36 23 37 24 38 25 39 86 40 26 41 85 42 27 43 28 44
REMARK SMILES IDX 29 45 79 46 30 47 84 48 78 49 80 50 31 51 83 52 77 53 76 54
REMARK SMILES IDX 32 56 64 57 44 58 63 59 45 60 48 61 62 62 81 63 46 64 47 65
REMARK SMILES IDX 61 67 82 68 49 69 33 70 34 71 42 72 35 73 36 74 40 75 43 76
REMARK SMILES IDX 37 77 38 78 41 79 39 80 65 81 66 82 74 83 67 84 68 85 72 86
REMARK SMILES IDX 75 87 69 88 70 89 73 90 71 91 50 92 51 93 59 94 52 95 53 96
REMARK SMILES IDX 57 97 60 98 54 99 55 100 58 101 56 102
REMARK H PARENT 99 16 80 55 48 66
REMARK Flexibility Score: inf
ROOT
ATOM      1  O   UNL A   1      34.624  31.476  27.482  1.00  0.00    -0.458 OA
ENDROOT
BRANCH   1   2
ATOM      2  C   UNL A   1      34.808  30.154  27.728  1.00  0.00     0.338 C 
ATOM      3  O   UNL A   1      35.449  29.663  28.637  1.00  0.00    -0.246 OA
BRANCH   2   4
ATOM      4  C   UNL A   1      34.016  29.332  26.786  1.00  0.00     0.060 A 
ATOM      5  C   UNL A   1      32.597  27.520  25.179  1.00  0.00    -0.035 A 
ATOM      6  C   UNL A   1      32.186  27.773  26.494  1.00  0.00     0.005 A 
ATOM      7  C   UNL A   1      33.691  28.236  24.659  1.00  0.00     0.005 A 
ATOM      8  C   UNL A   1      32.912  28.644  27.296  1.00  0.00     0.016 A 
ATOM      9  C   UNL A   1      34.395  29.149  25.456  1.00  0.00     0.016 A 
BRANCH   5  10
ATOM     10  C   UNL A   1      31.925  26.398  24.373  1.00  0.00     0.098 C 
ATOM     11  C   UNL A   1      27.999  26.376  24.159  1.00  0.00     0.065 C 
ATOM     12  C   UNL A   1      29.442  26.092  24.497  1.00  0.00     0.025 C 
ATOM     13  C   UNL A   1      30.496  26.781  24.003  1.00  0.00     0.068 C 
ATOM     14  N   UNL A   1      29.663  25.013  25.340  1.00  0.00    -0.344 N 
ATOM     15  C   UNL A   1      30.902  24.481  25.660  1.00  0.00     0.123 A 
ATOM     16  H   UNL A   1      28.873  24.590  25.745  1.00  0.00     0.168 HD
ATOM     17  C   UNL A   1      31.996  25.097  25.175  1.00  0.00     0.071 A 
ATOM     18  N   UNL A   1      31.045  23.361  26.465  1.00  0.00    -0.282 N 
ATOM     19  C   UNL A   1      33.334  24.539  25.448  1.00  0.00     0.262 A 
ATOM     20  C   UNL A   1      29.860  22.649  26.932  1.00  0.00     0.157 C 
ATOM     21  C   UNL A   1      32.283  22.894  26.903  1.00  0.00     0.332 A 
ATOM     22  N   UNL A   1      33.394  23.568  26.422  1.00  0.00    -0.263 N 
ATOM     23  O   UNL A   1      34.312  24.939  24.820  1.00  0.00    -0.269 OA
ATOM     24  O   UNL A   1      32.395  21.931  27.663  1.00  0.00    -0.247 OA
ATOM     25  C   UNL A   1      34.695  23.113  26.871  1.00  0.00     0.158 C 
BRANCH  13  26
ATOM     26  C   UNL A   1      30.382  27.916  23.057  1.00  0.00     0.336 C 
ATOM     27  O   UNL A   1      30.696  27.834  21.880  1.00  0.00    -0.246 OA
BRANCH  26  28
ATOM     28  O   UNL A   1      29.957  29.033  23.697  1.00  0.00    -0.462 OA
BRANCH  28  29
ATOM     29  C   UNL A   1      29.724  30.196  22.888  1.00  0.00     0.236 C 
BRANCH  29  30
ATOM     30  C   UNL A   1      28.226  30.341  22.591  1.00  0.00     0.021 C 
ATOM     31  C   UNL A   1      27.545  31.299  23.570  1.00  0.00     0.011 C 
ATOM     32  C   UNL A   1      28.017  30.813  21.153  1.00  0.00     0.011 C 
ENDBRANCH  29  30
ENDBRANCH  28  29
ENDBRANCH  26  28
ENDBRANCH  13  26
ENDBRANCH   5  10
ENDBRANCH   2   4
ENDBRANCH   1   2
BRANCH   1  33
ATOM     33  C   UNL A   1      33.279  31.954  27.690  1.00  0.00     0.275 C 
BRANCH  33  34
ATOM     34  C   UNL A   1      33.182  33.447  27.373  1.00  0.00     0.275 C 
BRANCH  34  35
ATOM     35  O   UNL A   1      32.402  34.108  28.388  1.00  0.00    -0.458 OA
BRANCH  35  36
ATOM     36  C   UNL A   1      32.965  35.195  28.961  1.00  0.00     0.338 C 
ATOM     37  O   UNL A   1      32.578  36.351  28.896  1.00  0.00    -0.246 OA
BRANCH  36  38
ATOM     38  C   UNL A   1      34.163  34.802  29.731  1.00  0.00     0.060 A 
ATOM     39  C   UNL A   1      35.415  34.792  29.125  1.00  0.00     0.016 A 
ATOM     40  C   UNL A   1      34.022  34.306  31.027  1.00  0.00     0.016 A 
ATOM     41  C   UNL A   1      36.489  34.153  29.745  1.00  0.00     0.010 A 
ATOM     42  C   UNL A   1      35.135  33.788  31.700  1.00  0.00     0.010 A 
ATOM     43  C   UNL A   1      36.373  33.646  31.048  1.00  0.00    -0.014 A 
BRANCH  43  44
ATOM     44  C   UNL A   1      37.519  32.930  31.691  1.00  0.00     0.031 A 
ATOM     45  C   UNL A   1      38.240  31.821  30.959  1.00  0.00     0.074 A 
ATOM     46  C   UNL A   1      37.953  33.289  32.918  1.00  0.00     0.049 A 
ATOM     47  N   UNL A   1      39.171  31.007  31.396  1.00  0.00    -0.248 NA
ATOM     48  C   UNL A   1      37.857  31.582  29.560  1.00  0.00     0.031 C 
ATOM     49  C   UNL A   1      37.382  34.357  33.740  1.00  0.00     0.029 A 
ATOM     50  N   UNL A   1      38.993  32.811  33.682  1.00  0.00    -0.354 N 
ATOM     51  C   UNL A   1      39.432  30.127  30.353  1.00  0.00     0.074 A 
ATOM     52  C   UNL A   1      38.559  30.497  29.261  1.00  0.00     0.031 C 
ATOM     53  C   UNL A   1      38.120  34.506  34.849  1.00  0.00     0.029 A 
ATOM     54  C   UNL A   1      39.159  33.481  34.870  1.00  0.00     0.049 A 
ATOM     55  H   UNL A   1      39.565  32.060  33.401  1.00  0.00     0.167 HD
ATOM     56  C   UNL A   1      40.326  29.110  30.303  1.00  0.00     0.037 A 
ATOM     57  C   UNL A   1      40.025  33.282  35.884  1.00  0.00     0.037 A 
ATOM     58  C   UNL A   1      41.259  28.791  31.351  1.00  0.00     0.049 A 
ATOM     59  C   UNL A   1      40.994  32.134  35.813  1.00  0.00     0.074 A 
ATOM     60  C   UNL A   1      42.237  27.811  31.364  1.00  0.00     0.029 A 
ATOM     61  N   UNL A   1      41.343  29.457  32.564  1.00  0.00    -0.354 N 
ATOM     62  N   UNL A   1      41.199  31.288  34.836  1.00  0.00    -0.248 NA
ATOM     63  C   UNL A   1      41.825  31.893  37.002  1.00  0.00     0.031 C 
ATOM     64  C   UNL A   1      42.893  27.862  32.598  1.00  0.00     0.029 A 
ATOM     65  C   UNL A   1      42.345  28.895  33.339  1.00  0.00     0.049 A 
ATOM     66  H   UNL A   1      40.777  30.214  32.834  1.00  0.00     0.167 HD
ATOM     67  C   UNL A   1      42.173  30.410  35.291  1.00  0.00     0.074 A 
ATOM     68  C   UNL A   1      42.543  30.845  36.622  1.00  0.00     0.031 C 
ATOM     69  C   UNL A   1      42.699  29.330  34.665  1.00  0.00     0.037 A 
BRANCH  56  70
ATOM     70  C   UNL A   1      40.347  28.252  29.072  1.00  0.00     0.064 A 
ATOM     71  C   UNL A   1      41.124  28.580  27.953  1.00  0.00     0.173 A 
ATOM     72  C   UNL A   1      39.635  27.042  29.046  1.00  0.00     0.173 A 
ATOM     73  F   UNL A   1      41.818  29.729  27.927  1.00  0.00    -0.203 F 
ATOM     74  C   UNL A   1      41.173  27.738  26.845  1.00  0.00     0.198 A 
ATOM     75  C   UNL A   1      39.707  26.190  27.947  1.00  0.00     0.198 A 
ATOM     76  F   UNL A   1      38.885  26.675  30.096  1.00  0.00    -0.203 F 
ATOM     77  F   UNL A   1      41.899  28.088  25.773  1.00  0.00    -0.200 F 
ATOM     78  C   UNL A   1      40.474  26.542  26.845  1.00  0.00     0.200 A 
ATOM     79  F   UNL A   1      39.042  25.027  27.955  1.00  0.00    -0.200 F 
ATOM     80  F   UNL A   1      40.536  25.726  25.783  1.00  0.00    -0.200 F 
ENDBRANCH  56  70
BRANCH  57  81
ATOM     81  C   UNL A   1      39.992  34.179  37.069  1.00  0.00     0.064 A 
ATOM     82  C   UNL A   1      39.157  33.896  38.158  1.00  0.00     0.173 A 
ATOM     83  C   UNL A   1      40.807  35.317  37.148  1.00  0.00     0.173 A 
ATOM     84  F   UNL A   1      38.338  32.836  38.117  1.00  0.00    -0.203 F 
ATOM     85  C   UNL A   1      39.143  34.718  39.284  1.00  0.00     0.198 A 
ATOM     86  C   UNL A   1      40.813  36.121  38.286  1.00  0.00     0.198 A 
ATOM     87  F   UNL A   1      41.619  35.634  36.129  1.00  0.00    -0.203 F 
ATOM     88  F   UNL A   1      38.313  34.443  40.301  1.00  0.00    -0.200 F 
ATOM     89  C   UNL A   1      39.979  35.823  39.352  1.00  0.00     0.200 A 
ATOM     90  F   UNL A   1      41.632  37.180  38.351  1.00  0.00    -0.200 F 
ATOM     91  F   UNL A   1      39.976  36.603  40.441  1.00  0.00    -0.200 F 
ENDBRANCH  57  81
BRANCH  69  92
ATOM     92  C   UNL A   1      43.721  28.526  35.409  1.00  0.00     0.064 A 
ATOM     93  C   UNL A   1      43.337  27.485  36.266  1.00  0.00     0.173 A 
ATOM     94  C   UNL A   1      45.091  28.740  35.201  1.00  0.00     0.173 A 
ATOM     95  F   UNL A   1      42.038  27.253  36.505  1.00  0.00    -0.203 F 
ATOM     96  C   UNL A   1      44.290  26.687  36.892  1.00  0.00     0.198 A 
ATOM     97  C   UNL A   1      46.041  27.926  35.812  1.00  0.00     0.198 A 
ATOM     98  F   UNL A   1      45.507  29.721  34.386  1.00  0.00    -0.203 F 
ATOM     99  F   UNL A   1      43.903  25.710  37.723  1.00  0.00    -0.200 F 
ATOM    100  C   UNL A   1      45.640  26.901  36.656  1.00  0.00     0.200 A 
ATOM    101  F   UNL A   1      47.345  28.126  35.574  1.00  0.00    -0.200 F 
ATOM    102  F   UNL A   1      46.556  26.120  37.245  1.00  0.00    -0.200 F 
ENDBRANCH  69  92
ENDBRANCH  43  44
ENDBRANCH  36  38
ENDBRANCH  35  36
ENDBRANCH  34  35
ENDBRANCH  33  34
ENDBRANCH   1  33
TORSDOF 16
ENDMDL
MODEL 2
REMARK VINA RESULT:     -12.8      5.782     11.250
REMARK SMILES CC1=C(C(=O)OCC(C)C)[C@@H](c2ccc(C(=O)OCCOC(=O)c3ccc(-c4c5nc(c(-c6c(F)c(F)c(F)c(F)c6F)c6ccc([nH]6)c(-c6c(F)c(F)c(F)c(F)c6F)c6nc(c(-c7c(F)c(F)c(F)c(F)c7F)c7ccc4[nH]7)C=C6)C=C5)cc3)cc2)c2c(n(C)c(=O)n(C)c2=O)N1
REMARK SMILES IDX 18 1 16 2 17 3 15 4 12 5 13 6 88 7 14 8 87 9 11 10 1 11 2 12
REMARK SMILES IDX 3 13 99 14 90 15 89 17 91 18 97 19 92 20 93 21 95 22 98 23
REMARK SMILES IDX 94 24 96 25 4 26 5 27 6 28 7 29 8 30 9 31 10 32 19 33 20 34
REMARK SMILES IDX 21 35 22 36 23 37 24 38 25 39 86 40 26 41 85 42 27 43 28 44
REMARK SMILES IDX 29 45 79 46 30 47 84 48 78 49 80 50 31 51 83 52 77 53 76 54
REMARK SMILES IDX 32 56 64 57 44 58 63 59 45 60 48 61 62 62 81 63 46 64 47 65
REMARK SMILES IDX 61 67 82 68 49 69 33 70 34 71 42 72 35 73 36 74 40 75 43 76
REMARK SMILES IDX 37 77 38 78 41 79 39 80 65 81 66 82 74 83 67 84 68 85 72 86
REMARK SMILES IDX 75 87 69 88 70 89 73 90 71 91 50 92 51 93 59 94 52 95 53 96
REMARK SMILES IDX 57 97 60 98 54 99 55 100 58 101 56 102
REMARK H PARENT 99 16 80 55 48 66
REMARK Flexibility Score: inf
ROOT
ATOM      1  O   UNL A   1      39.235  22.281  26.713  1.00  0.00    -0.458 OA
ENDROOT
BRANCH   1   2
ATOM      2  C   UNL A   1      38.708  23.458  26.290  1.00  0.00     0.338 C 
ATOM      3  O   UNL A   1      39.294  24.515  26.159  1.00  0.00    -0.246 OA
BRANCH   2   4
ATOM      4  C   UNL A   1      37.297  23.281  25.880  1.00  0.00     0.060 A 
ATOM      5  C   UNL A   1      34.638  23.241  24.980  1.00  0.00    -0.035 A 
ATOM      6  C   UNL A   1      35.698  23.254  24.063  1.00  0.00     0.005 A 
ATOM      7  C   UNL A   1      34.931  23.185  26.356  1.00  0.00     0.005 A 
ATOM      8  C   UNL A   1      37.010  23.308  24.514  1.00  0.00     0.016 A 
ATOM      9  C   UNL A   1      36.257  23.194  26.807  1.00  0.00     0.016 A 
BRANCH   5  10
ATOM     10  C   UNL A   1      33.195  23.401  24.480  1.00  0.00     0.098 C 
ATOM     11  C   UNL A   1      31.927  20.946  21.684  1.00  0.00     0.065 C 
ATOM     12  C   UNL A   1      32.431  22.141  22.455  1.00  0.00     0.025 C 
ATOM     13  C   UNL A   1      32.724  22.134  23.775  1.00  0.00     0.068 C 
ATOM     14  N   UNL A   1      32.548  23.319  21.734  1.00  0.00    -0.344 N 
ATOM     15  C   UNL A   1      32.844  24.564  22.265  1.00  0.00     0.123 A 
ATOM     16  H   UNL A   1      32.408  23.267  20.761  1.00  0.00     0.168 HD
ATOM     17  C   UNL A   1      33.112  24.638  23.582  1.00  0.00     0.071 A 
ATOM     18  N   UNL A   1      32.885  25.713  21.490  1.00  0.00    -0.282 N 
ATOM     19  C   UNL A   1      33.385  25.948  24.203  1.00  0.00     0.262 A 
ATOM     20  C   UNL A   1      32.523  25.648  20.078  1.00  0.00     0.157 C 
ATOM     21  C   UNL A   1      33.310  26.946  21.984  1.00  0.00     0.332 A 
ATOM     22  N   UNL A   1      33.618  26.989  23.333  1.00  0.00    -0.263 N 
ATOM     23  O   UNL A   1      33.390  26.065  25.426  1.00  0.00    -0.269 OA
ATOM     24  O   UNL A   1      33.395  27.948  21.272  1.00  0.00    -0.247 OA
ATOM     25  C   UNL A   1      34.076  28.256  23.872  1.00  0.00     0.158 C 
BRANCH  13  26
ATOM     26  C   UNL A   1      32.589  20.949  24.655  1.00  0.00     0.336 C 
ATOM     27  O   UNL A   1      31.640  20.784  25.406  1.00  0.00    -0.246 OA
BRANCH  26  28
ATOM     28  O   UNL A   1      33.675  20.145  24.546  1.00  0.00    -0.462 OA
BRANCH  28  29
ATOM     29  C   UNL A   1      33.472  18.743  24.786  1.00  0.00     0.236 C 
BRANCH  29  30
ATOM     30  C   UNL A   1      33.625  17.956  23.478  1.00  0.00     0.021 C 
ATOM     31  C   UNL A   1      34.289  16.598  23.709  1.00  0.00     0.011 C 
ATOM     32  C   UNL A   1      32.263  17.775  22.809  1.00  0.00     0.011 C 
ENDBRANCH  29  30
ENDBRANCH  28  29
ENDBRANCH  26  28
ENDBRANCH  13  26
ENDBRANCH   5  10
ENDBRANCH   2   4
ENDBRANCH   1   2
BRANCH   1  33
ATOM     33  C   UNL A   1      39.346  21.262  25.697  1.00  0.00     0.275 C 
BRANCH  33  34
ATOM     34  C   UNL A   1      39.895  19.964  26.293  1.00  0.00     0.275 C 
BRANCH  34  35
ATOM     35  O   UNL A   1      40.852  19.383  25.388  1.00  0.00    -0.458 OA
BRANCH  35  36
ATOM     36  C   UNL A   1      42.074  19.116  25.902  1.00  0.00     0.338 C 
ATOM     37  O   UNL A   1      42.593  18.021  26.048  1.00  0.00    -0.246 OA
BRANCH  36  38
ATOM     38  C   UNL A   1      42.757  20.372  26.274  1.00  0.00     0.060 A 
ATOM     39  C   UNL A   1      42.627  20.886  27.561  1.00  0.00     0.016 A 
ATOM     40  C   UNL A   1      43.415  21.119  25.298  1.00  0.00     0.016 A 
ATOM     41  C   UNL A   1      43.017  22.197  27.834  1.00  0.00     0.010 A 
ATOM     42  C   UNL A   1      43.927  22.384  25.614  1.00  0.00     0.010 A 
ATOM     43  C   UNL A   1      43.682  22.969  26.869  1.00  0.00    -0.014 A 
BRANCH  43  44
ATOM     44  C   UNL A   1      44.064  24.387  27.158  1.00  0.00     0.031 A 
ATOM     45  C   UNL A   1      43.063  25.344  27.763  1.00  0.00     0.074 A 
ATOM     46  C   UNL A   1      45.319  24.823  26.921  1.00  0.00     0.049 A 
ATOM     47  N   UNL A   1      43.169  26.635  27.972  1.00  0.00    -0.248 NA
ATOM     48  C   UNL A   1      41.766  24.785  28.174  1.00  0.00     0.031 C 
ATOM     49  C   UNL A   1      46.407  24.015  26.368  1.00  0.00     0.029 A 
ATOM     50  N   UNL A   1      45.903  26.050  27.139  1.00  0.00    -0.354 N 
ATOM     51  C   UNL A   1      41.940  27.046  28.472  1.00  0.00     0.074 A 
ATOM     52  C   UNL A   1      41.096  25.873  28.531  1.00  0.00     0.031 C 
ATOM     53  C   UNL A   1      47.537  24.738  26.362  1.00  0.00     0.029 A 
ATOM     54  C   UNL A   1      47.239  26.091  26.817  1.00  0.00     0.049 A 
ATOM     55  H   UNL A   1      45.409  26.825  27.493  1.00  0.00     0.167 HD
ATOM     56  C   UNL A   1      41.551  28.284  28.859  1.00  0.00     0.037 A 
ATOM     57  C   UNL A   1      48.125  27.106  26.852  1.00  0.00     0.037 A 
ATOM     58  C   UNL A   1      42.411  29.438  28.887  1.00  0.00     0.049 A 
ATOM     59  C   UNL A   1      47.665  28.476  27.266  1.00  0.00     0.074 A 
ATOM     60  C   UNL A   1      42.115  30.721  29.315  1.00  0.00     0.029 A 
ATOM     61  N   UNL A   1      43.738  29.444  28.488  1.00  0.00    -0.354 N 
ATOM     62  N   UNL A   1      46.488  28.855  27.697  1.00  0.00    -0.248 NA
ATOM     63  C   UNL A   1      48.647  29.565  27.162  1.00  0.00     0.031 C 
ATOM     64  C   UNL A   1      43.255  31.513  29.145  1.00  0.00     0.029 A 
ATOM     65  C   UNL A   1      44.269  30.715  28.643  1.00  0.00     0.049 A 
ATOM     66  H   UNL A   1      44.230  28.664  28.147  1.00  0.00     0.167 HD
ATOM     67  C   UNL A   1      46.582  30.223  27.907  1.00  0.00     0.074 A 
ATOM     68  C   UNL A   1      47.942  30.606  27.588  1.00  0.00     0.031 C 
ATOM     69  C   UNL A   1      45.621  31.086  28.313  1.00  0.00     0.037 A 
BRANCH  56  70
ATOM     70  C   UNL A   1      40.125  28.473  29.286  1.00  0.00     0.064 A 
ATOM     71  C   UNL A   1      39.720  28.290  30.616  1.00  0.00     0.173 A 
ATOM     72  C   UNL A   1      39.166  28.918  28.362  1.00  0.00     0.173 A 
ATOM     73  F   UNL A   1      40.598  27.860  31.535  1.00  0.00    -0.203 F 
ATOM     74  C   UNL A   1      38.403  28.528  31.001  1.00  0.00     0.198 A 
ATOM     75  C   UNL A   1      37.857  29.180  28.757  1.00  0.00     0.198 A 
ATOM     76  F   UNL A   1      39.505  29.120  27.080  1.00  0.00    -0.203 F 
ATOM     77  F   UNL A   1      38.030  28.317  32.271  1.00  0.00    -0.200 F 
ATOM     78  C   UNL A   1      37.475  28.980  30.075  1.00  0.00     0.200 A 
ATOM     79  F   UNL A   1      36.966  29.631  27.864  1.00  0.00    -0.200 F 
ATOM     80  F   UNL A   1      36.212  29.223  30.453  1.00  0.00    -0.200 F 
ENDBRANCH  56  70
BRANCH  57  81
ATOM     81  C   UNL A   1      49.537  26.865  26.453  1.00  0.00     0.064 A 
ATOM     82  C   UNL A   1      50.500  26.505  27.405  1.00  0.00     0.173 A 
ATOM     83  C   UNL A   1      49.946  26.966  25.115  1.00  0.00     0.173 A 
ATOM     84  F   UNL A   1      50.163  26.425  28.700  1.00  0.00    -0.203 F 
ATOM     85  C   UNL A   1      51.819  26.250  27.032  1.00  0.00     0.198 A 
ATOM     86  C   UNL A   1      51.258  26.683  24.740  1.00  0.00     0.198 A 
ATOM     87  F   UNL A   1      49.064  27.315  24.167  1.00  0.00    -0.203 F 
ATOM     88  F   UNL A   1      52.727  25.936  27.966  1.00  0.00    -0.200 F 
ATOM     89  C   UNL A   1      52.194  26.328  25.699  1.00  0.00     0.200 A 
ATOM     90  F   UNL A   1      51.612  26.747  23.449  1.00  0.00    -0.200 F 
ATOM     91  F   UNL A   1      53.458  26.067  25.340  1.00  0.00    -0.200 F 
ENDBRANCH  57  81
BRANCH  69  92
ATOM     92  C   UNL A   1      45.989  32.534  28.424  1.00  0.00     0.064 A 
ATOM     93  C   UNL A   1      45.779  33.416  27.354  1.00  0.00     0.173 A 
ATOM     94  C   UNL A   1      46.473  33.060  29.630  1.00  0.00     0.173 A 
ATOM     95  F   UNL A   1      45.330  32.954  26.178  1.00  0.00    -0.203 F 
ATOM     96  C   UNL A   1      46.045  34.775  27.488  1.00  0.00     0.198 A 
ATOM     97  C   UNL A   1      46.717  34.424  29.766  1.00  0.00     0.198 A 
ATOM     98  F   UNL A   1      46.684  32.257  30.683  1.00  0.00    -0.203 F 
ATOM     99  F   UNL A   1      45.857  35.598  26.447  1.00  0.00    -0.200 F 
ATOM    100  C   UNL A   1      46.503  35.280  28.696  1.00  0.00     0.200 A 
ATOM    101  F   UNL A   1      47.149  34.912  30.938  1.00  0.00    -0.200 F 
ATOM    102  F   UNL A   1      46.741  36.592  28.828  1.00  0.00    -0.200 F 
ENDBRANCH  69  92
ENDBRANCH  43  44
ENDBRANCH  36  38
ENDBRANCH  35  36
ENDBRANCH  34  35
ENDBRANCH  33  34
ENDBRANCH   1  33
TORSDOF 16
ENDMDL
MODEL 3
REMARK VINA RESULT:     -12.6      5.667     10.367
REMARK SMILES CC1=C(C(=O)OCC(C)C)[C@@H](c2ccc(C(=O)OCCOC(=O)c3ccc(-c4c5nc(c(-c6c(F)c(F)c(F)c(F)c6F)c6ccc([nH]6)c(-c6c(F)c(F)c(F)c(F)c6F)c6nc(c(-c7c(F)c(F)c(F)c(F)c7F)c7ccc4[nH]7)C=C6)C=C5)cc3)cc2)c2c(n(C)c(=O)n(C)c2=O)N1
REMARK SMILES IDX 18 1 16 2 17 3 15 4 12 5 13 6 88 7 14 8 87 9 11 10 1 11 2 12
REMARK SMILES IDX 3 13 99 14 90 15 89 17 91 18 97 19 92 20 93 21 95 22 98 23
REMARK SMILES IDX 94 24 96 25 4 26 5 27 6 28 7 29 8 30 9 31 10 32 19 33 20 34
REMARK SMILES IDX 21 35 22 36 23 37 24 38 25 39 86 40 26 41 85 42 27 43 28 44
REMARK SMILES IDX 29 45 79 46 30 47 84 48 78 49 80 50 31 51 83 52 77 53 76 54
REMARK SMILES IDX 32 56 64 57 44 58 63 59 45 60 48 61 62 62 81 63 46 64 47 65
REMARK SMILES IDX 61 67 82 68 49 69 33 70 34 71 42 72 35 73 36 74 40 75 43 76
REMARK SMILES IDX 37 77 38 78 41 79 39 80 65 81 66 82 74 83 67 84 68 85 72 86
REMARK SMILES IDX 75 87 69 88 70 89 73 90 71 91 50 92 51 93 59 94 52 95 53 96
REMARK SMILES IDX 57 97 60 98 54 99 55 100 58 101 56 102
REMARK H PARENT 99 16 80 55 48 66
REMARK Flexibility Score: inf
ROOT
ATOM      1  O   UNL A   1      39.186  21.825  26.573  1.00  0.00    -0.458 OA
ENDROOT
BRANCH   1   2
ATOM      2  C   UNL A   1      38.682  23.022  26.178  1.00  0.00     0.338 C 
ATOM      3  O   UNL A   1      39.293  24.066  26.054  1.00  0.00    -0.246 OA
BRANCH   2   4
ATOM      4  C   UNL A   1      37.261  22.888  25.791  1.00  0.00     0.060 A 
ATOM      5  C   UNL A   1      34.592  22.922  24.919  1.00  0.00    -0.035 A 
ATOM      6  C   UNL A   1      35.641  22.852  23.992  1.00  0.00     0.005 A 
ATOM      7  C   UNL A   1      34.898  22.911  26.293  1.00  0.00     0.005 A 
ATOM      8  C   UNL A   1      36.959  22.870  24.427  1.00  0.00     0.016 A 
ATOM      9  C   UNL A   1      36.229  22.884  26.730  1.00  0.00     0.016 A 
BRANCH   5  10
ATOM     10  C   UNL A   1      33.151  23.122  24.426  1.00  0.00     0.098 C 
ATOM     11  C   UNL A   1      31.842  20.783  21.551  1.00  0.00     0.065 C 
ATOM     12  C   UNL A   1      32.366  21.943  22.361  1.00  0.00     0.025 C 
ATOM     13  C   UNL A   1      32.660  21.887  23.680  1.00  0.00     0.068 C 
ATOM     14  N   UNL A   1      32.500  23.143  21.680  1.00  0.00    -0.344 N 
ATOM     15  C   UNL A   1      32.816  24.365  22.253  1.00  0.00     0.123 A 
ATOM     16  H   UNL A   1      32.359  23.126  20.706  1.00  0.00     0.168 HD
ATOM     17  C   UNL A   1      33.087  24.390  23.571  1.00  0.00     0.071 A 
ATOM     18  N   UNL A   1      32.875  25.539  21.518  1.00  0.00    -0.282 N 
ATOM     19  C   UNL A   1      33.381  25.674  24.236  1.00  0.00     0.262 A 
ATOM     20  C   UNL A   1      32.510  25.527  20.105  1.00  0.00     0.157 C 
ATOM     21  C   UNL A   1      33.319  26.747  22.051  1.00  0.00     0.332 A 
ATOM     22  N   UNL A   1      33.630  26.740  23.401  1.00  0.00    -0.263 N 
ATOM     23  O   UNL A   1      33.389  25.749  25.462  1.00  0.00    -0.269 OA
ATOM     24  O   UNL A   1      33.420  27.772  21.374  1.00  0.00    -0.247 OA
ATOM     25  C   UNL A   1      34.108  27.980  23.982  1.00  0.00     0.158 C 
BRANCH  13  26
ATOM     26  C   UNL A   1      32.507  20.675  24.519  1.00  0.00     0.336 C 
ATOM     27  O   UNL A   1      31.727  20.610  25.457  1.00  0.00    -0.246 OA
BRANCH  26  28
ATOM     28  O   UNL A   1      33.383  19.714  24.138  1.00  0.00    -0.462 OA
BRANCH  28  29
ATOM     29  C   UNL A   1      33.513  18.573  25.001  1.00  0.00     0.236 C 
BRANCH  29  30
ATOM     30  C   UNL A   1      33.099  17.298  24.257  1.00  0.00     0.021 C 
ATOM     31  C   UNL A   1      33.962  17.061  23.017  1.00  0.00     0.011 C 
ATOM     32  C   UNL A   1      33.172  16.094  25.194  1.00  0.00     0.011 C 
ENDBRANCH  29  30
ENDBRANCH  28  29
ENDBRANCH  26  28
ENDBRANCH  13  26
ENDBRANCH   5  10
ENDBRANCH   2   4
ENDBRANCH   1   2
BRANCH   1  33
ATOM     33  C   UNL A   1      39.189  20.799  25.559  1.00  0.00     0.275 C 
BRANCH  33  34
ATOM     34  C   UNL A   1      39.848  19.523  26.085  1.00  0.00     0.275 C 
BRANCH  34  35
ATOM     35  O   UNL A   1      41.038  19.244  25.324  1.00  0.00    -0.458 OA
BRANCH  35  36
ATOM     36  C   UNL A   1      42.172  19.057  26.037  1.00  0.00     0.338 C 
ATOM     37  O   UNL A   1      42.680  17.994  26.355  1.00  0.00    -0.246 OA
BRANCH  36  38
ATOM     38  C   UNL A   1      42.770  20.359  26.396  1.00  0.00     0.060 A 
ATOM     39  C   UNL A   1      42.584  20.890  27.669  1.00  0.00     0.016 A 
ATOM     40  C   UNL A   1      43.401  21.125  25.417  1.00  0.00     0.016 A 
ATOM     41  C   UNL A   1      42.889  22.227  27.922  1.00  0.00     0.010 A 
ATOM     42  C   UNL A   1      43.830  22.425  25.716  1.00  0.00     0.010 A 
ATOM     43  C   UNL A   1      43.525  23.019  26.954  1.00  0.00    -0.014 A 
BRANCH  43  44
ATOM     44  C   UNL A   1      43.814  24.463  27.221  1.00  0.00     0.031 A 
ATOM     45  C   UNL A   1      45.171  25.046  26.902  1.00  0.00     0.074 A 
ATOM     46  C   UNL A   1      42.855  25.276  27.713  1.00  0.00     0.049 A 
ATOM     47  N   UNL A   1      45.646  26.239  27.173  1.00  0.00    -0.248 NA
ATOM     48  C   UNL A   1      46.127  24.176  26.202  1.00  0.00     0.031 C 
ATOM     49  C   UNL A   1      41.489  24.872  28.045  1.00  0.00     0.029 A 
ATOM     50  N   UNL A   1      42.875  26.623  27.998  1.00  0.00    -0.354 N 
ATOM     51  C   UNL A   1      46.966  26.234  26.738  1.00  0.00     0.074 A 
ATOM     52  C   UNL A   1      47.224  24.921  26.190  1.00  0.00     0.031 C 
ATOM     53  C   UNL A   1      40.783  25.952  28.411  1.00  0.00     0.029 A 
ATOM     54  C   UNL A   1      41.668  27.112  28.437  1.00  0.00     0.049 A 
ATOM     55  H   UNL A   1      43.679  27.182  27.896  1.00  0.00     0.167 HD
ATOM     56  C   UNL A   1      47.877  27.236  26.778  1.00  0.00     0.037 A 
ATOM     57  C   UNL A   1      41.310  28.346  28.846  1.00  0.00     0.037 A 
ATOM     58  C   UNL A   1      47.603  28.570  27.240  1.00  0.00     0.049 A 
ATOM     59  C   UNL A   1      42.344  29.435  28.901  1.00  0.00     0.074 A 
ATOM     60  C   UNL A   1      48.453  29.663  27.267  1.00  0.00     0.029 A 
ATOM     61  N   UNL A   1      46.383  29.000  27.738  1.00  0.00    -0.354 N 
ATOM     62  N   UNL A   1      43.598  29.401  28.523  1.00  0.00    -0.248 NA
ATOM     63  C   UNL A   1      41.923  30.722  29.474  1.00  0.00     0.031 C 
ATOM     64  C   UNL A   1      47.756  30.747  27.811  1.00  0.00     0.029 A 
ATOM     65  C   UNL A   1      46.464  30.337  28.092  1.00  0.00     0.049 A 
ATOM     66  H   UNL A   1      45.579  28.440  27.826  1.00  0.00     0.167 HD
ATOM     67  C   UNL A   1      44.118  30.654  28.819  1.00  0.00     0.074 A 
ATOM     68  C   UNL A   1      43.036  31.438  29.378  1.00  0.00     0.031 C 
ATOM     69  C   UNL A   1      45.384  31.105  28.655  1.00  0.00     0.037 A 
BRANCH  56  70
ATOM     70  C   UNL A   1      49.273  26.936  26.314  1.00  0.00     0.064 A 
ATOM     71  C   UNL A   1      50.241  26.404  27.176  1.00  0.00     0.173 A 
ATOM     72  C   UNL A   1      49.620  27.116  24.966  1.00  0.00     0.173 A 
ATOM     73  F   UNL A   1      49.960  26.219  28.475  1.00  0.00    -0.203 F 
ATOM     74  C   UNL A   1      51.513  26.079  26.710  1.00  0.00     0.198 A 
ATOM     75  C   UNL A   1      50.884  26.766  24.497  1.00  0.00     0.198 A 
ATOM     76  F   UNL A   1      48.726  27.611  24.097  1.00  0.00    -0.203 F 
ATOM     77  F   UNL A   1      52.433  25.600  27.558  1.00  0.00    -0.200 F 
ATOM     78  C   UNL A   1      51.831  26.251  25.371  1.00  0.00     0.200 A 
ATOM     79  F   UNL A   1      51.184  26.919  23.200  1.00  0.00    -0.200 F 
ATOM     80  F   UNL A   1      53.050  25.923  24.922  1.00  0.00    -0.200 F 
ENDBRANCH  56  70
BRANCH  57  81
ATOM     81  C   UNL A   1      39.907  28.606  29.264  1.00  0.00     0.064 A 
ATOM     82  C   UNL A   1      39.500  28.379  30.586  1.00  0.00     0.173 A 
ATOM     83  C   UNL A   1      38.956  29.106  28.363  1.00  0.00     0.173 A 
ATOM     84  F   UNL A   1      40.365  27.873  31.476  1.00  0.00    -0.203 F 
ATOM     85  C   UNL A   1      38.193  28.648  30.991  1.00  0.00     0.198 A 
ATOM     86  C   UNL A   1      37.659  29.402  28.777  1.00  0.00     0.198 A 
ATOM     87  F   UNL A   1      39.294  29.334  27.086  1.00  0.00    -0.203 F 
ATOM     88  F   UNL A   1      37.821  28.395  32.253  1.00  0.00    -0.200 F 
ATOM     89  C   UNL A   1      37.277  29.170  30.090  1.00  0.00     0.200 A 
ATOM     90  F   UNL A   1      36.781  29.918  27.905  1.00  0.00    -0.200 F 
ATOM     91  F   UNL A   1      36.026  29.443  30.484  1.00  0.00    -0.200 F 
ENDBRANCH  57  81
BRANCH  69  92
ATOM     92  C   UNL A   1      45.685  32.504  29.098  1.00  0.00     0.064 A 
ATOM     93  C   UNL A   1      45.461  33.594  28.246  1.00  0.00     0.173 A 
ATOM     94  C   UNL A   1      46.119  32.764  30.406  1.00  0.00     0.173 A 
ATOM     95  F   UNL A   1      45.060  33.392  26.983  1.00  0.00    -0.203 F 
ATOM     96  C   UNL A   1      45.664  34.898  28.689  1.00  0.00     0.198 A 
ATOM     97  C   UNL A   1      46.299  34.071  30.851  1.00  0.00     0.198 A 
ATOM     98  F   UNL A   1      46.341  31.753  31.260  1.00  0.00    -0.203 F 
ATOM     99  F   UNL A   1      45.463  35.926  27.853  1.00  0.00    -0.200 F 
ATOM    100  C   UNL A   1      46.071  35.136  29.993  1.00  0.00     0.200 A 
ATOM    101  F   UNL A   1      46.682  34.299  32.116  1.00  0.00    -0.200 F 
ATOM    102  F   UNL A   1      46.248  36.393  30.423  1.00  0.00    -0.200 F 
ENDBRANCH  69  92
ENDBRANCH  43  44
ENDBRANCH  36  38
ENDBRANCH  35  36
ENDBRANCH  34  35
ENDBRANCH  33  34
ENDBRANCH   1  33
TORSDOF 16
ENDMDL
