MODEL 1
REMARK VINA RESULT:     -11.3      0.000      0.000
REMARK SMILES CC[C@@H](C)[C@@H](NC(N)=O)C(=O)N1CCC[C@H](C(=O)OCCOC(=O)c2ccc(-c3c4nc(c(-c5c(F)c(F)c(F)c(F)c5F)c5ccc([nH]5)c(-c5c(F)c(F)c(F)c(F)c5F)c5nc(c(-c6c(F)c(F)c(F)c(F)c6F)c6ccc3[nH]6)C=C5)C=C4)cc2)C1
REMARK SMILES IDX 20 1 19 2 17 3 18 4 16 5 12 6 13 7 88 8 14 9 15 10 10 11
REMARK SMILES IDX 11 12 5 13 3 14 4 15 2 16 1 17 6 18 7 19 8 21 9 22 21 25
REMARK SMILES IDX 22 26 23 27 24 28 25 29 26 30 87 31 27 32 86 33 28 34 29 35
REMARK SMILES IDX 30 36 80 37 31 38 85 39 79 40 81 41 32 42 84 43 78 44 77 45
REMARK SMILES IDX 33 47 65 48 45 49 64 50 46 51 49 52 63 53 82 54 47 55 48 56
REMARK SMILES IDX 62 58 83 59 50 60 34 61 35 62 43 63 36 64 37 65 41 66 44 67
REMARK SMILES IDX 38 68 39 69 42 70 40 71 66 72 67 73 75 74 68 75 69 76 73 77
REMARK SMILES IDX 76 78 70 79 71 80 74 81 72 82 51 83 52 84 60 85 53 86 54 87
REMARK SMILES IDX 58 88 61 89 55 90 56 91 59 92 57 93
REMARK H PARENT 6 20 8 23 8 24 81 46 49 57
REMARK Flexibility Score: inf
ROOT
ATOM      1  C   UNL A   1      36.647  22.314  23.692  1.00  0.00     0.274 C 
ENDROOT
BRANCH   1   2
ATOM      2  O   UNL A   1      35.789  23.439  23.965  1.00  0.00    -0.462 OA
BRANCH   2   3
ATOM      3  C   UNL A   1      34.565  23.211  24.494  1.00  0.00     0.310 C 
ATOM      4  O   UNL A   1      34.202  23.566  25.611  1.00  0.00    -0.252 OA
BRANCH   3   5
ATOM      5  C   UNL A   1      33.647  22.434  23.556  1.00  0.00     0.119 C 
ATOM      6  N   UNL A   1      32.595  24.403  22.607  1.00  0.00    -0.340 N 
ATOM      7  C   UNL A   1      31.273  24.099  23.138  1.00  0.00     0.119 C 
ATOM      8  C   UNL A   1      33.411  23.248  22.287  1.00  0.00     0.134 C 
ATOM      9  C   UNL A   1      31.311  23.149  24.333  1.00  0.00     0.022 C 
ATOM     10  C   UNL A   1      32.306  21.996  24.159  1.00  0.00     0.019 C 
BRANCH   6  11
ATOM     11  C   UNL A   1      33.107  25.693  22.724  1.00  0.00     0.245 C 
ATOM     12  O   UNL A   1      34.034  26.071  22.000  1.00  0.00    -0.272 OA
BRANCH  11  13
ATOM     13  C   UNL A   1      32.430  26.676  23.741  1.00  0.00     0.176 C 
BRANCH  13  14
ATOM     14  C   UNL A   1      33.070  26.719  25.159  1.00  0.00     0.018 C 
ATOM     15  C   UNL A   1      32.020  26.574  26.268  1.00  0.00     0.010 C 
BRANCH  14  16
ATOM     16  C   UNL A   1      33.882  28.022  25.382  1.00  0.00     0.002 C 
ATOM     17  C   UNL A   1      33.630  28.649  26.751  1.00  0.00     0.004 C 
ENDBRANCH  14  16
ENDBRANCH  13  14
BRANCH  13  18
ATOM     18  N   UNL A   1      32.381  28.012  23.127  1.00  0.00    -0.326 N 
ATOM     19  C   UNL A   1      31.260  28.442  22.482  1.00  0.00     0.312 C 
ATOM     20  H   UNL A   1      33.166  28.603  23.184  1.00  0.00     0.166 HD
ATOM     21  N   UNL A   1      31.369  29.700  22.001  1.00  0.00    -0.352 N 
ATOM     22  O   UNL A   1      30.251  27.780  22.298  1.00  0.00    -0.249 OA
ATOM     23  H   UNL A   1      32.190  30.218  22.159  1.00  0.00     0.161 HD
ATOM     24  H   UNL A   1      30.626  30.098  21.491  1.00  0.00     0.161 HD
ENDBRANCH  13  18
ENDBRANCH  11  13
ENDBRANCH   6  11
ENDBRANCH   3   5
ENDBRANCH   2   3
ENDBRANCH   1   2
BRANCH   1  25
ATOM     25  C   UNL A   1      36.667  21.361  24.887  1.00  0.00     0.275 C 
BRANCH  25  26
ATOM     26  O   UNL A   1      37.324  21.978  26.010  1.00  0.00    -0.458 OA
BRANCH  26  27
ATOM     27  C   UNL A   1      38.644  21.707  26.119  1.00  0.00     0.338 C 
ATOM     28  O   UNL A   1      39.243  20.713  25.750  1.00  0.00    -0.246 OA
BRANCH  27  29
ATOM     29  C   UNL A   1      39.327  22.902  26.624  1.00  0.00     0.060 A 
ATOM     30  C   UNL A   1      38.924  24.143  26.127  1.00  0.00     0.016 A 
ATOM     31  C   UNL A   1      40.394  22.801  27.516  1.00  0.00     0.016 A 
ATOM     32  C   UNL A   1      39.585  25.300  26.513  1.00  0.00     0.010 A 
ATOM     33  C   UNL A   1      41.062  23.965  27.904  1.00  0.00     0.010 A 
ATOM     34  C   UNL A   1      40.667  25.215  27.394  1.00  0.00    -0.014 A 
BRANCH  34  35
ATOM     35  C   UNL A   1      41.435  26.436  27.714  1.00  0.00     0.031 A 
ATOM     36  C   UNL A   1      40.793  27.507  28.541  1.00  0.00     0.074 A 
ATOM     37  C   UNL A   1      42.707  26.555  27.298  1.00  0.00     0.049 A 
ATOM     38  N   UNL A   1      41.242  28.695  28.853  1.00  0.00    -0.248 NA
ATOM     39  C   UNL A   1      39.465  27.197  29.095  1.00  0.00     0.031 C 
ATOM     40  C   UNL A   1      43.452  25.537  26.558  1.00  0.00     0.029 A 
ATOM     41  N   UNL A   1      43.597  27.587  27.443  1.00  0.00    -0.354 N 
ATOM     42  C   UNL A   1      40.245  29.283  29.617  1.00  0.00     0.074 A 
ATOM     43  C   UNL A   1      39.161  28.329  29.713  1.00  0.00     0.031 C 
ATOM     44  C   UNL A   1      44.691  25.994  26.315  1.00  0.00     0.029 A 
ATOM     45  C   UNL A   1      44.805  27.354  26.834  1.00  0.00     0.049 A 
ATOM     46  H   UNL A   1      43.392  28.413  27.937  1.00  0.00     0.167 HD
ATOM     47  C   UNL A   1      40.239  30.512  30.185  1.00  0.00     0.037 A 
ATOM     48  C   UNL A   1      45.867  28.167  26.686  1.00  0.00     0.037 A 
ATOM     49  C   UNL A   1      41.328  31.449  30.086  1.00  0.00     0.049 A 
ATOM     50  C   UNL A   1      45.802  29.559  27.252  1.00  0.00     0.074 A 
ATOM     51  C   UNL A   1      41.424  32.725  30.611  1.00  0.00     0.029 A 
ATOM     52  N   UNL A   1      42.516  31.202  29.413  1.00  0.00    -0.354 N 
ATOM     53  N   UNL A   1      44.844  30.128  27.941  1.00  0.00    -0.248 NA
ATOM     54  C   UNL A   1      46.962  30.427  27.005  1.00  0.00     0.031 C 
ATOM     55  C   UNL A   1      42.656  33.265  30.222  1.00  0.00     0.029 A 
ATOM     56  C   UNL A   1      43.345  32.308  29.493  1.00  0.00     0.049 A 
ATOM     57  H   UNL A   1      42.739  30.363  28.947  1.00  0.00     0.167 HD
ATOM     58  C   UNL A   1      45.289  31.410  28.229  1.00  0.00     0.074 A 
ATOM     59  C   UNL A   1      46.612  31.531  27.649  1.00  0.00     0.031 C 
ATOM     60  C   UNL A   1      44.660  32.401  28.909  1.00  0.00     0.037 A 
BRANCH  47  61
ATOM     61  C   UNL A   1      38.999  30.922  30.921  1.00  0.00     0.064 A 
ATOM     62  C   UNL A   1      37.923  31.542  30.268  1.00  0.00     0.173 A 
ATOM     63  C   UNL A   1      38.886  30.691  32.300  1.00  0.00     0.173 A 
ATOM     64  F   UNL A   1      37.990  31.804  28.954  1.00  0.00    -0.203 F 
ATOM     65  C   UNL A   1      36.792  31.943  30.976  1.00  0.00     0.198 A 
ATOM     66  C   UNL A   1      37.742  31.068  32.999  1.00  0.00     0.198 A 
ATOM     67  F   UNL A   1      39.887  30.101  32.971  1.00  0.00    -0.203 F 
ATOM     68  F   UNL A   1      35.798  32.580  30.342  1.00  0.00    -0.200 F 
ATOM     69  C   UNL A   1      36.700  31.701  32.339  1.00  0.00     0.200 A 
ATOM     70  F   UNL A   1      37.653  30.828  34.314  1.00  0.00    -0.200 F 
ATOM     71  F   UNL A   1      35.611  32.088  33.018  1.00  0.00    -0.200 F 
ENDBRANCH  47  61
BRANCH  48  72
ATOM     72  C   UNL A   1      47.068  27.689  25.954  1.00  0.00     0.064 A 
ATOM     73  C   UNL A   1      48.165  27.157  26.644  1.00  0.00     0.173 A 
ATOM     74  C   UNL A   1      47.140  27.748  24.554  1.00  0.00     0.173 A 
ATOM     75  F   UNL A   1      48.152  27.104  27.983  1.00  0.00    -0.203 F 
ATOM     76  C   UNL A   1      49.293  26.708  25.961  1.00  0.00     0.198 A 
ATOM     77  C   UNL A   1      48.258  27.274  23.871  1.00  0.00     0.198 A 
ATOM     78  F   UNL A   1      46.117  28.252  23.849  1.00  0.00    -0.203 F 
ATOM     79  F   UNL A   1      50.344  26.235  26.645  1.00  0.00    -0.200 F 
ATOM     80  C   UNL A   1      49.337  26.759  24.575  1.00  0.00     0.200 A 
ATOM     81  F   UNL A   1      48.290  27.315  22.532  1.00  0.00    -0.200 F 
ATOM     82  F   UNL A   1      50.417  26.319  23.919  1.00  0.00    -0.200 F 
ENDBRANCH  48  72
BRANCH  60  83
ATOM     83  C   UNL A   1      45.412  33.686  29.089  1.00  0.00     0.064 A 
ATOM     84  C   UNL A   1      46.273  33.886  30.177  1.00  0.00     0.173 A 
ATOM     85  C   UNL A   1      45.296  34.713  28.140  1.00  0.00     0.173 A 
ATOM     86  F   UNL A   1      46.404  32.939  31.118  1.00  0.00    -0.203 F 
ATOM     87  C   UNL A   1      46.974  35.080  30.322  1.00  0.00     0.198 A 
ATOM     88  C   UNL A   1      46.018  35.895  28.275  1.00  0.00     0.198 A 
ATOM     89  F   UNL A   1      44.489  34.566  27.080  1.00  0.00    -0.203 F 
ATOM     90  F   UNL A   1      47.757  35.270  31.393  1.00  0.00    -0.200 F 
ATOM     91  C   UNL A   1      46.851  36.081  29.368  1.00  0.00     0.200 A 
ATOM     92  F   UNL A   1      45.905  36.856  27.348  1.00  0.00    -0.200 F 
ATOM     93  F   UNL A   1      47.529  37.227  29.508  1.00  0.00    -0.200 F 
ENDBRANCH  60  83
ENDBRANCH  34  35
ENDBRANCH  27  29
ENDBRANCH  26  27
ENDBRANCH  25  26
ENDBRANCH   1  25
TORSDOF 16
ENDMDL
MODEL 2
REMARK VINA RESULT:     -11.3      4.365      9.646
REMARK SMILES CC[C@@H](C)[C@@H](NC(N)=O)C(=O)N1CCC[C@H](C(=O)OCCOC(=O)c2ccc(-c3c4nc(c(-c5c(F)c(F)c(F)c(F)c5F)c5ccc([nH]5)c(-c5c(F)c(F)c(F)c(F)c5F)c5nc(c(-c6c(F)c(F)c(F)c(F)c6F)c6ccc3[nH]6)C=C5)C=C4)cc2)C1
REMARK SMILES IDX 20 1 19 2 17 3 18 4 16 5 12 6 13 7 88 8 14 9 15 10 10 11
REMARK SMILES IDX 11 12 5 13 3 14 4 15 2 16 1 17 6 18 7 19 8 21 9 22 21 25
REMARK SMILES IDX 22 26 23 27 24 28 25 29 26 30 87 31 27 32 86 33 28 34 29 35
REMARK SMILES IDX 30 36 80 37 31 38 85 39 79 40 81 41 32 42 84 43 78 44 77 45
REMARK SMILES IDX 33 47 65 48 45 49 64 50 46 51 49 52 63 53 82 54 47 55 48 56
REMARK SMILES IDX 62 58 83 59 50 60 34 61 35 62 43 63 36 64 37 65 41 66 44 67
REMARK SMILES IDX 38 68 39 69 42 70 40 71 66 72 67 73 75 74 68 75 69 76 73 77
REMARK SMILES IDX 76 78 70 79 71 80 74 81 72 82 51 83 52 84 60 85 53 86 54 87
REMARK SMILES IDX 58 88 61 89 55 90 56 91 59 92 57 93
REMARK H PARENT 6 20 8 23 8 24 81 46 49 57
REMARK Flexibility Score: inf
ROOT
ATOM      1  C   UNL A   1      33.321  28.338  25.440  1.00  0.00     0.274 C 
ENDROOT
BRANCH   1   2
ATOM      2  O   UNL A   1      32.303  27.463  24.918  1.00  0.00    -0.462 OA
BRANCH   2   3
ATOM      3  C   UNL A   1      31.419  26.905  25.777  1.00  0.00     0.310 C 
ATOM      4  O   UNL A   1      31.567  26.832  26.992  1.00  0.00    -0.252 OA
BRANCH   3   5
ATOM      5  C   UNL A   1      30.185  26.343  25.078  1.00  0.00     0.119 C 
ATOM      6  N   UNL A   1      30.759  24.019  25.470  1.00  0.00    -0.340 N 
ATOM      7  C   UNL A   1      30.932  23.700  24.058  1.00  0.00     0.119 C 
ATOM      8  C   UNL A   1      29.769  25.039  25.754  1.00  0.00     0.134 C 
ATOM      9  C   UNL A   1      31.199  24.931  23.195  1.00  0.00     0.022 C 
ATOM     10  C   UNL A   1      30.323  26.132  23.565  1.00  0.00     0.019 C 
BRANCH   6  11
ATOM     11  C   UNL A   1      31.710  23.596  26.395  1.00  0.00     0.245 C 
ATOM     12  O   UNL A   1      31.495  23.694  27.608  1.00  0.00    -0.272 OA
BRANCH  11  13
ATOM     13  C   UNL A   1      33.023  22.924  25.864  1.00  0.00     0.176 C 
BRANCH  13  14
ATOM     14  C   UNL A   1      34.341  23.694  26.167  1.00  0.00     0.018 C 
ATOM     15  C   UNL A   1      34.564  24.859  25.194  1.00  0.00     0.010 C 
BRANCH  14  16
ATOM     16  C   UNL A   1      35.574  22.753  26.139  1.00  0.00     0.002 C 
ATOM     17  C   UNL A   1      36.852  23.465  25.702  1.00  0.00     0.004 C 
ENDBRANCH  14  16
ENDBRANCH  13  14
BRANCH  13  18
ATOM     18  N   UNL A   1      33.073  21.544  26.370  1.00  0.00    -0.326 N 
ATOM     19  C   UNL A   1      32.784  20.491  25.554  1.00  0.00     0.312 C 
ATOM     20  H   UNL A   1      33.317  21.379  27.309  1.00  0.00     0.166 HD
ATOM     21  N   UNL A   1      32.904  19.292  26.165  1.00  0.00    -0.352 N 
ATOM     22  O   UNL A   1      32.414  20.575  24.393  1.00  0.00    -0.249 OA
ATOM     23  H   UNL A   1      33.203  19.244  27.101  1.00  0.00     0.161 HD
ATOM     24  H   UNL A   1      32.689  18.466  25.674  1.00  0.00     0.161 HD
ENDBRANCH  13  18
ENDBRANCH  11  13
ENDBRANCH   6  11
ENDBRANCH   3   5
ENDBRANCH   2   3
ENDBRANCH   1   2
BRANCH   1  25
ATOM     25  C   UNL A   1      32.778  29.760  25.577  1.00  0.00     0.275 C 
BRANCH  25  26
ATOM     26  O   UNL A   1      32.735  30.149  26.963  1.00  0.00    -0.458 OA
BRANCH  26  27
ATOM     27  C   UNL A   1      33.368  31.308  27.251  1.00  0.00     0.338 C 
ATOM     28  O   UNL A   1      32.940  32.445  27.160  1.00  0.00    -0.246 OA
BRANCH  27  29
ATOM     29  C   UNL A   1      34.658  30.994  27.874  1.00  0.00     0.060 A 
ATOM     30  C   UNL A   1      34.839  29.708  28.386  1.00  0.00     0.016 A 
ATOM     31  C   UNL A   1      35.646  31.967  28.017  1.00  0.00     0.016 A 
ATOM     32  C   UNL A   1      36.011  29.379  29.052  1.00  0.00     0.010 A 
ATOM     33  C   UNL A   1      36.825  31.638  28.689  1.00  0.00     0.010 A 
ATOM     34  C   UNL A   1      37.005  30.348  29.219  1.00  0.00    -0.014 A 
BRANCH  34  35
ATOM     35  C   UNL A   1      38.200  30.023  30.024  1.00  0.00     0.031 A 
ATOM     36  C   UNL A   1      39.250  29.126  29.444  1.00  0.00     0.074 A 
ATOM     37  C   UNL A   1      38.353  30.564  31.245  1.00  0.00     0.049 A 
ATOM     38  N   UNL A   1      40.322  28.632  30.007  1.00  0.00    -0.248 NA
ATOM     39  C   UNL A   1      39.071  28.736  28.037  1.00  0.00     0.031 C 
ATOM     40  C   UNL A   1      37.431  31.513  31.868  1.00  0.00     0.029 A 
ATOM     41  N   UNL A   1      39.345  30.395  32.175  1.00  0.00    -0.354 N 
ATOM     42  C   UNL A   1      40.931  27.853  29.034  1.00  0.00     0.074 A 
ATOM     43  C   UNL A   1      40.106  27.930  27.848  1.00  0.00     0.031 C 
ATOM     44  C   UNL A   1      37.902  31.845  33.081  1.00  0.00     0.029 A 
ATOM     45  C   UNL A   1      39.126  31.091  33.337  1.00  0.00     0.049 A 
ATOM     46  H   UNL A   1      40.136  29.830  32.024  1.00  0.00     0.167 HD
ATOM     47  C   UNL A   1      42.078  27.139  29.128  1.00  0.00     0.037 A 
ATOM     48  C   UNL A   1      39.823  31.088  34.489  1.00  0.00     0.037 A 
ATOM     49  C   UNL A   1      42.892  27.078  30.313  1.00  0.00     0.049 A 
ATOM     50  C   UNL A   1      41.045  30.219  34.597  1.00  0.00     0.074 A 
ATOM     51  C   UNL A   1      44.065  26.377  30.523  1.00  0.00     0.029 A 
ATOM     52  N   UNL A   1      42.612  27.753  31.493  1.00  0.00    -0.354 N 
ATOM     53  N   UNL A   1      41.599  29.453  33.689  1.00  0.00    -0.248 NA
ATOM     54  C   UNL A   1      41.731  30.202  35.896  1.00  0.00     0.031 C 
ATOM     55  C   UNL A   1      44.474  26.597  31.844  1.00  0.00     0.029 A 
ATOM     56  C   UNL A   1      43.580  27.470  32.442  1.00  0.00     0.049 A 
ATOM     57  H   UNL A   1      41.838  28.346  31.636  1.00  0.00     0.167 HD
ATOM     58  C   UNL A   1      42.707  28.880  34.295  1.00  0.00     0.074 A 
ATOM     59  C   UNL A   1      42.755  29.397  35.649  1.00  0.00     0.031 C 
ATOM     60  C   UNL A   1      43.605  28.002  33.782  1.00  0.00     0.037 A 
BRANCH  47  61
ATOM     61  C   UNL A   1      42.486  26.336  27.929  1.00  0.00     0.064 A 
ATOM     62  C   UNL A   1      41.985  25.045  27.699  1.00  0.00     0.173 A 
ATOM     63  C   UNL A   1      43.391  26.865  26.997  1.00  0.00     0.173 A 
ATOM     64  F   UNL A   1      41.133  24.486  28.572  1.00  0.00    -0.203 F 
ATOM     65  C   UNL A   1      42.400  24.304  26.596  1.00  0.00     0.198 A 
ATOM     66  C   UNL A   1      43.782  26.131  25.881  1.00  0.00     0.198 A 
ATOM     67  F   UNL A   1      43.899  28.095  27.171  1.00  0.00    -0.203 F 
ATOM     68  F   UNL A   1      41.950  23.053  26.423  1.00  0.00    -0.200 F 
ATOM     69  C   UNL A   1      43.294  24.848  25.686  1.00  0.00     0.200 A 
ATOM     70  F   UNL A   1      44.640  26.662  24.999  1.00  0.00    -0.200 F 
ATOM     71  F   UNL A   1      43.692  24.132  24.625  1.00  0.00    -0.200 F 
ENDBRANCH  47  61
BRANCH  48  72
ATOM     72  C   UNL A   1      39.366  31.919  35.632  1.00  0.00     0.064 A 
ATOM     73  C   UNL A   1      39.843  33.224  35.808  1.00  0.00     0.173 A 
ATOM     74  C   UNL A   1      38.440  31.429  36.566  1.00  0.00     0.173 A 
ATOM     75  F   UNL A   1      40.748  33.727  34.955  1.00  0.00    -0.203 F 
ATOM     76  C   UNL A   1      39.417  34.007  36.878  1.00  0.00     0.198 A 
ATOM     77  C   UNL A   1      37.995  32.222  37.621  1.00  0.00     0.198 A 
ATOM     78  F   UNL A   1      37.956  30.185  36.443  1.00  0.00    -0.203 F 
ATOM     79  F   UNL A   1      39.914  35.240  37.044  1.00  0.00    -0.200 F 
ATOM     80  C   UNL A   1      38.487  33.508  37.780  1.00  0.00     0.200 A 
ATOM     81  F   UNL A   1      37.088  31.740  38.482  1.00  0.00    -0.200 F 
ATOM     82  F   UNL A   1      38.072  34.264  38.804  1.00  0.00    -0.200 F 
ENDBRANCH  48  72
BRANCH  60  83
ATOM     83  C   UNL A   1      44.728  27.576  34.679  1.00  0.00     0.064 A 
ATOM     84  C   UNL A   1      45.913  28.319  34.775  1.00  0.00     0.173 A 
ATOM     85  C   UNL A   1      44.600  26.430  35.478  1.00  0.00     0.173 A 
ATOM     86  F   UNL A   1      46.087  29.413  34.017  1.00  0.00    -0.203 F 
ATOM     87  C   UNL A   1      46.941  27.916  35.622  1.00  0.00     0.198 A 
ATOM     88  C   UNL A   1      45.620  26.045  36.343  1.00  0.00     0.198 A 
ATOM     89  F   UNL A   1      43.484  25.689  35.426  1.00  0.00    -0.203 F 
ATOM     90  F   UNL A   1      48.085  28.614  35.664  1.00  0.00    -0.200 F 
ATOM     91  C   UNL A   1      46.792  26.783  36.410  1.00  0.00     0.200 A 
ATOM     92  F   UNL A   1      45.470  24.956  37.111  1.00  0.00    -0.200 F 
ATOM     93  F   UNL A   1      47.781  26.400  37.228  1.00  0.00    -0.200 F 
ENDBRANCH  60  83
ENDBRANCH  34  35
ENDBRANCH  27  29
ENDBRANCH  26  27
ENDBRANCH  25  26
ENDBRANCH   1  25
TORSDOF 16
ENDMDL
MODEL 3
REMARK VINA RESULT:     -11.2      4.303      9.631
REMARK SMILES CC[C@@H](C)[C@@H](NC(N)=O)C(=O)N1CCC[C@H](C(=O)OCCOC(=O)c2ccc(-c3c4nc(c(-c5c(F)c(F)c(F)c(F)c5F)c5ccc([nH]5)c(-c5c(F)c(F)c(F)c(F)c5F)c5nc(c(-c6c(F)c(F)c(F)c(F)c6F)c6ccc3[nH]6)C=C5)C=C4)cc2)C1
REMARK SMILES IDX 20 1 19 2 17 3 18 4 16 5 12 6 13 7 88 8 14 9 15 10 10 11
REMARK SMILES IDX 11 12 5 13 3 14 4 15 2 16 1 17 6 18 7 19 8 21 9 22 21 25
REMARK SMILES IDX 22 26 23 27 24 28 25 29 26 30 87 31 27 32 86 33 28 34 29 35
REMARK SMILES IDX 30 36 80 37 31 38 85 39 79 40 81 41 32 42 84 43 78 44 77 45
REMARK SMILES IDX 33 47 65 48 45 49 64 50 46 51 49 52 63 53 82 54 47 55 48 56
REMARK SMILES IDX 62 58 83 59 50 60 34 61 35 62 43 63 36 64 37 65 41 66 44 67
REMARK SMILES IDX 38 68 39 69 42 70 40 71 66 72 67 73 75 74 68 75 69 76 73 77
REMARK SMILES IDX 76 78 70 79 71 80 74 81 72 82 51 83 52 84 60 85 53 86 54 87
REMARK SMILES IDX 58 88 61 89 55 90 56 91 59 92 57 93
REMARK H PARENT 6 20 8 23 8 24 81 46 49 57
REMARK Flexibility Score: inf
ROOT
ATOM      1  C   UNL A   1      32.191  28.509  27.406  1.00  0.00     0.274 C 
ENDROOT
BRANCH   1   2
ATOM      2  O   UNL A   1      31.319  27.577  26.737  1.00  0.00    -0.462 OA
BRANCH   2   3
ATOM      3  C   UNL A   1      31.559  27.277  25.440  1.00  0.00     0.310 C 
ATOM      4  O   UNL A   1      32.651  27.356  24.888  1.00  0.00    -0.252 OA
BRANCH   3   5
ATOM      5  C   UNL A   1      30.306  26.832  24.692  1.00  0.00     0.119 C 
ATOM      6  N   UNL A   1      30.652  24.464  25.088  1.00  0.00    -0.340 N 
ATOM      7  C   UNL A   1      30.849  24.136  23.681  1.00  0.00     0.119 C 
ATOM      8  C   UNL A   1      29.749  25.569  25.342  1.00  0.00     0.134 C 
ATOM      9  C   UNL A   1      31.258  25.341  22.837  1.00  0.00     0.022 C 
ATOM     10  C   UNL A   1      30.481  26.616  23.184  1.00  0.00     0.019 C 
BRANCH   6  11
ATOM     11  C   UNL A   1      31.526  23.953  26.045  1.00  0.00     0.245 C 
ATOM     12  O   UNL A   1      31.245  24.007  27.246  1.00  0.00    -0.272 OA
BRANCH  11  13
ATOM     13  C   UNL A   1      32.835  23.240  25.557  1.00  0.00     0.176 C 
BRANCH  13  14
ATOM     14  C   UNL A   1      34.130  24.101  25.619  1.00  0.00     0.018 C 
ATOM     15  C   UNL A   1      34.652  24.458  24.222  1.00  0.00     0.010 C 
BRANCH  14  16
ATOM     16  C   UNL A   1      35.251  23.393  26.425  1.00  0.00     0.002 C 
ATOM     17  C   UNL A   1      36.631  23.568  25.798  1.00  0.00     0.004 C 
ENDBRANCH  14  16
ENDBRANCH  13  14
BRANCH  13  18
ATOM     18  N   UNL A   1      32.983  21.984  26.307  1.00  0.00    -0.326 N 
ATOM     19  C   UNL A   1      33.129  20.796  25.655  1.00  0.00     0.312 C 
ATOM     20  H   UNL A   1      32.976  22.001  27.291  1.00  0.00     0.166 HD
ATOM     21  N   UNL A   1      33.282  19.743  26.488  1.00  0.00    -0.352 N 
ATOM     22  O   UNL A   1      33.096  20.644  24.444  1.00  0.00    -0.249 OA
ATOM     23  H   UNL A   1      33.307  19.885  27.462  1.00  0.00     0.161 HD
ATOM     24  H   UNL A   1      33.366  18.834  26.121  1.00  0.00     0.161 HD
ENDBRANCH  13  18
ENDBRANCH  11  13
ENDBRANCH   6  11
ENDBRANCH   3   5
ENDBRANCH   2   3
ENDBRANCH   1   2
BRANCH   1  25
ATOM     25  C   UNL A   1      31.971  29.922  26.867  1.00  0.00     0.275 C 
BRANCH  25  26
ATOM     26  O   UNL A   1      33.225  30.508  26.470  1.00  0.00    -0.458 OA
BRANCH  26  27
ATOM     27  C   UNL A   1      33.624  31.562  27.215  1.00  0.00     0.338 C 
ATOM     28  O   UNL A   1      33.012  32.585  27.464  1.00  0.00    -0.246 OA
BRANCH  27  29
ATOM     29  C   UNL A   1      34.902  31.229  27.851  1.00  0.00     0.060 A 
ATOM     30  C   UNL A   1      35.085  29.920  28.301  1.00  0.00     0.016 A 
ATOM     31  C   UNL A   1      35.876  32.203  28.068  1.00  0.00     0.016 A 
ATOM     32  C   UNL A   1      36.244  29.568  28.977  1.00  0.00     0.010 A 
ATOM     33  C   UNL A   1      37.043  31.851  28.751  1.00  0.00     0.010 A 
ATOM     34  C   UNL A   1      37.224  30.536  29.217  1.00  0.00    -0.014 A 
BRANCH  34  35
ATOM     35  C   UNL A   1      38.403  30.181  30.034  1.00  0.00     0.031 A 
ATOM     36  C   UNL A   1      39.441  29.267  29.459  1.00  0.00     0.074 A 
ATOM     37  C   UNL A   1      38.553  30.711  31.260  1.00  0.00     0.049 A 
ATOM     38  N   UNL A   1      40.496  28.747  30.031  1.00  0.00    -0.248 NA
ATOM     39  C   UNL A   1      39.269  28.890  28.047  1.00  0.00     0.031 C 
ATOM     40  C   UNL A   1      37.644  31.674  31.880  1.00  0.00     0.029 A 
ATOM     41  N   UNL A   1      39.530  30.515  32.200  1.00  0.00    -0.354 N 
ATOM     42  C   UNL A   1      41.100  27.963  29.059  1.00  0.00     0.074 A 
ATOM     43  C   UNL A   1      40.289  28.064  27.864  1.00  0.00     0.031 C 
ATOM     44  C   UNL A   1      38.108  31.988  33.100  1.00  0.00     0.029 A 
ATOM     45  C   UNL A   1      39.313  31.207  33.364  1.00  0.00     0.049 A 
ATOM     46  H   UNL A   1      40.312  29.935  32.054  1.00  0.00     0.167 HD
ATOM     47  C   UNL A   1      42.230  27.225  29.160  1.00  0.00     0.037 A 
ATOM     48  C   UNL A   1      39.997  31.182  34.524  1.00  0.00     0.037 A 
ATOM     49  C   UNL A   1      43.030  27.139  30.354  1.00  0.00     0.049 A 
ATOM     50  C   UNL A   1      41.200  30.288  34.639  1.00  0.00     0.074 A 
ATOM     51  C   UNL A   1      44.186  26.412  30.572  1.00  0.00     0.029 A 
ATOM     52  N   UNL A   1      42.750  27.811  31.536  1.00  0.00    -0.354 N 
ATOM     53  N   UNL A   1      41.748  29.517  33.732  1.00  0.00    -0.248 NA
ATOM     54  C   UNL A   1      41.870  30.248  35.946  1.00  0.00     0.031 C 
ATOM     55  C   UNL A   1      44.585  26.614  31.899  1.00  0.00     0.029 A 
ATOM     56  C   UNL A   1      43.701  27.502  32.494  1.00  0.00     0.049 A 
ATOM     57  H   UNL A   1      41.987  28.419  31.674  1.00  0.00     0.167 HD
ATOM     58  C   UNL A   1      42.838  28.917  34.346  1.00  0.00     0.074 A 
ATOM     59  C   UNL A   1      42.880  29.424  35.704  1.00  0.00     0.031 C 
ATOM     60  C   UNL A   1      43.722  28.024  33.837  1.00  0.00     0.037 A 
BRANCH  47  61
ATOM     61  C   UNL A   1      42.636  26.421  27.961  1.00  0.00     0.064 A 
ATOM     62  C   UNL A   1      42.152  25.122  27.745  1.00  0.00     0.173 A 
ATOM     63  C   UNL A   1      43.519  26.959  27.014  1.00  0.00     0.173 A 
ATOM     64  F   UNL A   1      41.320  24.554  28.631  1.00  0.00    -0.203 F 
ATOM     65  C   UNL A   1      42.564  24.380  26.640  1.00  0.00     0.198 A 
ATOM     66  C   UNL A   1      43.907  26.225  25.896  1.00  0.00     0.198 A 
ATOM     67  F   UNL A   1      44.010  28.198  27.174  1.00  0.00    -0.203 F 
ATOM     68  F   UNL A   1      42.131  23.122  26.480  1.00  0.00    -0.200 F 
ATOM     69  C   UNL A   1      43.437  24.934  25.714  1.00  0.00     0.200 A 
ATOM     70  F   UNL A   1      44.745  26.765  25.000  1.00  0.00    -0.200 F 
ATOM     71  F   UNL A   1      43.832  24.219  24.652  1.00  0.00    -0.200 F 
ENDBRANCH  47  61
BRANCH  48  72
ATOM     72  C   UNL A   1      39.544  32.015  35.667  1.00  0.00     0.064 A 
ATOM     73  C   UNL A   1      38.607  31.526  36.586  1.00  0.00     0.173 A 
ATOM     74  C   UNL A   1      40.043  33.312  35.868  1.00  0.00     0.173 A 
ATOM     75  F   UNL A   1      38.084  30.302  36.422  1.00  0.00    -0.203 F 
ATOM     76  C   UNL A   1      38.180  32.304  37.660  1.00  0.00     0.198 A 
ATOM     77  C   UNL A   1      39.635  34.078  36.956  1.00  0.00     0.198 A 
ATOM     78  F   UNL A   1      40.939  33.826  35.014  1.00  0.00    -0.203 F 
ATOM     79  F   UNL A   1      37.257  31.826  38.506  1.00  0.00    -0.200 F 
ATOM     80  C   UNL A   1      38.700  33.577  37.850  1.00  0.00     0.200 A 
ATOM     81  F   UNL A   1      40.149  35.303  37.141  1.00  0.00    -0.200 F 
ATOM     82  F   UNL A   1      38.296  34.320  38.887  1.00  0.00    -0.200 F 
ENDBRANCH  48  72
BRANCH  60  83
ATOM     83  C   UNL A   1      44.827  27.569  34.744  1.00  0.00     0.064 A 
ATOM     84  C   UNL A   1      44.700  26.417  35.533  1.00  0.00     0.173 A 
ATOM     85  C   UNL A   1      46.038  28.274  34.794  1.00  0.00     0.173 A 
ATOM     86  F   UNL A   1      43.553  25.720  35.531  1.00  0.00    -0.203 F 
ATOM     87  C   UNL A   1      45.739  26.001  36.360  1.00  0.00     0.198 A 
ATOM     88  C   UNL A   1      47.085  27.840  35.602  1.00  0.00     0.198 A 
ATOM     89  F   UNL A   1      46.209  29.378  34.053  1.00  0.00    -0.203 F 
ATOM     90  F   UNL A   1      45.581  24.923  37.141  1.00  0.00    -0.200 F 
ATOM     91  C   UNL A   1      46.933  26.708  36.389  1.00  0.00     0.200 A 
ATOM     92  F   UNL A   1      48.240  28.518  35.621  1.00  0.00    -0.200 F 
ATOM     93  F   UNL A   1      47.934  26.303  37.182  1.00  0.00    -0.200 F 
ENDBRANCH  60  83
ENDBRANCH  34  35
ENDBRANCH  27  29
ENDBRANCH  26  27
ENDBRANCH  25  26
ENDBRANCH   1  25
TORSDOF 16
ENDMDL
