MODEL 1
REMARK VINA RESULT:     -12.6      0.000      0.000
REMARK SMILES CN(C)S(=O)(=O)c1cccc(-c2cc(Cl)cc(C(=O)OCCOC(=O)c3ccc(-c4c5nc(c(-c6c(F)c(F)c(F)c(F)c6F)c6ccc([nH]6)c(-c6c(F)c(F)c(F)c(F)c6F)c6nc(c(-c7c(F)c(F)c(F)c(F)c7F)c7ccc4[nH]7)C=C6)C=C5)cc3)c2)c1
REMARK SMILES IDX 21 1 20 2 18 3 19 4 17 5 12 6 13 7 89 8 14 9 15 10 16 11
REMARK SMILES IDX 11 12 7 13 8 14 90 15 9 16 10 17 4 18 5 19 6 20 2 21 1 22
REMARK SMILES IDX 3 23 22 24 23 25 24 26 25 27 26 28 27 29 88 30 28 31 87 32
REMARK SMILES IDX 29 33 30 34 31 35 81 36 32 37 86 38 80 39 82 40 33 41 85 42
REMARK SMILES IDX 79 43 78 44 34 46 66 47 46 48 65 49 47 50 50 51 64 52 83 53
REMARK SMILES IDX 48 54 49 55 63 57 84 58 51 59 35 60 36 61 44 62 37 63 38 64
REMARK SMILES IDX 42 65 45 66 39 67 40 68 43 69 41 70 67 71 68 72 76 73 69 74
REMARK SMILES IDX 70 75 74 76 77 77 71 78 72 79 75 80 73 81 52 82 53 83 61 84
REMARK SMILES IDX 54 85 55 86 59 87 62 88 56 89 57 90 60 91 58 92
REMARK H PARENT 82 45 50 56
REMARK Flexibility Score: inf
ROOT
ATOM      1  C   UNL A   1      42.257  20.099  25.804  1.00  0.00     0.275 C 
ENDROOT
BRANCH   1   2
ATOM      2  O   UNL A   1      41.048  20.762  26.223  1.00  0.00    -0.458 OA
BRANCH   2   3
ATOM      3  C   UNL A   1      39.880  20.259  25.757  1.00  0.00     0.338 C 
ATOM      4  O   UNL A   1      39.648  19.097  25.466  1.00  0.00    -0.246 OA
BRANCH   3   5
ATOM      5  C   UNL A   1      38.837  21.316  25.750  1.00  0.00     0.062 A 
ATOM      6  C   UNL A   1      36.616  22.107  25.125  1.00  0.00    -0.016 A 
ATOM      7  C   UNL A   1      36.897  23.341  25.722  1.00  0.00     0.029 A 
ATOM      8  C   UNL A   1      37.624  21.122  25.095  1.00  0.00     0.024 A 
ATOM      9  C   UNL A   1      38.115  23.537  26.371  1.00  0.00     0.042 A 
ATOM     10  Cl  UNL A   1      38.451  25.045  27.128  1.00  0.00    -0.084 Cl
ATOM     11  C   UNL A   1      39.058  22.513  26.437  1.00  0.00     0.036 A 
BRANCH   6  12
ATOM     12  C   UNL A   1      35.276  21.759  24.644  1.00  0.00    -0.017 A 
ATOM     13  C   UNL A   1      33.503  20.092  24.556  1.00  0.00     0.083 A 
ATOM     14  C   UNL A   1      32.781  20.878  23.662  1.00  0.00     0.022 A 
ATOM     15  C   UNL A   1      34.723  20.538  25.060  1.00  0.00     0.030 A 
ATOM     16  C   UNL A   1      33.293  22.122  23.284  1.00  0.00     0.002 A 
ATOM     17  C   UNL A   1      34.534  22.559  23.768  1.00  0.00     0.009 A 
BRANCH  13  18
ATOM     18  S   UNL A   1      32.979  18.477  25.052  1.00  0.00     0.242 S 
ATOM     19  O   UNL A   1      31.778  18.156  24.307  1.00  0.00    -0.207 OA
ATOM     20  O   UNL A   1      32.982  18.479  26.500  1.00  0.00    -0.207 OA
BRANCH  18  21
ATOM     21  N   UNL A   1      34.196  17.404  24.511  1.00  0.00    -0.204 NA
ATOM     22  C   UNL A   1      34.285  16.201  25.377  1.00  0.00     0.124 C 
ATOM     23  C   UNL A   1      34.101  17.023  23.083  1.00  0.00     0.124 C 
ENDBRANCH  18  21
ENDBRANCH  13  18
ENDBRANCH   6  12
ENDBRANCH   3   5
ENDBRANCH   2   3
ENDBRANCH   1   2
BRANCH   1  24
ATOM     24  C   UNL A   1      43.325  21.117  25.400  1.00  0.00     0.275 C 
BRANCH  24  25
ATOM     25  O   UNL A   1      42.706  22.360  25.019  1.00  0.00    -0.458 OA
BRANCH  25  26
ATOM     26  C   UNL A   1      43.458  23.465  25.211  1.00  0.00     0.338 C 
ATOM     27  O   UNL A   1      44.507  23.764  24.667  1.00  0.00    -0.246 OA
BRANCH  26  28
ATOM     28  C   UNL A   1      42.760  24.380  26.125  1.00  0.00     0.060 A 
ATOM     29  C   UNL A   1      42.974  25.743  25.951  1.00  0.00     0.016 A 
ATOM     30  C   UNL A   1      42.058  23.917  27.232  1.00  0.00     0.016 A 
ATOM     31  C   UNL A   1      42.577  26.655  26.920  1.00  0.00     0.010 A 
ATOM     32  C   UNL A   1      41.578  24.843  28.169  1.00  0.00     0.010 A 
ATOM     33  C   UNL A   1      41.870  26.217  28.045  1.00  0.00    -0.014 A 
BRANCH  33  34
ATOM     34  C   UNL A   1      41.523  27.184  29.124  1.00  0.00     0.031 A 
ATOM     35  C   UNL A   1      42.365  27.245  30.371  1.00  0.00     0.074 A 
ATOM     36  C   UNL A   1      40.487  28.034  28.986  1.00  0.00     0.049 A 
ATOM     37  N   UNL A   1      42.143  27.876  31.497  1.00  0.00    -0.248 NA
ATOM     38  C   UNL A   1      43.621  26.479  30.351  1.00  0.00     0.031 C 
ATOM     39  C   UNL A   1      39.627  28.137  27.807  1.00  0.00     0.029 A 
ATOM     40  N   UNL A   1      39.985  28.981  29.845  1.00  0.00    -0.354 N 
ATOM     41  C   UNL A   1      43.194  27.529  32.338  1.00  0.00     0.074 A 
ATOM     42  C   UNL A   1      44.050  26.630  31.595  1.00  0.00     0.031 C 
ATOM     43  C   UNL A   1      38.726  29.110  28.004  1.00  0.00     0.029 A 
ATOM     44  C   UNL A   1      38.886  29.640  29.354  1.00  0.00     0.049 A 
ATOM     45  H   UNL A   1      40.377  29.169  30.729  1.00  0.00     0.167 HD
ATOM     46  C   UNL A   1      43.419  27.926  33.614  1.00  0.00     0.037 A 
ATOM     47  C   UNL A   1      38.069  30.539  29.937  1.00  0.00     0.037 A 
ATOM     48  C   UNL A   1      42.598  28.870  34.326  1.00  0.00     0.049 A 
ATOM     49  C   UNL A   1      38.325  30.948  31.360  1.00  0.00     0.074 A 
ATOM     50  C   UNL A   1      42.747  29.345  35.618  1.00  0.00     0.029 A 
ATOM     51  N   UNL A   1      41.480  29.500  33.797  1.00  0.00    -0.354 N 
ATOM     52  N   UNL A   1      39.278  30.565  32.173  1.00  0.00    -0.248 NA
ATOM     53  C   UNL A   1      37.380  31.906  31.952  1.00  0.00     0.031 C 
ATOM     54  C   UNL A   1      41.699  30.232  35.883  1.00  0.00     0.029 A 
ATOM     55  C   UNL A   1      40.924  30.351  34.739  1.00  0.00     0.049 A 
ATOM     56  H   UNL A   1      41.133  29.362  32.886  1.00  0.00     0.167 HD
ATOM     57  C   UNL A   1      39.062  31.243  33.364  1.00  0.00     0.074 A 
ATOM     58  C   UNL A   1      37.895  32.076  33.163  1.00  0.00     0.031 C 
ATOM     59  C   UNL A   1      39.766  31.179  34.521  1.00  0.00     0.037 A 
BRANCH  46  60
ATOM     60  C   UNL A   1      44.579  27.299  34.336  1.00  0.00     0.064 A 
ATOM     61  C   UNL A   1      45.858  27.874  34.340  1.00  0.00     0.173 A 
ATOM     62  C   UNL A   1      44.400  26.098  35.041  1.00  0.00     0.173 A 
ATOM     63  F   UNL A   1      46.089  29.013  33.670  1.00  0.00    -0.203 F 
ATOM     64  C   UNL A   1      46.922  27.251  34.989  1.00  0.00     0.198 A 
ATOM     65  C   UNL A   1      45.457  25.495  35.716  1.00  0.00     0.198 A 
ATOM     66  F   UNL A   1      43.195  25.508  35.076  1.00  0.00    -0.203 F 
ATOM     67  F   UNL A   1      48.149  27.786  34.926  1.00  0.00    -0.200 F 
ATOM     68  C   UNL A   1      46.720  26.066  35.679  1.00  0.00     0.200 A 
ATOM     69  F   UNL A   1      45.256  24.357  36.395  1.00  0.00    -0.200 F 
ATOM     70  F   UNL A   1      47.745  25.468  36.303  1.00  0.00    -0.200 F 
ENDBRANCH  46  60
BRANCH  47  71
ATOM     71  C   UNL A   1      36.911  31.080  29.178  1.00  0.00     0.064 A 
ATOM     72  C   UNL A   1      35.785  30.288  28.914  1.00  0.00     0.173 A 
ATOM     73  C   UNL A   1      36.898  32.406  28.721  1.00  0.00     0.173 A 
ATOM     74  F   UNL A   1      35.762  29.006  29.306  1.00  0.00    -0.203 F 
ATOM     75  C   UNL A   1      34.692  30.802  28.220  1.00  0.00     0.198 A 
ATOM     76  C   UNL A   1      35.792  32.928  28.054  1.00  0.00     0.198 A 
ATOM     77  F   UNL A   1      37.952  33.205  28.945  1.00  0.00    -0.203 F 
ATOM     78  F   UNL A   1      33.643  30.015  27.950  1.00  0.00    -0.200 F 
ATOM     79  C   UNL A   1      34.692  32.124  27.800  1.00  0.00     0.200 A 
ATOM     80  F   UNL A   1      35.791  34.210  27.664  1.00  0.00    -0.200 F 
ATOM     81  F   UNL A   1      33.634  32.622  27.145  1.00  0.00    -0.200 F 
ENDBRANCH  47  71
BRANCH  59  82
ATOM     82  C   UNL A   1      39.319  32.067  35.646  1.00  0.00     0.064 A 
ATOM     83  C   UNL A   1      38.418  31.622  36.624  1.00  0.00     0.173 A 
ATOM     84  C   UNL A   1      39.822  33.371  35.761  1.00  0.00     0.173 A 
ATOM     85  F   UNL A   1      37.896  30.388  36.550  1.00  0.00    -0.203 F 
ATOM     86  C   UNL A   1      38.019  32.458  37.663  1.00  0.00     0.198 A 
ATOM     87  C   UNL A   1      39.443  34.196  36.816  1.00  0.00     0.198 A 
ATOM     88  F   UNL A   1      40.691  33.843  34.854  1.00  0.00    -0.203 F 
ATOM     89  F   UNL A   1      37.122  32.029  38.561  1.00  0.00    -0.200 F 
ATOM     90  C   UNL A   1      38.536  33.742  37.762  1.00  0.00     0.200 A 
ATOM     91  F   UNL A   1      39.953  35.431  36.916  1.00  0.00    -0.200 F 
ATOM     92  F   UNL A   1      38.154  34.545  38.764  1.00  0.00    -0.200 F 
ENDBRANCH  59  82
ENDBRANCH  33  34
ENDBRANCH  26  28
ENDBRANCH  25  26
ENDBRANCH  24  25
ENDBRANCH   1  24
TORSDOF 14
ENDMDL
MODEL 2
REMARK VINA RESULT:     -12.5      4.674      9.539
REMARK SMILES CN(C)S(=O)(=O)c1cccc(-c2cc(Cl)cc(C(=O)OCCOC(=O)c3ccc(-c4c5nc(c(-c6c(F)c(F)c(F)c(F)c6F)c6ccc([nH]6)c(-c6c(F)c(F)c(F)c(F)c6F)c6nc(c(-c7c(F)c(F)c(F)c(F)c7F)c7ccc4[nH]7)C=C6)C=C5)cc3)c2)c1
REMARK SMILES IDX 21 1 20 2 18 3 19 4 17 5 12 6 13 7 89 8 14 9 15 10 16 11
REMARK SMILES IDX 11 12 7 13 8 14 90 15 9 16 10 17 4 18 5 19 6 20 2 21 1 22
REMARK SMILES IDX 3 23 22 24 23 25 24 26 25 27 26 28 27 29 88 30 28 31 87 32
REMARK SMILES IDX 29 33 30 34 31 35 81 36 32 37 86 38 80 39 82 40 33 41 85 42
REMARK SMILES IDX 79 43 78 44 34 46 66 47 46 48 65 49 47 50 50 51 64 52 83 53
REMARK SMILES IDX 48 54 49 55 63 57 84 58 51 59 35 60 36 61 44 62 37 63 38 64
REMARK SMILES IDX 42 65 45 66 39 67 40 68 43 69 41 70 67 71 68 72 76 73 69 74
REMARK SMILES IDX 70 75 74 76 77 77 71 78 72 79 75 80 73 81 52 82 53 83 61 84
REMARK SMILES IDX 54 85 55 86 59 87 62 88 56 89 57 90 60 91 58 92
REMARK H PARENT 82 45 50 56
REMARK Flexibility Score: inf
ROOT
ATOM      1  C   UNL A   1      34.183  34.954  28.756  1.00  0.00     0.275 C 
ENDROOT
BRANCH   1   2
ATOM      2  O   UNL A   1      33.819  33.573  28.950  1.00  0.00    -0.458 OA
BRANCH   2   3
ATOM      3  C   UNL A   1      33.089  32.988  27.970  1.00  0.00     0.338 C 
ATOM      4  O   UNL A   1      32.164  33.486  27.350  1.00  0.00    -0.246 OA
BRANCH   3   5
ATOM      5  C   UNL A   1      33.648  31.650  27.650  1.00  0.00     0.062 A 
ATOM      6  C   UNL A   1      33.356  29.351  26.890  1.00  0.00    -0.016 A 
ATOM      7  C   UNL A   1      34.723  29.123  27.083  1.00  0.00     0.029 A 
ATOM      8  C   UNL A   1      32.822  30.608  27.237  1.00  0.00     0.024 A 
ATOM      9  C   UNL A   1      35.548  30.165  27.503  1.00  0.00     0.042 A 
ATOM     10  Cl  UNL A   1      37.234  29.892  27.716  1.00  0.00    -0.084 Cl
ATOM     11  C   UNL A   1      35.027  31.436  27.730  1.00  0.00     0.036 A 
BRANCH   6  12
ATOM     12  C   UNL A   1      32.487  28.376  26.224  1.00  0.00    -0.017 A 
ATOM     13  C   UNL A   1      31.933  26.030  25.880  1.00  0.00     0.083 A 
ATOM     14  C   UNL A   1      31.008  26.372  24.896  1.00  0.00     0.022 A 
ATOM     15  C   UNL A   1      32.645  27.021  26.552  1.00  0.00     0.030 A 
ATOM     16  C   UNL A   1      30.800  27.722  24.600  1.00  0.00     0.002 A 
ATOM     17  C   UNL A   1      31.537  28.718  25.255  1.00  0.00     0.009 A 
BRANCH  13  18
ATOM     18  S   UNL A   1      32.319  24.353  26.291  1.00  0.00     0.242 S 
ATOM     19  O   UNL A   1      31.395  23.930  27.323  1.00  0.00    -0.207 OA
ATOM     20  O   UNL A   1      33.750  24.309  26.504  1.00  0.00    -0.207 OA
BRANCH  18  21
ATOM     21  N   UNL A   1      31.953  23.435  24.895  1.00  0.00    -0.204 NA
ATOM     22  C   UNL A   1      32.993  23.600  23.848  1.00  0.00     0.124 C 
ATOM     23  C   UNL A   1      31.678  22.001  25.146  1.00  0.00     0.124 C 
ENDBRANCH  18  21
ENDBRANCH  13  18
ENDBRANCH   6  12
ENDBRANCH   3   5
ENDBRANCH   2   3
ENDBRANCH   1   2
BRANCH   1  24
ATOM     24  C   UNL A   1      33.173  35.884  29.430  1.00  0.00     0.275 C 
BRANCH  24  25
ATOM     25  O   UNL A   1      32.518  35.201  30.515  1.00  0.00    -0.458 OA
BRANCH  25  26
ATOM     26  C   UNL A   1      32.691  35.754  31.736  1.00  0.00     0.338 C 
ATOM     27  O   UNL A   1      32.028  36.628  32.266  1.00  0.00    -0.246 OA
BRANCH  26  28
ATOM     28  C   UNL A   1      33.769  35.049  32.444  1.00  0.00     0.060 A 
ATOM     29  C   UNL A   1      35.018  35.660  32.476  1.00  0.00     0.016 A 
ATOM     30  C   UNL A   1      33.613  33.749  32.912  1.00  0.00     0.016 A 
ATOM     31  C   UNL A   1      36.144  34.955  32.882  1.00  0.00     0.010 A 
ATOM     32  C   UNL A   1      34.733  33.065  33.405  1.00  0.00     0.010 A 
ATOM     33  C   UNL A   1      36.017  33.645  33.355  1.00  0.00    -0.014 A 
BRANCH  33  34
ATOM     34  C   UNL A   1      37.236  32.863  33.705  1.00  0.00     0.031 A 
ATOM     35  C   UNL A   1      37.899  33.073  35.041  1.00  0.00     0.074 A 
ATOM     36  C   UNL A   1      37.733  31.940  32.860  1.00  0.00     0.049 A 
ATOM     37  N   UNL A   1      39.054  32.636  35.475  1.00  0.00    -0.248 NA
ATOM     38  C   UNL A   1      37.166  33.899  36.013  1.00  0.00     0.031 C 
ATOM     39  C   UNL A   1      37.156  31.579  31.565  1.00  0.00     0.029 A 
ATOM     40  N   UNL A   1      38.836  31.129  32.968  1.00  0.00    -0.354 N 
ATOM     41  C   UNL A   1      39.216  33.188  36.740  1.00  0.00     0.074 A 
ATOM     42  C   UNL A   1      38.043  33.995  37.001  1.00  0.00     0.031 C 
ATOM     43  C   UNL A   1      37.891  30.602  31.013  1.00  0.00     0.029 A 
ATOM     44  C   UNL A   1      39.038  30.327  31.872  1.00  0.00     0.049 A 
ATOM     45  H   UNL A   1      39.425  31.122  33.757  1.00  0.00     0.167 HD
ATOM     46  C   UNL A   1      40.250  33.036  37.602  1.00  0.00     0.037 A 
ATOM     47  C   UNL A   1      40.054  29.496  31.569  1.00  0.00     0.037 A 
ATOM     48  C   UNL A   1      41.385  32.182  37.363  1.00  0.00     0.049 A 
ATOM     49  C   UNL A   1      41.202  29.358  32.529  1.00  0.00     0.074 A 
ATOM     50  C   UNL A   1      42.481  31.950  38.176  1.00  0.00     0.029 A 
ATOM     51  N   UNL A   1      41.560  31.402  36.228  1.00  0.00    -0.354 N 
ATOM     52  N   UNL A   1      41.383  29.936  33.691  1.00  0.00    -0.248 NA
ATOM     53  C   UNL A   1      42.296  28.463  32.127  1.00  0.00     0.031 C 
ATOM     54  C   UNL A   1      43.336  31.061  37.518  1.00  0.00     0.029 A 
ATOM     55  C   UNL A   1      42.750  30.696  36.316  1.00  0.00     0.049 A 
ATOM     56  H   UNL A   1      40.931  31.357  35.472  1.00  0.00     0.167 HD
ATOM     57  C   UNL A   1      42.597  29.464  34.168  1.00  0.00     0.074 A 
ATOM     58  C   UNL A   1      43.103  28.538  33.176  1.00  0.00     0.031 C 
ATOM     59  C   UNL A   1      43.236  29.772  35.323  1.00  0.00     0.037 A 
BRANCH  46  60
ATOM     60  C   UNL A   1      40.221  33.849  38.865  1.00  0.00     0.064 A 
ATOM     61  C   UNL A   1      40.881  35.082  38.977  1.00  0.00     0.173 A 
ATOM     62  C   UNL A   1      39.513  33.383  39.984  1.00  0.00     0.173 A 
ATOM     63  F   UNL A   1      41.585  35.568  37.944  1.00  0.00    -0.203 F 
ATOM     64  C   UNL A   1      40.866  35.797  40.174  1.00  0.00     0.198 A 
ATOM     65  C   UNL A   1      39.472  34.115  41.167  1.00  0.00     0.198 A 
ATOM     66  F   UNL A   1      38.858  32.213  39.930  1.00  0.00    -0.203 F 
ATOM     67  F   UNL A   1      41.556  36.941  40.277  1.00  0.00    -0.200 F 
ATOM     68  C   UNL A   1      40.159  35.315  41.265  1.00  0.00     0.200 A 
ATOM     69  F   UNL A   1      38.776  33.655  42.215  1.00  0.00    -0.200 F 
ATOM     70  F   UNL A   1      40.146  36.005  42.415  1.00  0.00    -0.200 F 
ENDBRANCH  46  60
BRANCH  47  71
ATOM     71  C   UNL A   1      40.039  28.760  30.277  1.00  0.00     0.064 A 
ATOM     72  C   UNL A   1      40.642  29.297  29.132  1.00  0.00     0.173 A 
ATOM     73  C   UNL A   1      39.444  27.495  30.168  1.00  0.00     0.173 A 
ATOM     74  F   UNL A   1      41.200  30.516  29.178  1.00  0.00    -0.203 F 
ATOM     75  C   UNL A   1      40.645  28.599  27.926  1.00  0.00     0.198 A 
ATOM     76  C   UNL A   1      39.475  26.783  28.971  1.00  0.00     0.198 A 
ATOM     77  F   UNL A   1      38.851  26.937  31.235  1.00  0.00    -0.203 F 
ATOM     78  F   UNL A   1      41.197  29.149  26.837  1.00  0.00    -0.200 F 
ATOM     79  C   UNL A   1      40.072  27.338  27.850  1.00  0.00     0.200 A 
ATOM     80  F   UNL A   1      38.932  25.560  28.907  1.00  0.00    -0.200 F 
ATOM     81  F   UNL A   1      40.089  26.660  26.694  1.00  0.00    -0.200 F 
ENDBRANCH  47  71
BRANCH  59  82
ATOM     82  C   UNL A   1      44.534  29.069  35.598  1.00  0.00     0.064 A 
ATOM     83  C   UNL A   1      45.763  29.603  35.187  1.00  0.00     0.173 A 
ATOM     84  C   UNL A   1      44.546  27.860  36.308  1.00  0.00     0.173 A 
ATOM     85  F   UNL A   1      45.804  30.750  34.491  1.00  0.00    -0.203 F 
ATOM     86  C   UNL A   1      46.957  28.939  35.456  1.00  0.00     0.198 A 
ATOM     87  C   UNL A   1      45.743  27.212  36.599  1.00  0.00     0.198 A 
ATOM     88  F   UNL A   1      43.397  27.310  36.728  1.00  0.00    -0.203 F 
ATOM     89  F   UNL A   1      48.118  29.442  35.013  1.00  0.00    -0.200 F 
ATOM     90  C   UNL A   1      46.947  27.747  36.167  1.00  0.00     0.200 A 
ATOM     91  F   UNL A   1      45.732  26.068  37.297  1.00  0.00    -0.200 F 
ATOM     92  F   UNL A   1      48.097  27.111  36.428  1.00  0.00    -0.200 F 
ENDBRANCH  59  82
ENDBRANCH  33  34
ENDBRANCH  26  28
ENDBRANCH  25  26
ENDBRANCH  24  25
ENDBRANCH   1  24
TORSDOF 14
ENDMDL
MODEL 3
REMARK VINA RESULT:     -12.4      3.457      8.041
REMARK SMILES CN(C)S(=O)(=O)c1cccc(-c2cc(Cl)cc(C(=O)OCCOC(=O)c3ccc(-c4c5nc(c(-c6c(F)c(F)c(F)c(F)c6F)c6ccc([nH]6)c(-c6c(F)c(F)c(F)c(F)c6F)c6nc(c(-c7c(F)c(F)c(F)c(F)c7F)c7ccc4[nH]7)C=C6)C=C5)cc3)c2)c1
REMARK SMILES IDX 21 1 20 2 18 3 19 4 17 5 12 6 13 7 89 8 14 9 15 10 16 11
REMARK SMILES IDX 11 12 7 13 8 14 90 15 9 16 10 17 4 18 5 19 6 20 2 21 1 22
REMARK SMILES IDX 3 23 22 24 23 25 24 26 25 27 26 28 27 29 88 30 28 31 87 32
REMARK SMILES IDX 29 33 30 34 31 35 81 36 32 37 86 38 80 39 82 40 33 41 85 42
REMARK SMILES IDX 79 43 78 44 34 46 66 47 46 48 65 49 47 50 50 51 64 52 83 53
REMARK SMILES IDX 48 54 49 55 63 57 84 58 51 59 35 60 36 61 44 62 37 63 38 64
REMARK SMILES IDX 42 65 45 66 39 67 40 68 43 69 41 70 67 71 68 72 76 73 69 74
REMARK SMILES IDX 70 75 74 76 77 77 71 78 72 79 75 80 73 81 52 82 53 83 61 84
REMARK SMILES IDX 54 85 55 86 59 87 62 88 56 89 57 90 60 91 58 92
REMARK H PARENT 82 45 50 56
REMARK Flexibility Score: inf
ROOT
ATOM      1  C   UNL A   1      31.781  28.496  27.400  1.00  0.00     0.275 C 
ENDROOT
BRANCH   1   2
ATOM      2  O   UNL A   1      32.540  27.525  26.652  1.00  0.00    -0.458 OA
BRANCH   2   3
ATOM      3  C   UNL A   1      31.921  26.356  26.360  1.00  0.00     0.338 C 
ATOM      4  O   UNL A   1      30.907  25.916  26.876  1.00  0.00    -0.246 OA
BRANCH   3   5
ATOM      5  C   UNL A   1      32.591  25.700  25.208  1.00  0.00     0.062 A 
ATOM      6  C   UNL A   1      33.958  23.902  24.287  1.00  0.00    -0.016 A 
ATOM      7  C   UNL A   1      33.873  24.498  23.024  1.00  0.00     0.029 A 
ATOM      8  C   UNL A   1      33.358  24.552  25.385  1.00  0.00     0.024 A 
ATOM      9  C   UNL A   1      33.110  25.651  22.849  1.00  0.00     0.042 A 
ATOM     10  Cl  UNL A   1      32.985  26.370  21.291  1.00  0.00    -0.084 Cl
ATOM     11  C   UNL A   1      32.425  26.218  23.921  1.00  0.00     0.036 A 
BRANCH   6  12
ATOM     12  C   UNL A   1      34.536  22.570  24.486  1.00  0.00    -0.017 A 
ATOM     13  C   UNL A   1      34.153  20.167  24.579  1.00  0.00     0.083 A 
ATOM     14  C   UNL A   1      35.462  19.955  25.002  1.00  0.00     0.022 A 
ATOM     15  C   UNL A   1      33.703  21.456  24.300  1.00  0.00     0.030 A 
ATOM     16  C   UNL A   1      36.319  21.051  25.136  1.00  0.00     0.002 A 
ATOM     17  C   UNL A   1      35.859  22.351  24.884  1.00  0.00     0.009 A 
BRANCH  13  18
ATOM     18  S   UNL A   1      32.968  18.861  24.436  1.00  0.00     0.242 S 
ATOM     19  O   UNL A   1      32.358  18.963  23.125  1.00  0.00    -0.207 OA
ATOM     20  O   UNL A   1      32.166  18.911  25.639  1.00  0.00    -0.207 OA
BRANCH  18  21
ATOM     21  N   UNL A   1      33.871  17.409  24.448  1.00  0.00    -0.204 NA
ATOM     22  C   UNL A   1      33.344  16.450  25.452  1.00  0.00     0.124 C 
ATOM     23  C   UNL A   1      34.026  16.759  23.126  1.00  0.00     0.124 C 
ENDBRANCH  18  21
ENDBRANCH  13  18
ENDBRANCH   6  12
ENDBRANCH   3   5
ENDBRANCH   2   3
ENDBRANCH   1   2
BRANCH   1  24
ATOM     24  C   UNL A   1      31.766  29.847  26.682  1.00  0.00     0.275 C 
BRANCH  24  25
ATOM     25  O   UNL A   1      33.112  30.278  26.409  1.00  0.00    -0.458 OA
BRANCH  25  26
ATOM     26  C   UNL A   1      33.557  31.305  27.166  1.00  0.00     0.338 C 
ATOM     27  O   UNL A   1      32.948  32.301  27.515  1.00  0.00    -0.246 OA
BRANCH  26  28
ATOM     28  C   UNL A   1      34.912  31.005  27.650  1.00  0.00     0.060 A 
ATOM     29  C   UNL A   1      35.216  29.674  27.917  1.00  0.00     0.016 A 
ATOM     30  C   UNL A   1      35.806  32.010  28.001  1.00  0.00     0.016 A 
ATOM     31  C   UNL A   1      36.363  29.334  28.621  1.00  0.00     0.010 A 
ATOM     32  C   UNL A   1      37.008  31.662  28.634  1.00  0.00     0.010 A 
ATOM     33  C   UNL A   1      37.279  30.325  28.989  1.00  0.00    -0.014 A 
BRANCH  33  34
ATOM     34  C   UNL A   1      38.462  29.969  29.820  1.00  0.00     0.031 A 
ATOM     35  C   UNL A   1      39.528  29.067  29.255  1.00  0.00     0.074 A 
ATOM     36  C   UNL A   1      38.615  30.473  31.060  1.00  0.00     0.049 A 
ATOM     37  N   UNL A   1      40.539  28.493  29.856  1.00  0.00    -0.248 NA
ATOM     38  C   UNL A   1      39.432  28.761  27.819  1.00  0.00     0.031 C 
ATOM     39  C   UNL A   1      37.702  31.411  31.712  1.00  0.00     0.029 A 
ATOM     40  N   UNL A   1      39.603  30.269  31.994  1.00  0.00    -0.354 N 
ATOM     41  C   UNL A   1      41.156  27.706  28.890  1.00  0.00     0.074 A 
ATOM     42  C   UNL A   1      40.404  27.875  27.666  1.00  0.00     0.031 C 
ATOM     43  C   UNL A   1      38.185  31.725  32.923  1.00  0.00     0.029 A 
ATOM     44  C   UNL A   1      39.393  30.945  33.170  1.00  0.00     0.049 A 
ATOM     45  H   UNL A   1      40.386  29.695  31.834  1.00  0.00     0.167 HD
ATOM     46  C   UNL A   1      42.250  26.917  29.017  1.00  0.00     0.037 A 
ATOM     47  C   UNL A   1      40.070  30.910  34.334  1.00  0.00     0.037 A 
ATOM     48  C   UNL A   1      43.031  26.802  30.221  1.00  0.00     0.049 A 
ATOM     49  C   UNL A   1      41.267  30.011  34.461  1.00  0.00     0.074 A 
ATOM     50  C   UNL A   1      44.162  26.037  30.450  1.00  0.00     0.029 A 
ATOM     51  N   UNL A   1      42.771  27.490  31.399  1.00  0.00    -0.354 N 
ATOM     52  N   UNL A   1      41.804  29.218  33.567  1.00  0.00    -0.248 NA
ATOM     53  C   UNL A   1      41.943  29.990  35.765  1.00  0.00     0.031 C 
ATOM     54  C   UNL A   1      44.563  26.233  31.776  1.00  0.00     0.029 A 
ATOM     55  C   UNL A   1      43.714  27.160  32.359  1.00  0.00     0.049 A 
ATOM     56  H   UNL A   1      42.026  28.120  31.532  1.00  0.00     0.167 HD
ATOM     57  C   UNL A   1      42.889  28.618  34.190  1.00  0.00     0.074 A 
ATOM     58  C   UNL A   1      42.944  29.151  35.535  1.00  0.00     0.031 C 
ATOM     59  C   UNL A   1      43.760  27.705  33.692  1.00  0.00     0.037 A 
BRANCH  46  60
ATOM     60  C   UNL A   1      42.636  26.077  27.832  1.00  0.00     0.064 A 
ATOM     61  C   UNL A   1      42.036  24.838  27.565  1.00  0.00     0.173 A 
ATOM     62  C   UNL A   1      43.626  26.530  26.945  1.00  0.00     0.173 A 
ATOM     63  F   UNL A   1      41.096  24.350  28.388  1.00  0.00    -0.203 F 
ATOM     64  C   UNL A   1      42.440  24.065  26.478  1.00  0.00     0.198 A 
ATOM     65  C   UNL A   1      44.004  25.771  25.841  1.00  0.00     0.198 A 
ATOM     66  F   UNL A   1      44.227  27.711  27.148  1.00  0.00    -0.203 F 
ATOM     67  F   UNL A   1      41.898  22.856  26.279  1.00  0.00    -0.200 F 
ATOM     68  C   UNL A   1      43.420  24.534  25.615  1.00  0.00     0.200 A 
ATOM     69  F   UNL A   1      44.940  26.232  25.000  1.00  0.00    -0.200 F 
ATOM     70  F   UNL A   1      43.807  23.789  24.570  1.00  0.00    -0.200 F 
ENDBRANCH  46  60
BRANCH  47  71
ATOM     71  C   UNL A   1      39.601  31.731  35.481  1.00  0.00     0.064 A 
ATOM     72  C   UNL A   1      38.601  31.263  36.345  1.00  0.00     0.173 A 
ATOM     73  C   UNL A   1      40.159  32.990  35.751  1.00  0.00     0.173 A 
ATOM     74  F   UNL A   1      38.016  30.078  36.113  1.00  0.00    -0.203 F 
ATOM     75  C   UNL A   1      38.175  32.024  37.431  1.00  0.00     0.198 A 
ATOM     76  C   UNL A   1      39.755  33.736  36.855  1.00  0.00     0.198 A 
ATOM     77  F   UNL A   1      41.117  33.484  34.953  1.00  0.00    -0.203 F 
ATOM     78  F   UNL A   1      37.194  31.570  38.221  1.00  0.00    -0.200 F 
ATOM     79  C   UNL A   1      38.760  33.255  37.692  1.00  0.00     0.200 A 
ATOM     80  F   UNL A   1      40.333  34.917  37.111  1.00  0.00    -0.200 F 
ATOM     81  F   UNL A   1      38.361  33.980  38.746  1.00  0.00    -0.200 F 
ENDBRANCH  47  71
BRANCH  59  82
ATOM     82  C   UNL A   1      44.873  27.257  34.594  1.00  0.00     0.064 A 
ATOM     83  C   UNL A   1      46.089  27.952  34.666  1.00  0.00     0.173 A 
ATOM     84  C   UNL A   1      44.708  26.134  35.417  1.00  0.00     0.173 A 
ATOM     85  F   UNL A   1      46.302  29.023  33.887  1.00  0.00    -0.203 F 
ATOM     86  C   UNL A   1      47.108  27.524  35.513  1.00  0.00     0.198 A 
ATOM     87  C   UNL A   1      45.717  25.724  36.283  1.00  0.00     0.198 A 
ATOM     88  F   UNL A   1      43.561  25.438  35.390  1.00  0.00    -0.203 F 
ATOM     89  F   UNL A   1      48.280  28.174  35.533  1.00  0.00    -0.200 F 
ATOM     90  C   UNL A   1      46.919  26.414  36.325  1.00  0.00     0.200 A 
ATOM     91  F   UNL A   1      45.529  24.660  37.076  1.00  0.00    -0.200 F 
ATOM     92  F   UNL A   1      47.900  26.006  37.142  1.00  0.00    -0.200 F 
ENDBRANCH  59  82
ENDBRANCH  33  34
ENDBRANCH  26  28
ENDBRANCH  25  26
ENDBRANCH  24  25
ENDBRANCH   1  24
TORSDOF 14
ENDMDL
