MODEL 1
REMARK VINA RESULT:     -12.9      0.000      0.000
REMARK SMILES CNC(=O)c1cccc(-c2ccc(C(=O)OCCOC(=O)c3ccc(-c4c5nc(c(-c6c(F)c(F)c(F)c(F)c6F)c6ccc([nH]6)c(-c6c(F)c(F)c(F)c(F)c6F)c6nc(c(-c7c(F)c(F)c(F)c(F)c7F)c7ccc4[nH]7)C=C6)C=C5)cc3)cc2O)c1
REMARK SMILES IDX 17 1 16 2 14 3 15 4 13 5 10 6 11 7 86 8 12 9 85 10 9 11 5 12
REMARK SMILES IDX 6 13 88 14 7 15 8 16 3 17 1 18 2 19 4 21 87 22 18 24 19 25
REMARK SMILES IDX 20 26 21 27 22 28 23 29 84 30 24 31 83 32 25 33 26 34 27 35
REMARK SMILES IDX 77 36 28 37 82 38 76 39 78 40 29 41 81 42 75 43 74 44 30 46
REMARK SMILES IDX 62 47 42 48 61 49 43 50 46 51 60 52 79 53 44 54 45 55 59 57
REMARK SMILES IDX 80 58 47 59 31 60 32 61 40 62 33 63 34 64 38 65 41 66 35 67
REMARK SMILES IDX 36 68 39 69 37 70 63 71 64 72 72 73 65 74 66 75 70 76 73 77
REMARK SMILES IDX 67 78 68 79 71 80 69 81 48 82 49 83 57 84 50 85 51 86 55 87
REMARK SMILES IDX 58 88 52 89 53 90 56 91 54 92
REMARK H PARENT 2 20 87 23 78 45 46 56
REMARK Flexibility Score: inf
ROOT
ATOM      1  C   UNL A   1      31.235  29.235  24.276  1.00  0.00     0.275 C 
ENDROOT
BRANCH   1   2
ATOM      2  O   UNL A   1      30.649  27.920  24.193  1.00  0.00    -0.458 OA
BRANCH   2   3
ATOM      3  C   UNL A   1      30.843  27.268  23.021  1.00  0.00     0.338 C 
ATOM      4  O   UNL A   1      30.650  27.710  21.900  1.00  0.00    -0.246 OA
BRANCH   3   5
ATOM      5  C   UNL A   1      31.448  25.936  23.254  1.00  0.00     0.063 A 
ATOM      6  C   UNL A   1      32.628  23.441  23.840  1.00  0.00     0.024 A 
ATOM      7  C   UNL A   1      31.998  24.190  24.844  1.00  0.00     0.013 A 
ATOM      8  C   UNL A   1      32.637  23.966  22.534  1.00  0.00     0.124 A 
ATOM      9  C   UNL A   1      31.438  25.435  24.561  1.00  0.00     0.016 A 
ATOM     10  C   UNL A   1      32.045  25.195  22.235  1.00  0.00     0.062 A 
BRANCH   6  11
ATOM     11  C   UNL A   1      33.328  22.211  24.230  1.00  0.00    -0.014 A 
ATOM     12  C   UNL A   1      33.275  19.805  24.587  1.00  0.00     0.040 A 
ATOM     13  C   UNL A   1      34.660  19.795  24.779  1.00  0.00     0.014 A 
ATOM     14  C   UNL A   1      32.611  21.011  24.348  1.00  0.00     0.022 A 
ATOM     15  C   UNL A   1      35.382  20.984  24.685  1.00  0.00     0.001 A 
ATOM     16  C   UNL A   1      34.720  22.183  24.404  1.00  0.00     0.009 A 
BRANCH  12  17
ATOM     17  C   UNL A   1      32.532  18.531  24.694  1.00  0.00     0.251 C 
ATOM     18  C   UNL A   1      32.528  18.086  22.188  1.00  0.00     0.143 C 
ATOM     19  N   UNL A   1      32.150  17.852  23.564  1.00  0.00    -0.355 N 
ATOM     20  H   UNL A   1      31.533  17.100  23.710  1.00  0.00     0.163 HD
ATOM     21  O   UNL A   1      32.265  18.081  25.804  1.00  0.00    -0.269 OA
ENDBRANCH  12  17
ENDBRANCH   6  11
BRANCH   8  22
ATOM     22  O   UNL A   1      33.235  23.321  21.485  1.00  0.00    -0.507 OA
ATOM     23  H   UNL A   1      32.977  23.517  20.605  1.00  0.00     0.293 HD
ENDBRANCH   8  22
ENDBRANCH   3   5
ENDBRANCH   2   3
ENDBRANCH   1   2
BRANCH   1  24
ATOM     24  C   UNL A   1      31.553  29.584  25.730  1.00  0.00     0.275 C 
BRANCH  24  25
ATOM     25  O   UNL A   1      32.883  30.129  25.808  1.00  0.00    -0.458 OA
BRANCH  25  26
ATOM     26  C   UNL A   1      33.097  31.030  26.794  1.00  0.00     0.338 C 
ATOM     27  O   UNL A   1      32.371  31.948  27.131  1.00  0.00    -0.246 OA
BRANCH  26  28
ATOM     28  C   UNL A   1      34.399  30.756  27.437  1.00  0.00     0.060 A 
ATOM     29  C   UNL A   1      34.745  29.455  27.799  1.00  0.00     0.016 A 
ATOM     30  C   UNL A   1      35.245  31.814  27.765  1.00  0.00     0.016 A 
ATOM     31  C   UNL A   1      35.899  29.213  28.546  1.00  0.00     0.010 A 
ATOM     32  C   UNL A   1      36.446  31.560  28.436  1.00  0.00     0.010 A 
ATOM     33  C   UNL A   1      36.776  30.261  28.865  1.00  0.00    -0.014 A 
BRANCH  33  34
ATOM     34  C   UNL A   1      38.009  30.012  29.671  1.00  0.00     0.031 A 
ATOM     35  C   UNL A   1      39.115  29.151  29.115  1.00  0.00     0.074 A 
ATOM     36  C   UNL A   1      38.151  30.544  30.901  1.00  0.00     0.049 A 
ATOM     37  N   UNL A   1      40.163  28.651  29.723  1.00  0.00    -0.248 NA
ATOM     38  C   UNL A   1      39.024  28.790  27.692  1.00  0.00     0.031 C 
ATOM     39  C   UNL A   1      37.186  31.422  31.565  1.00  0.00     0.029 A 
ATOM     40  N   UNL A   1      39.171  30.425  31.816  1.00  0.00    -0.354 N 
ATOM     41  C   UNL A   1      40.811  27.862  28.779  1.00  0.00     0.074 A 
ATOM     42  C   UNL A   1      40.048  27.960  27.554  1.00  0.00     0.031 C 
ATOM     43  C   UNL A   1      37.672  31.789  32.760  1.00  0.00     0.029 A 
ATOM     44  C   UNL A   1      38.942  31.107  32.988  1.00  0.00     0.049 A 
ATOM     45  H   UNL A   1      39.986  29.900  31.649  1.00  0.00     0.167 HD
ATOM     46  C   UNL A   1      41.935  27.122  28.925  1.00  0.00     0.037 A 
ATOM     47  C   UNL A   1      39.648  31.149  34.135  1.00  0.00     0.037 A 
ATOM     48  C   UNL A   1      42.743  27.085  30.116  1.00  0.00     0.049 A 
ATOM     49  C   UNL A   1      40.902  30.331  34.265  1.00  0.00     0.074 A 
ATOM     50  C   UNL A   1      43.921  26.392  30.338  1.00  0.00     0.029 A 
ATOM     51  N   UNL A   1      42.470  27.789  31.278  1.00  0.00    -0.354 N 
ATOM     52  N   UNL A   1      41.472  29.546  33.385  1.00  0.00    -0.248 NA
ATOM     53  C   UNL A   1      41.600  30.387  35.559  1.00  0.00     0.031 C 
ATOM     54  C   UNL A   1      44.349  26.657  31.644  1.00  0.00     0.029 A 
ATOM     55  C   UNL A   1      43.453  27.541  32.222  1.00  0.00     0.049 A 
ATOM     56  H   UNL A   1      41.692  28.378  31.412  1.00  0.00     0.167 HD
ATOM     57  C   UNL A   1      42.588  29.013  34.015  1.00  0.00     0.074 A 
ATOM     58  C   UNL A   1      42.634  29.587  35.343  1.00  0.00     0.031 C 
ATOM     59  C   UNL A   1      43.486  28.118  33.540  1.00  0.00     0.037 A 
BRANCH  46  60
ATOM     60  C   UNL A   1      42.357  26.258  27.774  1.00  0.00     0.064 A 
ATOM     61  C   UNL A   1      41.771  25.010  27.528  1.00  0.00     0.173 A 
ATOM     62  C   UNL A   1      43.320  26.725  26.864  1.00  0.00     0.173 A 
ATOM     63  F   UNL A   1      40.856  24.515  28.375  1.00  0.00    -0.203 F 
ATOM     64  C   UNL A   1      42.142  24.253  26.418  1.00  0.00     0.198 A 
ATOM     65  C   UNL A   1      43.672  25.976  25.745  1.00  0.00     0.198 A 
ATOM     66  F   UNL A   1      43.905  27.918  27.052  1.00  0.00    -0.203 F 
ATOM     67  F   UNL A   1      41.590  23.049  26.216  1.00  0.00    -0.200 F 
ATOM     68  C   UNL A   1      43.085  24.740  25.524  1.00  0.00     0.200 A 
ATOM     69  F   UNL A   1      44.574  26.454  24.876  1.00  0.00    -0.200 F 
ATOM     70  F   UNL A   1      43.430  24.016  24.451  1.00  0.00    -0.200 F 
ENDBRANCH  46  60
BRANCH  47  71
ATOM     71  C   UNL A   1      39.154  31.962  35.276  1.00  0.00     0.064 A 
ATOM     72  C   UNL A   1      38.406  31.379  36.308  1.00  0.00     0.173 A 
ATOM     73  C   UNL A   1      39.420  33.337  35.358  1.00  0.00     0.173 A 
ATOM     74  F   UNL A   1      38.101  30.074  36.258  1.00  0.00    -0.203 F 
ATOM     75  C   UNL A   1      37.936  32.142  37.375  1.00  0.00     0.198 A 
ATOM     76  C   UNL A   1      38.974  34.092  36.440  1.00  0.00     0.198 A 
ATOM     77  F   UNL A   1      40.128  33.942  34.394  1.00  0.00    -0.203 F 
ATOM     78  F   UNL A   1      37.189  31.569  38.328  1.00  0.00    -0.200 F 
ATOM     79  C   UNL A   1      38.228  33.496  37.444  1.00  0.00     0.200 A 
ATOM     80  F   UNL A   1      39.270  35.398  36.509  1.00  0.00    -0.200 F 
ATOM     81  F   UNL A   1      37.783  34.227  38.475  1.00  0.00    -0.200 F 
ENDBRANCH  47  71
BRANCH  59  82
ATOM     82  C   UNL A   1      44.599  27.713  34.457  1.00  0.00     0.064 A 
ATOM     83  C   UNL A   1      44.483  26.594  35.294  1.00  0.00     0.173 A 
ATOM     84  C   UNL A   1      45.802  28.431  34.479  1.00  0.00     0.173 A 
ATOM     85  F   UNL A   1      43.343  25.886  35.319  1.00  0.00    -0.203 F 
ATOM     86  C   UNL A   1      45.526  26.220  36.136  1.00  0.00     0.198 A 
ATOM     87  C   UNL A   1      46.852  28.042  35.307  1.00  0.00     0.198 A 
ATOM     88  F   UNL A   1      45.962  29.506  33.693  1.00  0.00    -0.203 F 
ATOM     89  F   UNL A   1      45.379  25.171  36.957  1.00  0.00    -0.200 F 
ATOM     90  C   UNL A   1      46.711  26.941  36.138  1.00  0.00     0.200 A 
ATOM     91  F   UNL A   1      47.999  28.736  35.304  1.00  0.00    -0.200 F 
ATOM     92  F   UNL A   1      47.714  26.579  36.949  1.00  0.00    -0.200 F 
ENDBRANCH  59  82
ENDBRANCH  33  34
ENDBRANCH  26  28
ENDBRANCH  25  26
ENDBRANCH  24  25
ENDBRANCH   1  24
TORSDOF 14
ENDMDL
MODEL 2
REMARK VINA RESULT:     -12.9      3.353      8.515
REMARK SMILES CNC(=O)c1cccc(-c2ccc(C(=O)OCCOC(=O)c3ccc(-c4c5nc(c(-c6c(F)c(F)c(F)c(F)c6F)c6ccc([nH]6)c(-c6c(F)c(F)c(F)c(F)c6F)c6nc(c(-c7c(F)c(F)c(F)c(F)c7F)c7ccc4[nH]7)C=C6)C=C5)cc3)cc2O)c1
REMARK SMILES IDX 17 1 16 2 14 3 15 4 13 5 10 6 11 7 86 8 12 9 85 10 9 11 5 12
REMARK SMILES IDX 6 13 88 14 7 15 8 16 3 17 1 18 2 19 4 21 87 22 18 24 19 25
REMARK SMILES IDX 20 26 21 27 22 28 23 29 84 30 24 31 83 32 25 33 26 34 27 35
REMARK SMILES IDX 77 36 28 37 82 38 76 39 78 40 29 41 81 42 75 43 74 44 30 46
REMARK SMILES IDX 62 47 42 48 61 49 43 50 46 51 60 52 79 53 44 54 45 55 59 57
REMARK SMILES IDX 80 58 47 59 31 60 32 61 40 62 33 63 34 64 38 65 41 66 35 67
REMARK SMILES IDX 36 68 39 69 37 70 63 71 64 72 72 73 65 74 66 75 70 76 73 77
REMARK SMILES IDX 67 78 68 79 71 80 69 81 48 82 49 83 57 84 50 85 51 86 55 87
REMARK SMILES IDX 58 88 52 89 53 90 56 91 54 92
REMARK H PARENT 2 20 87 23 78 45 46 56
REMARK Flexibility Score: inf
ROOT
ATOM      1  C   UNL A   1      43.403  19.534  25.645  1.00  0.00     0.275 C 
ENDROOT
BRANCH   1   2
ATOM      2  O   UNL A   1      42.000  19.732  25.377  1.00  0.00    -0.458 OA
BRANCH   2   3
ATOM      3  C   UNL A   1      41.223  19.953  26.465  1.00  0.00     0.338 C 
ATOM      4  O   UNL A   1      41.564  19.868  27.634  1.00  0.00    -0.246 OA
BRANCH   3   5
ATOM      5  C   UNL A   1      39.883  20.441  26.064  1.00  0.00     0.063 A 
ATOM      6  C   UNL A   1      37.333  21.271  25.188  1.00  0.00     0.024 A 
ATOM      7  C   UNL A   1      37.773  19.957  24.972  1.00  0.00     0.013 A 
ATOM      8  C   UNL A   1      38.195  22.152  25.867  1.00  0.00     0.124 A 
ATOM      9  C   UNL A   1      39.043  19.554  25.381  1.00  0.00     0.016 A 
ATOM     10  C   UNL A   1      39.454  21.744  26.314  1.00  0.00     0.062 A 
BRANCH   6  11
ATOM     11  C   UNL A   1      36.049  21.675  24.602  1.00  0.00    -0.014 A 
ATOM     12  C   UNL A   1      33.619  21.702  24.720  1.00  0.00     0.040 A 
ATOM     13  C   UNL A   1      33.568  22.585  23.638  1.00  0.00     0.014 A 
ATOM     14  C   UNL A   1      34.850  21.225  25.177  1.00  0.00     0.022 A 
ATOM     15  C   UNL A   1      34.751  23.024  23.045  1.00  0.00     0.001 A 
ATOM     16  C   UNL A   1      35.983  22.578  23.529  1.00  0.00     0.009 A 
BRANCH  12  17
ATOM     17  C   UNL A   1      32.350  21.249  25.331  1.00  0.00     0.251 C 
ATOM     18  C   UNL A   1      32.138  23.262  26.875  1.00  0.00     0.143 C 
ATOM     19  N   UNL A   1      31.783  21.957  26.361  1.00  0.00    -0.355 N 
ATOM     20  H   UNL A   1      31.029  21.516  26.813  1.00  0.00     0.163 HD
ATOM     21  O   UNL A   1      31.804  20.237  24.903  1.00  0.00    -0.269 OA
ENDBRANCH  12  17
ENDBRANCH   6  11
BRANCH   8  22
ATOM     22  O   UNL A   1      37.867  23.457  26.118  1.00  0.00    -0.507 OA
ATOM     23  H   UNL A   1      37.015  23.777  25.895  1.00  0.00     0.293 HD
ENDBRANCH   8  22
ENDBRANCH   3   5
ENDBRANCH   2   3
ENDBRANCH   1   2
BRANCH   1  24
ATOM     24  C   UNL A   1      44.200  20.776  25.246  1.00  0.00     0.275 C 
BRANCH  24  25
ATOM     25  O   UNL A   1      43.754  21.898  26.029  1.00  0.00    -0.458 OA
BRANCH  25  26
ATOM     26  C   UNL A   1      43.368  22.991  25.332  1.00  0.00     0.338 C 
ATOM     27  O   UNL A   1      43.403  23.152  24.125  1.00  0.00    -0.246 OA
BRANCH  26  28
ATOM     28  C   UNL A   1      42.884  24.027  26.268  1.00  0.00     0.060 A 
ATOM     29  C   UNL A   1      43.232  25.363  26.081  1.00  0.00     0.016 A 
ATOM     30  C   UNL A   1      42.153  23.654  27.394  1.00  0.00     0.016 A 
ATOM     31  C   UNL A   1      42.911  26.319  27.046  1.00  0.00     0.010 A 
ATOM     32  C   UNL A   1      41.754  24.627  28.318  1.00  0.00     0.010 A 
ATOM     33  C   UNL A   1      42.154  25.968  28.174  1.00  0.00    -0.014 A 
BRANCH  33  34
ATOM     34  C   UNL A   1      41.813  26.983  29.215  1.00  0.00     0.031 A 
ATOM     35  C   UNL A   1      42.656  27.103  30.460  1.00  0.00     0.074 A 
ATOM     36  C   UNL A   1      40.752  27.800  29.065  1.00  0.00     0.049 A 
ATOM     37  N   UNL A   1      42.419  27.768  31.563  1.00  0.00    -0.248 NA
ATOM     38  C   UNL A   1      43.929  26.364  30.472  1.00  0.00     0.031 C 
ATOM     39  C   UNL A   1      39.858  27.829  27.907  1.00  0.00     0.029 A 
ATOM     40  N   UNL A   1      40.243  28.771  29.897  1.00  0.00    -0.354 N 
ATOM     41  C   UNL A   1      43.469  27.471  32.422  1.00  0.00     0.074 A 
ATOM     42  C   UNL A   1      44.356  26.577  31.709  1.00  0.00     0.031 C 
ATOM     43  C   UNL A   1      38.937  28.788  28.083  1.00  0.00     0.029 A 
ATOM     44  C   UNL A   1      39.118  29.386  29.401  1.00  0.00     0.049 A 
ATOM     45  H   UNL A   1      40.647  29.003  30.764  1.00  0.00     0.167 HD
ATOM     46  C   UNL A   1      43.673  27.900  33.690  1.00  0.00     0.037 A 
ATOM     47  C   UNL A   1      38.295  30.297  29.958  1.00  0.00     0.037 A 
ATOM     48  C   UNL A   1      42.839  28.853  34.376  1.00  0.00     0.049 A 
ATOM     49  C   UNL A   1      38.552  30.771  31.361  1.00  0.00     0.074 A 
ATOM     50  C   UNL A   1      42.992  29.375  35.649  1.00  0.00     0.029 A 
ATOM     51  N   UNL A   1      41.708  29.445  33.836  1.00  0.00    -0.354 N 
ATOM     52  N   UNL A   1      39.517  30.438  32.182  1.00  0.00    -0.248 NA
ATOM     53  C   UNL A   1      37.591  31.731  31.924  1.00  0.00     0.031 C 
ATOM     54  C   UNL A   1      41.941  30.266  35.890  1.00  0.00     0.029 A 
ATOM     55  C   UNL A   1      41.151  30.321  34.753  1.00  0.00     0.049 A 
ATOM     56  H   UNL A   1      41.354  29.269  32.934  1.00  0.00     0.167 HD
ATOM     57  C   UNL A   1      39.279  31.141  33.355  1.00  0.00     0.074 A 
ATOM     58  C   UNL A   1      38.096  31.943  33.131  1.00  0.00     0.031 C 
ATOM     59  C   UNL A   1      39.973  31.113  34.518  1.00  0.00     0.037 A 
BRANCH  46  60
ATOM     60  C   UNL A   1      44.833  27.325  34.446  1.00  0.00     0.064 A 
ATOM     61  C   UNL A   1      46.090  27.944  34.459  1.00  0.00     0.173 A 
ATOM     62  C   UNL A   1      44.658  26.170  35.225  1.00  0.00     0.173 A 
ATOM     63  F   UNL A   1      46.310  29.042  33.722  1.00  0.00    -0.203 F 
ATOM     64  C   UNL A   1      47.136  27.418  35.216  1.00  0.00     0.198 A 
ATOM     65  C   UNL A   1      45.699  25.661  35.997  1.00  0.00     0.198 A 
ATOM     66  F   UNL A   1      43.471  25.545  35.251  1.00  0.00    -0.203 F 
ATOM     67  F   UNL A   1      48.339  28.009  35.193  1.00  0.00    -0.200 F 
ATOM     68  C   UNL A   1      46.938  26.284  35.990  1.00  0.00     0.200 A 
ATOM     69  F   UNL A   1      45.501  24.572  36.753  1.00  0.00    -0.200 F 
ATOM     70  F   UNL A   1      47.942  25.790  36.727  1.00  0.00    -0.200 F 
ENDBRANCH  46  60
BRANCH  47  71
ATOM     71  C   UNL A   1      37.115  30.786  29.200  1.00  0.00     0.064 A 
ATOM     72  C   UNL A   1      37.066  32.097  28.707  1.00  0.00     0.173 A 
ATOM     73  C   UNL A   1      36.012  29.954  28.955  1.00  0.00     0.173 A 
ATOM     74  F   UNL A   1      38.083  32.939  28.942  1.00  0.00    -0.203 F 
ATOM     75  C   UNL A   1      35.956  32.559  28.002  1.00  0.00     0.198 A 
ATOM     76  C   UNL A   1      34.916  30.409  28.226  1.00  0.00     0.198 A 
ATOM     77  F   UNL A   1      36.009  28.693  29.410  1.00  0.00    -0.203 F 
ATOM     78  F   UNL A   1      35.917  33.829  27.576  1.00  0.00    -0.200 F 
ATOM     79  C   UNL A   1      34.886  31.712  27.756  1.00  0.00     0.200 A 
ATOM     80  F   UNL A   1      33.891  29.582  27.978  1.00  0.00    -0.200 F 
ATOM     81  F   UNL A   1      33.823  32.155  27.070  1.00  0.00    -0.200 F 
ENDBRANCH  47  71
BRANCH  59  82
ATOM     82  C   UNL A   1      39.475  31.982  35.632  1.00  0.00     0.064 A 
ATOM     83  C   UNL A   1      38.532  31.512  36.557  1.00  0.00     0.173 A 
ATOM     84  C   UNL A   1      39.965  33.285  35.794  1.00  0.00     0.173 A 
ATOM     85  F   UNL A   1      38.022  30.276  36.432  1.00  0.00    -0.203 F 
ATOM     86  C   UNL A   1      38.083  32.323  37.594  1.00  0.00     0.198 A 
ATOM     87  C   UNL A   1      39.530  34.088  36.845  1.00  0.00     0.198 A 
ATOM     88  F   UNL A   1      40.871  33.778  34.936  1.00  0.00    -0.203 F 
ATOM     89  F   UNL A   1      37.152  31.868  38.444  1.00  0.00    -0.200 F 
ATOM     90  C   UNL A   1      38.585  33.608  37.740  1.00  0.00     0.200 A 
ATOM     91  F   UNL A   1      40.020  35.326  36.988  1.00  0.00    -0.200 F 
ATOM     92  F   UNL A   1      38.151  34.388  38.740  1.00  0.00    -0.200 F 
ENDBRANCH  59  82
ENDBRANCH  33  34
ENDBRANCH  26  28
ENDBRANCH  25  26
ENDBRANCH  24  25
ENDBRANCH   1  24
TORSDOF 14
ENDMDL
MODEL 3
REMARK VINA RESULT:     -12.8      3.277      8.236
REMARK SMILES CNC(=O)c1cccc(-c2ccc(C(=O)OCCOC(=O)c3ccc(-c4c5nc(c(-c6c(F)c(F)c(F)c(F)c6F)c6ccc([nH]6)c(-c6c(F)c(F)c(F)c(F)c6F)c6nc(c(-c7c(F)c(F)c(F)c(F)c7F)c7ccc4[nH]7)C=C6)C=C5)cc3)cc2O)c1
REMARK SMILES IDX 17 1 16 2 14 3 15 4 13 5 10 6 11 7 86 8 12 9 85 10 9 11 5 12
REMARK SMILES IDX 6 13 88 14 7 15 8 16 3 17 1 18 2 19 4 21 87 22 18 24 19 25
REMARK SMILES IDX 20 26 21 27 22 28 23 29 84 30 24 31 83 32 25 33 26 34 27 35
REMARK SMILES IDX 77 36 28 37 82 38 76 39 78 40 29 41 81 42 75 43 74 44 30 46
REMARK SMILES IDX 62 47 42 48 61 49 43 50 46 51 60 52 79 53 44 54 45 55 59 57
REMARK SMILES IDX 80 58 47 59 31 60 32 61 40 62 33 63 34 64 38 65 41 66 35 67
REMARK SMILES IDX 36 68 39 69 37 70 63 71 64 72 72 73 65 74 66 75 70 76 73 77
REMARK SMILES IDX 67 78 68 79 71 80 69 81 48 82 49 83 57 84 50 85 51 86 55 87
REMARK SMILES IDX 58 88 52 89 53 90 56 91 54 92
REMARK H PARENT 2 20 87 23 78 45 46 56
REMARK Flexibility Score: inf
ROOT
ATOM      1  C   UNL A   1      42.688  20.277  26.114  1.00  0.00     0.275 C 
ENDROOT
BRANCH   1   2
ATOM      2  O   UNL A   1      41.391  20.821  26.429  1.00  0.00    -0.458 OA
BRANCH   2   3
ATOM      3  C   UNL A   1      40.333  20.133  25.936  1.00  0.00     0.338 C 
ATOM      4  O   UNL A   1      40.270  18.929  25.746  1.00  0.00    -0.246 OA
BRANCH   3   5
ATOM      5  C   UNL A   1      39.167  21.027  25.746  1.00  0.00     0.063 A 
ATOM      6  C   UNL A   1      36.914  22.655  25.261  1.00  0.00     0.024 A 
ATOM      7  C   UNL A   1      36.951  21.328  24.810  1.00  0.00     0.013 A 
ATOM      8  C   UNL A   1      38.026  23.140  25.975  1.00  0.00     0.124 A 
ATOM      9  C   UNL A   1      38.074  20.532  25.026  1.00  0.00     0.016 A 
ATOM     10  C   UNL A   1      39.139  22.335  26.229  1.00  0.00     0.062 A 
BRANCH   6  11
ATOM     11  C   UNL A   1      35.767  23.486  24.873  1.00  0.00    -0.014 A 
ATOM     12  C   UNL A   1      33.962  23.950  23.309  1.00  0.00     0.040 A 
ATOM     13  C   UNL A   1      33.447  24.916  24.179  1.00  0.00     0.014 A 
ATOM     14  C   UNL A   1      35.133  23.264  23.641  1.00  0.00     0.022 A 
ATOM     15  C   UNL A   1      34.079  25.161  25.397  1.00  0.00     0.001 A 
ATOM     16  C   UNL A   1      35.227  24.444  25.745  1.00  0.00     0.009 A 
BRANCH  12  17
ATOM     17  C   UNL A   1      33.275  23.710  22.021  1.00  0.00     0.251 C 
ATOM     18  C   UNL A   1      32.154  21.557  22.787  1.00  0.00     0.143 C 
ATOM     19  N   UNL A   1      32.546  22.564  21.826  1.00  0.00    -0.355 N 
ATOM     20  H   UNL A   1      32.248  22.405  20.902  1.00  0.00     0.163 HD
ATOM     21  O   UNL A   1      33.356  24.550  21.131  1.00  0.00    -0.269 OA
ENDBRANCH  12  17
ENDBRANCH   6  11
BRANCH   8  22
ATOM     22  O   UNL A   1      38.095  24.422  26.449  1.00  0.00    -0.507 OA
ATOM     23  H   UNL A   1      38.159  25.140  25.850  1.00  0.00     0.293 HD
ENDBRANCH   8  22
ENDBRANCH   3   5
ENDBRANCH   2   3
ENDBRANCH   1   2
BRANCH   1  24
ATOM     24  C   UNL A   1      43.576  21.350  25.485  1.00  0.00     0.275 C 
BRANCH  24  25
ATOM     25  O   UNL A   1      42.778  22.507  25.177  1.00  0.00    -0.458 OA
BRANCH  25  26
ATOM     26  C   UNL A   1      43.452  23.672  25.034  1.00  0.00     0.338 C 
ATOM     27  O   UNL A   1      44.349  23.918  24.247  1.00  0.00    -0.246 OA
BRANCH  26  28
ATOM     28  C   UNL A   1      42.946  24.657  26.012  1.00  0.00     0.060 A 
ATOM     29  C   UNL A   1      43.348  25.990  25.941  1.00  0.00     0.016 A 
ATOM     30  C   UNL A   1      42.135  24.234  27.063  1.00  0.00     0.016 A 
ATOM     31  C   UNL A   1      43.000  26.888  26.951  1.00  0.00     0.010 A 
ATOM     32  C   UNL A   1      41.713  25.155  28.028  1.00  0.00     0.010 A 
ATOM     33  C   UNL A   1      42.164  26.488  28.004  1.00  0.00    -0.014 A 
BRANCH  33  34
ATOM     34  C   UNL A   1      41.793  27.440  29.094  1.00  0.00     0.031 A 
ATOM     35  C   UNL A   1      42.617  27.504  30.355  1.00  0.00     0.074 A 
ATOM     36  C   UNL A   1      40.722  28.249  28.972  1.00  0.00     0.049 A 
ATOM     37  N   UNL A   1      42.354  28.106  31.489  1.00  0.00    -0.248 NA
ATOM     38  C   UNL A   1      43.900  26.784  30.347  1.00  0.00     0.031 C 
ATOM     39  C   UNL A   1      39.844  28.327  27.804  1.00  0.00     0.029 A 
ATOM     40  N   UNL A   1      40.187  29.166  29.847  1.00  0.00    -0.354 N 
ATOM     41  C   UNL A   1      43.396  27.777  32.347  1.00  0.00     0.074 A 
ATOM     42  C   UNL A   1      44.306  26.936  31.600  1.00  0.00     0.031 C 
ATOM     43  C   UNL A   1      38.906  29.262  28.018  1.00  0.00     0.029 A 
ATOM     44  C   UNL A   1      39.060  29.791  29.368  1.00  0.00     0.049 A 
ATOM     45  H   UNL A   1      40.575  29.356  30.731  1.00  0.00     0.167 HD
ATOM     46  C   UNL A   1      43.575  28.141  33.639  1.00  0.00     0.037 A 
ATOM     47  C   UNL A   1      38.216  30.658  29.961  1.00  0.00     0.037 A 
ATOM     48  C   UNL A   1      42.718  29.043  34.362  1.00  0.00     0.049 A 
ATOM     49  C   UNL A   1      38.446  31.060  31.391  1.00  0.00     0.074 A 
ATOM     50  C   UNL A   1      42.845  29.498  35.664  1.00  0.00     0.029 A 
ATOM     51  N   UNL A   1      41.586  29.647  33.838  1.00  0.00    -0.354 N 
ATOM     52  N   UNL A   1      39.404  30.697  32.207  1.00  0.00    -0.248 NA
ATOM     53  C   UNL A   1      37.462  31.974  31.990  1.00  0.00     0.031 C 
ATOM     54  C   UNL A   1      41.777  30.359  35.936  1.00  0.00     0.029 A 
ATOM     55  C   UNL A   1      41.003  30.465  34.793  1.00  0.00     0.049 A 
ATOM     56  H   UNL A   1      41.247  29.515  32.923  1.00  0.00     0.167 HD
ATOM     57  C   UNL A   1      39.139  31.331  33.412  1.00  0.00     0.074 A 
ATOM     58  C   UNL A   1      37.947  32.128  33.214  1.00  0.00     0.031 C 
ATOM     59  C   UNL A   1      39.816  31.251  34.582  1.00  0.00     0.037 A 
BRANCH  46  60
ATOM     60  C   UNL A   1      44.734  27.542  34.380  1.00  0.00     0.064 A 
ATOM     61  C   UNL A   1      44.633  26.316  35.049  1.00  0.00     0.173 A 
ATOM     62  C   UNL A   1      45.984  28.181  34.357  1.00  0.00     0.173 A 
ATOM     63  F   UNL A   1      43.458  25.673  35.109  1.00  0.00    -0.203 F 
ATOM     64  C   UNL A   1      45.742  25.755  35.682  1.00  0.00     0.198 A 
ATOM     65  C   UNL A   1      47.094  27.607  34.971  1.00  0.00     0.198 A 
ATOM     66  F   UNL A   1      46.133  29.354  33.723  1.00  0.00    -0.203 F 
ATOM     67  F   UNL A   1      45.618  24.595  36.341  1.00  0.00    -0.200 F 
ATOM     68  C   UNL A   1      46.971  26.396  35.635  1.00  0.00     0.200 A 
ATOM     69  F   UNL A   1      48.284  28.222  34.914  1.00  0.00    -0.200 F 
ATOM     70  F   UNL A   1      48.038  25.847  36.232  1.00  0.00    -0.200 F 
ENDBRANCH  46  60
BRANCH  47  71
ATOM     71  C   UNL A   1      37.039  31.171  29.213  1.00  0.00     0.064 A 
ATOM     72  C   UNL A   1      35.924  30.356  28.976  1.00  0.00     0.173 A 
ATOM     73  C   UNL A   1      37.006  32.484  28.720  1.00  0.00     0.173 A 
ATOM     74  F   UNL A   1      35.922  29.084  29.401  1.00  0.00    -0.203 F 
ATOM     75  C   UNL A   1      34.823  30.833  28.267  1.00  0.00     0.198 A 
ATOM     76  C   UNL A   1      35.893  32.968  28.037  1.00  0.00     0.198 A 
ATOM     77  F   UNL A   1      38.050  33.301  28.917  1.00  0.00    -0.203 F 
ATOM     78  F   UNL A   1      33.786  30.022  28.019  1.00  0.00    -0.200 F 
ATOM     79  C   UNL A   1      34.805  32.141  27.806  1.00  0.00     0.200 A 
ATOM     80  F   UNL A   1      35.875  34.237  27.606  1.00  0.00    -0.200 F 
ATOM     81  F   UNL A   1      33.742  32.602  27.133  1.00  0.00    -0.200 F 
ENDBRANCH  47  71
BRANCH  59  82
ATOM     82  C   UNL A   1      39.289  32.051  35.734  1.00  0.00     0.064 A 
ATOM     83  C   UNL A   1      38.394  31.496  36.659  1.00  0.00     0.173 A 
ATOM     84  C   UNL A   1      39.705  33.375  35.932  1.00  0.00     0.173 A 
ATOM     85  F   UNL A   1      37.956  30.237  36.500  1.00  0.00    -0.203 F 
ATOM     86  C   UNL A   1      37.918  32.244  37.731  1.00  0.00     0.198 A 
ATOM     87  C   UNL A   1      39.244  34.115  37.017  1.00  0.00     0.198 A 
ATOM     88  F   UNL A   1      40.564  33.949  35.076  1.00  0.00    -0.203 F 
ATOM     89  F   UNL A   1      37.032  31.706  38.581  1.00  0.00    -0.200 F 
ATOM     90  C   UNL A   1      38.346  33.551  37.912  1.00  0.00     0.200 A 
ATOM     91  F   UNL A   1      39.663  35.376  37.194  1.00  0.00    -0.200 F 
ATOM     92  F   UNL A   1      37.887  34.270  38.945  1.00  0.00    -0.200 F 
ENDBRANCH  59  82
ENDBRANCH  33  34
ENDBRANCH  26  28
ENDBRANCH  25  26
ENDBRANCH  24  25
ENDBRANCH   1  24
TORSDOF 14
ENDMDL
