MODEL 1
REMARK VINA RESULT:     -11.4      0.000      0.000
REMARK SMILES O=C(OCCOC(=O)[C@@H](F)[C@H](O)c1cccc(Cl)c1)c1ccc(-c2c3nc(c(-c4c(F)c(F)c(F)c(F)c4F)c4ccc([nH]4)c(-c4c(F)c(F)c(F)c(F)c4F)c4nc(c(-c5c(F)c(F)c(F)c(F)c5F)c5ccc2[nH]5)C=C4)C=C3)cc1
REMARK SMILES IDX 4 1 3 2 2 3 1 4 20 5 21 6 82 7 22 8 81 9 23 10 24 11 25 12
REMARK SMILES IDX 75 13 26 14 80 15 74 16 76 17 27 18 79 19 73 20 72 21 28 23
REMARK SMILES IDX 60 24 40 25 59 26 41 27 44 28 58 29 77 30 42 31 43 32 57 34
REMARK SMILES IDX 78 35 45 36 29 37 30 38 38 39 31 40 32 41 36 42 39 43 33 44
REMARK SMILES IDX 34 45 37 46 35 47 61 48 62 49 70 50 63 51 64 52 68 53 71 54
REMARK SMILES IDX 65 55 66 56 69 57 67 58 46 59 47 60 55 61 48 62 49 63 53 64
REMARK SMILES IDX 56 65 50 66 51 67 54 68 52 69 5 70 6 71 7 72 8 73 9 74 10 75
REMARK SMILES IDX 11 76 13 77 14 78 19 79 15 80 17 81 16 82 18 83 12 84
REMARK H PARENT 76 22 44 33 12 85
REMARK Flexibility Score: inf
ROOT
ATOM      1  C   UNL A   1      40.776  19.704  26.432  1.00  0.00     0.275 C 
ENDROOT
BRANCH   1   2
ATOM      2  O   UNL A   1      40.920  21.136  26.382  1.00  0.00    -0.458 OA
BRANCH   2   3
ATOM      3  C   UNL A   1      39.938  22.066  26.505  1.00  0.00     0.338 C 
ATOM      4  O   UNL A   1      38.805  21.816  26.103  1.00  0.00    -0.246 OA
BRANCH   3   5
ATOM      5  C   UNL A   1      40.269  23.483  26.851  1.00  0.00     0.060 A 
ATOM      6  C   UNL A   1      39.997  24.598  26.058  1.00  0.00     0.016 A 
ATOM      7  C   UNL A   1      40.888  23.694  28.093  1.00  0.00     0.016 A 
ATOM      8  C   UNL A   1      40.106  25.889  26.586  1.00  0.00     0.010 A 
ATOM      9  C   UNL A   1      41.041  24.986  28.612  1.00  0.00     0.010 A 
ATOM     10  C   UNL A   1      40.521  26.094  27.918  1.00  0.00    -0.014 A 
BRANCH  10  11
ATOM     11  C   UNL A   1      40.437  27.683  28.567  1.00  0.00     0.031 A 
ATOM     12  C   UNL A   1      42.239  27.926  28.237  1.00  0.00     0.074 A 
ATOM     13  C   UNL A   1      39.140  28.821  29.287  1.00  0.00     0.049 A 
ATOM     14  N   UNL A   1      42.873  29.077  28.093  1.00  0.00    -0.248 NA
ATOM     15  C   UNL A   1      43.203  26.802  28.204  1.00  0.00     0.031 C 
ATOM     16  C   UNL A   1      37.542  28.778  29.745  1.00  0.00     0.029 A 
ATOM     17  N   UNL A   1      39.135  30.316  29.693  1.00  0.00    -0.354 N 
ATOM     18  C   UNL A   1      44.210  28.865  28.179  1.00  0.00     0.074 A 
ATOM     19  C   UNL A   1      44.379  27.431  28.107  1.00  0.00     0.031 C 
ATOM     20  C   UNL A   1      36.980  29.980  29.948  1.00  0.00     0.029 A 
ATOM     21  C   UNL A   1      37.981  30.994  29.897  1.00  0.00     0.049 A 
ATOM     22  H   UNL A   1      39.993  30.786  29.804  1.00  0.00     0.167 HD
ATOM     23  C   UNL A   1      45.140  29.809  28.457  1.00  0.00     0.037 A 
ATOM     24  C   UNL A   1      37.892  32.332  30.020  1.00  0.00     0.037 A 
ATOM     25  C   UNL A   1      44.835  31.178  28.881  1.00  0.00     0.049 A 
ATOM     26  C   UNL A   1      39.189  33.143  29.979  1.00  0.00     0.074 A 
ATOM     27  C   UNL A   1      45.733  32.132  29.327  1.00  0.00     0.029 A 
ATOM     28  N   UNL A   1      43.562  31.776  28.988  1.00  0.00    -0.354 N 
ATOM     29  N   UNL A   1      40.433  32.738  29.784  1.00  0.00    -0.248 NA
ATOM     30  C   UNL A   1      39.065  34.582  30.208  1.00  0.00     0.031 C 
ATOM     31  C   UNL A   1      45.015  33.227  29.820  1.00  0.00     0.029 A 
ATOM     32  C   UNL A   1      43.656  33.035  29.590  1.00  0.00     0.049 A 
ATOM     33  H   UNL A   1      42.722  31.364  28.681  1.00  0.00     0.167 HD
ATOM     34  C   UNL A   1      41.245  33.865  29.876  1.00  0.00     0.074 A 
ATOM     35  C   UNL A   1      40.326  34.979  30.095  1.00  0.00     0.031 C 
ATOM     36  C   UNL A   1      42.602  34.019  29.839  1.00  0.00     0.037 A 
BRANCH  23  37
ATOM     37  C   UNL A   1      46.560  29.329  28.459  1.00  0.00     0.064 A 
ATOM     38  C   UNL A   1      47.327  29.356  27.284  1.00  0.00     0.173 A 
ATOM     39  C   UNL A   1      47.165  28.831  29.623  1.00  0.00     0.173 A 
ATOM     40  F   UNL A   1      46.791  29.804  26.139  1.00  0.00    -0.203 F 
ATOM     41  C   UNL A   1      48.639  28.889  27.271  1.00  0.00     0.198 A 
ATOM     42  C   UNL A   1      48.487  28.391  29.613  1.00  0.00     0.198 A 
ATOM     43  F   UNL A   1      46.477  28.769  30.773  1.00  0.00    -0.203 F 
ATOM     44  F   UNL A   1      49.335  28.885  26.126  1.00  0.00    -0.200 F 
ATOM     45  C   UNL A   1      49.219  28.412  28.436  1.00  0.00     0.200 A 
ATOM     46  F   UNL A   1      49.048  27.935  30.742  1.00  0.00    -0.200 F 
ATOM     47  F   UNL A   1      50.482  27.963  28.422  1.00  0.00    -0.200 F 
ENDBRANCH  23  37
BRANCH  24  48
ATOM     48  C   UNL A   1      36.554  32.958  30.136  1.00  0.00     0.064 A 
ATOM     49  C   UNL A   1      35.990  33.225  31.391  1.00  0.00     0.173 A 
ATOM     50  C   UNL A   1      35.848  33.385  29.003  1.00  0.00     0.173 A 
ATOM     51  F   UNL A   1      36.611  32.819  32.508  1.00  0.00    -0.203 F 
ATOM     52  C   UNL A   1      34.779  33.906  31.506  1.00  0.00     0.198 A 
ATOM     53  C   UNL A   1      34.661  34.101  29.119  1.00  0.00     0.198 A 
ATOM     54  F   UNL A   1      36.337  33.148  27.777  1.00  0.00    -0.203 F 
ATOM     55  F   UNL A   1      34.251  34.128  32.718  1.00  0.00    -0.200 F 
ATOM     56  C   UNL A   1      34.126  34.361  30.371  1.00  0.00     0.200 A 
ATOM     57  F   UNL A   1      34.048  34.558  28.019  1.00  0.00    -0.200 F 
ATOM     58  F   UNL A   1      32.982  35.050  30.484  1.00  0.00    -0.200 F 
ENDBRANCH  24  48
BRANCH  36  59
ATOM     59  C   UNL A   1      43.085  35.419  30.179  1.00  0.00     0.064 A 
ATOM     60  C   UNL A   1      43.359  35.794  31.509  1.00  0.00     0.173 A 
ATOM     61  C   UNL A   1      43.303  36.376  29.177  1.00  0.00     0.173 A 
ATOM     62  F   UNL A   1      43.172  34.919  32.508  1.00  0.00    -0.203 F 
ATOM     63  C   UNL A   1      43.778  37.085  31.824  1.00  0.00     0.198 A 
ATOM     64  C   UNL A   1      43.754  37.658  29.493  1.00  0.00     0.198 A 
ATOM     65  F   UNL A   1      43.081  36.070  27.890  1.00  0.00    -0.203 F 
ATOM     66  F   UNL A   1      43.969  37.434  33.104  1.00  0.00    -0.200 F 
ATOM     67  C   UNL A   1      43.978  38.015  30.816  1.00  0.00     0.200 A 
ATOM     68  F   UNL A   1      43.966  38.553  28.518  1.00  0.00    -0.200 F 
ATOM     69  F   UNL A   1      44.377  39.259  31.119  1.00  0.00    -0.200 F 
ENDBRANCH  36  59
ENDBRANCH  10  11
ENDBRANCH   3   5
ENDBRANCH   2   3
ENDBRANCH   1   2
BRANCH   1  70
ATOM     70  C   UNL A   1      42.108  18.961  26.325  1.00  0.00     0.274 C 
BRANCH  70  71
ATOM     71  O   UNL A   1      42.776  19.203  25.074  1.00  0.00    -0.460 OA
BRANCH  71  72
ATOM     72  C   UNL A   1      44.139  19.115  25.110  1.00  0.00     0.343 C 
ATOM     73  O   UNL A   1      44.751  18.078  25.346  1.00  0.00    -0.249 OA
BRANCH  72  74
ATOM     74  C   UNL A   1      44.840  20.422  24.775  1.00  0.00     0.308 C 
ATOM     75  F   UNL A   1      45.068  20.550  23.441  1.00  0.00    -0.232 F 
BRANCH  74  76
ATOM     76  C   UNL A   1      44.252  21.717  25.386  1.00  0.00     0.190 C 
BRANCH  76  77
ATOM     77  C   UNL A   1      45.155  22.942  25.632  1.00  0.00    -0.015 A 
ATOM     78  C   UNL A   1      46.268  23.585  24.273  1.00  0.00     0.006 A 
ATOM     79  C   UNL A   1      45.380  23.572  27.361  1.00  0.00     0.027 A 
ATOM     80  C   UNL A   1      47.580  24.840  24.626  1.00  0.00     0.002 A 
ATOM     81  C   UNL A   1      46.679  24.836  27.739  1.00  0.00     0.041 A 
ATOM     82  C   UNL A   1      47.816  25.471  26.349  1.00  0.00     0.020 A 
ATOM     83  Cl  UNL A   1      46.948  25.203  29.411  1.00  0.00    -0.084 Cl
ENDBRANCH  76  77
BRANCH  76  84
ATOM     84  O   UNL A   1      43.028  22.144  24.785  1.00  0.00    -0.385 OA
ATOM     85  H   UNL A   1      42.508  22.645  25.432  1.00  0.00     0.211 HD
ENDBRANCH  76  84
ENDBRANCH  74  76
ENDBRANCH  72  74
ENDBRANCH  71  72
ENDBRANCH  70  71
ENDBRANCH   1  70
TORSDOF 14
ENDMDL
MODEL 2
REMARK VINA RESULT:     -11.4      5.285     12.466
REMARK SMILES O=C(OCCOC(=O)[C@@H](F)[C@H](O)c1cccc(Cl)c1)c1ccc(-c2c3nc(c(-c4c(F)c(F)c(F)c(F)c4F)c4ccc([nH]4)c(-c4c(F)c(F)c(F)c(F)c4F)c4nc(c(-c5c(F)c(F)c(F)c(F)c5F)c5ccc2[nH]5)C=C4)C=C3)cc1
REMARK SMILES IDX 4 1 3 2 2 3 1 4 20 5 21 6 82 7 22 8 81 9 23 10 24 11 25 12
REMARK SMILES IDX 75 13 26 14 80 15 74 16 76 17 27 18 79 19 73 20 72 21 28 23
REMARK SMILES IDX 60 24 40 25 59 26 41 27 44 28 58 29 77 30 42 31 43 32 57 34
REMARK SMILES IDX 78 35 45 36 29 37 30 38 38 39 31 40 32 41 36 42 39 43 33 44
REMARK SMILES IDX 34 45 37 46 35 47 61 48 62 49 70 50 63 51 64 52 68 53 71 54
REMARK SMILES IDX 65 55 66 56 69 57 67 58 46 59 47 60 55 61 48 62 49 63 53 64
REMARK SMILES IDX 56 65 50 66 51 67 54 68 52 69 5 70 6 71 7 72 8 73 9 74 10 75
REMARK SMILES IDX 11 76 13 77 14 78 19 79 15 80 17 81 16 82 18 83 12 84
REMARK H PARENT 76 22 44 33 12 85
REMARK Flexibility Score: inf
ROOT
ATOM      1  C   UNL A   1      34.109  34.179  28.039  1.00  0.00     0.275 C 
ENDROOT
BRANCH   1   2
ATOM      2  O   UNL A   1      34.102  32.919  28.737  1.00  0.00    -0.458 OA
BRANCH   2   3
ATOM      3  C   UNL A   1      34.496  31.711  28.258  1.00  0.00     0.338 C 
ATOM      4  O   UNL A   1      33.720  31.038  27.585  1.00  0.00    -0.246 OA
BRANCH   3   5
ATOM      5  C   UNL A   1      35.741  31.058  28.768  1.00  0.00     0.060 A 
ATOM      6  C   UNL A   1      35.789  29.953  29.617  1.00  0.00     0.016 A 
ATOM      7  C   UNL A   1      36.957  31.604  28.329  1.00  0.00     0.016 A 
ATOM      8  C   UNL A   1      36.990  29.264  29.819  1.00  0.00     0.010 A 
ATOM      9  C   UNL A   1      38.170  30.944  28.563  1.00  0.00     0.010 A 
ATOM     10  C   UNL A   1      38.182  29.687  29.195  1.00  0.00    -0.014 A 
BRANCH  10  11
ATOM     11  C   UNL A   1      39.572  28.683  29.317  1.00  0.00     0.031 A 
ATOM     12  C   UNL A   1      40.006  29.463  30.936  1.00  0.00     0.074 A 
ATOM     13  C   UNL A   1      40.387  27.317  28.337  1.00  0.00     0.049 A 
ATOM     14  N   UNL A   1      40.758  28.946  31.891  1.00  0.00    -0.248 NA
ATOM     15  C   UNL A   1      39.618  30.850  31.283  1.00  0.00     0.031 C 
ATOM     16  C   UNL A   1      40.226  26.553  26.868  1.00  0.00     0.029 A 
ATOM     17  N   UNL A   1      41.563  26.349  28.623  1.00  0.00    -0.354 N 
ATOM     18  C   UNL A   1      41.102  29.922  32.768  1.00  0.00     0.074 A 
ATOM     19  C   UNL A   1      40.265  31.052  32.436  1.00  0.00     0.031 C 
ATOM     20  C   UNL A   1      40.911  25.404  26.752  1.00  0.00     0.029 A 
ATOM     21  C   UNL A   1      41.764  25.235  27.881  1.00  0.00     0.049 A 
ATOM     22  H   UNL A   1      42.179  26.549  29.365  1.00  0.00     0.167 HD
ATOM     23  C   UNL A   1      42.142  29.871  33.634  1.00  0.00     0.037 A 
ATOM     24  C   UNL A   1      42.609  24.240  28.210  1.00  0.00     0.037 A 
ATOM     25  C   UNL A   1      43.167  28.825  33.642  1.00  0.00     0.049 A 
ATOM     26  C   UNL A   1      43.441  24.399  29.485  1.00  0.00     0.074 A 
ATOM     27  C   UNL A   1      44.330  28.803  34.392  1.00  0.00     0.029 A 
ATOM     28  N   UNL A   1      43.214  27.667  32.838  1.00  0.00    -0.354 N 
ATOM     29  N   UNL A   1      43.433  25.369  30.384  1.00  0.00    -0.248 NA
ATOM     30  C   UNL A   1      44.415  23.344  29.763  1.00  0.00     0.031 C 
ATOM     31  C   UNL A   1      45.124  27.736  33.958  1.00  0.00     0.029 A 
ATOM     32  C   UNL A   1      44.430  26.996  33.006  1.00  0.00     0.049 A 
ATOM     33  H   UNL A   1      42.489  27.370  32.241  1.00  0.00     0.167 HD
ATOM     34  C   UNL A   1      44.403  25.052  31.330  1.00  0.00     0.074 A 
ATOM     35  C   UNL A   1      44.940  23.762  30.907  1.00  0.00     0.031 C 
ATOM     36  C   UNL A   1      44.873  25.731  32.419  1.00  0.00     0.037 A 
BRANCH  23  37
ATOM     37  C   UNL A   1      42.292  31.066  34.526  1.00  0.00     0.064 A 
ATOM     38  C   UNL A   1      43.095  32.151  34.141  1.00  0.00     0.173 A 
ATOM     39  C   UNL A   1      41.648  31.140  35.771  1.00  0.00     0.173 A 
ATOM     40  F   UNL A   1      43.748  32.124  32.970  1.00  0.00    -0.203 F 
ATOM     41  C   UNL A   1      43.260  33.255  34.974  1.00  0.00     0.198 A 
ATOM     42  C   UNL A   1      41.794  32.257  36.589  1.00  0.00     0.198 A 
ATOM     43  F   UNL A   1      40.878  30.127  36.198  1.00  0.00    -0.203 F 
ATOM     44  F   UNL A   1      44.067  34.257  34.601  1.00  0.00    -0.200 F 
ATOM     45  C   UNL A   1      42.605  33.310  36.194  1.00  0.00     0.200 A 
ATOM     46  F   UNL A   1      41.156  32.311  37.767  1.00  0.00    -0.200 F 
ATOM     47  F   UNL A   1      42.765  34.373  36.995  1.00  0.00    -0.200 F 
ENDBRANCH  23  37
BRANCH  24  48
ATOM     48  C   UNL A   1      42.659  23.026  27.363  1.00  0.00     0.064 A 
ATOM     49  C   UNL A   1      43.635  22.880  26.368  1.00  0.00     0.173 A 
ATOM     50  C   UNL A   1      41.791  21.947  27.583  1.00  0.00     0.173 A 
ATOM     51  F   UNL A   1      44.478  23.889  26.100  1.00  0.00    -0.203 F 
ATOM     52  C   UNL A   1      43.750  21.698  25.638  1.00  0.00     0.198 A 
ATOM     53  C   UNL A   1      41.933  20.752  26.883  1.00  0.00     0.198 A 
ATOM     54  F   UNL A   1      40.831  22.035  28.516  1.00  0.00    -0.203 F 
ATOM     55  F   UNL A   1      44.679  21.594  24.678  1.00  0.00    -0.200 F 
ATOM     56  C   UNL A   1      42.911  20.629  25.911  1.00  0.00     0.200 A 
ATOM     57  F   UNL A   1      41.134  19.715  27.169  1.00  0.00    -0.200 F 
ATOM     58  F   UNL A   1      43.048  19.479  25.237  1.00  0.00    -0.200 F 
ENDBRANCH  24  48
BRANCH  36  59
ATOM     59  C   UNL A   1      46.091  25.100  33.075  1.00  0.00     0.064 A 
ATOM     60  C   UNL A   1      45.955  24.101  34.058  1.00  0.00     0.173 A 
ATOM     61  C   UNL A   1      47.391  25.470  32.700  1.00  0.00     0.173 A 
ATOM     62  F   UNL A   1      44.736  23.705  34.452  1.00  0.00    -0.203 F 
ATOM     63  C   UNL A   1      47.070  23.540  34.676  1.00  0.00     0.198 A 
ATOM     64  C   UNL A   1      48.506  24.883  33.298  1.00  0.00     0.198 A 
ATOM     65  F   UNL A   1      47.583  26.400  31.753  1.00  0.00    -0.203 F 
ATOM     66  F   UNL A   1      46.911  22.638  35.655  1.00  0.00    -0.200 F 
ATOM     67  C   UNL A   1      48.346  23.929  34.294  1.00  0.00     0.200 A 
ATOM     68  F   UNL A   1      49.739  25.244  32.917  1.00  0.00    -0.200 F 
ATOM     69  F   UNL A   1      49.419  23.392  34.891  1.00  0.00    -0.200 F 
ENDBRANCH  36  59
ENDBRANCH  10  11
ENDBRANCH   3   5
ENDBRANCH   2   3
ENDBRANCH   1   2
BRANCH   1  70
ATOM     70  C   UNL A   1      33.318  35.271  28.759  1.00  0.00     0.274 C 
BRANCH  70  71
ATOM     71  O   UNL A   1      32.886  34.866  30.072  1.00  0.00    -0.460 OA
BRANCH  71  72
ATOM     72  C   UNL A   1      32.963  35.828  31.037  1.00  0.00     0.343 C 
ATOM     73  O   UNL A   1      32.187  36.776  31.122  1.00  0.00    -0.249 OA
BRANCH  72  74
ATOM     74  C   UNL A   1      34.077  35.590  32.044  1.00  0.00     0.308 C 
ATOM     75  F   UNL A   1      33.649  35.749  33.325  1.00  0.00    -0.232 F 
BRANCH  74  76
ATOM     76  C   UNL A   1      34.921  34.304  31.875  1.00  0.00     0.190 C 
BRANCH  76  77
ATOM     77  C   UNL A   1      36.097  34.011  32.827  1.00  0.00    -0.015 A 
ATOM     78  C   UNL A   1      35.786  33.703  34.646  1.00  0.00     0.006 A 
ATOM     79  C   UNL A   1      37.833  34.287  32.240  1.00  0.00     0.027 A 
ATOM     80  C   UNL A   1      37.180  33.663  35.861  1.00  0.00     0.002 A 
ATOM     81  C   UNL A   1      39.248  34.242  33.434  1.00  0.00     0.041 A 
ATOM     82  C   UNL A   1      38.916  33.942  35.285  1.00  0.00     0.020 A 
ATOM     83  Cl  UNL A   1      40.799  34.717  32.825  1.00  0.00    -0.084 Cl
ENDBRANCH  76  77
BRANCH  76  84
ATOM     84  O   UNL A   1      34.147  33.115  31.699  1.00  0.00    -0.385 OA
ATOM     85  H   UNL A   1      33.928  33.007  30.760  1.00  0.00     0.211 HD
ENDBRANCH  76  84
ENDBRANCH  74  76
ENDBRANCH  72  74
ENDBRANCH  71  72
ENDBRANCH  70  71
ENDBRANCH   1  70
TORSDOF 14
ENDMDL
MODEL 3
REMARK VINA RESULT:     -11.4      5.499     12.632
REMARK SMILES O=C(OCCOC(=O)[C@@H](F)[C@H](O)c1cccc(Cl)c1)c1ccc(-c2c3nc(c(-c4c(F)c(F)c(F)c(F)c4F)c4ccc([nH]4)c(-c4c(F)c(F)c(F)c(F)c4F)c4nc(c(-c5c(F)c(F)c(F)c(F)c5F)c5ccc2[nH]5)C=C4)C=C3)cc1
REMARK SMILES IDX 4 1 3 2 2 3 1 4 20 5 21 6 82 7 22 8 81 9 23 10 24 11 25 12
REMARK SMILES IDX 75 13 26 14 80 15 74 16 76 17 27 18 79 19 73 20 72 21 28 23
REMARK SMILES IDX 60 24 40 25 59 26 41 27 44 28 58 29 77 30 42 31 43 32 57 34
REMARK SMILES IDX 78 35 45 36 29 37 30 38 38 39 31 40 32 41 36 42 39 43 33 44
REMARK SMILES IDX 34 45 37 46 35 47 61 48 62 49 70 50 63 51 64 52 68 53 71 54
REMARK SMILES IDX 65 55 66 56 69 57 67 58 46 59 47 60 55 61 48 62 49 63 53 64
REMARK SMILES IDX 56 65 50 66 51 67 54 68 52 69 5 70 6 71 7 72 8 73 9 74 10 75
REMARK SMILES IDX 11 76 13 77 14 78 19 79 15 80 17 81 16 82 18 83 12 84
REMARK H PARENT 76 22 44 33 12 85
REMARK Flexibility Score: inf
ROOT
ATOM      1  C   UNL A   1      33.369  34.232  28.862  1.00  0.00     0.275 C 
ENDROOT
BRANCH   1   2
ATOM      2  O   UNL A   1      34.598  33.523  29.109  1.00  0.00    -0.458 OA
BRANCH   2   3
ATOM      3  C   UNL A   1      34.774  32.432  29.897  1.00  0.00     0.338 C 
ATOM      4  O   UNL A   1      34.253  32.389  31.008  1.00  0.00    -0.246 OA
BRANCH   3   5
ATOM      5  C   UNL A   1      35.818  31.412  29.566  1.00  0.00     0.060 A 
ATOM      6  C   UNL A   1      36.787  31.535  28.572  1.00  0.00     0.016 A 
ATOM      7  C   UNL A   1      35.819  30.245  30.346  1.00  0.00     0.016 A 
ATOM      8  C   UNL A   1      37.870  30.649  28.521  1.00  0.00     0.010 A 
ATOM      9  C   UNL A   1      36.877  29.330  30.273  1.00  0.00     0.010 A 
ATOM     10  C   UNL A   1      37.989  29.598  29.453  1.00  0.00    -0.014 A 
BRANCH  10  11
ATOM     11  C   UNL A   1      39.440  28.676  29.466  1.00  0.00     0.031 A 
ATOM     12  C   UNL A   1      39.944  29.472  31.056  1.00  0.00     0.074 A 
ATOM     13  C   UNL A   1      40.259  27.362  28.419  1.00  0.00     0.049 A 
ATOM     14  N   UNL A   1      40.791  28.994  31.951  1.00  0.00    -0.248 NA
ATOM     15  C   UNL A   1      39.503  30.832  31.443  1.00  0.00     0.031 C 
ATOM     16  C   UNL A   1      40.036  26.598  26.959  1.00  0.00     0.029 A 
ATOM     17  N   UNL A   1      41.505  26.463  28.612  1.00  0.00    -0.354 N 
ATOM     18  C   UNL A   1      41.141  29.985  32.809  1.00  0.00     0.074 A 
ATOM     19  C   UNL A   1      40.219  31.066  32.548  1.00  0.00     0.031 C 
ATOM     20  C   UNL A   1      40.775  25.490  26.783  1.00  0.00     0.029 A 
ATOM     21  C   UNL A   1      41.715  25.366  27.847  1.00  0.00     0.049 A 
ATOM     22  H   UNL A   1      42.161  26.695  29.309  1.00  0.00     0.167 HD
ATOM     23  C   UNL A   1      42.242  29.989  33.598  1.00  0.00     0.037 A 
ATOM     24  C   UNL A   1      42.638  24.419  28.107  1.00  0.00     0.037 A 
ATOM     25  C   UNL A   1      43.323  29.004  33.524  1.00  0.00     0.049 A 
ATOM     26  C   UNL A   1      43.549  24.620  29.320  1.00  0.00     0.074 A 
ATOM     27  C   UNL A   1      44.536  29.046  34.188  1.00  0.00     0.029 A 
ATOM     28  N   UNL A   1      43.377  27.854  32.709  1.00  0.00    -0.354 N 
ATOM     29  N   UNL A   1      43.550  25.583  30.226  1.00  0.00    -0.248 NA
ATOM     30  C   UNL A   1      44.599  23.622  29.519  1.00  0.00     0.031 C 
ATOM     31  C   UNL A   1      45.356  28.028  33.690  1.00  0.00     0.029 A 
ATOM     32  C   UNL A   1      44.639  27.253  32.783  1.00  0.00     0.049 A 
ATOM     33  H   UNL A   1      42.629  27.519  32.162  1.00  0.00     0.167 HD
ATOM     34  C   UNL A   1      44.602  25.319  31.097  1.00  0.00     0.074 A 
ATOM     35  C   UNL A   1      45.180  24.064  30.626  1.00  0.00     0.031 C 
ATOM     36  C   UNL A   1      45.110  26.019  32.156  1.00  0.00     0.037 A 
BRANCH  23  37
ATOM     37  C   UNL A   1      42.387  31.187  34.488  1.00  0.00     0.064 A 
ATOM     38  C   UNL A   1      41.903  31.163  35.805  1.00  0.00     0.173 A 
ATOM     39  C   UNL A   1      42.999  32.367  34.038  1.00  0.00     0.173 A 
ATOM     40  F   UNL A   1      41.292  30.068  36.279  1.00  0.00    -0.203 F 
ATOM     41  C   UNL A   1      42.011  32.280  36.631  1.00  0.00     0.198 A 
ATOM     42  C   UNL A   1      43.131  33.472  34.876  1.00  0.00     0.198 A 
ATOM     43  F   UNL A   1      43.470  32.453  32.785  1.00  0.00    -0.203 F 
ATOM     44  F   UNL A   1      41.501  32.245  37.869  1.00  0.00    -0.200 F 
ATOM     45  C   UNL A   1      42.630  33.431  36.168  1.00  0.00     0.200 A 
ATOM     46  F   UNL A   1      43.734  34.582  34.429  1.00  0.00    -0.200 F 
ATOM     47  F   UNL A   1      42.733  34.504  36.964  1.00  0.00    -0.200 F 
ENDBRANCH  23  37
BRANCH  24  48
ATOM     48  C   UNL A   1      42.695  23.214  27.248  1.00  0.00     0.064 A 
ATOM     49  C   UNL A   1      43.553  23.157  26.141  1.00  0.00     0.173 A 
ATOM     50  C   UNL A   1      41.964  22.060  27.561  1.00  0.00     0.173 A 
ATOM     51  F   UNL A   1      44.261  24.239  25.783  1.00  0.00    -0.203 F 
ATOM     52  C   UNL A   1      43.687  21.990  25.391  1.00  0.00     0.198 A 
ATOM     53  C   UNL A   1      42.128  20.882  26.837  1.00  0.00     0.198 A 
ATOM     54  F   UNL A   1      41.120  22.060  28.603  1.00  0.00    -0.203 F 
ATOM     55  F   UNL A   1      44.498  21.971  24.324  1.00  0.00    -0.200 F 
ATOM     56  C   UNL A   1      42.988  20.848  25.752  1.00  0.00     0.200 A 
ATOM     57  F   UNL A   1      41.468  19.776  27.206  1.00  0.00    -0.200 F 
ATOM     58  F   UNL A   1      43.147  19.715  25.055  1.00  0.00    -0.200 F 
ENDBRANCH  24  48
BRANCH  36  59
ATOM     59  C   UNL A   1      46.406  25.456  32.717  1.00  0.00     0.064 A 
ATOM     60  C   UNL A   1      46.407  24.616  33.847  1.00  0.00     0.173 A 
ATOM     61  C   UNL A   1      47.640  25.730  32.109  1.00  0.00     0.173 A 
ATOM     62  F   UNL A   1      45.257  24.317  34.466  1.00  0.00    -0.203 F 
ATOM     63  C   UNL A   1      47.597  24.120  34.375  1.00  0.00     0.198 A 
ATOM     64  C   UNL A   1      48.826  25.205  32.622  1.00  0.00     0.198 A 
ATOM     65  F   UNL A   1      47.698  26.506  31.017  1.00  0.00    -0.203 F 
ATOM     66  F   UNL A   1      47.576  23.376  35.490  1.00  0.00    -0.200 F 
ATOM     67  C   UNL A   1      48.806  24.412  33.762  1.00  0.00     0.200 A 
ATOM     68  F   UNL A   1      49.993  25.471  32.020  1.00  0.00    -0.200 F 
ATOM     69  F   UNL A   1      49.950  23.938  34.273  1.00  0.00    -0.200 F 
ENDBRANCH  36  59
ENDBRANCH  10  11
ENDBRANCH   3   5
ENDBRANCH   2   3
ENDBRANCH   1   2
BRANCH   1  70
ATOM     70  C   UNL A   1      33.366  35.650  29.433  1.00  0.00     0.274 C 
BRANCH  70  71
ATOM     71  O   UNL A   1      32.803  35.712  30.756  1.00  0.00    -0.460 OA
BRANCH  71  72
ATOM     72  C   UNL A   1      33.230  36.755  31.527  1.00  0.00     0.343 C 
ATOM     73  O   UNL A   1      32.904  37.923  31.338  1.00  0.00    -0.249 OA
BRANCH  72  74
ATOM     74  C   UNL A   1      34.113  36.330  32.689  1.00  0.00     0.308 C 
ATOM     75  F   UNL A   1      33.673  36.831  33.874  1.00  0.00    -0.232 F 
BRANCH  74  76
ATOM     76  C   UNL A   1      34.465  34.826  32.796  1.00  0.00     0.190 C 
BRANCH  76  77
ATOM     77  C   UNL A   1      35.774  34.379  33.477  1.00  0.00    -0.015 A 
ATOM     78  C   UNL A   1      35.817  34.045  35.318  1.00  0.00     0.006 A 
ATOM     79  C   UNL A   1      37.370  34.487  32.540  1.00  0.00     0.027 A 
ATOM     80  C   UNL A   1      37.420  33.817  36.211  1.00  0.00     0.002 A 
ATOM     81  C   UNL A   1      38.988  34.252  33.408  1.00  0.00     0.041 A 
ATOM     82  C   UNL A   1      39.018  33.928  35.285  1.00  0.00     0.020 A 
ATOM     83  Cl  UNL A   1      40.421  34.579  32.491  1.00  0.00    -0.084 Cl
ENDBRANCH  76  77
BRANCH  76  84
ATOM     84  O   UNL A   1      33.390  34.004  33.253  1.00  0.00    -0.385 OA
ATOM     85  H   UNL A   1      32.552  34.482  33.153  1.00  0.00     0.211 HD
ENDBRANCH  76  84
ENDBRANCH  74  76
ENDBRANCH  72  74
ENDBRANCH  71  72
ENDBRANCH  70  71
ENDBRANCH   1  70
TORSDOF 14
ENDMDL
