MODEL 1
REMARK VINA RESULT:     -12.4      0.000      0.000
REMARK SMILES Nc1ncc(C(=O)OCCOC(=O)c2ccc(-c3c4nc(c(-c5c(F)c(F)c(F)c(F)c5F)c5ccc([nH]5)c(-c5c(F)c(F)c(F)c(F)c5F)c5nc(c(-c6c(F)c(F)c(F)c(F)c6F)c6ccc3[nH]6)C=C5)C=C4)cc2)c(-c2ccccc2)n1
REMARK SMILES IDX 10 1 9 2 8 3 6 4 7 5 5 6 2 7 3 8 84 9 4 10 77 11 1 12 78 15
REMARK SMILES IDX 79 16 83 17 80 18 82 19 81 20 11 21 12 22 13 23 14 24 15 25
REMARK SMILES IDX 76 26 16 27 75 28 17 29 18 30 19 31 69 32 20 33 74 34 68 35
REMARK SMILES IDX 70 36 21 37 73 38 67 39 66 40 22 42 54 43 34 44 53 45 35 46
REMARK SMILES IDX 38 47 52 48 71 49 36 50 37 51 51 53 72 54 39 55 23 56 24 57
REMARK SMILES IDX 32 58 25 59 26 60 30 61 33 62 27 63 28 64 31 65 29 66 55 67
REMARK SMILES IDX 56 68 64 69 57 70 58 71 62 72 65 73 59 74 60 75 63 76 61 77
REMARK SMILES IDX 40 78 41 79 49 80 42 81 43 82 47 83 50 84 44 85 45 86 48 87
REMARK SMILES IDX 46 88
REMARK H PARENT 1 13 1 14 70 41 38 52
REMARK Flexibility Score: inf
ROOT
ATOM      1  C   UNL A   1      31.752  30.159  26.705  1.00  0.00     0.275 C 
ENDROOT
BRANCH   1   2
ATOM      2  C   UNL A   1      31.685  28.670  27.041  1.00  0.00     0.275 C 
BRANCH   2   3
ATOM      3  O   UNL A   1      32.083  27.866  25.911  1.00  0.00    -0.458 OA
BRANCH   3   4
ATOM      4  C   UNL A   1      31.204  26.935  25.470  1.00  0.00     0.342 C 
ATOM      5  O   UNL A   1      30.308  26.422  26.111  1.00  0.00    -0.246 OA
BRANCH   4   6
ATOM      6  C   UNL A   1      31.402  26.652  24.038  1.00  0.00     0.104 A 
ATOM      7  C   UNL A   1      31.906  26.013  21.450  1.00  0.00     0.220 A 
ATOM      8  N   UNL A   1      32.648  25.424  22.387  1.00  0.00    -0.221 NA
ATOM      9  N   UNL A   1      30.949  26.914  21.697  1.00  0.00    -0.212 NA
ATOM     10  C   UNL A   1      32.390  25.772  23.662  1.00  0.00     0.133 A 
ATOM     11  C   UNL A   1      30.705  27.239  22.997  1.00  0.00     0.090 A 
BRANCH   7  12
ATOM     12  N   UNL A   1      32.177  25.691  20.156  1.00  0.00    -0.368 N 
ATOM     13  H   UNL A   1      32.206  26.394  19.468  1.00  0.00     0.159 HD
ATOM     14  H   UNL A   1      32.347  24.753  19.907  1.00  0.00     0.159 HD
ENDBRANCH   7  12
BRANCH  11  15
ATOM     15  C   UNL A   1      29.675  28.269  23.196  1.00  0.00     0.001 A 
ATOM     16  C   UNL A   1      28.304  27.958  23.128  1.00  0.00     0.010 A 
ATOM     17  C   UNL A   1      30.043  29.612  23.373  1.00  0.00     0.010 A 
ATOM     18  C   UNL A   1      27.338  28.965  23.149  1.00  0.00     0.001 A 
ATOM     19  C   UNL A   1      29.076  30.618  23.408  1.00  0.00     0.001 A 
ATOM     20  C   UNL A   1      27.726  30.296  23.276  1.00  0.00     0.000 A 
ENDBRANCH  11  15
ENDBRANCH   4   6
ENDBRANCH   3   4
ENDBRANCH   2   3
ENDBRANCH   1   2
BRANCH   1  21
ATOM     21  O   UNL A   1      33.112  30.550  26.449  1.00  0.00    -0.458 OA
BRANCH  21  22
ATOM     22  C   UNL A   1      33.559  31.561  27.225  1.00  0.00     0.338 C 
ATOM     23  O   UNL A   1      32.948  32.549  27.599  1.00  0.00    -0.246 OA
BRANCH  22  24
ATOM     24  C   UNL A   1      34.897  31.240  27.723  1.00  0.00     0.060 A 
ATOM     25  C   UNL A   1      35.124  29.933  28.142  1.00  0.00     0.016 A 
ATOM     26  C   UNL A   1      35.852  32.228  27.943  1.00  0.00     0.016 A 
ATOM     27  C   UNL A   1      36.256  29.616  28.876  1.00  0.00     0.010 A 
ATOM     28  C   UNL A   1      37.040  31.886  28.599  1.00  0.00     0.010 A 
ATOM     29  C   UNL A   1      37.238  30.585  29.106  1.00  0.00    -0.014 A 
BRANCH  29  30
ATOM     30  C   UNL A   1      38.445  30.246  29.908  1.00  0.00     0.031 A 
ATOM     31  C   UNL A   1      39.504  29.347  29.329  1.00  0.00     0.074 A 
ATOM     32  C   UNL A   1      38.602  30.756  31.146  1.00  0.00     0.049 A 
ATOM     33  N   UNL A   1      40.524  28.779  29.920  1.00  0.00    -0.248 NA
ATOM     34  C   UNL A   1      39.389  29.030  27.897  1.00  0.00     0.031 C 
ATOM     35  C   UNL A   1      37.683  31.688  31.803  1.00  0.00     0.029 A 
ATOM     36  N   UNL A   1      39.594  30.562  32.075  1.00  0.00    -0.354 N 
ATOM     37  C   UNL A   1      41.136  27.995  28.949  1.00  0.00     0.074 A 
ATOM     38  C   UNL A   1      40.369  28.153  27.733  1.00  0.00     0.031 C 
ATOM     39  C   UNL A   1      38.167  32.007  33.012  1.00  0.00     0.029 A 
ATOM     40  C   UNL A   1      39.374  31.227  33.258  1.00  0.00     0.049 A 
ATOM     41  H   UNL A   1      40.387  30.001  31.911  1.00  0.00     0.167 HD
ATOM     42  C   UNL A   1      42.238  27.216  29.069  1.00  0.00     0.037 A 
ATOM     43  C   UNL A   1      40.036  31.175  34.428  1.00  0.00     0.037 A 
ATOM     44  C   UNL A   1      43.023  27.109  30.272  1.00  0.00     0.049 A 
ATOM     45  C   UNL A   1      41.226  30.266  34.549  1.00  0.00     0.074 A 
ATOM     46  C   UNL A   1      44.167  26.363  30.495  1.00  0.00     0.029 A 
ATOM     47  N   UNL A   1      42.749  27.780  31.455  1.00  0.00    -0.354 N 
ATOM     48  N   UNL A   1      41.771  29.491  33.644  1.00  0.00    -0.248 NA
ATOM     49  C   UNL A   1      41.884  30.210  35.862  1.00  0.00     0.031 C 
ATOM     50  C   UNL A   1      44.556  26.543  31.825  1.00  0.00     0.029 A 
ATOM     51  C   UNL A   1      43.691  27.450  32.417  1.00  0.00     0.049 A 
ATOM     52  H   UNL A   1      41.996  28.400  31.592  1.00  0.00     0.167 HD
ATOM     53  C   UNL A   1      42.848  28.876  34.266  1.00  0.00     0.074 A 
ATOM     54  C   UNL A   1      42.890  29.381  35.623  1.00  0.00     0.031 C 
ATOM     55  C   UNL A   1      43.723  27.973  33.759  1.00  0.00     0.037 A 
BRANCH  42  56
ATOM     56  C   UNL A   1      42.643  26.386  27.883  1.00  0.00     0.064 A 
ATOM     57  C   UNL A   1      42.119  25.106  27.652  1.00  0.00     0.173 A 
ATOM     58  C   UNL A   1      43.547  26.901  26.940  1.00  0.00     0.173 A 
ATOM     59  F   UNL A   1      41.261  24.559  28.527  1.00  0.00    -0.203 F 
ATOM     60  C   UNL A   1      42.505  24.362  26.537  1.00  0.00     0.198 A 
ATOM     61  C   UNL A   1      43.905  26.170  25.810  1.00  0.00     0.198 A 
ATOM     62  F   UNL A   1      44.075  28.124  27.106  1.00  0.00    -0.203 F 
ATOM     63  F   UNL A   1      42.028  23.122  26.364  1.00  0.00    -0.200 F 
ATOM     64  C   UNL A   1      43.391  24.898  25.614  1.00  0.00     0.200 A 
ATOM     65  F   UNL A   1      44.748  26.697  24.911  1.00  0.00    -0.200 F 
ATOM     66  F   UNL A   1      43.753  24.185  24.538  1.00  0.00    -0.200 F 
ENDBRANCH  42  56
BRANCH  43  67
ATOM     67  C   UNL A   1      39.557  31.974  35.589  1.00  0.00     0.064 A 
ATOM     68  C   UNL A   1      40.075  33.249  35.850  1.00  0.00     0.173 A 
ATOM     69  C   UNL A   1      38.571  31.481  36.457  1.00  0.00     0.173 A 
ATOM     70  F   UNL A   1      41.037  33.756  35.064  1.00  0.00    -0.203 F 
ATOM     71  C   UNL A   1      39.637  33.994  36.945  1.00  0.00     0.198 A 
ATOM     72  C   UNL A   1      38.108  32.241  37.529  1.00  0.00     0.198 A 
ATOM     73  F   UNL A   1      38.041  30.266  36.252  1.00  0.00    -0.203 F 
ATOM     74  F   UNL A   1      40.184  35.190  37.199  1.00  0.00    -0.200 F 
ATOM     75  C   UNL A   1      38.647  33.492  37.777  1.00  0.00     0.200 A 
ATOM     76  F   UNL A   1      37.139  31.759  38.319  1.00  0.00    -0.200 F 
ATOM     77  F   UNL A   1      38.220  34.213  38.823  1.00  0.00    -0.200 F 
ENDBRANCH  43  67
BRANCH  55  78
ATOM     78  C   UNL A   1      44.830  27.513  34.661  1.00  0.00     0.064 A 
ATOM     79  C   UNL A   1      44.704  26.369  35.462  1.00  0.00     0.173 A 
ATOM     80  C   UNL A   1      46.047  28.212  34.698  1.00  0.00     0.173 A 
ATOM     81  F   UNL A   1      43.555  25.676  35.476  1.00  0.00    -0.203 F 
ATOM     82  C   UNL A   1      45.747  25.956  36.289  1.00  0.00     0.198 A 
ATOM     83  C   UNL A   1      47.098  27.779  35.501  1.00  0.00     0.198 A 
ATOM     84  F   UNL A   1      46.220  29.309  33.947  1.00  0.00    -0.203 F 
ATOM     85  F   UNL A   1      45.586  24.891  37.085  1.00  0.00    -0.200 F 
ATOM     86  C   UNL A   1      46.945  26.657  36.301  1.00  0.00     0.200 A 
ATOM     87  F   UNL A   1      48.259  28.447  35.501  1.00  0.00    -0.200 F 
ATOM     88  F   UNL A   1      47.949  26.254  37.091  1.00  0.00    -0.200 F 
ENDBRANCH  55  78
ENDBRANCH  29  30
ENDBRANCH  22  24
ENDBRANCH  21  22
ENDBRANCH   1  21
TORSDOF 13
ENDMDL
MODEL 2
REMARK VINA RESULT:     -12.3      0.087      1.163
REMARK SMILES Nc1ncc(C(=O)OCCOC(=O)c2ccc(-c3c4nc(c(-c5c(F)c(F)c(F)c(F)c5F)c5ccc([nH]5)c(-c5c(F)c(F)c(F)c(F)c5F)c5nc(c(-c6c(F)c(F)c(F)c(F)c6F)c6ccc3[nH]6)C=C5)C=C4)cc2)c(-c2ccccc2)n1
REMARK SMILES IDX 10 1 9 2 8 3 6 4 7 5 5 6 2 7 3 8 84 9 4 10 77 11 1 12 78 15
REMARK SMILES IDX 79 16 83 17 80 18 82 19 81 20 11 21 12 22 13 23 14 24 15 25
REMARK SMILES IDX 76 26 16 27 75 28 17 29 18 30 19 31 69 32 20 33 74 34 68 35
REMARK SMILES IDX 70 36 21 37 73 38 67 39 66 40 22 42 54 43 34 44 53 45 35 46
REMARK SMILES IDX 38 47 52 48 71 49 36 50 37 51 51 53 72 54 39 55 23 56 24 57
REMARK SMILES IDX 32 58 25 59 26 60 30 61 33 62 27 63 28 64 31 65 29 66 55 67
REMARK SMILES IDX 56 68 64 69 57 70 58 71 62 72 65 73 59 74 60 75 63 76 61 77
REMARK SMILES IDX 40 78 41 79 49 80 42 81 43 82 47 83 50 84 44 85 45 86 48 87
REMARK SMILES IDX 46 88
REMARK H PARENT 1 13 1 14 70 41 38 52
REMARK Flexibility Score: inf
ROOT
ATOM      1  C   UNL A   1      31.762  30.009  26.714  1.00  0.00     0.275 C 
ENDROOT
BRANCH   1   2
ATOM      2  C   UNL A   1      31.753  28.523  27.067  1.00  0.00     0.275 C 
BRANCH   2   3
ATOM      3  O   UNL A   1      32.125  27.718  25.929  1.00  0.00    -0.458 OA
BRANCH   3   4
ATOM      4  C   UNL A   1      31.203  26.849  25.454  1.00  0.00     0.342 C 
ATOM      5  O   UNL A   1      30.265  26.379  26.067  1.00  0.00    -0.246 OA
BRANCH   4   6
ATOM      6  C   UNL A   1      31.414  26.579  24.021  1.00  0.00     0.104 A 
ATOM      7  C   UNL A   1      31.941  25.962  21.433  1.00  0.00     0.220 A 
ATOM      8  N   UNL A   1      32.668  25.356  22.371  1.00  0.00    -0.221 NA
ATOM      9  N   UNL A   1      30.990  26.870  21.678  1.00  0.00    -0.212 NA
ATOM     10  C   UNL A   1      32.398  25.693  23.647  1.00  0.00     0.133 A 
ATOM     11  C   UNL A   1      30.735  27.183  22.979  1.00  0.00     0.090 A 
BRANCH   7  12
ATOM     12  N   UNL A   1      32.224  25.651  20.138  1.00  0.00    -0.368 N 
ATOM     13  H   UNL A   1      31.601  25.909  19.421  1.00  0.00     0.159 HD
ATOM     14  H   UNL A   1      33.054  25.168  19.918  1.00  0.00     0.159 HD
ENDBRANCH   7  12
BRANCH  11  15
ATOM     15  C   UNL A   1      29.713  28.221  23.177  1.00  0.00     0.001 A 
ATOM     16  C   UNL A   1      28.339  27.914  23.144  1.00  0.00     0.010 A 
ATOM     17  C   UNL A   1      30.088  29.567  23.318  1.00  0.00     0.010 A 
ATOM     18  C   UNL A   1      27.377  28.925  23.165  1.00  0.00     0.001 A 
ATOM     19  C   UNL A   1      29.125  30.576  23.351  1.00  0.00     0.001 A 
ATOM     20  C   UNL A   1      27.772  30.256  23.255  1.00  0.00     0.000 A 
ENDBRANCH  11  15
ENDBRANCH   4   6
ENDBRANCH   3   4
ENDBRANCH   2   3
ENDBRANCH   1   2
BRANCH   1  21
ATOM     21  O   UNL A   1      33.102  30.443  26.422  1.00  0.00    -0.458 OA
BRANCH  21  22
ATOM     22  C   UNL A   1      33.535  31.472  27.181  1.00  0.00     0.338 C 
ATOM     23  O   UNL A   1      32.910  32.456  27.542  1.00  0.00    -0.246 OA
BRANCH  22  24
ATOM     24  C   UNL A   1      34.880  31.180  27.680  1.00  0.00     0.060 A 
ATOM     25  C   UNL A   1      35.144  29.870  28.067  1.00  0.00     0.016 A 
ATOM     26  C   UNL A   1      35.802  32.190  27.931  1.00  0.00     0.016 A 
ATOM     27  C   UNL A   1      36.281  29.570  28.801  1.00  0.00     0.010 A 
ATOM     28  C   UNL A   1      36.996  31.869  28.586  1.00  0.00     0.010 A 
ATOM     29  C   UNL A   1      37.231  30.562  29.061  1.00  0.00    -0.014 A 
BRANCH  29  30
ATOM     30  C   UNL A   1      38.443  30.240  29.863  1.00  0.00     0.031 A 
ATOM     31  C   UNL A   1      39.507  29.342  29.290  1.00  0.00     0.074 A 
ATOM     32  C   UNL A   1      38.601  30.764  31.095  1.00  0.00     0.049 A 
ATOM     33  N   UNL A   1      40.533  28.787  29.884  1.00  0.00    -0.248 NA
ATOM     34  C   UNL A   1      39.388  29.009  27.861  1.00  0.00     0.031 C 
ATOM     35  C   UNL A   1      37.678  31.696  31.746  1.00  0.00     0.029 A 
ATOM     36  N   UNL A   1      39.598  30.587  32.022  1.00  0.00    -0.354 N 
ATOM     37  C   UNL A   1      41.146  27.997  28.919  1.00  0.00     0.074 A 
ATOM     38  C   UNL A   1      40.374  28.137  27.703  1.00  0.00     0.031 C 
ATOM     39  C   UNL A   1      38.164  32.031  32.949  1.00  0.00     0.029 A 
ATOM     40  C   UNL A   1      39.377  31.263  33.199  1.00  0.00     0.049 A 
ATOM     41  H   UNL A   1      40.394  30.030  31.861  1.00  0.00     0.167 HD
ATOM     42  C   UNL A   1      42.255  27.227  29.043  1.00  0.00     0.037 A 
ATOM     43  C   UNL A   1      40.044  31.228  34.367  1.00  0.00     0.037 A 
ATOM     44  C   UNL A   1      43.044  27.138  30.244  1.00  0.00     0.049 A 
ATOM     45  C   UNL A   1      41.241  30.328  34.494  1.00  0.00     0.074 A 
ATOM     46  C   UNL A   1      44.194  26.402  30.471  1.00  0.00     0.029 A 
ATOM     47  N   UNL A   1      42.770  27.820  31.421  1.00  0.00    -0.354 N 
ATOM     48  N   UNL A   1      41.787  29.548  33.595  1.00  0.00    -0.248 NA
ATOM     49  C   UNL A   1      41.904  30.291  35.804  1.00  0.00     0.031 C 
ATOM     50  C   UNL A   1      44.586  26.600  31.798  1.00  0.00     0.029 A 
ATOM     51  C   UNL A   1      43.717  27.507  32.383  1.00  0.00     0.049 A 
ATOM     52  H   UNL A   1      42.013  28.436  31.554  1.00  0.00     0.167 HD
ATOM     53  C   UNL A   1      42.871  28.947  34.219  1.00  0.00     0.074 A 
ATOM     54  C   UNL A   1      42.914  29.466  35.571  1.00  0.00     0.031 C 
ATOM     55  C   UNL A   1      43.750  28.045  33.720  1.00  0.00     0.037 A 
BRANCH  42  56
ATOM     56  C   UNL A   1      42.661  26.387  27.864  1.00  0.00     0.064 A 
ATOM     57  C   UNL A   1      42.137  25.106  27.642  1.00  0.00     0.173 A 
ATOM     58  C   UNL A   1      43.567  26.894  26.918  1.00  0.00     0.173 A 
ATOM     59  F   UNL A   1      41.277  24.567  28.520  1.00  0.00    -0.203 F 
ATOM     60  C   UNL A   1      42.524  24.353  26.535  1.00  0.00     0.198 A 
ATOM     61  C   UNL A   1      43.926  26.154  25.796  1.00  0.00     0.198 A 
ATOM     62  F   UNL A   1      44.095  28.118  27.076  1.00  0.00    -0.203 F 
ATOM     63  F   UNL A   1      42.047  23.112  26.370  1.00  0.00    -0.200 F 
ATOM     64  C   UNL A   1      43.412  24.881  25.609  1.00  0.00     0.200 A 
ATOM     65  F   UNL A   1      44.772  26.673  24.894  1.00  0.00    -0.200 F 
ATOM     66  F   UNL A   1      43.776  24.159  24.540  1.00  0.00    -0.200 F 
ENDBRANCH  42  56
BRANCH  43  67
ATOM     67  C   UNL A   1      39.563  32.036  35.521  1.00  0.00     0.064 A 
ATOM     68  C   UNL A   1      40.060  33.324  35.757  1.00  0.00     0.173 A 
ATOM     69  C   UNL A   1      38.597  31.538  36.409  1.00  0.00     0.173 A 
ATOM     70  F   UNL A   1      41.003  33.837  34.952  1.00  0.00    -0.203 F 
ATOM     71  C   UNL A   1      39.621  34.078  36.844  1.00  0.00     0.198 A 
ATOM     72  C   UNL A   1      38.132  32.306  37.474  1.00  0.00     0.198 A 
ATOM     73  F   UNL A   1      38.087  30.311  36.229  1.00  0.00    -0.203 F 
ATOM     74  F   UNL A   1      40.148  35.288  37.074  1.00  0.00    -0.200 F 
ATOM     75  C   UNL A   1      38.650  33.571  37.696  1.00  0.00     0.200 A 
ATOM     76  F   UNL A   1      37.181  31.819  38.283  1.00  0.00    -0.200 F 
ATOM     77  F   UNL A   1      38.222  34.300  38.736  1.00  0.00    -0.200 F 
ENDBRANCH  43  67
BRANCH  55  78
ATOM     78  C   UNL A   1      44.864  27.602  34.622  1.00  0.00     0.064 A 
ATOM     79  C   UNL A   1      46.075  28.305  34.704  1.00  0.00     0.173 A 
ATOM     80  C   UNL A   1      44.701  26.474  35.442  1.00  0.00     0.173 A 
ATOM     81  F   UNL A   1      46.286  29.379  33.928  1.00  0.00    -0.203 F 
ATOM     82  C   UNL A   1      47.093  27.879  35.552  1.00  0.00     0.198 A 
ATOM     83  C   UNL A   1      45.709  26.070  36.313  1.00  0.00     0.198 A 
ATOM     84  F   UNL A   1      43.560  25.770  35.406  1.00  0.00    -0.203 F 
ATOM     85  F   UNL A   1      48.262  28.535  35.575  1.00  0.00    -0.200 F 
ATOM     86  C   UNL A   1      46.906  26.768  36.362  1.00  0.00     0.200 A 
ATOM     87  F   UNL A   1      45.521  25.005  37.104  1.00  0.00    -0.200 F 
ATOM     88  F   UNL A   1      47.885  26.364  37.183  1.00  0.00    -0.200 F 
ENDBRANCH  55  78
ENDBRANCH  29  30
ENDBRANCH  22  24
ENDBRANCH  21  22
ENDBRANCH   1  21
TORSDOF 13
ENDMDL
MODEL 3
REMARK VINA RESULT:     -12.3      5.080     10.174
REMARK SMILES Nc1ncc(C(=O)OCCOC(=O)c2ccc(-c3c4nc(c(-c5c(F)c(F)c(F)c(F)c5F)c5ccc([nH]5)c(-c5c(F)c(F)c(F)c(F)c5F)c5nc(c(-c6c(F)c(F)c(F)c(F)c6F)c6ccc3[nH]6)C=C5)C=C4)cc2)c(-c2ccccc2)n1
REMARK SMILES IDX 10 1 9 2 8 3 6 4 7 5 5 6 2 7 3 8 84 9 4 10 77 11 1 12 78 15
REMARK SMILES IDX 79 16 83 17 80 18 82 19 81 20 11 21 12 22 13 23 14 24 15 25
REMARK SMILES IDX 76 26 16 27 75 28 17 29 18 30 19 31 69 32 20 33 74 34 68 35
REMARK SMILES IDX 70 36 21 37 73 38 67 39 66 40 22 42 54 43 34 44 53 45 35 46
REMARK SMILES IDX 38 47 52 48 71 49 36 50 37 51 51 53 72 54 39 55 23 56 24 57
REMARK SMILES IDX 32 58 25 59 26 60 30 61 33 62 27 63 28 64 31 65 29 66 55 67
REMARK SMILES IDX 56 68 64 69 57 70 58 71 62 72 65 73 59 74 60 75 63 76 61 77
REMARK SMILES IDX 40 78 41 79 49 80 42 81 43 82 47 83 50 84 44 85 45 86 48 87
REMARK SMILES IDX 46 88
REMARK H PARENT 1 13 1 14 70 41 38 52
REMARK Flexibility Score: inf
ROOT
ATOM      1  C   UNL A   1      37.216  21.301  24.467  1.00  0.00     0.275 C 
ENDROOT
BRANCH   1   2
ATOM      2  C   UNL A   1      36.530  22.444  23.719  1.00  0.00     0.275 C 
BRANCH   2   3
ATOM      3  O   UNL A   1      35.308  22.833  24.378  1.00  0.00    -0.458 OA
BRANCH   3   4
ATOM      4  C   UNL A   1      34.189  22.908  23.620  1.00  0.00     0.342 C 
ATOM      5  O   UNL A   1      34.137  23.042  22.413  1.00  0.00    -0.246 OA
BRANCH   4   6
ATOM      6  C   UNL A   1      32.978  22.718  24.438  1.00  0.00     0.104 A 
ATOM      7  C   UNL A   1      30.753  22.555  25.980  1.00  0.00     0.220 A 
ATOM      8  N   UNL A   1      31.311  23.756  25.828  1.00  0.00    -0.221 NA
ATOM      9  N   UNL A   1      31.228  21.425  25.446  1.00  0.00    -0.212 NA
ATOM     10  C   UNL A   1      32.424  23.807  25.072  1.00  0.00     0.133 A 
ATOM     11  C   UNL A   1      32.350  21.510  24.680  1.00  0.00     0.090 A 
BRANCH   7  12
ATOM     12  N   UNL A   1      29.643  22.488  26.765  1.00  0.00    -0.368 N 
ATOM     13  H   UNL A   1      29.190  21.625  26.906  1.00  0.00     0.159 HD
ATOM     14  H   UNL A   1      29.292  23.302  27.194  1.00  0.00     0.159 HD
ENDBRANCH   7  12
BRANCH  11  15
ATOM     15  C   UNL A   1      32.846  20.226  24.163  1.00  0.00     0.001 A 
ATOM     16  C   UNL A   1      32.233  19.590  23.067  1.00  0.00     0.010 A 
ATOM     17  C   UNL A   1      33.897  19.560  24.813  1.00  0.00     0.010 A 
ATOM     18  C   UNL A   1      32.600  18.297  22.689  1.00  0.00     0.001 A 
ATOM     19  C   UNL A   1      34.273  18.273  24.427  1.00  0.00     0.001 A 
ATOM     20  C   UNL A   1      33.612  17.635  23.379  1.00  0.00     0.000 A 
ENDBRANCH  11  15
ENDBRANCH   4   6
ENDBRANCH   3   4
ENDBRANCH   2   3
ENDBRANCH   1   2
BRANCH   1  21
ATOM     21  O   UNL A   1      37.615  21.735  25.779  1.00  0.00    -0.458 OA
BRANCH  21  22
ATOM     22  C   UNL A   1      38.909  21.489  26.080  1.00  0.00     0.338 C 
ATOM     23  O   UNL A   1      39.575  20.509  25.788  1.00  0.00    -0.246 OA
BRANCH  22  24
ATOM     24  C   UNL A   1      39.500  22.673  26.705  1.00  0.00     0.060 A 
ATOM     25  C   UNL A   1      39.080  23.915  26.238  1.00  0.00     0.016 A 
ATOM     26  C   UNL A   1      40.563  22.576  27.596  1.00  0.00     0.016 A 
ATOM     27  C   UNL A   1      39.779  25.064  26.571  1.00  0.00     0.010 A 
ATOM     28  C   UNL A   1      41.208  23.748  28.009  1.00  0.00     0.010 A 
ATOM     29  C   UNL A   1      40.847  25.000  27.471  1.00  0.00    -0.014 A 
BRANCH  29  30
ATOM     30  C   UNL A   1      41.607  26.234  27.814  1.00  0.00     0.031 A 
ATOM     31  C   UNL A   1      40.965  27.300  28.660  1.00  0.00     0.074 A 
ATOM     32  C   UNL A   1      42.875  26.392  27.384  1.00  0.00     0.049 A 
ATOM     33  N   UNL A   1      41.374  28.519  28.911  1.00  0.00    -0.248 NA
ATOM     34  C   UNL A   1      39.683  26.956  29.295  1.00  0.00     0.031 C 
ATOM     35  C   UNL A   1      43.636  25.411  26.609  1.00  0.00     0.029 A 
ATOM     36  N   UNL A   1      43.748  27.440  27.538  1.00  0.00    -0.354 N 
ATOM     37  C   UNL A   1      40.375  29.102  29.681  1.00  0.00     0.074 A 
ATOM     38  C   UNL A   1      39.336  28.108  29.851  1.00  0.00     0.031 C 
ATOM     39  C   UNL A   1      44.868  25.887  26.382  1.00  0.00     0.029 A 
ATOM     40  C   UNL A   1      44.952  27.246  26.904  1.00  0.00     0.049 A 
ATOM     41  H   UNL A   1      43.534  28.251  28.053  1.00  0.00     0.167 HD
ATOM     42  C   UNL A   1      40.333  30.354  30.197  1.00  0.00     0.037 A 
ATOM     43  C   UNL A   1      45.988  28.084  26.715  1.00  0.00     0.037 A 
ATOM     44  C   UNL A   1      41.398  31.316  30.065  1.00  0.00     0.049 A 
ATOM     45  C   UNL A   1      45.897  29.483  27.256  1.00  0.00     0.074 A 
ATOM     46  C   UNL A   1      41.466  32.605  30.564  1.00  0.00     0.029 A 
ATOM     47  N   UNL A   1      42.590  31.086  29.392  1.00  0.00    -0.354 N 
ATOM     48  N   UNL A   1      44.931  30.044  27.941  1.00  0.00    -0.248 NA
ATOM     49  C   UNL A   1      47.034  30.372  26.982  1.00  0.00     0.031 C 
ATOM     50  C   UNL A   1      42.675  33.172  30.151  1.00  0.00     0.029 A 
ATOM     51  C   UNL A   1      43.390  32.216  29.446  1.00  0.00     0.049 A 
ATOM     52  H   UNL A   1      42.832  30.244  28.942  1.00  0.00     0.167 HD
ATOM     53  C   UNL A   1      45.351  31.341  28.202  1.00  0.00     0.074 A 
ATOM     54  C   UNL A   1      46.668  31.478  27.614  1.00  0.00     0.031 C 
ATOM     55  C   UNL A   1      44.705  32.329  28.866  1.00  0.00     0.037 A 
BRANCH  42  56
ATOM     56  C   UNL A   1      39.085  30.775  30.920  1.00  0.00     0.064 A 
ATOM     57  C   UNL A   1      37.987  31.338  30.252  1.00  0.00     0.173 A 
ATOM     58  C   UNL A   1      38.973  30.574  32.306  1.00  0.00     0.173 A 
ATOM     59  F   UNL A   1      38.044  31.563  28.931  1.00  0.00    -0.203 F 
ATOM     60  C   UNL A   1      36.837  31.709  30.947  1.00  0.00     0.198 A 
ATOM     61  C   UNL A   1      37.810  30.915  32.991  1.00  0.00     0.198 A 
ATOM     62  F   UNL A   1      39.989  30.032  32.995  1.00  0.00    -0.203 F 
ATOM     63  F   UNL A   1      35.821  32.291  30.296  1.00  0.00    -0.200 F 
ATOM     64  C   UNL A   1      36.747  31.491  32.314  1.00  0.00     0.200 A 
ATOM     65  F   UNL A   1      37.719  30.687  34.310  1.00  0.00    -0.200 F 
ATOM     66  F   UNL A   1      35.637  31.840  32.979  1.00  0.00    -0.200 F 
ENDBRANCH  42  56
BRANCH  43  67
ATOM     67  C   UNL A   1      47.177  27.634  25.942  1.00  0.00     0.064 A 
ATOM     68  C   UNL A   1      47.212  27.741  24.545  1.00  0.00     0.173 A 
ATOM     69  C   UNL A   1      48.301  27.090  26.581  1.00  0.00     0.173 A 
ATOM     70  F   UNL A   1      46.152  28.231  23.883  1.00  0.00    -0.203 F 
ATOM     71  C   UNL A   1      48.319  27.307  23.817  1.00  0.00     0.198 A 
ATOM     72  C   UNL A   1      49.421  26.690  25.856  1.00  0.00     0.198 A 
ATOM     73  F   UNL A   1      48.320  26.965  27.916  1.00  0.00    -0.203 F 
ATOM     74  F   UNL A   1      48.307  27.377  22.479  1.00  0.00    -0.200 F 
ATOM     75  C   UNL A   1      49.426  26.791  24.475  1.00  0.00     0.200 A 
ATOM     76  F   UNL A   1      50.495  26.210  26.498  1.00  0.00    -0.200 F 
ATOM     77  F   UNL A   1      50.494  26.383  23.775  1.00  0.00    -0.200 F 
ENDBRANCH  43  67
BRANCH  55  78
ATOM     78  C   UNL A   1      45.434  33.629  29.038  1.00  0.00     0.064 A 
ATOM     79  C   UNL A   1      46.294  33.857  30.122  1.00  0.00     0.173 A 
ATOM     80  C   UNL A   1      45.292  34.649  28.084  1.00  0.00     0.173 A 
ATOM     81  F   UNL A   1      46.451  32.920  31.070  1.00  0.00    -0.203 F 
ATOM     82  C   UNL A   1      46.965  35.069  30.259  1.00  0.00     0.198 A 
ATOM     83  C   UNL A   1      45.989  35.847  28.207  1.00  0.00     0.198 A 
ATOM     84  F   UNL A   1      44.486  34.479  27.027  1.00  0.00    -0.203 F 
ATOM     85  F   UNL A   1      47.742  35.286  31.330  1.00  0.00    -0.200 F 
ATOM     86  C   UNL A   1      46.819  36.060  29.298  1.00  0.00     0.200 A 
ATOM     87  F   UNL A   1      45.858  36.796  27.271  1.00  0.00    -0.200 F 
ATOM     88  F   UNL A   1      47.471  37.223  29.428  1.00  0.00    -0.200 F 
ENDBRANCH  55  78
ENDBRANCH  29  30
ENDBRANCH  22  24
ENDBRANCH  21  22
ENDBRANCH   1  21
TORSDOF 13
ENDMDL
