MODEL 1
REMARK VINA RESULT:     -11.6      0.000      0.000
REMARK SMILES CC[C@H](C(=O)OCCOC(=O)c1ccc(-c2c3nc(c(-c4c(F)c(F)c(F)c(F)c4F)c4ccc([nH]4)c(-c4c(F)c(F)c(F)c(F)c4F)c4nc(c(-c5c(F)c(F)c(F)c(F)c5F)c5ccc2[nH]5)C=C4)C=C3)cc1)N1C(=O)/C(=C\c2cc(OC)ccc2OC)SC1=S
REMARK SMILES IDX 7 1 6 2 4 3 5 4 3 5 2 6 1 7 75 8 76 9 91 10 77 11 78 12
REMARK SMILES IDX 90 13 92 14 79 15 80 16 81 17 87 18 82 19 86 20 85 21 88 22
REMARK SMILES IDX 89 23 83 24 84 25 8 26 9 27 10 28 11 29 12 30 13 31 74 32
REMARK SMILES IDX 14 33 73 34 15 35 16 36 17 37 67 38 18 39 72 40 66 41 68 42
REMARK SMILES IDX 19 43 71 44 65 45 64 46 20 48 52 49 32 50 51 51 33 52 36 53
REMARK SMILES IDX 50 54 69 55 34 56 35 57 49 59 70 60 37 61 21 62 22 63 30 64
REMARK SMILES IDX 23 65 24 66 28 67 31 68 25 69 26 70 29 71 27 72 53 73 54 74
REMARK SMILES IDX 62 75 55 76 56 77 60 78 63 79 57 80 58 81 61 82 59 83 38 84
REMARK SMILES IDX 39 85 47 86 40 87 41 88 45 89 48 90 42 91 43 92 46 93 44 94
REMARK H PARENT 68 47 36 58
REMARK Flexibility Score: inf
ROOT
ATOM      1  C   UNL A   1      36.232  20.346  25.001  1.00  0.00     0.274 C 
ENDROOT
BRANCH   1   2
ATOM      2  O   UNL A   1      36.062  21.615  24.337  1.00  0.00    -0.461 OA
BRANCH   2   3
ATOM      3  C   UNL A   1      35.468  22.604  25.064  1.00  0.00     0.329 C 
ATOM      4  O   UNL A   1      35.709  22.835  26.243  1.00  0.00    -0.250 OA
BRANCH   3   5
ATOM      5  C   UNL A   1      34.479  23.407  24.201  1.00  0.00     0.201 C 
BRANCH   5   6
ATOM      6  C   UNL A   1      34.237  22.953  22.751  1.00  0.00     0.034 C 
ATOM      7  C   UNL A   1      33.266  23.792  21.939  1.00  0.00     0.007 C 
ENDBRANCH   5   6
BRANCH   5   8
ATOM      8  N   UNL A   1      33.225  23.649  24.965  1.00  0.00    -0.278 N 
ATOM      9  C   UNL A   1      32.963  24.949  25.369  1.00  0.00     0.266 C 
ATOM     10  C   UNL A   1      32.345  22.684  25.422  1.00  0.00     0.149 C 
ATOM     11  O   UNL A   1      33.728  25.891  25.220  1.00  0.00    -0.268 OA
ATOM     12  C   UNL A   1      31.681  25.022  26.126  1.00  0.00     0.081 C 
ATOM     13  S   UNL A   1      31.108  23.431  26.436  1.00  0.00    -0.054 SA
ATOM     14  S   UNL A   1      32.328  21.039  25.140  1.00  0.00    -0.052 S 
ATOM     15  C   UNL A   1      31.023  26.125  26.512  1.00  0.00     0.033 C 
BRANCH  15  16
ATOM     16  C   UNL A   1      31.389  27.498  26.134  1.00  0.00     0.021 A 
ATOM     17  C   UNL A   1      32.146  28.264  27.036  1.00  0.00     0.058 A 
ATOM     18  C   UNL A   1      31.026  28.068  24.900  1.00  0.00     0.126 A 
ATOM     19  C   UNL A   1      32.600  29.542  26.689  1.00  0.00     0.119 A 
ATOM     20  C   UNL A   1      31.483  29.340  24.556  1.00  0.00     0.051 A 
ATOM     21  C   UNL A   1      32.260  30.079  25.448  1.00  0.00     0.050 A 
BRANCH  18  22
ATOM     22  O   UNL A   1      30.321  27.423  23.916  1.00  0.00    -0.496 OA
ATOM     23  C   UNL A   1      31.111  26.968  22.822  1.00  0.00     0.278 C 
ENDBRANCH  18  22
BRANCH  19  24
ATOM     24  O   UNL A   1      33.372  30.174  27.625  1.00  0.00    -0.497 OA
ATOM     25  C   UNL A   1      34.778  29.995  27.497  1.00  0.00     0.278 C 
ENDBRANCH  19  24
ENDBRANCH  15  16
ENDBRANCH   5   8
ENDBRANCH   3   5
ENDBRANCH   2   3
ENDBRANCH   1   2
BRANCH   1  26
ATOM     26  C   UNL A   1      37.701  19.928  25.028  1.00  0.00     0.275 C 
BRANCH  26  27
ATOM     27  O   UNL A   1      38.536  21.067  25.311  1.00  0.00    -0.458 OA
BRANCH  27  28
ATOM     28  C   UNL A   1      39.589  20.832  26.126  1.00  0.00     0.338 C 
ATOM     29  O   UNL A   1      40.169  19.777  26.307  1.00  0.00    -0.246 OA
BRANCH  28  30
ATOM     30  C   UNL A   1      39.997  22.090  26.773  1.00  0.00     0.060 A 
ATOM     31  C   UNL A   1      39.389  23.269  26.367  1.00  0.00     0.016 A 
ATOM     32  C   UNL A   1      41.070  22.133  27.660  1.00  0.00     0.016 A 
ATOM     33  C   UNL A   1      39.926  24.498  26.746  1.00  0.00     0.010 A 
ATOM     34  C   UNL A   1      41.539  23.374  28.124  1.00  0.00     0.010 A 
ATOM     35  C   UNL A   1      41.016  24.581  27.626  1.00  0.00    -0.014 A 
BRANCH  35  36
ATOM     36  C   UNL A   1      41.608  25.923  27.942  1.00  0.00     0.031 A 
ATOM     37  C   UNL A   1      43.029  26.267  27.546  1.00  0.00     0.074 A 
ATOM     38  C   UNL A   1      40.854  26.897  28.501  1.00  0.00     0.049 A 
ATOM     39  N   UNL A   1      43.680  27.398  27.704  1.00  0.00    -0.248 NA
ATOM     40  C   UNL A   1      43.820  25.218  26.886  1.00  0.00     0.031 C 
ATOM     41  C   UNL A   1      39.459  26.757  28.921  1.00  0.00     0.029 A 
ATOM     42  N   UNL A   1      41.154  28.207  28.800  1.00  0.00    -0.354 N 
ATOM     43  C   UNL A   1      44.927  27.204  27.123  1.00  0.00     0.074 A 
ATOM     44  C   UNL A   1      44.987  25.821  26.712  1.00  0.00     0.031 C 
ATOM     45  C   UNL A   1      39.016  27.935  29.385  1.00  0.00     0.029 A 
ATOM     46  C   UNL A   1      40.115  28.895  29.381  1.00  0.00     0.049 A 
ATOM     47  H   UNL A   1      42.031  28.614  28.615  1.00  0.00     0.167 HD
ATOM     48  C   UNL A   1      45.917  28.099  26.890  1.00  0.00     0.037 A 
ATOM     49  C   UNL A   1      40.054  30.137  29.903  1.00  0.00     0.037 A 
ATOM     50  C   UNL A   1      45.911  29.471  27.309  1.00  0.00     0.049 A 
ATOM     51  C   UNL A   1      41.267  31.024  29.876  1.00  0.00     0.074 A 
ATOM     52  C   UNL A   1      46.883  30.436  27.108  1.00  0.00     0.029 A 
ATOM     53  N   UNL A   1      44.896  30.065  28.033  1.00  0.00    -0.354 N 
ATOM     54  N   UNL A   1      42.412  30.842  29.268  1.00  0.00    -0.248 NA
ATOM     55  C   UNL A   1      41.189  32.284  30.633  1.00  0.00     0.031 C 
ATOM     56  C   UNL A   1      46.476  31.606  27.758  1.00  0.00     0.029 A 
ATOM     57  C   UNL A   1      45.244  31.369  28.343  1.00  0.00     0.049 A 
ATOM     58  H   UNL A   1      44.053  29.628  28.290  1.00  0.00     0.167 HD
ATOM     59  C   UNL A   1      43.178  31.965  29.551  1.00  0.00     0.074 A 
ATOM     60  C   UNL A   1      42.368  32.833  30.375  1.00  0.00     0.031 C 
ATOM     61  C   UNL A   1      44.445  32.241  29.159  1.00  0.00     0.037 A 
BRANCH  48  62
ATOM     62  C   UNL A   1      47.099  27.636  26.098  1.00  0.00     0.064 A 
ATOM     63  C   UNL A   1      47.097  27.743  24.700  1.00  0.00     0.173 A 
ATOM     64  C   UNL A   1      48.255  27.162  26.727  1.00  0.00     0.173 A 
ATOM     65  F   UNL A   1      46.015  28.203  24.057  1.00  0.00    -0.203 F 
ATOM     66  C   UNL A   1      48.211  27.369  23.954  1.00  0.00     0.198 A 
ATOM     67  C   UNL A   1      49.371  26.796  25.979  1.00  0.00     0.198 A 
ATOM     68  F   UNL A   1      48.302  27.054  28.063  1.00  0.00    -0.203 F 
ATOM     69  F   UNL A   1      48.180  27.453  22.617  1.00  0.00    -0.200 F 
ATOM     70  C   UNL A   1      49.347  26.897  24.594  1.00  0.00     0.200 A 
ATOM     71  F   UNL A   1      50.471  26.343  26.595  1.00  0.00    -0.200 F 
ATOM     72  F   UNL A   1      50.419  26.535  23.875  1.00  0.00    -0.200 F 
ENDBRANCH  48  62
BRANCH  49  73
ATOM     73  C   UNL A   1      38.811  30.594  30.581  1.00  0.00     0.064 A 
ATOM     74  C   UNL A   1      37.759  31.179  29.865  1.00  0.00     0.173 A 
ATOM     75  C   UNL A   1      38.671  30.485  31.975  1.00  0.00     0.173 A 
ATOM     76  F   UNL A   1      37.860  31.340  28.538  1.00  0.00    -0.203 F 
ATOM     77  C   UNL A   1      36.618  31.644  30.518  1.00  0.00     0.198 A 
ATOM     78  C   UNL A   1      37.518  30.920  32.621  1.00  0.00     0.198 A 
ATOM     79  F   UNL A   1      39.658  29.950  32.709  1.00  0.00    -0.203 F 
ATOM     80  F   UNL A   1      35.647  32.246  29.817  1.00  0.00    -0.200 F 
ATOM     81  C   UNL A   1      36.495  31.507  31.893  1.00  0.00     0.200 A 
ATOM     82  F   UNL A   1      37.403  30.777  33.948  1.00  0.00    -0.200 F 
ATOM     83  F   UNL A   1      35.398  31.953  32.518  1.00  0.00    -0.200 F 
ENDBRANCH  49  73
BRANCH  61  84
ATOM     84  C   UNL A   1      45.050  33.538  29.605  1.00  0.00     0.064 A 
ATOM     85  C   UNL A   1      45.809  33.618  30.781  1.00  0.00     0.173 A 
ATOM     86  C   UNL A   1      44.925  34.695  28.821  1.00  0.00     0.173 A 
ATOM     87  F   UNL A   1      45.944  32.542  31.571  1.00  0.00    -0.203 F 
ATOM     88  C   UNL A   1      46.411  34.813  31.164  1.00  0.00     0.198 A 
ATOM     89  C   UNL A   1      45.551  35.882  29.194  1.00  0.00     0.198 A 
ATOM     90  F   UNL A   1      44.216  34.668  27.684  1.00  0.00    -0.203 F 
ATOM     91  F   UNL A   1      47.106  34.874  32.308  1.00  0.00    -0.200 F 
ATOM     92  C   UNL A   1      46.290  35.941  30.365  1.00  0.00     0.200 A 
ATOM     93  F   UNL A   1      45.444  36.967  28.414  1.00  0.00    -0.200 F 
ATOM     94  F   UNL A   1      46.883  37.086  30.728  1.00  0.00    -0.200 F 
ENDBRANCH  61  84
ENDBRANCH  35  36
ENDBRANCH  28  30
ENDBRANCH  27  28
ENDBRANCH  26  27
ENDBRANCH   1  26
TORSDOF 16
ENDMDL
MODEL 2
REMARK VINA RESULT:     -11.5      0.535      7.312
REMARK SMILES CC[C@H](C(=O)OCCOC(=O)c1ccc(-c2c3nc(c(-c4c(F)c(F)c(F)c(F)c4F)c4ccc([nH]4)c(-c4c(F)c(F)c(F)c(F)c4F)c4nc(c(-c5c(F)c(F)c(F)c(F)c5F)c5ccc2[nH]5)C=C4)C=C3)cc1)N1C(=O)/C(=C\c2cc(OC)ccc2OC)SC1=S
REMARK SMILES IDX 7 1 6 2 4 3 5 4 3 5 2 6 1 7 75 8 76 9 91 10 77 11 78 12
REMARK SMILES IDX 90 13 92 14 79 15 80 16 81 17 87 18 82 19 86 20 85 21 88 22
REMARK SMILES IDX 89 23 83 24 84 25 8 26 9 27 10 28 11 29 12 30 13 31 74 32
REMARK SMILES IDX 14 33 73 34 15 35 16 36 17 37 67 38 18 39 72 40 66 41 68 42
REMARK SMILES IDX 19 43 71 44 65 45 64 46 20 48 52 49 32 50 51 51 33 52 36 53
REMARK SMILES IDX 50 54 69 55 34 56 35 57 49 59 70 60 37 61 21 62 22 63 30 64
REMARK SMILES IDX 23 65 24 66 28 67 31 68 25 69 26 70 29 71 27 72 53 73 54 74
REMARK SMILES IDX 62 75 55 76 56 77 60 78 63 79 57 80 58 81 61 82 59 83 38 84
REMARK SMILES IDX 39 85 47 86 40 87 41 88 45 89 48 90 42 91 43 92 46 93 44 94
REMARK H PARENT 68 47 36 58
REMARK Flexibility Score: inf
ROOT
ATOM      1  C   UNL A   1      36.150  20.204  25.015  1.00  0.00     0.274 C 
ENDROOT
BRANCH   1   2
ATOM      2  O   UNL A   1      35.822  21.437  24.343  1.00  0.00    -0.461 OA
BRANCH   2   3
ATOM      3  C   UNL A   1      35.256  22.413  25.109  1.00  0.00     0.329 C 
ATOM      4  O   UNL A   1      35.444  22.542  26.313  1.00  0.00    -0.250 OA
BRANCH   3   5
ATOM      5  C   UNL A   1      34.375  23.343  24.258  1.00  0.00     0.201 C 
BRANCH   5   6
ATOM      6  C   UNL A   1      34.240  23.050  22.754  1.00  0.00     0.034 C 
ATOM      7  C   UNL A   1      33.127  23.782  22.025  1.00  0.00     0.007 C 
ENDBRANCH   5   6
BRANCH   5   8
ATOM      8  N   UNL A   1      33.071  23.564  24.939  1.00  0.00    -0.278 N 
ATOM      9  C   UNL A   1      32.765  24.859  25.332  1.00  0.00     0.266 C 
ATOM     10  C   UNL A   1      32.174  22.586  25.331  1.00  0.00     0.149 C 
ATOM     11  O   UNL A   1      33.527  25.811  25.240  1.00  0.00    -0.268 OA
ATOM     12  C   UNL A   1      31.436  24.910  26.004  1.00  0.00     0.081 C 
ATOM     13  S   UNL A   1      30.864  23.310  26.266  1.00  0.00    -0.054 SA
ATOM     14  S   UNL A   1      32.197  20.942  25.038  1.00  0.00    -0.052 S 
ATOM     15  C   UNL A   1      30.739  26.002  26.352  1.00  0.00     0.033 C 
BRANCH  15  16
ATOM     16  C   UNL A   1      31.112  27.382  26.007  1.00  0.00     0.021 A 
ATOM     17  C   UNL A   1      31.827  28.140  26.950  1.00  0.00     0.058 A 
ATOM     18  C   UNL A   1      30.797  27.967  24.768  1.00  0.00     0.126 A 
ATOM     19  C   UNL A   1      32.286  29.426  26.638  1.00  0.00     0.119 A 
ATOM     20  C   UNL A   1      31.258  29.246  24.459  1.00  0.00     0.051 A 
ATOM     21  C   UNL A   1      31.994  29.977  25.391  1.00  0.00     0.050 A 
BRANCH  18  22
ATOM     22  O   UNL A   1      30.136  27.330  23.747  1.00  0.00    -0.496 OA
ATOM     23  C   UNL A   1      30.985  26.776  22.747  1.00  0.00     0.278 C 
ENDBRANCH  18  22
BRANCH  19  24
ATOM     24  O   UNL A   1      33.015  30.050  27.614  1.00  0.00    -0.497 OA
ATOM     25  C   UNL A   1      34.415  30.150  27.377  1.00  0.00     0.278 C 
ENDBRANCH  19  24
ENDBRANCH  15  16
ENDBRANCH   5   8
ENDBRANCH   3   5
ENDBRANCH   2   3
ENDBRANCH   1   2
BRANCH   1  26
ATOM     26  C   UNL A   1      37.657  19.951  25.004  1.00  0.00     0.275 C 
BRANCH  26  27
ATOM     27  O   UNL A   1      38.361  21.137  25.417  1.00  0.00    -0.458 OA
BRANCH  27  28
ATOM     28  C   UNL A   1      39.432  20.932  26.218  1.00  0.00     0.338 C 
ATOM     29  O   UNL A   1      39.985  19.875  26.463  1.00  0.00    -0.246 OA
BRANCH  28  30
ATOM     30  C   UNL A   1      39.898  22.222  26.753  1.00  0.00     0.060 A 
ATOM     31  C   UNL A   1      39.322  23.386  26.264  1.00  0.00     0.016 A 
ATOM     32  C   UNL A   1      40.992  22.297  27.611  1.00  0.00     0.016 A 
ATOM     33  C   UNL A   1      39.909  24.620  26.532  1.00  0.00     0.010 A 
ATOM     34  C   UNL A   1      41.515  23.554  27.963  1.00  0.00     0.010 A 
ATOM     35  C   UNL A   1      41.022  24.735  27.380  1.00  0.00    -0.014 A 
BRANCH  35  36
ATOM     36  C   UNL A   1      41.667  26.075  27.574  1.00  0.00     0.031 A 
ATOM     37  C   UNL A   1      40.949  27.195  28.298  1.00  0.00     0.074 A 
ATOM     38  C   UNL A   1      42.947  26.287  27.192  1.00  0.00     0.049 A 
ATOM     39  N   UNL A   1      41.382  28.402  28.591  1.00  0.00    -0.248 NA
ATOM     40  C   UNL A   1      39.578  26.933  28.760  1.00  0.00     0.031 C 
ATOM     41  C   UNL A   1      43.802  25.318  26.507  1.00  0.00     0.029 A 
ATOM     42  N   UNL A   1      43.759  27.390  27.339  1.00  0.00    -0.354 N 
ATOM     43  C   UNL A   1      40.358  29.011  29.305  1.00  0.00     0.074 A 
ATOM     44  C   UNL A   1      39.244  28.093  29.306  1.00  0.00     0.031 C 
ATOM     45  C   UNL A   1      45.021  25.849  26.329  1.00  0.00     0.029 A 
ATOM     46  C   UNL A   1      45.015  27.229  26.804  1.00  0.00     0.049 A 
ATOM     47  H   UNL A   1      43.467  28.217  27.787  1.00  0.00     0.167 HD
ATOM     48  C   UNL A   1      40.352  30.198  29.956  1.00  0.00     0.037 A 
ATOM     49  C   UNL A   1      46.036  28.098  26.658  1.00  0.00     0.037 A 
ATOM     50  C   UNL A   1      41.424  31.152  29.955  1.00  0.00     0.049 A 
ATOM     51  C   UNL A   1      45.898  29.510  27.154  1.00  0.00     0.074 A 
ATOM     52  C   UNL A   1      41.485  32.379  30.594  1.00  0.00     0.029 A 
ATOM     53  N   UNL A   1      42.608  30.998  29.262  1.00  0.00    -0.354 N 
ATOM     54  N   UNL A   1      44.948  30.043  27.878  1.00  0.00    -0.248 NA
ATOM     55  C   UNL A   1      46.968  30.452  26.789  1.00  0.00     0.031 C 
ATOM     56  C   UNL A   1      42.692  32.992  30.245  1.00  0.00     0.029 A 
ATOM     57  C   UNL A   1      43.386  32.135  29.407  1.00  0.00     0.049 A 
ATOM     58  H   UNL A   1      42.862  30.201  28.745  1.00  0.00     0.167 HD
ATOM     59  C   UNL A   1      45.312  31.369  28.071  1.00  0.00     0.074 A 
ATOM     60  C   UNL A   1      46.577  31.562  27.399  1.00  0.00     0.031 C 
ATOM     61  C   UNL A   1      44.645  32.337  28.745  1.00  0.00     0.037 A 
BRANCH  48  62
ATOM     62  C   UNL A   1      39.149  30.531  30.781  1.00  0.00     0.064 A 
ATOM     63  C   UNL A   1      39.103  30.181  32.137  1.00  0.00     0.173 A 
ATOM     64  C   UNL A   1      38.081  31.261  30.247  1.00  0.00     0.173 A 
ATOM     65  F   UNL A   1      40.110  29.492  32.694  1.00  0.00    -0.203 F 
ATOM     66  C   UNL A   1      38.015  30.533  32.930  1.00  0.00     0.198 A 
ATOM     67  C   UNL A   1      36.997  31.619  31.044  1.00  0.00     0.198 A 
ATOM     68  F   UNL A   1      38.089  31.625  28.956  1.00  0.00    -0.203 F 
ATOM     69  F   UNL A   1      37.978  30.166  34.219  1.00  0.00    -0.200 F 
ATOM     70  C   UNL A   1      36.963  31.253  32.383  1.00  0.00     0.200 A 
ATOM     71  F   UNL A   1      35.981  32.318  30.519  1.00  0.00    -0.200 F 
ATOM     72  F   UNL A   1      35.914  31.591  33.146  1.00  0.00    -0.200 F 
ENDBRANCH  48  62
BRANCH  49  73
ATOM     73  C   UNL A   1      47.264  27.680  25.928  1.00  0.00     0.064 A 
ATOM     74  C   UNL A   1      48.418  27.274  26.610  1.00  0.00     0.173 A 
ATOM     75  C   UNL A   1      47.313  27.716  24.525  1.00  0.00     0.173 A 
ATOM     76  F   UNL A   1      48.434  27.258  27.951  1.00  0.00    -0.203 F 
ATOM     77  C   UNL A   1      49.577  26.928  25.916  1.00  0.00     0.198 A 
ATOM     78  C   UNL A   1      48.460  27.339  23.833  1.00  0.00     0.198 A 
ATOM     79  F   UNL A   1      46.241  28.116  23.825  1.00  0.00    -0.203 F 
ATOM     80  F   UNL A   1      50.684  26.591  26.592  1.00  0.00    -0.200 F 
ATOM     81  C   UNL A   1      49.594  26.953  24.529  1.00  0.00     0.200 A 
ATOM     82  F   UNL A   1      48.467  27.358  22.493  1.00  0.00    -0.200 F 
ATOM     83  F   UNL A   1      50.708  26.619  23.864  1.00  0.00    -0.200 F 
ENDBRANCH  49  73
BRANCH  61  84
ATOM     84  C   UNL A   1      45.262  33.701  28.805  1.00  0.00     0.064 A 
ATOM     85  C   UNL A   1      44.908  34.698  27.886  1.00  0.00     0.173 A 
ATOM     86  C   UNL A   1      46.165  34.037  29.826  1.00  0.00     0.173 A 
ATOM     87  F   UNL A   1      44.060  34.421  26.884  1.00  0.00    -0.203 F 
ATOM     88  C   UNL A   1      45.445  35.979  27.977  1.00  0.00     0.198 A 
ATOM     89  C   UNL A   1      46.680  35.326  29.930  1.00  0.00     0.198 A 
ATOM     90  F   UNL A   1      46.530  33.121  30.734  1.00  0.00    -0.203 F 
ATOM     91  F   UNL A   1      45.117  36.908  27.068  1.00  0.00    -0.200 F 
ATOM     92  C   UNL A   1      46.323  36.294  29.005  1.00  0.00     0.200 A 
ATOM     93  F   UNL A   1      47.517  35.633  30.930  1.00  0.00    -0.200 F 
ATOM     94  F   UNL A   1      46.827  37.532  29.099  1.00  0.00    -0.200 F 
ENDBRANCH  61  84
ENDBRANCH  35  36
ENDBRANCH  28  30
ENDBRANCH  27  28
ENDBRANCH  26  27
ENDBRANCH   1  26
TORSDOF 16
ENDMDL
MODEL 3
REMARK VINA RESULT:     -11.4      3.989      9.866
REMARK SMILES CC[C@H](C(=O)OCCOC(=O)c1ccc(-c2c3nc(c(-c4c(F)c(F)c(F)c(F)c4F)c4ccc([nH]4)c(-c4c(F)c(F)c(F)c(F)c4F)c4nc(c(-c5c(F)c(F)c(F)c(F)c5F)c5ccc2[nH]5)C=C4)C=C3)cc1)N1C(=O)/C(=C\c2cc(OC)ccc2OC)SC1=S
REMARK SMILES IDX 7 1 6 2 4 3 5 4 3 5 2 6 1 7 75 8 76 9 91 10 77 11 78 12
REMARK SMILES IDX 90 13 92 14 79 15 80 16 81 17 87 18 82 19 86 20 85 21 88 22
REMARK SMILES IDX 89 23 83 24 84 25 8 26 9 27 10 28 11 29 12 30 13 31 74 32
REMARK SMILES IDX 14 33 73 34 15 35 16 36 17 37 67 38 18 39 72 40 66 41 68 42
REMARK SMILES IDX 19 43 71 44 65 45 64 46 20 48 52 49 32 50 51 51 33 52 36 53
REMARK SMILES IDX 50 54 69 55 34 56 35 57 49 59 70 60 37 61 21 62 22 63 30 64
REMARK SMILES IDX 23 65 24 66 28 67 31 68 25 69 26 70 29 71 27 72 53 73 54 74
REMARK SMILES IDX 62 75 55 76 56 77 60 78 63 79 57 80 58 81 61 82 59 83 38 84
REMARK SMILES IDX 39 85 47 86 40 87 41 88 45 89 48 90 42 91 43 92 46 93 44 94
REMARK H PARENT 68 47 36 58
REMARK Flexibility Score: inf
ROOT
ATOM      1  C   UNL A   1      31.779  30.636  25.979  1.00  0.00     0.274 C 
ENDROOT
BRANCH   1   2
ATOM      2  O   UNL A   1      32.074  29.438  26.725  1.00  0.00    -0.461 OA
BRANCH   2   3
ATOM      3  C   UNL A   1      32.945  28.563  26.146  1.00  0.00     0.329 C 
ATOM      4  O   UNL A   1      34.106  28.831  25.860  1.00  0.00    -0.250 OA
BRANCH   3   5
ATOM      5  C   UNL A   1      32.287  27.189  25.929  1.00  0.00     0.201 C 
BRANCH   5   6
ATOM      6  C   UNL A   1      30.798  27.027  26.283  1.00  0.00     0.034 C 
ATOM      7  C   UNL A   1      30.208  25.643  26.078  1.00  0.00     0.007 C 
ENDBRANCH   5   6
BRANCH   5   8
ATOM      8  N   UNL A   1      32.636  26.672  24.578  1.00  0.00    -0.278 N 
ATOM      9  C   UNL A   1      33.487  25.579  24.512  1.00  0.00     0.266 C 
ATOM     10  C   UNL A   1      32.293  27.245  23.366  1.00  0.00     0.149 C 
ATOM     11  O   UNL A   1      34.040  25.069  25.476  1.00  0.00    -0.268 OA
ATOM     12  C   UNL A   1      33.744  25.191  23.097  1.00  0.00     0.081 C 
ATOM     13  S   UNL A   1      33.087  26.384  22.047  1.00  0.00    -0.054 SA
ATOM     14  S   UNL A   1      31.295  28.545  23.049  1.00  0.00    -0.052 S 
ATOM     15  C   UNL A   1      34.365  24.088  22.652  1.00  0.00     0.033 C 
BRANCH  15  16
ATOM     16  C   UNL A   1      34.800  22.969  23.502  1.00  0.00     0.021 A 
ATOM     17  C   UNL A   1      36.161  22.866  23.832  1.00  0.00     0.058 A 
ATOM     18  C   UNL A   1      33.906  22.008  24.009  1.00  0.00     0.126 A 
ATOM     19  C   UNL A   1      36.614  21.875  24.712  1.00  0.00     0.119 A 
ATOM     20  C   UNL A   1      34.360  21.024  24.886  1.00  0.00     0.051 A 
ATOM     21  C   UNL A   1      35.708  20.952  25.232  1.00  0.00     0.050 A 
BRANCH  18  22
ATOM     22  O   UNL A   1      32.550  22.009  23.794  1.00  0.00    -0.496 OA
ATOM     23  C   UNL A   1      31.767  22.286  24.951  1.00  0.00     0.278 C 
ENDBRANCH  18  22
BRANCH  19  24
ATOM     24  O   UNL A   1      37.951  21.903  25.002  1.00  0.00    -0.497 OA
ATOM     25  C   UNL A   1      38.340  22.772  26.060  1.00  0.00     0.278 C 
ENDBRANCH  19  24
ENDBRANCH  15  16
ENDBRANCH   5   8
ENDBRANCH   3   5
ENDBRANCH   2   3
ENDBRANCH   1   2
BRANCH   1  26
ATOM     26  C   UNL A   1      31.601  31.836  26.907  1.00  0.00     0.275 C 
BRANCH  26  27
ATOM     27  O   UNL A   1      32.629  32.813  26.658  1.00  0.00    -0.458 OA
BRANCH  27  28
ATOM     28  C   UNL A   1      33.126  33.432  27.754  1.00  0.00     0.338 C 
ATOM     29  O   UNL A   1      32.606  34.318  28.407  1.00  0.00    -0.246 OA
BRANCH  28  30
ATOM     30  C   UNL A   1      34.427  32.839  28.104  1.00  0.00     0.060 A 
ATOM     31  C   UNL A   1      34.466  31.502  28.473  1.00  0.00     0.016 A 
ATOM     32  C   UNL A   1      35.574  33.622  28.215  1.00  0.00     0.016 A 
ATOM     33  C   UNL A   1      35.610  30.975  29.068  1.00  0.00     0.010 A 
ATOM     34  C   UNL A   1      36.758  33.055  28.718  1.00  0.00     0.010 A 
ATOM     35  C   UNL A   1      36.779  31.738  29.211  1.00  0.00    -0.014 A 
BRANCH  35  36
ATOM     36  C   UNL A   1      37.959  31.152  29.930  1.00  0.00     0.031 A 
ATOM     37  C   UNL A   1      38.270  31.526  31.365  1.00  0.00     0.074 A 
ATOM     38  C   UNL A   1      38.719  30.198  29.347  1.00  0.00     0.049 A 
ATOM     39  N   UNL A   1      39.225  31.077  32.148  1.00  0.00    -0.248 NA
ATOM     40  C   UNL A   1      37.400  32.522  32.008  1.00  0.00     0.031 C 
ATOM     41  C   UNL A   1      38.551  29.692  27.984  1.00  0.00     0.029 A 
ATOM     42  N   UNL A   1      39.782  29.471  29.835  1.00  0.00    -0.354 N 
ATOM     43  C   UNL A   1      39.036  31.700  33.375  1.00  0.00     0.074 A 
ATOM     44  C   UNL A   1      37.953  32.639  33.206  1.00  0.00     0.031 C 
ATOM     45  C   UNL A   1      39.446  28.718  27.759  1.00  0.00     0.029 A 
ATOM     46  C   UNL A   1      40.313  28.586  28.926  1.00  0.00     0.049 A 
ATOM     47  H   UNL A   1      40.130  29.574  30.751  1.00  0.00     0.167 HD
ATOM     48  C   UNL A   1      39.658  31.477  34.557  1.00  0.00     0.037 A 
ATOM     49  C   UNL A   1      41.402  27.793  28.991  1.00  0.00     0.037 A 
ATOM     50  C   UNL A   1      40.758  30.578  34.762  1.00  0.00     0.049 A 
ATOM     51  C   UNL A   1      42.243  27.771  30.236  1.00  0.00     0.074 A 
ATOM     52  C   UNL A   1      41.439  30.304  35.936  1.00  0.00     0.029 A 
ATOM     53  N   UNL A   1      41.352  29.829  33.766  1.00  0.00    -0.354 N 
ATOM     54  N   UNL A   1      42.009  28.319  31.401  1.00  0.00    -0.248 NA
ATOM     55  C   UNL A   1      43.517  27.037  30.167  1.00  0.00     0.031 C 
ATOM     56  C   UNL A   1      42.483  29.422  35.638  1.00  0.00     0.029 A 
ATOM     57  C   UNL A   1      42.433  29.136  34.284  1.00  0.00     0.049 A 
ATOM     58  H   UNL A   1      41.052  29.792  32.829  1.00  0.00     0.167 HD
ATOM     59  C   UNL A   1      43.091  27.983  32.206  1.00  0.00     0.074 A 
ATOM     60  C   UNL A   1      43.978  27.172  31.403  1.00  0.00     0.031 C 
ATOM     61  C   UNL A   1      43.321  28.326  33.496  1.00  0.00     0.037 A 
BRANCH  48  62
ATOM     62  C   UNL A   1      39.136  32.194  35.762  1.00  0.00     0.064 A 
ATOM     63  C   UNL A   1      38.255  31.548  36.641  1.00  0.00     0.173 A 
ATOM     64  C   UNL A   1      39.565  33.486  36.083  1.00  0.00     0.173 A 
ATOM     65  F   UNL A   1      37.827  30.304  36.380  1.00  0.00    -0.203 F 
ATOM     66  C   UNL A   1      37.805  32.182  37.795  1.00  0.00     0.198 A 
ATOM     67  C   UNL A   1      39.119  34.116  37.242  1.00  0.00     0.198 A 
ATOM     68  F   UNL A   1      40.415  34.136  35.274  1.00  0.00    -0.203 F 
ATOM     69  F   UNL A   1      36.943  31.557  38.610  1.00  0.00    -0.200 F 
ATOM     70  C   UNL A   1      38.238  33.465  38.095  1.00  0.00     0.200 A 
ATOM     71  F   UNL A   1      39.539  35.354  37.536  1.00  0.00    -0.200 F 
ATOM     72  F   UNL A   1      37.803  34.076  39.206  1.00  0.00    -0.200 F 
ENDBRANCH  48  62
BRANCH  49  73
ATOM     73  C   UNL A   1      41.816  27.007  27.797  1.00  0.00     0.064 A 
ATOM     74  C   UNL A   1      41.394  25.684  27.610  1.00  0.00     0.173 A 
ATOM     75  C   UNL A   1      42.678  27.560  26.836  1.00  0.00     0.173 A 
ATOM     76  F   UNL A   1      40.601  25.098  28.518  1.00  0.00    -0.203 F 
ATOM     77  C   UNL A   1      41.825  24.943  26.510  1.00  0.00     0.198 A 
ATOM     78  C   UNL A   1      43.081  26.829  25.722  1.00  0.00     0.198 A 
ATOM     79  F   UNL A   1      43.126  28.816  26.979  1.00  0.00    -0.203 F 
ATOM     80  F   UNL A   1      41.449  23.663  26.378  1.00  0.00    -0.200 F 
ATOM     81  C   UNL A   1      42.661  25.518  25.564  1.00  0.00     0.200 A 
ATOM     82  F   UNL A   1      43.881  27.395  24.808  1.00  0.00    -0.200 F 
ATOM     83  F   UNL A   1      43.073  24.806  24.507  1.00  0.00    -0.200 F 
ENDBRANCH  49  73
BRANCH  61  84
ATOM     84  C   UNL A   1      44.579  27.828  34.140  1.00  0.00     0.064 A 
ATOM     85  C   UNL A   1      45.735  28.618  34.183  1.00  0.00     0.173 A 
ATOM     86  C   UNL A   1      44.612  26.577  34.776  1.00  0.00     0.173 A 
ATOM     87  F   UNL A   1      45.755  29.815  33.577  1.00  0.00    -0.203 F 
ATOM     88  C   UNL A   1      46.884  28.172  34.828  1.00  0.00     0.198 A 
ATOM     89  C   UNL A   1      45.755  26.144  35.443  1.00  0.00     0.198 A 
ATOM     90  F   UNL A   1      43.530  25.785  34.770  1.00  0.00    -0.203 F 
ATOM     91  F   UNL A   1      47.988  28.932  34.829  1.00  0.00    -0.200 F 
ATOM     92  C   UNL A   1      46.890  26.939  35.465  1.00  0.00     0.200 A 
ATOM     93  F   UNL A   1      45.755  24.959  36.069  1.00  0.00    -0.200 F 
ATOM     94  F   UNL A   1      47.993  26.517  36.098  1.00  0.00    -0.200 F 
ENDBRANCH  61  84
ENDBRANCH  35  36
ENDBRANCH  28  30
ENDBRANCH  27  28
ENDBRANCH  26  27
ENDBRANCH   1  26
TORSDOF 16
ENDMDL
