MODEL 1
REMARK VINA RESULT:     -10.9      0.000      0.000
REMARK SMILES O=C(/C=C/c1cccs1)NCC(=O)OCCOC(=O)c1ccc(-c2c3nc(c(-c4c(F)c(F)c(F)c(F)c4F)c4ccc([nH]4)c(-c4c(F)c(F)c(F)c(F)c4F)c4nc(c(-c5c(F)c(F)c(F)c(F)c5F)c5ccc2[nH]5)C=C4)C=C3)cc1
REMARK SMILES IDX 15 1 14 2 12 3 13 4 11 5 10 6 1 7 2 8 3 10 4 11 5 12 6 13
REMARK SMILES IDX 9 14 7 15 8 16 16 17 17 18 18 19 19 20 20 21 21 22 82 23
REMARK SMILES IDX 22 24 81 25 23 26 24 27 25 28 75 29 26 30 80 31 74 32 76 33
REMARK SMILES IDX 27 34 79 35 73 36 72 37 28 39 60 40 40 41 59 42 41 43 44 44
REMARK SMILES IDX 58 45 77 46 42 47 43 48 57 50 78 51 45 52 29 53 30 54 38 55
REMARK SMILES IDX 31 56 32 57 36 58 39 59 33 60 34 61 37 62 35 63 61 64 62 65
REMARK SMILES IDX 70 66 63 67 64 68 68 69 71 70 65 71 66 72 69 73 67 74 46 75
REMARK SMILES IDX 47 76 55 77 48 78 49 79 53 80 56 81 50 82 51 83 54 84 52 85
REMARK H PARENT 10 9 76 38 44 49
REMARK Flexibility Score: inf
ROOT
ATOM      1  C   UNL A   1      45.258  21.472  24.435  1.00  0.00     0.274 C 
ENDROOT
BRANCH   1   2
ATOM      2  O   UNL A   1      44.698  20.217  24.011  1.00  0.00    -0.461 OA
BRANCH   2   3
ATOM      3  C   UNL A   1      45.048  19.115  24.728  1.00  0.00     0.325 C 
ATOM      4  O   UNL A   1      46.155  18.589  24.712  1.00  0.00    -0.250 OA
BRANCH   3   5
ATOM      5  C   UNL A   1      43.879  18.563  25.533  1.00  0.00     0.239 C 
BRANCH   5   6
ATOM      6  N   UNL A   1      42.611  19.259  25.353  1.00  0.00    -0.342 N 
ATOM      7  O   UNL A   1      42.134  19.266  27.582  1.00  0.00    -0.270 OA
ATOM      8  C   UNL A   1      41.850  19.594  26.433  1.00  0.00     0.244 C 
ATOM      9  H   UNL A   1      42.303  19.487  24.446  1.00  0.00     0.164 HD
BRANCH   8  10
ATOM     10  C   UNL A   1      40.625  20.397  26.210  1.00  0.00     0.072 C 
ATOM     11  C   UNL A   1      40.481  21.728  26.278  1.00  0.00     0.024 C 
BRANCH  11  12
ATOM     12  C   UNL A   1      39.194  22.322  26.091  1.00  0.00     0.027 A 
ATOM     13  C   UNL A   1      38.058  21.818  25.472  1.00  0.00     0.020 A 
ATOM     14  S   UNL A   1      38.883  23.904  26.699  1.00  0.00    -0.144 S 
ATOM     15  C   UNL A   1      36.968  22.734  25.461  1.00  0.00     0.012 A 
ATOM     16  C   UNL A   1      37.289  23.917  26.083  1.00  0.00     0.065 A 
ENDBRANCH  11  12
ENDBRANCH   8  10
ENDBRANCH   5   6
ENDBRANCH   3   5
ENDBRANCH   2   3
ENDBRANCH   1   2
BRANCH   1  17
ATOM     17  C   UNL A   1      44.490  22.629  23.792  1.00  0.00     0.275 C 
BRANCH  17  18
ATOM     18  O   UNL A   1      43.839  23.454  24.779  1.00  0.00    -0.458 OA
BRANCH  18  19
ATOM     19  C   UNL A   1      44.499  24.586  25.120  1.00  0.00     0.338 C 
ATOM     20  O   UNL A   1      45.499  25.047  24.592  1.00  0.00    -0.246 OA
BRANCH  19  21
ATOM     21  C   UNL A   1      43.754  25.308  26.169  1.00  0.00     0.060 A 
ATOM     22  C   UNL A   1      44.165  26.610  26.468  1.00  0.00     0.016 A 
ATOM     23  C   UNL A   1      42.718  24.710  26.896  1.00  0.00     0.016 A 
ATOM     24  C   UNL A   1      43.562  27.310  27.508  1.00  0.00     0.010 A 
ATOM     25  C   UNL A   1      42.113  25.416  27.943  1.00  0.00     0.010 A 
ATOM     26  C   UNL A   1      42.547  26.713  28.268  1.00  0.00    -0.014 A 
BRANCH  26  27
ATOM     27  C   UNL A   1      42.005  27.448  29.437  1.00  0.00     0.031 A 
ATOM     28  C   UNL A   1      42.736  27.412  30.749  1.00  0.00     0.074 A 
ATOM     29  C   UNL A   1      40.908  28.212  29.296  1.00  0.00     0.049 A 
ATOM     30  N   UNL A   1      42.474  28.051  31.861  1.00  0.00    -0.248 NA
ATOM     31  C   UNL A   1      43.922  26.544  30.818  1.00  0.00     0.031 C 
ATOM     32  C   UNL A   1      40.126  28.343  28.068  1.00  0.00     0.029 A 
ATOM     33  N   UNL A   1      40.273  29.037  30.190  1.00  0.00    -0.354 N 
ATOM     34  C   UNL A   1      43.459  27.665  32.760  1.00  0.00     0.074 A 
ATOM     35  C   UNL A   1      44.306  26.712  32.075  1.00  0.00     0.031 C 
ATOM     36  C   UNL A   1      39.127  29.216  28.279  1.00  0.00     0.029 A 
ATOM     37  C   UNL A   1      39.186  29.686  29.660  1.00  0.00     0.049 A 
ATOM     38  H   UNL A   1      40.570  29.152  31.122  1.00  0.00     0.167 HD
ATOM     39  C   UNL A   1      43.645  28.078  34.037  1.00  0.00     0.037 A 
ATOM     40  C   UNL A   1      38.336  30.564  30.228  1.00  0.00     0.037 A 
ATOM     41  C   UNL A   1      42.807  29.031  34.717  1.00  0.00     0.049 A 
ATOM     42  C   UNL A   1      38.551  30.984  31.656  1.00  0.00     0.074 A 
ATOM     43  C   UNL A   1      42.922  29.517  36.008  1.00  0.00     0.029 A 
ATOM     44  N   UNL A   1      41.695  29.642  34.159  1.00  0.00    -0.354 N 
ATOM     45  N   UNL A   1      39.498  30.630  32.490  1.00  0.00    -0.248 NA
ATOM     46  C   UNL A   1      37.580  31.933  32.219  1.00  0.00     0.031 C 
ATOM     47  C   UNL A   1      41.859  30.396  36.242  1.00  0.00     0.029 A 
ATOM     48  C   UNL A   1      41.105  30.490  35.085  1.00  0.00     0.049 A 
ATOM     49  H   UNL A   1      41.372  29.497  33.240  1.00  0.00     0.167 HD
ATOM     50  C   UNL A   1      39.251  31.325  33.666  1.00  0.00     0.074 A 
ATOM     51  C   UNL A   1      38.075  32.136  33.432  1.00  0.00     0.031 C 
ATOM     52  C   UNL A   1      39.935  31.291  34.836  1.00  0.00     0.037 A 
BRANCH  39  53
ATOM     53  C   UNL A   1      44.797  27.483  34.793  1.00  0.00     0.064 A 
ATOM     54  C   UNL A   1      44.650  26.314  35.555  1.00  0.00     0.173 A 
ATOM     55  C   UNL A   1      46.069  28.070  34.725  1.00  0.00     0.173 A 
ATOM     56  F   UNL A   1      43.450  25.725  35.663  1.00  0.00    -0.203 F 
ATOM     57  C   UNL A   1      45.732  25.767  36.241  1.00  0.00     0.198 A 
ATOM     58  C   UNL A   1      47.153  27.506  35.393  1.00  0.00     0.198 A 
ATOM     59  F   UNL A   1      46.261  29.186  34.007  1.00  0.00    -0.203 F 
ATOM     60  F   UNL A   1      45.561  24.674  36.995  1.00  0.00    -0.200 F 
ATOM     61  C   UNL A   1      46.983  26.360  36.154  1.00  0.00     0.200 A 
ATOM     62  F   UNL A   1      48.364  28.075  35.300  1.00  0.00    -0.200 F 
ATOM     63  F   UNL A   1      48.024  25.829  36.810  1.00  0.00    -0.200 F 
ENDBRANCH  39  53
BRANCH  40  64
ATOM     64  C   UNL A   1      37.208  31.114  29.435  1.00  0.00     0.064 A 
ATOM     65  C   UNL A   1      37.237  32.429  28.951  1.00  0.00     0.173 A 
ATOM     66  C   UNL A   1      36.074  30.339  29.154  1.00  0.00     0.173 A 
ATOM     67  F   UNL A   1      38.289  33.218  29.218  1.00  0.00    -0.203 F 
ATOM     68  C   UNL A   1      36.167  32.953  28.228  1.00  0.00     0.198 A 
ATOM     69  C   UNL A   1      35.017  30.854  28.407  1.00  0.00     0.198 A 
ATOM     70  F   UNL A   1      35.998  29.075  29.598  1.00  0.00    -0.203 F 
ATOM     71  F   UNL A   1      36.200  34.226  27.813  1.00  0.00    -0.200 F 
ATOM     72  C   UNL A   1      35.061  32.163  27.951  1.00  0.00     0.200 A 
ATOM     73  F   UNL A   1      33.954  30.084  28.136  1.00  0.00    -0.200 F 
ATOM     74  F   UNL A   1      34.034  32.665  27.253  1.00  0.00    -0.200 F 
ENDBRANCH  40  64
BRANCH  52  75
ATOM     75  C   UNL A   1      39.439  32.174  35.943  1.00  0.00     0.064 A 
ATOM     76  C   UNL A   1      38.437  31.750  36.827  1.00  0.00     0.173 A 
ATOM     77  C   UNL A   1      39.984  33.453  36.131  1.00  0.00     0.173 A 
ATOM     78  F   UNL A   1      37.873  30.540  36.678  1.00  0.00    -0.203 F 
ATOM     79  C   UNL A   1      37.980  32.583  37.844  1.00  0.00     0.198 A 
ATOM     80  C   UNL A   1      39.543  34.275  37.165  1.00  0.00     0.198 A 
ATOM     81  F   UNL A   1      40.950  33.904  35.316  1.00  0.00    -0.203 F 
ATOM     82  F   UNL A   1      36.987  32.175  38.647  1.00  0.00    -0.200 F 
ATOM     83  C   UNL A   1      38.535  33.842  38.015  1.00  0.00     0.200 A 
ATOM     84  F   UNL A   1      40.088  35.487  37.334  1.00  0.00    -0.200 F 
ATOM     85  F   UNL A   1      38.093  34.644  38.993  1.00  0.00    -0.200 F 
ENDBRANCH  52  75
ENDBRANCH  26  27
ENDBRANCH  19  21
ENDBRANCH  18  19
ENDBRANCH  17  18
ENDBRANCH   1  17
TORSDOF 14
ENDMDL
MODEL 2
REMARK VINA RESULT:     -10.7      5.064     10.998
REMARK SMILES O=C(/C=C/c1cccs1)NCC(=O)OCCOC(=O)c1ccc(-c2c3nc(c(-c4c(F)c(F)c(F)c(F)c4F)c4ccc([nH]4)c(-c4c(F)c(F)c(F)c(F)c4F)c4nc(c(-c5c(F)c(F)c(F)c(F)c5F)c5ccc2[nH]5)C=C4)C=C3)cc1
REMARK SMILES IDX 15 1 14 2 12 3 13 4 11 5 10 6 1 7 2 8 3 10 4 11 5 12 6 13
REMARK SMILES IDX 9 14 7 15 8 16 16 17 17 18 18 19 19 20 20 21 21 22 82 23
REMARK SMILES IDX 22 24 81 25 23 26 24 27 25 28 75 29 26 30 80 31 74 32 76 33
REMARK SMILES IDX 27 34 79 35 73 36 72 37 28 39 60 40 40 41 59 42 41 43 44 44
REMARK SMILES IDX 58 45 77 46 42 47 43 48 57 50 78 51 45 52 29 53 30 54 38 55
REMARK SMILES IDX 31 56 32 57 36 58 39 59 33 60 34 61 37 62 35 63 61 64 62 65
REMARK SMILES IDX 70 66 63 67 64 68 68 69 71 70 65 71 66 72 69 73 67 74 46 75
REMARK SMILES IDX 47 76 55 77 48 78 49 79 53 80 56 81 50 82 51 83 54 84 52 85
REMARK H PARENT 10 9 76 38 44 49
REMARK Flexibility Score: inf
ROOT
ATOM      1  C   UNL A   1      33.251  35.100  28.745  1.00  0.00     0.274 C 
ENDROOT
BRANCH   1   2
ATOM      2  O   UNL A   1      32.391  35.372  29.864  1.00  0.00    -0.461 OA
BRANCH   2   3
ATOM      3  C   UNL A   1      32.923  36.098  30.885  1.00  0.00     0.325 C 
ATOM      4  O   UNL A   1      32.916  37.321  30.956  1.00  0.00    -0.250 OA
BRANCH   3   5
ATOM      5  C   UNL A   1      33.586  35.210  31.930  1.00  0.00     0.239 C 
BRANCH   5   6
ATOM      6  N   UNL A   1      35.023  35.027  31.776  1.00  0.00    -0.342 N 
ATOM      7  O   UNL A   1      35.444  35.324  33.996  1.00  0.00    -0.270 OA
ATOM      8  C   UNL A   1      35.842  35.061  32.864  1.00  0.00     0.244 C 
ATOM      9  H   UNL A   1      35.404  34.878  30.880  1.00  0.00     0.164 HD
BRANCH   8  10
ATOM     10  C   UNL A   1      37.280  34.759  32.674  1.00  0.00     0.072 C 
ATOM     11  C   UNL A   1      38.028  34.935  31.576  1.00  0.00     0.024 C 
BRANCH  11  12
ATOM     12  C   UNL A   1      39.397  34.522  31.565  1.00  0.00     0.027 A 
ATOM     13  C   UNL A   1      40.303  34.404  32.610  1.00  0.00     0.020 A 
ATOM     14  S   UNL A   1      40.142  34.062  30.081  1.00  0.00    -0.144 S 
ATOM     15  C   UNL A   1      41.598  33.986  32.190  1.00  0.00     0.012 A 
ATOM     16  C   UNL A   1      41.651  33.779  30.832  1.00  0.00     0.065 A 
ENDBRANCH  11  12
ENDBRANCH   8  10
ENDBRANCH   5   6
ENDBRANCH   3   5
ENDBRANCH   2   3
ENDBRANCH   1   2
BRANCH   1  17
ATOM     17  C   UNL A   1      32.757  33.859  27.997  1.00  0.00     0.275 C 
BRANCH  17  18
ATOM     18  O   UNL A   1      33.836  33.168  27.336  1.00  0.00    -0.458 OA
BRANCH  18  19
ATOM     19  C   UNL A   1      33.842  31.822  27.482  1.00  0.00     0.338 C 
ATOM     20  O   UNL A   1      32.964  31.038  27.157  1.00  0.00    -0.246 OA
BRANCH  19  21
ATOM     21  C   UNL A   1      35.159  31.375  27.978  1.00  0.00     0.060 A 
ATOM     22  C   UNL A   1      35.256  30.060  28.444  1.00  0.00     0.016 A 
ATOM     23  C   UNL A   1      36.260  32.234  28.054  1.00  0.00     0.016 A 
ATOM     24  C   UNL A   1      36.444  29.606  29.007  1.00  0.00     0.010 A 
ATOM     25  C   UNL A   1      37.456  31.776  28.622  1.00  0.00     0.010 A 
ATOM     26  C   UNL A   1      37.546  30.465  29.121  1.00  0.00    -0.014 A 
BRANCH  26  27
ATOM     27  C   UNL A   1      38.758  29.981  29.827  1.00  0.00     0.031 A 
ATOM     28  C   UNL A   1      39.002  30.376  31.255  1.00  0.00     0.074 A 
ATOM     29  C   UNL A   1      39.589  29.120  29.213  1.00  0.00     0.049 A 
ATOM     30  N   UNL A   1      39.952  29.993  32.071  1.00  0.00    -0.248 NA
ATOM     31  C   UNL A   1      38.048  31.327  31.846  1.00  0.00     0.031 C 
ATOM     32  C   UNL A   1      39.445  28.647  27.837  1.00  0.00     0.029 A 
ATOM     33  N   UNL A   1      40.709  28.477  29.676  1.00  0.00    -0.354 N 
ATOM     34  C   UNL A   1      39.712  30.653  33.268  1.00  0.00     0.074 A 
ATOM     35  C   UNL A   1      38.545  31.486  33.065  1.00  0.00     0.031 C 
ATOM     36  C   UNL A   1      40.428  27.770  27.573  1.00  0.00     0.029 A 
ATOM     37  C   UNL A   1      41.282  27.639  28.751  1.00  0.00     0.049 A 
ATOM     38  H   UNL A   1      41.068  28.604  30.584  1.00  0.00     0.167 HD
ATOM     39  C   UNL A   1      40.396  30.564  34.434  1.00  0.00     0.037 A 
ATOM     40  C   UNL A   1      42.371  26.853  28.847  1.00  0.00     0.037 A 
ATOM     41  C   UNL A   1      41.552  29.731  34.639  1.00  0.00     0.049 A 
ATOM     42  C   UNL A   1      43.127  26.793  30.146  1.00  0.00     0.074 A 
ATOM     43  C   UNL A   1      42.307  29.566  35.788  1.00  0.00     0.029 A 
ATOM     44  N   UNL A   1      42.123  28.920  33.669  1.00  0.00    -0.354 N 
ATOM     45  N   UNL A   1      42.879  27.404  31.278  1.00  0.00    -0.248 NA
ATOM     46  C   UNL A   1      44.314  25.926  30.180  1.00  0.00     0.031 C 
ATOM     47  C   UNL A   1      43.355  28.684  35.502  1.00  0.00     0.029 A 
ATOM     48  C   UNL A   1      43.229  28.267  34.188  1.00  0.00     0.049 A 
ATOM     49  H   UNL A   1      41.790  28.823  32.747  1.00  0.00     0.167 HD
ATOM     50  C   UNL A   1      43.861  26.982  32.164  1.00  0.00     0.074 A 
ATOM     51  C   UNL A   1      44.701  26.048  31.442  1.00  0.00     0.031 C 
ATOM     52  C   UNL A   1      44.054  27.339  33.457  1.00  0.00     0.037 A 
BRANCH  39  53
ATOM     53  C   UNL A   1      39.919  31.405  35.580  1.00  0.00     0.064 A 
ATOM     54  C   UNL A   1      38.769  31.068  36.311  1.00  0.00     0.173 A 
ATOM     55  C   UNL A   1      40.638  32.543  35.973  1.00  0.00     0.173 A 
ATOM     56  F   UNL A   1      38.039  29.997  35.963  1.00  0.00    -0.203 F 
ATOM     57  C   UNL A   1      38.346  31.853  37.380  1.00  0.00     0.198 A 
ATOM     58  C   UNL A   1      40.225  33.312  37.058  1.00  0.00     0.198 A 
ATOM     59  F   UNL A   1      41.745  32.906  35.308  1.00  0.00    -0.203 F 
ATOM     60  F   UNL A   1      37.223  31.535  38.039  1.00  0.00    -0.200 F 
ATOM     61  C   UNL A   1      39.077  32.970  37.757  1.00  0.00     0.200 A 
ATOM     62  F   UNL A   1      40.937  34.386  37.426  1.00  0.00    -0.200 F 
ATOM     63  F   UNL A   1      38.671  33.721  38.789  1.00  0.00    -0.200 F 
ENDBRANCH  39  53
BRANCH  40  64
ATOM     64  C   UNL A   1      42.803  26.046  27.677  1.00  0.00     0.064 A 
ATOM     65  C   UNL A   1      43.770  26.526  26.784  1.00  0.00     0.173 A 
ATOM     66  C   UNL A   1      42.249  24.783  27.425  1.00  0.00     0.173 A 
ATOM     67  F   UNL A   1      44.308  27.741  26.970  1.00  0.00    -0.203 F 
ATOM     68  C   UNL A   1      44.158  25.779  25.674  1.00  0.00     0.198 A 
ATOM     69  C   UNL A   1      42.657  24.024  26.330  1.00  0.00     0.198 A 
ATOM     70  F   UNL A   1      41.317  24.281  28.250  1.00  0.00    -0.203 F 
ATOM     71  F   UNL A   1      45.053  26.278  24.812  1.00  0.00    -0.200 F 
ATOM     72  C   UNL A   1      43.605  24.526  25.451  1.00  0.00     0.200 A 
ATOM     73  F   UNL A   1      42.126  22.812  26.124  1.00  0.00    -0.200 F 
ATOM     74  F   UNL A   1      43.979  23.806  24.386  1.00  0.00    -0.200 F 
ENDBRANCH  40  64
BRANCH  52  75
ATOM     75  C   UNL A   1      45.204  26.700  34.178  1.00  0.00     0.064 A 
ATOM     76  C   UNL A   1      46.475  27.292  34.204  1.00  0.00     0.173 A 
ATOM     77  C   UNL A   1      45.028  25.491  34.866  1.00  0.00     0.173 A 
ATOM     78  F   UNL A   1      46.696  28.442  33.547  1.00  0.00    -0.203 F 
ATOM     79  C   UNL A   1      47.534  26.683  34.869  1.00  0.00     0.198 A 
ATOM     80  C   UNL A   1      46.084  24.896  35.553  1.00  0.00     0.198 A 
ATOM     81  F   UNL A   1      43.829  24.887  34.878  1.00  0.00    -0.203 F 
ATOM     82  F   UNL A   1      48.753  27.242  34.839  1.00  0.00    -0.200 F 
ATOM     83  C   UNL A   1      47.338  25.489  35.546  1.00  0.00     0.200 A 
ATOM     84  F   UNL A   1      45.889  23.748  36.214  1.00  0.00    -0.200 F 
ATOM     85  F   UNL A   1      48.360  24.903  36.185  1.00  0.00    -0.200 F 
ENDBRANCH  52  75
ENDBRANCH  26  27
ENDBRANCH  19  21
ENDBRANCH  18  19
ENDBRANCH  17  18
ENDBRANCH   1  17
TORSDOF 14
ENDMDL
MODEL 3
REMARK VINA RESULT:     -10.7      6.772     12.537
REMARK SMILES O=C(/C=C/c1cccs1)NCC(=O)OCCOC(=O)c1ccc(-c2c3nc(c(-c4c(F)c(F)c(F)c(F)c4F)c4ccc([nH]4)c(-c4c(F)c(F)c(F)c(F)c4F)c4nc(c(-c5c(F)c(F)c(F)c(F)c5F)c5ccc2[nH]5)C=C4)C=C3)cc1
REMARK SMILES IDX 15 1 14 2 12 3 13 4 11 5 10 6 1 7 2 8 3 10 4 11 5 12 6 13
REMARK SMILES IDX 9 14 7 15 8 16 16 17 17 18 18 19 19 20 20 21 21 22 82 23
REMARK SMILES IDX 22 24 81 25 23 26 24 27 25 28 75 29 26 30 80 31 74 32 76 33
REMARK SMILES IDX 27 34 79 35 73 36 72 37 28 39 60 40 40 41 59 42 41 43 44 44
REMARK SMILES IDX 58 45 77 46 42 47 43 48 57 50 78 51 45 52 29 53 30 54 38 55
REMARK SMILES IDX 31 56 32 57 36 58 39 59 33 60 34 61 37 62 35 63 61 64 62 65
REMARK SMILES IDX 70 66 63 67 64 68 68 69 71 70 65 71 66 72 69 73 67 74 46 75
REMARK SMILES IDX 47 76 55 77 48 78 49 79 53 80 56 81 50 82 51 83 54 84 52 85
REMARK H PARENT 10 9 76 38 44 49
REMARK Flexibility Score: inf
ROOT
ATOM      1  C   UNL A   1      34.709  35.357  33.567  1.00  0.00     0.274 C 
ENDROOT
BRANCH   1   2
ATOM      2  O   UNL A   1      34.426  36.578  32.859  1.00  0.00    -0.461 OA
BRANCH   2   3
ATOM      3  C   UNL A   1      33.137  36.778  32.473  1.00  0.00     0.325 C 
ATOM      4  O   UNL A   1      32.226  37.123  33.216  1.00  0.00    -0.250 OA
BRANCH   3   5
ATOM      5  C   UNL A   1      32.932  36.475  30.994  1.00  0.00     0.239 C 
BRANCH   5   6
ATOM      6  N   UNL A   1      33.181  35.095  30.597  1.00  0.00    -0.342 N 
ATOM      7  O   UNL A   1      34.009  35.681  28.556  1.00  0.00    -0.270 OA
ATOM      8  C   UNL A   1      33.754  34.818  29.392  1.00  0.00     0.244 C 
ATOM      9  H   UNL A   1      32.934  34.360  31.204  1.00  0.00     0.164 HD
BRANCH   8  10
ATOM     10  C   UNL A   1      34.090  33.410  29.078  1.00  0.00     0.072 C 
ATOM     11  C   UNL A   1      34.319  32.858  27.878  1.00  0.00     0.024 C 
BRANCH  11  12
ATOM     12  C   UNL A   1      34.571  31.455  27.769  1.00  0.00     0.027 A 
ATOM     13  C   UNL A   1      35.685  30.715  28.140  1.00  0.00     0.020 A 
ATOM     14  S   UNL A   1      33.368  30.418  27.099  1.00  0.00    -0.144 S 
ATOM     15  C   UNL A   1      35.567  29.328  27.838  1.00  0.00     0.012 A 
ATOM     16  C   UNL A   1      34.358  29.034  27.253  1.00  0.00     0.065 A 
ENDBRANCH  11  12
ENDBRANCH   8  10
ENDBRANCH   5   6
ENDBRANCH   3   5
ENDBRANCH   2   3
ENDBRANCH   1   2
BRANCH   1  17
ATOM     17  C   UNL A   1      36.057  34.792  33.113  1.00  0.00     0.275 C 
BRANCH  17  18
ATOM     18  O   UNL A   1      35.948  33.414  32.703  1.00  0.00    -0.458 OA
BRANCH  18  19
ATOM     19  C   UNL A   1      36.754  32.546  33.358  1.00  0.00     0.338 C 
ATOM     20  O   UNL A   1      36.670  32.193  34.524  1.00  0.00    -0.246 OA
BRANCH  19  21
ATOM     21  C   UNL A   1      37.713  31.937  32.414  1.00  0.00     0.060 A 
ATOM     22  C   UNL A   1      38.883  31.393  32.951  1.00  0.00     0.016 A 
ATOM     23  C   UNL A   1      37.512  31.954  31.030  1.00  0.00     0.016 A 
ATOM     24  C   UNL A   1      39.867  30.887  32.108  1.00  0.00     0.010 A 
ATOM     25  C   UNL A   1      38.503  31.444  30.182  1.00  0.00     0.010 A 
ATOM     26  C   UNL A   1      39.696  30.927  30.717  1.00  0.00    -0.014 A 
BRANCH  26  27
ATOM     27  C   UNL A   1      40.812  30.480  29.848  1.00  0.00     0.031 A 
ATOM     28  C   UNL A   1      41.946  31.415  29.544  1.00  0.00     0.074 A 
ATOM     29  C   UNL A   1      40.845  29.210  29.405  1.00  0.00     0.049 A 
ATOM     30  N   UNL A   1      43.051  31.190  28.878  1.00  0.00    -0.248 NA
ATOM     31  C   UNL A   1      41.824  32.787  30.060  1.00  0.00     0.031 C 
ATOM     32  C   UNL A   1      39.814  28.205  29.653  1.00  0.00     0.029 A 
ATOM     33  N   UNL A   1      41.795  28.546  28.670  1.00  0.00    -0.354 N 
ATOM     34  C   UNL A   1      43.754  32.386  28.895  1.00  0.00     0.074 A 
ATOM     35  C   UNL A   1      42.938  33.346  29.610  1.00  0.00     0.031 C 
ATOM     36  C   UNL A   1      40.197  27.042  29.097  1.00  0.00     0.029 A 
ATOM     37  C   UNL A   1      41.486  27.229  28.437  1.00  0.00     0.049 A 
ATOM     38  H   UNL A   1      42.619  28.974  28.341  1.00  0.00     0.167 HD
ATOM     39  C   UNL A   1      44.974  32.657  28.372  1.00  0.00     0.037 A 
ATOM     40  C   UNL A   1      42.170  26.281  27.769  1.00  0.00     0.037 A 
ATOM     41  C   UNL A   1      45.789  31.702  27.667  1.00  0.00     0.049 A 
ATOM     42  C   UNL A   1      43.511  26.616  27.175  1.00  0.00     0.074 A 
ATOM     43  C   UNL A   1      47.043  31.881  27.109  1.00  0.00     0.029 A 
ATOM     44  N   UNL A   1      45.428  30.385  27.422  1.00  0.00    -0.354 N 
ATOM     45  N   UNL A   1      44.176  27.744  27.216  1.00  0.00    -0.248 NA
ATOM     46  C   UNL A   1      44.198  25.540  26.446  1.00  0.00     0.031 C 
ATOM     47  C   UNL A   1      47.425  30.682  26.495  1.00  0.00     0.029 A 
ATOM     48  C   UNL A   1      46.428  29.745  26.707  1.00  0.00     0.049 A 
ATOM     49  H   UNL A   1      44.586  29.967  27.713  1.00  0.00     0.167 HD
ATOM     50  C   UNL A   1      45.366  27.511  26.540  1.00  0.00     0.074 A 
ATOM     51  C   UNL A   1      45.339  26.127  26.113  1.00  0.00     0.031 C 
ATOM     52  C   UNL A   1      46.387  28.367  26.291  1.00  0.00     0.037 A 
BRANCH  39  53
ATOM     53  C   UNL A   1      45.497  34.054  28.528  1.00  0.00     0.064 A 
ATOM     54  C   UNL A   1      46.310  34.417  29.614  1.00  0.00     0.173 A 
ATOM     55  C   UNL A   1      45.211  35.031  27.565  1.00  0.00     0.173 A 
ATOM     56  F   UNL A   1      46.599  33.520  30.570  1.00  0.00    -0.203 F 
ATOM     57  C   UNL A   1      46.798  35.715  29.739  1.00  0.00     0.198 A 
ATOM     58  C   UNL A   1      45.722  36.322  27.681  1.00  0.00     0.198 A 
ATOM     59  F   UNL A   1      44.442  34.733  26.507  1.00  0.00    -0.203 F 
ATOM     60  F   UNL A   1      47.538  36.050  30.804  1.00  0.00    -0.200 F 
ATOM     61  C   UNL A   1      46.509  36.664  28.769  1.00  0.00     0.200 A 
ATOM     62  F   UNL A   1      45.449  37.236  26.739  1.00  0.00    -0.200 F 
ATOM     63  F   UNL A   1      46.984  37.911  28.889  1.00  0.00    -0.200 F 
ENDBRANCH  39  53
BRANCH  40  64
ATOM     64  C   UNL A   1      41.600  24.916  27.638  1.00  0.00     0.064 A 
ATOM     65  C   UNL A   1      42.156  23.830  28.327  1.00  0.00     0.173 A 
ATOM     66  C   UNL A   1      40.494  24.670  26.812  1.00  0.00     0.173 A 
ATOM     67  F   UNL A   1      43.232  24.012  29.107  1.00  0.00    -0.203 F 
ATOM     68  C   UNL A   1      41.635  22.545  28.185  1.00  0.00     0.198 A 
ATOM     69  C   UNL A   1      39.957  23.390  26.692  1.00  0.00     0.198 A 
ATOM     70  F   UNL A   1      39.928  25.676  26.130  1.00  0.00    -0.203 F 
ATOM     71  F   UNL A   1      42.211  21.516  28.821  1.00  0.00    -0.200 F 
ATOM     72  C   UNL A   1      40.532  22.327  27.372  1.00  0.00     0.200 A 
ATOM     73  F   UNL A   1      38.886  23.186  25.912  1.00  0.00    -0.200 F 
ATOM     74  F   UNL A   1      40.030  21.093  27.237  1.00  0.00    -0.200 F 
ENDBRANCH  40  64
BRANCH  52  75
ATOM     75  C   UNL A   1      47.567  27.822  25.541  1.00  0.00     0.064 A 
ATOM     76  C   UNL A   1      48.701  27.337  26.208  1.00  0.00     0.173 A 
ATOM     77  C   UNL A   1      47.556  27.769  24.140  1.00  0.00     0.173 A 
ATOM     78  F   UNL A   1      48.765  27.382  27.549  1.00  0.00    -0.203 F 
ATOM     79  C   UNL A   1      49.792  26.843  25.499  1.00  0.00     0.198 A 
ATOM     80  C   UNL A   1      48.638  27.250  23.433  1.00  0.00     0.198 A 
ATOM     81  F   UNL A   1      46.492  28.215  23.454  1.00  0.00    -0.203 F 
ATOM     82  F   UNL A   1      50.885  26.430  26.156  1.00  0.00    -0.200 F 
ATOM     83  C   UNL A   1      49.759  26.796  24.114  1.00  0.00     0.200 A 
ATOM     84  F   UNL A   1      48.600  27.197  22.095  1.00  0.00    -0.200 F 
ATOM     85  F   UNL A   1      50.810  26.322  23.433  1.00  0.00    -0.200 F 
ENDBRANCH  52  75
ENDBRANCH  26  27
ENDBRANCH  19  21
ENDBRANCH  18  19
ENDBRANCH  17  18
ENDBRANCH   1  17
TORSDOF 14
ENDMDL
