MODEL 1
REMARK VINA RESULT:     -12.8      0.000      0.000
REMARK SMILES O=C(Cn1cnc(-c2ccccc2)c1-c1ccccc1)OCCOC(=O)c1ccc(-c2c3nc(c(-c4c(F)c(F)c(F)c(F)c4F)c4ccc([nH]4)c(-c4c(F)c(F)c(F)c(F)c4F)c4nc(c(-c5c(F)c(F)c(F)c(F)c5F)c5ccc2[nH]5)C=C4)C=C3)cc1
REMARK SMILES IDX 22 1 21 2 2 3 1 4 3 5 4 6 5 7 14 8 6 9 7 10 15 11 16 12
REMARK SMILES IDX 20 13 17 14 19 15 18 16 8 17 9 18 13 19 10 20 12 21 11 22
REMARK SMILES IDX 23 23 24 24 25 25 26 26 27 27 28 28 89 29 29 30 88 31 30 32
REMARK SMILES IDX 31 33 32 34 82 35 33 36 87 37 81 38 83 39 34 40 86 41 80 42
REMARK SMILES IDX 79 43 35 45 67 46 47 47 66 48 48 49 51 50 65 51 84 52 49 53
REMARK SMILES IDX 50 54 64 56 85 57 52 58 36 59 37 60 45 61 38 62 39 63 43 64
REMARK SMILES IDX 46 65 40 66 41 67 44 68 42 69 68 70 69 71 77 72 70 73 71 74
REMARK SMILES IDX 75 75 78 76 72 77 73 78 76 79 74 80 53 81 54 82 62 83 55 84
REMARK SMILES IDX 56 85 60 86 63 87 57 88 58 89 61 90 59 91
REMARK H PARENT 83 44 51 55
REMARK Flexibility Score: inf
ROOT
ATOM      1  C   UNL A   1      36.783  22.017  25.784  1.00  0.00     0.274 C 
ENDROOT
BRANCH   1   2
ATOM      2  O   UNL A   1      36.038  23.163  26.236  1.00  0.00    -0.461 OA
BRANCH   2   3
ATOM      3  C   UNL A   1      35.052  23.743  25.501  1.00  0.00     0.326 C 
ATOM      4  O   UNL A   1      35.323  24.294  24.434  1.00  0.00    -0.250 OA
BRANCH   3   5
ATOM      5  C   UNL A   1      33.663  23.835  26.094  1.00  0.00     0.246 C 
BRANCH   5   6
ATOM      6  N   UNL A   1      32.643  24.233  25.137  1.00  0.00    -0.319 N 
ATOM      7  C   UNL A   1      32.081  23.411  24.195  1.00  0.00     0.201 A 
ATOM      8  C   UNL A   1      32.148  25.503  24.930  1.00  0.00     0.076 A 
ATOM      9  N   UNL A   1      31.224  24.055  23.436  1.00  0.00    -0.236 NA
ATOM     10  C   UNL A   1      31.253  25.351  23.883  1.00  0.00     0.096 A 
BRANCH   8  11
ATOM     11  C   UNL A   1      32.434  26.679  25.736  1.00  0.00     0.000 A 
ATOM     12  C   UNL A   1      31.507  27.113  26.691  1.00  0.00     0.010 A 
ATOM     13  C   UNL A   1      33.629  27.390  25.555  1.00  0.00     0.010 A 
ATOM     14  C   UNL A   1      31.787  28.225  27.484  1.00  0.00     0.001 A 
ATOM     15  C   UNL A   1      33.908  28.502  26.352  1.00  0.00     0.001 A 
ATOM     16  C   UNL A   1      32.990  28.913  27.320  1.00  0.00     0.000 A 
ENDBRANCH   8  11
BRANCH  10  17
ATOM     17  C   UNL A   1      30.375  26.410  23.429  1.00  0.00     0.002 A 
ATOM     18  C   UNL A   1      29.045  26.424  23.857  1.00  0.00     0.010 A 
ATOM     19  C   UNL A   1      30.879  27.498  22.703  1.00  0.00     0.010 A 
ATOM     20  C   UNL A   1      28.247  27.542  23.614  1.00  0.00     0.001 A 
ATOM     21  C   UNL A   1      30.082  28.618  22.468  1.00  0.00     0.001 A 
ATOM     22  C   UNL A   1      28.770  28.642  22.933  1.00  0.00     0.000 A 
ENDBRANCH  10  17
ENDBRANCH   5   6
ENDBRANCH   3   5
ENDBRANCH   2   3
ENDBRANCH   1   2
BRANCH   1  23
ATOM     23  C   UNL A   1      38.281  22.235  25.682  1.00  0.00     0.275 C 
BRANCH  23  24
ATOM     24  O   UNL A   1      38.673  23.222  26.630  1.00  0.00    -0.458 OA
BRANCH  24  25
ATOM     25  C   UNL A   1      39.921  23.051  27.133  1.00  0.00     0.338 C 
ATOM     26  O   UNL A   1      40.432  22.038  27.521  1.00  0.00    -0.246 OA
BRANCH  25  27
ATOM     27  C   UNL A   1      40.533  24.384  27.214  1.00  0.00     0.060 A 
ATOM     28  C   UNL A   1      41.126  24.691  28.435  1.00  0.00     0.016 A 
ATOM     29  C   UNL A   1      40.328  25.349  26.213  1.00  0.00     0.016 A 
ATOM     30  C   UNL A   1      41.293  26.017  28.749  1.00  0.00     0.010 A 
ATOM     31  C   UNL A   1      40.507  26.677  26.524  1.00  0.00     0.010 A 
ATOM     32  C   UNL A   1      40.886  26.989  27.824  1.00  0.00    -0.014 A 
BRANCH  32  33
ATOM     33  C   UNL A   1      40.831  28.346  28.314  1.00  0.00     0.031 A 
ATOM     34  C   UNL A   1      41.964  29.194  27.899  1.00  0.00     0.074 A 
ATOM     35  C   UNL A   1      39.840  28.769  29.117  1.00  0.00     0.049 A 
ATOM     36  N   UNL A   1      42.888  29.706  28.643  1.00  0.00    -0.248 NA
ATOM     37  C   UNL A   1      42.154  29.390  26.457  1.00  0.00     0.031 C 
ATOM     38  C   UNL A   1      38.544  28.147  29.399  1.00  0.00     0.029 A 
ATOM     39  N   UNL A   1      39.789  29.930  29.816  1.00  0.00    -0.354 N 
ATOM     40  C   UNL A   1      43.713  30.412  27.776  1.00  0.00     0.074 A 
ATOM     41  C   UNL A   1      43.287  30.091  26.438  1.00  0.00     0.031 C 
ATOM     42  C   UNL A   1      37.758  29.041  30.043  1.00  0.00     0.029 A 
ATOM     43  C   UNL A   1      38.544  30.229  30.336  1.00  0.00     0.049 A 
ATOM     44  H   UNL A   1      40.573  30.511  29.943  1.00  0.00     0.167 HD
ATOM     45  C   UNL A   1      44.582  31.356  28.222  1.00  0.00     0.037 A 
ATOM     46  C   UNL A   1      38.187  31.412  30.887  1.00  0.00     0.037 A 
ATOM     47  C   UNL A   1      44.890  31.191  29.616  1.00  0.00     0.049 A 
ATOM     48  C   UNL A   1      39.435  32.117  31.287  1.00  0.00     0.074 A 
ATOM     49  C   UNL A   1      45.520  30.202  30.346  1.00  0.00     0.029 A 
ATOM     50  N   UNL A   1      44.225  31.961  30.538  1.00  0.00    -0.354 N 
ATOM     51  N   UNL A   1      40.214  31.727  32.258  1.00  0.00    -0.248 NA
ATOM     52  C   UNL A   1      40.053  33.008  30.315  1.00  0.00     0.031 C 
ATOM     53  C   UNL A   1      44.814  30.142  31.583  1.00  0.00     0.029 A 
ATOM     54  C   UNL A   1      43.820  31.121  31.547  1.00  0.00     0.049 A 
ATOM     55  H   UNL A   1      44.068  32.931  30.486  1.00  0.00     0.167 HD
ATOM     56  C   UNL A   1      41.503  31.986  31.810  1.00  0.00     0.074 A 
ATOM     57  C   UNL A   1      41.336  32.853  30.650  1.00  0.00     0.031 C 
ATOM     58  C   UNL A   1      42.567  31.254  32.254  1.00  0.00     0.037 A 
BRANCH  45  59
ATOM     59  C   UNL A   1      44.928  32.584  27.433  1.00  0.00     0.064 A 
ATOM     60  C   UNL A   1      46.169  32.679  26.780  1.00  0.00     0.173 A 
ATOM     61  C   UNL A   1      44.177  33.778  27.507  1.00  0.00     0.173 A 
ATOM     62  F   UNL A   1      46.980  31.614  26.695  1.00  0.00    -0.203 F 
ATOM     63  C   UNL A   1      46.634  33.893  26.266  1.00  0.00     0.198 A 
ATOM     64  C   UNL A   1      44.618  34.972  26.943  1.00  0.00     0.198 A 
ATOM     65  F   UNL A   1      43.043  33.858  28.216  1.00  0.00    -0.203 F 
ATOM     66  F   UNL A   1      47.864  33.965  25.742  1.00  0.00    -0.200 F 
ATOM     67  C   UNL A   1      45.857  35.036  26.345  1.00  0.00     0.200 A 
ATOM     68  F   UNL A   1      43.859  36.072  27.052  1.00  0.00    -0.200 F 
ATOM     69  F   UNL A   1      46.321  36.208  25.891  1.00  0.00    -0.200 F 
ENDBRANCH  45  59
BRANCH  46  70
ATOM     70  C   UNL A   1      36.887  32.100  30.744  1.00  0.00     0.064 A 
ATOM     71  C   UNL A   1      36.000  32.208  31.826  1.00  0.00     0.173 A 
ATOM     72  C   UNL A   1      36.606  32.900  29.617  1.00  0.00     0.173 A 
ATOM     73  F   UNL A   1      36.226  31.518  32.953  1.00  0.00    -0.203 F 
ATOM     74  C   UNL A   1      34.906  33.079  31.788  1.00  0.00     0.198 A 
ATOM     75  C   UNL A   1      35.511  33.761  29.578  1.00  0.00     0.198 A 
ATOM     76  F   UNL A   1      37.442  32.932  28.569  1.00  0.00    -0.203 F 
ATOM     77  F   UNL A   1      34.112  33.201  32.861  1.00  0.00    -0.200 F 
ATOM     78  C   UNL A   1      34.668  33.860  30.669  1.00  0.00     0.200 A 
ATOM     79  F   UNL A   1      35.314  34.537  28.503  1.00  0.00    -0.200 F 
ATOM     80  F   UNL A   1      33.654  34.736  30.654  1.00  0.00    -0.200 F 
ENDBRANCH  46  70
BRANCH  58  81
ATOM     81  C   UNL A   1      42.333  30.319  33.409  1.00  0.00     0.064 A 
ATOM     82  C   UNL A   1      42.491  30.694  34.755  1.00  0.00     0.173 A 
ATOM     83  C   UNL A   1      41.795  29.050  33.155  1.00  0.00     0.173 A 
ATOM     84  F   UNL A   1      42.895  31.928  35.082  1.00  0.00    -0.203 F 
ATOM     85  C   UNL A   1      42.178  29.818  35.793  1.00  0.00     0.198 A 
ATOM     86  C   UNL A   1      41.447  28.191  34.195  1.00  0.00     0.198 A 
ATOM     87  F   UNL A   1      41.561  28.660  31.892  1.00  0.00    -0.203 F 
ATOM     88  F   UNL A   1      42.354  30.197  37.068  1.00  0.00    -0.200 F 
ATOM     89  C   UNL A   1      41.649  28.570  35.512  1.00  0.00     0.200 A 
ATOM     90  F   UNL A   1      40.886  27.005  33.921  1.00  0.00    -0.200 F 
ATOM     91  F   UNL A   1      41.308  27.743  36.510  1.00  0.00    -0.200 F 
ENDBRANCH  58  81
ENDBRANCH  32  33
ENDBRANCH  25  27
ENDBRANCH  24  25
ENDBRANCH  23  24
ENDBRANCH   1  23
TORSDOF 14
ENDMDL
MODEL 2
REMARK VINA RESULT:     -12.4      3.417      8.818
REMARK SMILES O=C(Cn1cnc(-c2ccccc2)c1-c1ccccc1)OCCOC(=O)c1ccc(-c2c3nc(c(-c4c(F)c(F)c(F)c(F)c4F)c4ccc([nH]4)c(-c4c(F)c(F)c(F)c(F)c4F)c4nc(c(-c5c(F)c(F)c(F)c(F)c5F)c5ccc2[nH]5)C=C4)C=C3)cc1
REMARK SMILES IDX 22 1 21 2 2 3 1 4 3 5 4 6 5 7 14 8 6 9 7 10 15 11 16 12
REMARK SMILES IDX 20 13 17 14 19 15 18 16 8 17 9 18 13 19 10 20 12 21 11 22
REMARK SMILES IDX 23 23 24 24 25 25 26 26 27 27 28 28 89 29 29 30 88 31 30 32
REMARK SMILES IDX 31 33 32 34 82 35 33 36 87 37 81 38 83 39 34 40 86 41 80 42
REMARK SMILES IDX 79 43 35 45 67 46 47 47 66 48 48 49 51 50 65 51 84 52 49 53
REMARK SMILES IDX 50 54 64 56 85 57 52 58 36 59 37 60 45 61 38 62 39 63 43 64
REMARK SMILES IDX 46 65 40 66 41 67 44 68 42 69 68 70 69 71 77 72 70 73 71 74
REMARK SMILES IDX 75 75 78 76 72 77 73 78 76 79 74 80 53 81 54 82 62 83 55 84
REMARK SMILES IDX 56 85 60 86 63 87 57 88 58 89 61 90 59 91
REMARK H PARENT 83 44 51 55
REMARK Flexibility Score: inf
ROOT
ATOM      1  C   UNL A   1      34.158  29.035  27.151  1.00  0.00     0.274 C 
ENDROOT
BRANCH   1   2
ATOM      2  O   UNL A   1      33.919  28.525  25.825  1.00  0.00    -0.461 OA
BRANCH   2   3
ATOM      3  C   UNL A   1      33.369  27.304  25.589  1.00  0.00     0.326 C 
ATOM      4  O   UNL A   1      32.894  26.654  26.519  1.00  0.00    -0.250 OA
BRANCH   3   5
ATOM      5  C   UNL A   1      33.500  26.705  24.206  1.00  0.00     0.246 C 
BRANCH   5   6
ATOM      6  N   UNL A   1      32.728  25.486  24.021  1.00  0.00    -0.319 N 
ATOM      7  C   UNL A   1      31.387  25.438  23.742  1.00  0.00     0.201 A 
ATOM      8  C   UNL A   1      33.163  24.191  24.199  1.00  0.00     0.076 A 
ATOM      9  N   UNL A   1      30.947  24.201  23.677  1.00  0.00    -0.236 NA
ATOM     10  C   UNL A   1      32.039  23.419  23.954  1.00  0.00     0.096 A 
BRANCH   8  11
ATOM     11  C   UNL A   1      34.532  23.772  24.458  1.00  0.00     0.000 A 
ATOM     12  C   UNL A   1      35.323  23.288  23.409  1.00  0.00     0.010 A 
ATOM     13  C   UNL A   1      35.061  23.839  25.754  1.00  0.00     0.010 A 
ATOM     14  C   UNL A   1      36.645  22.909  23.647  1.00  0.00     0.001 A 
ATOM     15  C   UNL A   1      36.385  23.461  25.989  1.00  0.00     0.001 A 
ATOM     16  C   UNL A   1      37.176  23.004  24.934  1.00  0.00     0.000 A 
ENDBRANCH   8  11
BRANCH  10  17
ATOM     17  C   UNL A   1      32.071  21.973  23.876  1.00  0.00     0.002 A 
ATOM     18  C   UNL A   1      32.016  21.357  22.622  1.00  0.00     0.010 A 
ATOM     19  C   UNL A   1      32.315  21.196  25.017  1.00  0.00     0.010 A 
ATOM     20  C   UNL A   1      32.264  19.989  22.508  1.00  0.00     0.001 A 
ATOM     21  C   UNL A   1      32.571  19.832  24.899  1.00  0.00     0.001 A 
ATOM     22  C   UNL A   1      32.556  19.231  23.643  1.00  0.00     0.000 A 
ENDBRANCH  10  17
ENDBRANCH   5   6
ENDBRANCH   3   5
ENDBRANCH   2   3
ENDBRANCH   1   2
BRANCH   1  23
ATOM     23  C   UNL A   1      34.212  30.548  27.247  1.00  0.00     0.275 C 
BRANCH  23  24
ATOM     24  O   UNL A   1      35.550  30.949  27.526  1.00  0.00    -0.458 OA
BRANCH  24  25
ATOM     25  C   UNL A   1      35.694  31.661  28.672  1.00  0.00     0.338 C 
ATOM     26  O   UNL A   1      35.150  32.684  28.983  1.00  0.00    -0.246 OA
BRANCH  25  27
ATOM     27  C   UNL A   1      36.739  30.993  29.458  1.00  0.00     0.060 A 
ATOM     28  C   UNL A   1      38.027  31.489  29.274  1.00  0.00     0.016 A 
ATOM     29  C   UNL A   1      36.483  29.803  30.161  1.00  0.00     0.016 A 
ATOM     30  C   UNL A   1      39.078  30.663  29.585  1.00  0.00     0.010 A 
ATOM     31  C   UNL A   1      37.538  28.982  30.483  1.00  0.00     0.010 A 
ATOM     32  C   UNL A   1      38.810  29.383  30.092  1.00  0.00    -0.014 A 
BRANCH  32  33
ATOM     33  C   UNL A   1      39.929  28.473  30.138  1.00  0.00     0.031 A 
ATOM     34  C   UNL A   1      40.558  28.341  31.466  1.00  0.00     0.074 A 
ATOM     35  C   UNL A   1      40.372  27.839  29.039  1.00  0.00     0.049 A 
ATOM     36  N   UNL A   1      41.743  28.710  31.824  1.00  0.00    -0.248 NA
ATOM     37  C   UNL A   1      39.708  27.849  32.557  1.00  0.00     0.031 C 
ATOM     38  C   UNL A   1      39.718  27.664  27.741  1.00  0.00     0.029 A 
ATOM     39  N   UNL A   1      41.529  27.145  28.902  1.00  0.00    -0.354 N 
ATOM     40  C   UNL A   1      41.847  28.370  33.167  1.00  0.00     0.074 A 
ATOM     41  C   UNL A   1      40.535  27.953  33.596  1.00  0.00     0.031 C 
ATOM     42  C   UNL A   1      40.399  26.738  27.025  1.00  0.00     0.029 A 
ATOM     43  C   UNL A   1      41.600  26.373  27.758  1.00  0.00     0.049 A 
ATOM     44  H   UNL A   1      42.258  27.188  29.562  1.00  0.00     0.167 HD
ATOM     45  C   UNL A   1      43.048  28.285  33.796  1.00  0.00     0.037 A 
ATOM     46  C   UNL A   1      42.547  25.442  27.498  1.00  0.00     0.037 A 
ATOM     47  C   UNL A   1      44.071  29.022  33.106  1.00  0.00     0.049 A 
ATOM     48  C   UNL A   1      43.722  25.739  28.362  1.00  0.00     0.074 A 
ATOM     49  C   UNL A   1      44.262  30.361  32.826  1.00  0.00     0.029 A 
ATOM     50  N   UNL A   1      44.926  28.346  32.270  1.00  0.00    -0.354 N 
ATOM     51  N   UNL A   1      44.491  26.783  28.213  1.00  0.00    -0.248 NA
ATOM     52  C   UNL A   1      43.777  25.108  29.673  1.00  0.00     0.031 C 
ATOM     53  C   UNL A   1      44.845  30.392  31.526  1.00  0.00     0.029 A 
ATOM     54  C   UNL A   1      45.007  29.071  31.106  1.00  0.00     0.049 A 
ATOM     55  H   UNL A   1      45.392  27.503  32.469  1.00  0.00     0.167 HD
ATOM     56  C   UNL A   1      44.812  27.178  29.504  1.00  0.00     0.074 A 
ATOM     57  C   UNL A   1      44.419  26.061  30.355  1.00  0.00     0.031 C 
ATOM     58  C   UNL A   1      45.113  28.479  29.793  1.00  0.00     0.037 A 
BRANCH  45  59
ATOM     59  C   UNL A   1      43.327  27.300  34.892  1.00  0.00     0.064 A 
ATOM     60  C   UNL A   1      43.622  27.751  36.190  1.00  0.00     0.173 A 
ATOM     61  C   UNL A   1      43.561  25.929  34.648  1.00  0.00     0.173 A 
ATOM     62  F   UNL A   1      43.478  29.045  36.513  1.00  0.00    -0.203 F 
ATOM     63  C   UNL A   1      44.143  26.892  37.163  1.00  0.00     0.198 A 
ATOM     64  C   UNL A   1      44.026  25.064  35.636  1.00  0.00     0.198 A 
ATOM     65  F   UNL A   1      43.451  25.400  33.422  1.00  0.00    -0.203 F 
ATOM     66  F   UNL A   1      44.507  27.382  38.355  1.00  0.00    -0.200 F 
ATOM     67  C   UNL A   1      44.341  25.551  36.885  1.00  0.00     0.200 A 
ATOM     68  F   UNL A   1      44.232  23.774  35.338  1.00  0.00    -0.200 F 
ATOM     69  F   UNL A   1      44.881  24.737  37.803  1.00  0.00    -0.200 F 
ENDBRANCH  45  59
BRANCH  46  70
ATOM     70  C   UNL A   1      42.347  24.134  26.838  1.00  0.00     0.064 A 
ATOM     71  C   UNL A   1      43.238  23.672  25.858  1.00  0.00     0.173 A 
ATOM     72  C   UNL A   1      41.428  23.194  27.348  1.00  0.00     0.173 A 
ATOM     73  F   UNL A   1      44.174  24.491  25.359  1.00  0.00    -0.203 F 
ATOM     74  C   UNL A   1      43.222  22.341  25.428  1.00  0.00     0.198 A 
ATOM     75  C   UNL A   1      41.409  21.870  26.912  1.00  0.00     0.198 A 
ATOM     76  F   UNL A   1      40.595  23.517  28.349  1.00  0.00    -0.203 F 
ATOM     77  F   UNL A   1      44.125  21.918  24.532  1.00  0.00    -0.200 F 
ATOM     78  C   UNL A   1      42.314  21.441  25.961  1.00  0.00     0.200 A 
ATOM     79  F   UNL A   1      40.548  21.003  27.464  1.00  0.00    -0.200 F 
ATOM     80  F   UNL A   1      42.336  20.153  25.591  1.00  0.00    -0.200 F 
ENDBRANCH  46  70
BRANCH  58  81
ATOM     81  C   UNL A   1      45.310  29.419  28.635  1.00  0.00     0.064 A 
ATOM     82  C   UNL A   1      44.254  30.094  27.996  1.00  0.00     0.173 A 
ATOM     83  C   UNL A   1      46.614  29.757  28.251  1.00  0.00     0.173 A 
ATOM     84  F   UNL A   1      42.985  29.908  28.382  1.00  0.00    -0.203 F 
ATOM     85  C   UNL A   1      44.494  31.022  26.984  1.00  0.00     0.198 A 
ATOM     86  C   UNL A   1      46.853  30.713  27.266  1.00  0.00     0.198 A 
ATOM     87  F   UNL A   1      47.664  29.193  28.869  1.00  0.00    -0.203 F 
ATOM     88  F   UNL A   1      43.468  31.640  26.381  1.00  0.00    -0.200 F 
ATOM     89  C   UNL A   1      45.794  31.336  26.624  1.00  0.00     0.200 A 
ATOM     90  F   UNL A   1      48.112  31.053  26.958  1.00  0.00    -0.200 F 
ATOM     91  F   UNL A   1      46.027  32.258  25.681  1.00  0.00    -0.200 F 
ENDBRANCH  58  81
ENDBRANCH  32  33
ENDBRANCH  25  27
ENDBRANCH  24  25
ENDBRANCH  23  24
ENDBRANCH   1  23
TORSDOF 14
ENDMDL
MODEL 3
REMARK VINA RESULT:     -12.3      4.139      7.224
REMARK SMILES O=C(Cn1cnc(-c2ccccc2)c1-c1ccccc1)OCCOC(=O)c1ccc(-c2c3nc(c(-c4c(F)c(F)c(F)c(F)c4F)c4ccc([nH]4)c(-c4c(F)c(F)c(F)c(F)c4F)c4nc(c(-c5c(F)c(F)c(F)c(F)c5F)c5ccc2[nH]5)C=C4)C=C3)cc1
REMARK SMILES IDX 22 1 21 2 2 3 1 4 3 5 4 6 5 7 14 8 6 9 7 10 15 11 16 12
REMARK SMILES IDX 20 13 17 14 19 15 18 16 8 17 9 18 13 19 10 20 12 21 11 22
REMARK SMILES IDX 23 23 24 24 25 25 26 26 27 27 28 28 89 29 29 30 88 31 30 32
REMARK SMILES IDX 31 33 32 34 82 35 33 36 87 37 81 38 83 39 34 40 86 41 80 42
REMARK SMILES IDX 79 43 35 45 67 46 47 47 66 48 48 49 51 50 65 51 84 52 49 53
REMARK SMILES IDX 50 54 64 56 85 57 52 58 36 59 37 60 45 61 38 62 39 63 43 64
REMARK SMILES IDX 46 65 40 66 41 67 44 68 42 69 68 70 69 71 77 72 70 73 71 74
REMARK SMILES IDX 75 75 78 76 72 77 73 78 76 79 74 80 53 81 54 82 62 83 55 84
REMARK SMILES IDX 56 85 60 86 63 87 57 88 58 89 61 90 59 91
REMARK H PARENT 83 44 51 55
REMARK Flexibility Score: inf
ROOT
ATOM      1  C   UNL A   1      43.151  21.614  25.742  1.00  0.00     0.274 C 
ENDROOT
BRANCH   1   2
ATOM      2  O   UNL A   1      43.430  22.838  25.037  1.00  0.00    -0.461 OA
BRANCH   2   3
ATOM      3  C   UNL A   1      44.196  23.835  25.557  1.00  0.00     0.326 C 
ATOM      4  O   UNL A   1      44.012  24.999  25.202  1.00  0.00    -0.250 OA
BRANCH   3   5
ATOM      5  C   UNL A   1      45.365  23.466  26.443  1.00  0.00     0.246 C 
BRANCH   5   6
ATOM      6  N   UNL A   1      45.154  23.773  27.848  1.00  0.00    -0.319 N 
ATOM      7  C   UNL A   1      44.494  22.970  28.741  1.00  0.00     0.201 A 
ATOM      8  C   UNL A   1      45.469  24.947  28.499  1.00  0.00     0.076 A 
ATOM      9  N   UNL A   1      44.413  23.525  29.929  1.00  0.00    -0.236 NA
ATOM     10  C   UNL A   1      45.017  24.749  29.793  1.00  0.00     0.096 A 
BRANCH   8  11
ATOM     11  C   UNL A   1      46.222  26.062  27.944  1.00  0.00     0.000 A 
ATOM     12  C   UNL A   1      45.553  27.228  27.554  1.00  0.00     0.010 A 
ATOM     13  C   UNL A   1      47.611  25.971  27.785  1.00  0.00     0.010 A 
ATOM     14  C   UNL A   1      46.272  28.310  27.045  1.00  0.00     0.001 A 
ATOM     15  C   UNL A   1      48.329  27.056  27.277  1.00  0.00     0.001 A 
ATOM     16  C   UNL A   1      47.659  28.226  26.915  1.00  0.00     0.000 A 
ENDBRANCH   8  11
BRANCH  10  17
ATOM     17  C   UNL A   1      45.279  25.674  30.876  1.00  0.00     0.002 A 
ATOM     18  C   UNL A   1      44.205  26.209  31.592  1.00  0.00     0.010 A 
ATOM     19  C   UNL A   1      46.589  25.912  31.316  1.00  0.00     0.010 A 
ATOM     20  C   UNL A   1      44.438  26.923  32.768  1.00  0.00     0.001 A 
ATOM     21  C   UNL A   1      46.819  26.617  32.496  1.00  0.00     0.001 A 
ATOM     22  C   UNL A   1      45.742  27.113  33.226  1.00  0.00     0.000 A 
ENDBRANCH  10  17
ENDBRANCH   5   6
ENDBRANCH   3   5
ENDBRANCH   2   3
ENDBRANCH   1   2
BRANCH   1  23
ATOM     23  C   UNL A   1      41.696  21.423  26.127  1.00  0.00     0.275 C 
BRANCH  23  24
ATOM     24  O   UNL A   1      41.404  22.233  27.261  1.00  0.00    -0.458 OA
BRANCH  24  25
ATOM     25  C   UNL A   1      40.347  23.068  27.096  1.00  0.00     0.338 C 
ATOM     26  O   UNL A   1      39.204  22.782  26.868  1.00  0.00    -0.246 OA
BRANCH  25  27
ATOM     27  C   UNL A   1      40.876  24.437  27.150  1.00  0.00     0.060 A 
ATOM     28  C   UNL A   1      41.491  24.788  28.348  1.00  0.00     0.016 A 
ATOM     29  C   UNL A   1      40.576  25.380  26.152  1.00  0.00     0.016 A 
ATOM     30  C   UNL A   1      41.585  26.124  28.649  1.00  0.00     0.010 A 
ATOM     31  C   UNL A   1      40.682  26.718  26.451  1.00  0.00     0.010 A 
ATOM     32  C   UNL A   1      41.086  27.062  27.735  1.00  0.00    -0.014 A 
BRANCH  32  33
ATOM     33  C   UNL A   1      40.962  28.416  28.221  1.00  0.00     0.031 A 
ATOM     34  C   UNL A   1      42.068  29.311  27.830  1.00  0.00     0.074 A 
ATOM     35  C   UNL A   1      39.936  28.798  29.000  1.00  0.00     0.049 A 
ATOM     36  N   UNL A   1      42.952  29.862  28.593  1.00  0.00    -0.248 NA
ATOM     37  C   UNL A   1      42.282  29.513  26.392  1.00  0.00     0.031 C 
ATOM     38  C   UNL A   1      38.662  28.123  29.254  1.00  0.00     0.029 A 
ATOM     39  N   UNL A   1      39.820  29.957  29.695  1.00  0.00    -0.354 N 
ATOM     40  C   UNL A   1      43.766  30.602  27.744  1.00  0.00     0.074 A 
ATOM     41  C   UNL A   1      43.384  30.261  26.397  1.00  0.00     0.031 C 
ATOM     42  C   UNL A   1      37.824  28.984  29.879  1.00  0.00     0.029 A 
ATOM     43  C   UNL A   1      38.552  30.204  30.187  1.00  0.00     0.049 A 
ATOM     44  H   UNL A   1      40.576  30.571  29.838  1.00  0.00     0.167 HD
ATOM     45  C   UNL A   1      44.585  31.582  28.207  1.00  0.00     0.037 A 
ATOM     46  C   UNL A   1      38.134  31.372  30.727  1.00  0.00     0.037 A 
ATOM     47  C   UNL A   1      44.868  31.432  29.608  1.00  0.00     0.049 A 
ATOM     48  C   UNL A   1      39.342  32.130  31.153  1.00  0.00     0.074 A 
ATOM     49  C   UNL A   1      45.522  30.471  30.355  1.00  0.00     0.029 A 
ATOM     50  N   UNL A   1      44.149  32.174  30.513  1.00  0.00    -0.354 N 
ATOM     51  N   UNL A   1      40.114  31.774  32.142  1.00  0.00    -0.248 NA
ATOM     52  C   UNL A   1      39.943  33.044  30.193  1.00  0.00     0.031 C 
ATOM     53  C   UNL A   1      44.791  30.383  31.575  1.00  0.00     0.029 A 
ATOM     54  C   UNL A   1      43.757  31.319  31.514  1.00  0.00     0.049 A 
ATOM     55  H   UNL A   1      43.954  33.136  30.455  1.00  0.00     0.167 HD
ATOM     56  C   UNL A   1      41.400  32.086  31.723  1.00  0.00     0.074 A 
ATOM     57  C   UNL A   1      41.224  32.944  30.558  1.00  0.00     0.031 C 
ATOM     58  C   UNL A   1      42.485  31.400  32.192  1.00  0.00     0.037 A 
BRANCH  45  59
ATOM     59  C   UNL A   1      44.896  32.822  27.423  1.00  0.00     0.064 A 
ATOM     60  C   UNL A   1      46.116  32.936  26.734  1.00  0.00     0.173 A 
ATOM     61  C   UNL A   1      44.138  34.009  27.535  1.00  0.00     0.173 A 
ATOM     62  F   UNL A   1      46.932  31.879  26.611  1.00  0.00    -0.203 F 
ATOM     63  C   UNL A   1      46.555  34.160  26.221  1.00  0.00     0.198 A 
ATOM     64  C   UNL A   1      44.552  35.214  26.973  1.00  0.00     0.198 A 
ATOM     65  F   UNL A   1      43.026  34.071  28.280  1.00  0.00    -0.203 F 
ATOM     66  F   UNL A   1      47.768  34.248  25.661  1.00  0.00    -0.200 F 
ATOM     67  C   UNL A   1      45.771  35.296  26.338  1.00  0.00     0.200 A 
ATOM     68  F   UNL A   1      43.788  36.306  27.119  1.00  0.00    -0.200 F 
ATOM     69  F   UNL A   1      46.212  36.477  25.885  1.00  0.00    -0.200 F 
ENDBRANCH  45  59
BRANCH  46  70
ATOM     70  C   UNL A   1      36.809  32.005  30.553  1.00  0.00     0.064 A 
ATOM     71  C   UNL A   1      35.916  32.125  31.628  1.00  0.00     0.173 A 
ATOM     72  C   UNL A   1      36.502  32.744  29.392  1.00  0.00     0.173 A 
ATOM     73  F   UNL A   1      36.164  31.493  32.783  1.00  0.00    -0.203 F 
ATOM     74  C   UNL A   1      34.791  32.953  31.551  1.00  0.00     0.198 A 
ATOM     75  C   UNL A   1      35.376  33.562  29.315  1.00  0.00     0.198 A 
ATOM     76  F   UNL A   1      37.340  32.763  28.345  1.00  0.00    -0.203 F 
ATOM     77  F   UNL A   1      33.990  33.090  32.617  1.00  0.00    -0.200 F 
ATOM     78  C   UNL A   1      34.527  33.676  30.399  1.00  0.00     0.200 A 
ATOM     79  F   UNL A   1      35.154  34.283  28.207  1.00  0.00    -0.200 F 
ATOM     80  F   UNL A   1      33.481  34.512  30.346  1.00  0.00    -0.200 F 
ENDBRANCH  46  70
BRANCH  58  81
ATOM     81  C   UNL A   1      42.264  30.457  33.344  1.00  0.00     0.064 A 
ATOM     82  C   UNL A   1      42.341  30.848  34.692  1.00  0.00     0.173 A 
ATOM     83  C   UNL A   1      41.821  29.155  33.077  1.00  0.00     0.173 A 
ATOM     84  F   UNL A   1      42.649  32.108  35.027  1.00  0.00    -0.203 F 
ATOM     85  C   UNL A   1      42.042  29.959  35.724  1.00  0.00     0.198 A 
ATOM     86  C   UNL A   1      41.486  28.280  34.109  1.00  0.00     0.198 A 
ATOM     87  F   UNL A   1      41.665  28.744  31.809  1.00  0.00    -0.203 F 
ATOM     88  F   UNL A   1      42.140  30.355  37.002  1.00  0.00    -0.200 F 
ATOM     89  C   UNL A   1      41.608  28.678  35.431  1.00  0.00     0.200 A 
ATOM     90  F   UNL A   1      41.015  27.059  33.821  1.00  0.00    -0.200 F 
ATOM     91  F   UNL A   1      41.280  27.836  36.420  1.00  0.00    -0.200 F 
ENDBRANCH  58  81
ENDBRANCH  32  33
ENDBRANCH  25  27
ENDBRANCH  24  25
ENDBRANCH  23  24
ENDBRANCH   1  23
TORSDOF 14
ENDMDL
