MODEL 1
REMARK VINA RESULT:     -12.6      0.000      0.000
REMARK SMILES C[C@H]1CN(C(=O)N2CC[NH+]([C@@H](C)C(=O)OCCOC(=O)c3ccc(-c4c5nc(c(-c6c(F)c(F)c(F)c(F)c6F)c6ccc([nH]6)c(-c6c(F)c(F)c(F)c(F)c6F)c6nc(c(-c7c(F)c(F)c(F)c(F)c7F)c7ccc4[nH]7)C=C6)C=C5)cc3)CC2)C[C@@H]1C
REMARK SMILES IDX 17 1 16 2 15 3 13 4 14 5 11 6 12 7 10 8 1 9 2 10 3 11 87 12
REMARK SMILES IDX 4 13 86 14 88 15 5 16 6 17 7 18 8 19 85 20 9 21 84 22 18 24
REMARK SMILES IDX 19 25 20 26 21 27 22 28 83 29 23 30 82 31 24 32 25 33 26 34
REMARK SMILES IDX 76 35 27 36 81 37 75 38 77 39 28 40 80 41 74 42 73 43 29 45
REMARK SMILES IDX 61 46 41 47 60 48 42 49 45 50 59 51 78 52 43 53 44 54 58 56
REMARK SMILES IDX 79 57 46 58 30 59 31 60 39 61 32 62 33 63 37 64 40 65 34 66
REMARK SMILES IDX 35 67 38 68 36 69 62 70 63 71 71 72 64 73 65 74 69 75 72 76
REMARK SMILES IDX 66 77 67 78 70 79 68 80 47 81 48 82 56 83 49 84 50 85 54 86
REMARK SMILES IDX 57 87 51 88 52 89 55 90 53 91
REMARK H PARENT 10 23 77 44 45 55
REMARK Flexibility Score: inf
ROOT
ATOM      1  C   UNL A   1      31.772  30.009  25.632  1.00  0.00     0.275 C 
ENDROOT
BRANCH   1   2
ATOM      2  C   UNL A   1      31.709  29.287  24.286  1.00  0.00     0.274 C 
BRANCH   2   3
ATOM      3  O   UNL A   1      30.618  28.350  24.257  1.00  0.00    -0.458 OA
BRANCH   3   4
ATOM      4  C   UNL A   1      30.665  27.357  23.336  1.00  0.00     0.364 C 
ATOM      5  O   UNL A   1      31.206  27.469  22.238  1.00  0.00    -0.245 OA
BRANCH   4   6
ATOM      6  C   UNL A   1      29.918  26.069  23.749  1.00  0.00     0.292 C 
ATOM      7  C   UNL A   1      28.467  26.410  24.067  1.00  0.00     0.088 C 
BRANCH   6   8
ATOM      8  N   UNL A   1      30.674  25.161  24.649  1.00  0.00    -0.321 N 
ATOM      9  C   UNL A   1      37.862  24.148  26.137  1.00  0.00     0.010 C 
ATOM     10  C   UNL A   1      36.835  23.023  25.979  1.00  0.00     0.010 C 
ATOM     11  C   UNL A   1      35.485  23.572  25.512  1.00  0.00     0.125 C 
ATOM     12  C   UNL A   1      37.220  22.054  24.846  1.00  0.00     0.010 C 
ATOM     13  N   UNL A   1      35.521  23.482  24.055  1.00  0.00    -0.324 N 
ATOM     14  C   UNL A   1      36.713  22.782  23.600  1.00  0.00     0.125 C 
ATOM     15  C   UNL A   1      36.521  20.698  25.004  1.00  0.00     0.010 C 
ATOM     16  C   UNL A   1      34.452  23.631  23.204  1.00  0.00     0.320 C 
ATOM     17  O   UNL A   1      34.485  23.253  22.033  1.00  0.00    -0.248 OA
ATOM     18  N   UNL A   1      33.287  24.099  23.774  1.00  0.00    -0.313 N 
ATOM     19  C   UNL A   1      32.053  23.521  23.271  1.00  0.00     0.183 C 
ATOM     20  C   UNL A   1      33.182  25.485  24.220  1.00  0.00     0.183 C 
ATOM     21  C   UNL A   1      30.888  23.762  24.234  1.00  0.00     0.284 C 
ATOM     22  C   UNL A   1      31.959  25.720  25.133  1.00  0.00     0.284 C 
ATOM     23  H   UNL A   1      29.996  25.106  25.409  1.00  0.00     0.348 HD
ENDBRANCH   6   8
ENDBRANCH   4   6
ENDBRANCH   3   4
ENDBRANCH   2   3
ENDBRANCH   1   2
BRANCH   1  24
ATOM     24  O   UNL A   1      33.130  30.346  25.967  1.00  0.00    -0.458 OA
BRANCH  24  25
ATOM     25  C   UNL A   1      33.284  31.277  26.934  1.00  0.00     0.338 C 
ATOM     26  O   UNL A   1      32.494  32.148  27.272  1.00  0.00    -0.246 OA
BRANCH  25  27
ATOM     27  C   UNL A   1      34.545  31.015  27.641  1.00  0.00     0.060 A 
ATOM     28  C   UNL A   1      34.781  29.724  28.117  1.00  0.00     0.016 A 
ATOM     29  C   UNL A   1      35.470  32.035  27.865  1.00  0.00     0.016 A 
ATOM     30  C   UNL A   1      35.961  29.433  28.795  1.00  0.00     0.010 A 
ATOM     31  C   UNL A   1      36.648  31.748  28.562  1.00  0.00     0.010 A 
ATOM     32  C   UNL A   1      36.900  30.445  29.028  1.00  0.00    -0.014 A 
BRANCH  32  33
ATOM     33  C   UNL A   1      38.127  30.151  29.805  1.00  0.00     0.031 A 
ATOM     34  C   UNL A   1      39.153  29.214  29.243  1.00  0.00     0.074 A 
ATOM     35  C   UNL A   1      38.316  30.725  31.006  1.00  0.00     0.049 A 
ATOM     36  N   UNL A   1      40.232  28.731  29.805  1.00  0.00    -0.248 NA
ATOM     37  C   UNL A   1      38.934  28.758  27.862  1.00  0.00     0.031 C 
ATOM     38  C   UNL A   1      37.413  31.691  31.629  1.00  0.00     0.029 A 
ATOM     39  N   UNL A   1      39.327  30.567  31.920  1.00  0.00    -0.354 N 
ATOM     40  C   UNL A   1      40.806  27.896  28.859  1.00  0.00     0.074 A 
ATOM     41  C   UNL A   1      39.955  27.931  27.688  1.00  0.00     0.031 C 
ATOM     42  C   UNL A   1      37.903  32.033  32.831  1.00  0.00     0.029 A 
ATOM     43  C   UNL A   1      39.126  31.271  33.081  1.00  0.00     0.049 A 
ATOM     44  H   UNL A   1      40.119  30.007  31.759  1.00  0.00     0.167 HD
ATOM     45  C   UNL A   1      41.941  27.164  28.964  1.00  0.00     0.037 A 
ATOM     46  C   UNL A   1      39.826  31.268  34.232  1.00  0.00     0.037 A 
ATOM     47  C   UNL A   1      42.791  27.148  30.125  1.00  0.00     0.049 A 
ATOM     48  C   UNL A   1      41.043  30.393  34.350  1.00  0.00     0.074 A 
ATOM     49  C   UNL A   1      43.984  26.475  30.314  1.00  0.00     0.029 A 
ATOM     50  N   UNL A   1      42.529  27.836  31.301  1.00  0.00    -0.354 N 
ATOM     51  N   UNL A   1      41.584  29.604  33.454  1.00  0.00    -0.248 NA
ATOM     52  C   UNL A   1      41.740  30.397  35.645  1.00  0.00     0.031 C 
ATOM     53  C   UNL A   1      44.421  26.717  31.621  1.00  0.00     0.029 A 
ATOM     54  C   UNL A   1      43.520  27.575  32.234  1.00  0.00     0.049 A 
ATOM     55  H   UNL A   1      41.753  28.423  31.453  1.00  0.00     0.167 HD
ATOM     56  C   UNL A   1      42.681  29.019  34.071  1.00  0.00     0.074 A 
ATOM     57  C   UNL A   1      42.743  29.561  35.412  1.00  0.00     0.031 C 
ATOM     58  C   UNL A   1      43.553  28.109  33.572  1.00  0.00     0.037 A 
BRANCH  45  59
ATOM     59  C   UNL A   1      42.304  26.286  27.804  1.00  0.00     0.064 A 
ATOM     60  C   UNL A   1      43.268  26.665  26.858  1.00  0.00     0.173 A 
ATOM     61  C   UNL A   1      41.683  25.037  27.645  1.00  0.00     0.173 A 
ATOM     62  F   UNL A   1      43.879  27.856  26.958  1.00  0.00    -0.203 F 
ATOM     63  C   UNL A   1      43.579  25.838  25.782  1.00  0.00     0.198 A 
ATOM     64  C   UNL A   1      42.014  24.202  26.582  1.00  0.00     0.198 A 
ATOM     65  F   UNL A   1      40.755  24.627  28.524  1.00  0.00    -0.203 F 
ATOM     66  F   UNL A   1      44.469  26.240  24.866  1.00  0.00    -0.200 F 
ATOM     67  C   UNL A   1      42.955  24.606  25.647  1.00  0.00     0.200 A 
ATOM     68  F   UNL A   1      41.416  23.008  26.458  1.00  0.00    -0.200 F 
ATOM     69  F   UNL A   1      43.254  23.811  24.611  1.00  0.00    -0.200 F 
ENDBRANCH  45  59
BRANCH  46  70
ATOM     70  C   UNL A   1      39.355  32.088  35.378  1.00  0.00     0.064 A 
ATOM     71  C   UNL A   1      38.528  31.541  36.367  1.00  0.00     0.173 A 
ATOM     72  C   UNL A   1      39.741  33.430  35.514  1.00  0.00     0.173 A 
ATOM     73  F   UNL A   1      38.110  30.271  36.264  1.00  0.00    -0.203 F 
ATOM     74  C   UNL A   1      38.103  32.307  37.451  1.00  0.00     0.198 A 
ATOM     75  C   UNL A   1      39.336  34.188  36.610  1.00  0.00     0.198 A 
ATOM     76  F   UNL A   1      40.527  34.001  34.589  1.00  0.00    -0.203 F 
ATOM     77  F   UNL A   1      37.287  31.771  38.369  1.00  0.00    -0.200 F 
ATOM     78  C   UNL A   1      38.514  33.627  37.577  1.00  0.00     0.200 A 
ATOM     79  F   UNL A   1      39.743  35.458  36.733  1.00  0.00    -0.200 F 
ATOM     80  F   UNL A   1      38.114  34.359  38.624  1.00  0.00    -0.200 F 
ENDBRANCH  46  70
BRANCH  58  81
ATOM     81  C   UNL A   1      44.646  27.638  34.485  1.00  0.00     0.064 A 
ATOM     82  C   UNL A   1      45.859  28.334  34.588  1.00  0.00     0.173 A 
ATOM     83  C   UNL A   1      44.466  26.505  35.292  1.00  0.00     0.173 A 
ATOM     84  F   UNL A   1      46.085  29.412  33.823  1.00  0.00    -0.203 F 
ATOM     85  C   UNL A   1      46.859  27.904  35.455  1.00  0.00     0.198 A 
ATOM     86  C   UNL A   1      45.458  26.092  36.178  1.00  0.00     0.198 A 
ATOM     87  F   UNL A   1      43.321  25.808  35.233  1.00  0.00    -0.203 F 
ATOM     88  F   UNL A   1      48.025  28.562  35.511  1.00  0.00    -0.200 F 
ATOM     89  C   UNL A   1      46.654  26.789  36.254  1.00  0.00     0.200 A 
ATOM     90  F   UNL A   1      45.255  25.021  36.956  1.00  0.00    -0.200 F 
ATOM     91  F   UNL A   1      47.616  26.380  37.095  1.00  0.00    -0.200 F 
ENDBRANCH  58  81
ENDBRANCH  32  33
ENDBRANCH  25  27
ENDBRANCH  24  25
ENDBRANCH   1  24
TORSDOF 12
ENDMDL
MODEL 2
REMARK VINA RESULT:     -12.5      0.153      1.609
REMARK SMILES C[C@H]1CN(C(=O)N2CC[NH+]([C@@H](C)C(=O)OCCOC(=O)c3ccc(-c4c5nc(c(-c6c(F)c(F)c(F)c(F)c6F)c6ccc([nH]6)c(-c6c(F)c(F)c(F)c(F)c6F)c6nc(c(-c7c(F)c(F)c(F)c(F)c7F)c7ccc4[nH]7)C=C6)C=C5)cc3)CC2)C[C@@H]1C
REMARK SMILES IDX 17 1 16 2 15 3 13 4 14 5 11 6 12 7 10 8 1 9 2 10 3 11 87 12
REMARK SMILES IDX 4 13 86 14 88 15 5 16 6 17 7 18 8 19 85 20 9 21 84 22 18 24
REMARK SMILES IDX 19 25 20 26 21 27 22 28 83 29 23 30 82 31 24 32 25 33 26 34
REMARK SMILES IDX 76 35 27 36 81 37 75 38 77 39 28 40 80 41 74 42 73 43 29 45
REMARK SMILES IDX 61 46 41 47 60 48 42 49 45 50 59 51 78 52 43 53 44 54 58 56
REMARK SMILES IDX 79 57 46 58 30 59 31 60 39 61 32 62 33 63 37 64 40 65 34 66
REMARK SMILES IDX 35 67 38 68 36 69 62 70 63 71 71 72 64 73 65 74 69 75 72 76
REMARK SMILES IDX 66 77 67 78 70 79 68 80 47 81 48 82 56 83 49 84 50 85 54 86
REMARK SMILES IDX 57 87 51 88 52 89 55 90 53 91
REMARK H PARENT 10 23 77 44 45 55
REMARK Flexibility Score: inf
ROOT
ATOM      1  C   UNL A   1      31.727  29.869  25.953  1.00  0.00     0.275 C 
ENDROOT
BRANCH   1   2
ATOM      2  C   UNL A   1      31.398  29.655  24.476  1.00  0.00     0.274 C 
BRANCH   2   3
ATOM      3  O   UNL A   1      30.434  28.600  24.313  1.00  0.00    -0.458 OA
BRANCH   3   4
ATOM      4  C   UNL A   1      30.726  27.610  23.434  1.00  0.00     0.364 C 
ATOM      5  O   UNL A   1      31.448  27.762  22.451  1.00  0.00    -0.245 OA
BRANCH   4   6
ATOM      6  C   UNL A   1      30.021  26.269  23.728  1.00  0.00     0.292 C 
ATOM      7  C   UNL A   1      28.534  26.521  23.948  1.00  0.00     0.088 C 
BRANCH   6   8
ATOM      8  N   UNL A   1      30.755  25.354  24.641  1.00  0.00    -0.321 N 
ATOM      9  C   UNL A   1      37.919  24.114  26.066  1.00  0.00     0.010 C 
ATOM     10  C   UNL A   1      36.850  23.023  25.947  1.00  0.00     0.010 C 
ATOM     11  C   UNL A   1      35.514  23.611  25.483  1.00  0.00     0.125 C 
ATOM     12  C   UNL A   1      37.184  22.014  24.834  1.00  0.00     0.010 C 
ATOM     13  N   UNL A   1      35.528  23.484  24.029  1.00  0.00    -0.324 N 
ATOM     14  C   UNL A   1      36.688  22.730  23.577  1.00  0.00     0.125 C 
ATOM     15  C   UNL A   1      36.439  20.689  25.033  1.00  0.00     0.010 C 
ATOM     16  C   UNL A   1      34.455  23.652  23.187  1.00  0.00     0.320 C 
ATOM     17  O   UNL A   1      34.458  23.245  22.026  1.00  0.00    -0.248 OA
ATOM     18  N   UNL A   1      33.315  24.177  23.760  1.00  0.00    -0.313 N 
ATOM     19  C   UNL A   1      32.054  23.633  23.287  1.00  0.00     0.183 C 
ATOM     20  C   UNL A   1      33.267  25.575  24.173  1.00  0.00     0.183 C 
ATOM     21  C   UNL A   1      30.911  23.939  24.257  1.00  0.00     0.284 C 
ATOM     22  C   UNL A   1      32.065  25.877  25.095  1.00  0.00     0.284 C 
ATOM     23  H   UNL A   1      30.085  25.343  25.410  1.00  0.00     0.348 HD
ENDBRANCH   6   8
ENDBRANCH   4   6
ENDBRANCH   3   4
ENDBRANCH   2   3
ENDBRANCH   1   2
BRANCH   1  24
ATOM     24  O   UNL A   1      33.112  30.226  26.120  1.00  0.00    -0.458 OA
BRANCH  24  25
ATOM     25  C   UNL A   1      33.356  31.256  26.960  1.00  0.00     0.338 C 
ATOM     26  O   UNL A   1      32.635  32.214  27.205  1.00  0.00    -0.246 OA
BRANCH  25  27
ATOM     27  C   UNL A   1      34.620  30.998  27.663  1.00  0.00     0.060 A 
ATOM     28  C   UNL A   1      34.865  29.705  28.129  1.00  0.00     0.016 A 
ATOM     29  C   UNL A   1      35.537  32.023  27.896  1.00  0.00     0.016 A 
ATOM     30  C   UNL A   1      36.048  29.417  28.804  1.00  0.00     0.010 A 
ATOM     31  C   UNL A   1      36.717  31.739  28.589  1.00  0.00     0.010 A 
ATOM     32  C   UNL A   1      36.980  30.434  29.045  1.00  0.00    -0.014 A 
BRANCH  32  33
ATOM     33  C   UNL A   1      38.209  30.143  29.818  1.00  0.00     0.031 A 
ATOM     34  C   UNL A   1      39.232  29.203  29.257  1.00  0.00     0.074 A 
ATOM     35  C   UNL A   1      38.404  30.723  31.015  1.00  0.00     0.049 A 
ATOM     36  N   UNL A   1      40.313  28.722  29.817  1.00  0.00    -0.248 NA
ATOM     37  C   UNL A   1      39.008  28.741  27.879  1.00  0.00     0.031 C 
ATOM     38  C   UNL A   1      37.503  31.692  31.637  1.00  0.00     0.029 A 
ATOM     39  N   UNL A   1      39.418  30.569  31.927  1.00  0.00    -0.354 N 
ATOM     40  C   UNL A   1      40.884  27.882  28.873  1.00  0.00     0.074 A 
ATOM     41  C   UNL A   1      40.028  27.912  27.705  1.00  0.00     0.031 C 
ATOM     42  C   UNL A   1      37.998  32.039  32.836  1.00  0.00     0.029 A 
ATOM     43  C   UNL A   1      39.222  31.278  33.085  1.00  0.00     0.049 A 
ATOM     44  H   UNL A   1      40.209  30.007  31.765  1.00  0.00     0.167 HD
ATOM     45  C   UNL A   1      42.018  27.149  28.976  1.00  0.00     0.037 A 
ATOM     46  C   UNL A   1      39.925  31.280  34.234  1.00  0.00     0.037 A 
ATOM     47  C   UNL A   1      42.872  27.139  30.134  1.00  0.00     0.049 A 
ATOM     48  C   UNL A   1      41.143  30.405  34.351  1.00  0.00     0.074 A 
ATOM     49  C   UNL A   1      44.067  26.466  30.322  1.00  0.00     0.029 A 
ATOM     50  N   UNL A   1      42.616  27.832  31.309  1.00  0.00    -0.354 N 
ATOM     51  N   UNL A   1      41.679  29.611  33.457  1.00  0.00    -0.248 NA
ATOM     52  C   UNL A   1      41.844  30.414  35.643  1.00  0.00     0.031 C 
ATOM     53  C   UNL A   1      44.508  26.714  31.627  1.00  0.00     0.029 A 
ATOM     54  C   UNL A   1      43.610  27.575  32.239  1.00  0.00     0.049 A 
ATOM     55  H   UNL A   1      41.841  28.421  31.460  1.00  0.00     0.167 HD
ATOM     56  C   UNL A   1      42.778  29.028  34.072  1.00  0.00     0.074 A 
ATOM     57  C   UNL A   1      42.846  29.577  35.410  1.00  0.00     0.031 C 
ATOM     58  C   UNL A   1      43.649  28.115  33.575  1.00  0.00     0.037 A 
BRANCH  45  59
ATOM     59  C   UNL A   1      42.376  26.266  27.819  1.00  0.00     0.064 A 
ATOM     60  C   UNL A   1      41.786  25.007  27.635  1.00  0.00     0.173 A 
ATOM     61  C   UNL A   1      43.319  26.695  26.872  1.00  0.00     0.173 A 
ATOM     62  F   UNL A   1      40.890  24.546  28.521  1.00  0.00    -0.203 F 
ATOM     63  C   UNL A   1      42.145  24.199  26.559  1.00  0.00     0.198 A 
ATOM     64  C   UNL A   1      43.657  25.895  25.784  1.00  0.00     0.198 A 
ATOM     65  F   UNL A   1      43.911  27.892  27.002  1.00  0.00    -0.203 F 
ATOM     66  F   UNL A   1      41.602  22.982  26.427  1.00  0.00    -0.200 F 
ATOM     67  C   UNL A   1      43.076  24.646  25.633  1.00  0.00     0.200 A 
ATOM     68  F   UNL A   1      44.551  26.331  24.885  1.00  0.00    -0.200 F 
ATOM     69  F   UNL A   1      43.421  23.867  24.598  1.00  0.00    -0.200 F 
ENDBRANCH  45  59
BRANCH  46  70
ATOM     70  C   UNL A   1      39.460  32.105  35.377  1.00  0.00     0.064 A 
ATOM     71  C   UNL A   1      38.590  31.580  36.341  1.00  0.00     0.173 A 
ATOM     72  C   UNL A   1      39.892  33.430  35.537  1.00  0.00     0.173 A 
ATOM     73  F   UNL A   1      38.127  30.328  36.215  1.00  0.00    -0.203 F 
ATOM     74  C   UNL A   1      38.169  32.351  37.424  1.00  0.00     0.198 A 
ATOM     75  C   UNL A   1      39.491  34.192  36.632  1.00  0.00     0.198 A 
ATOM     76  F   UNL A   1      40.721  33.980  34.637  1.00  0.00    -0.203 F 
ATOM     77  F   UNL A   1      37.313  31.837  38.317  1.00  0.00    -0.200 F 
ATOM     78  C   UNL A   1      38.626  33.653  37.573  1.00  0.00     0.200 A 
ATOM     79  F   UNL A   1      39.943  35.444  36.777  1.00  0.00    -0.200 F 
ATOM     80  F   UNL A   1      38.230  34.389  38.619  1.00  0.00    -0.200 F 
ENDBRANCH  46  70
BRANCH  58  81
ATOM     81  C   UNL A   1      44.744  27.648  34.486  1.00  0.00     0.064 A 
ATOM     82  C   UNL A   1      44.593  26.498  35.274  1.00  0.00     0.173 A 
ATOM     83  C   UNL A   1      45.968  28.329  34.542  1.00  0.00     0.173 A 
ATOM     84  F   UNL A   1      43.434  25.823  35.268  1.00  0.00    -0.203 F 
ATOM     85  C   UNL A   1      45.623  26.056  36.099  1.00  0.00     0.198 A 
ATOM     86  C   UNL A   1      47.007  27.870  35.348  1.00  0.00     0.198 A 
ATOM     87  F   UNL A   1      46.163  29.432  33.803  1.00  0.00    -0.203 F 
ATOM     88  F   UNL A   1      45.446  24.977  36.873  1.00  0.00    -0.200 F 
ATOM     89  C   UNL A   1      46.831  26.738  36.130  1.00  0.00     0.200 A 
ATOM     90  F   UNL A   1      48.176  28.524  35.369  1.00  0.00    -0.200 F 
ATOM     91  F   UNL A   1      47.825  26.308  36.919  1.00  0.00    -0.200 F 
ENDBRANCH  58  81
ENDBRANCH  32  33
ENDBRANCH  25  27
ENDBRANCH  24  25
ENDBRANCH   1  24
TORSDOF 12
ENDMDL
MODEL 3
REMARK VINA RESULT:     -12.4      2.862      8.243
REMARK SMILES C[C@H]1CN(C(=O)N2CC[NH+]([C@@H](C)C(=O)OCCOC(=O)c3ccc(-c4c5nc(c(-c6c(F)c(F)c(F)c(F)c6F)c6ccc([nH]6)c(-c6c(F)c(F)c(F)c(F)c6F)c6nc(c(-c7c(F)c(F)c(F)c(F)c7F)c7ccc4[nH]7)C=C6)C=C5)cc3)CC2)C[C@@H]1C
REMARK SMILES IDX 17 1 16 2 15 3 13 4 14 5 11 6 12 7 10 8 1 9 2 10 3 11 87 12
REMARK SMILES IDX 4 13 86 14 88 15 5 16 6 17 7 18 8 19 85 20 9 21 84 22 18 24
REMARK SMILES IDX 19 25 20 26 21 27 22 28 83 29 23 30 82 31 24 32 25 33 26 34
REMARK SMILES IDX 76 35 27 36 81 37 75 38 77 39 28 40 80 41 74 42 73 43 29 45
REMARK SMILES IDX 61 46 41 47 60 48 42 49 45 50 59 51 78 52 43 53 44 54 58 56
REMARK SMILES IDX 79 57 46 58 30 59 31 60 39 61 32 62 33 63 37 64 40 65 34 66
REMARK SMILES IDX 35 67 38 68 36 69 62 70 63 71 71 72 64 73 65 74 69 75 72 76
REMARK SMILES IDX 66 77 67 78 70 79 68 80 47 81 48 82 56 83 49 84 50 85 54 86
REMARK SMILES IDX 57 87 51 88 52 89 55 90 53 91
REMARK H PARENT 10 23 77 44 45 55
REMARK Flexibility Score: inf
ROOT
ATOM      1  C   UNL A   1      43.131  21.520  25.536  1.00  0.00     0.275 C 
ENDROOT
BRANCH   1   2
ATOM      2  C   UNL A   1      41.977  20.728  26.149  1.00  0.00     0.274 C 
BRANCH   2   3
ATOM      3  O   UNL A   1      40.729  21.067  25.517  1.00  0.00    -0.458 OA
BRANCH   3   4
ATOM      4  C   UNL A   1      39.726  21.520  26.308  1.00  0.00     0.364 C 
ATOM      5  O   UNL A   1      39.894  21.948  27.448  1.00  0.00    -0.245 OA
BRANCH   4   6
ATOM      6  C   UNL A   1      38.319  21.396  25.684  1.00  0.00     0.292 C 
ATOM      7  C   UNL A   1      38.196  20.047  24.985  1.00  0.00     0.088 C 
BRANCH   6   8
ATOM      8  N   UNL A   1      37.815  22.622  25.011  1.00  0.00    -0.321 N 
ATOM      9  C   UNL A   1      32.374  27.445  26.436  1.00  0.00     0.010 C 
ATOM     10  C   UNL A   1      32.727  26.911  25.044  1.00  0.00     0.010 C 
ATOM     11  C   UNL A   1      33.787  25.810  25.130  1.00  0.00     0.125 C 
ATOM     12  C   UNL A   1      31.535  26.187  24.391  1.00  0.00     0.010 C 
ATOM     13  N   UNL A   1      33.034  24.562  25.206  1.00  0.00    -0.324 N 
ATOM     14  C   UNL A   1      31.609  24.793  25.018  1.00  0.00     0.125 C 
ATOM     15  C   UNL A   1      31.691  26.106  22.868  1.00  0.00     0.010 C 
ATOM     16  C   UNL A   1      33.543  23.294  25.056  1.00  0.00     0.320 C 
ATOM     17  O   UNL A   1      32.827  22.318  24.834  1.00  0.00    -0.248 OA
ATOM     18  N   UNL A   1      34.918  23.195  25.027  1.00  0.00    -0.313 N 
ATOM     19  C   UNL A   1      35.469  22.215  24.107  1.00  0.00     0.183 C 
ATOM     20  C   UNL A   1      35.706  23.418  26.235  1.00  0.00     0.183 C 
ATOM     21  C   UNL A   1      36.950  22.479  23.826  1.00  0.00     0.284 C 
ATOM     22  C   UNL A   1      37.208  23.611  25.933  1.00  0.00     0.284 C 
ATOM     23  H   UNL A   1      38.703  22.966  24.646  1.00  0.00     0.348 HD
ENDBRANCH   6   8
ENDBRANCH   4   6
ENDBRANCH   3   4
ENDBRANCH   2   3
ENDBRANCH   1   2
BRANCH   1  24
ATOM     24  O   UNL A   1      42.662  22.769  24.996  1.00  0.00    -0.458 OA
BRANCH  24  25
ATOM     25  C   UNL A   1      43.530  23.802  25.065  1.00  0.00     0.338 C 
ATOM     26  O   UNL A   1      44.486  24.031  24.336  1.00  0.00    -0.246 OA
BRANCH  25  27
ATOM     27  C   UNL A   1      43.079  24.725  26.115  1.00  0.00     0.060 A 
ATOM     28  C   UNL A   1      43.596  26.022  26.123  1.00  0.00     0.016 A 
ATOM     29  C   UNL A   1      42.185  24.310  27.103  1.00  0.00     0.016 A 
ATOM     30  C   UNL A   1      43.199  26.928  27.102  1.00  0.00     0.010 A 
ATOM     31  C   UNL A   1      41.799  25.214  28.097  1.00  0.00     0.010 A 
ATOM     32  C   UNL A   1      42.302  26.528  28.100  1.00  0.00    -0.014 A 
BRANCH  32  33
ATOM     33  C   UNL A   1      41.927  27.471  29.179  1.00  0.00     0.031 A 
ATOM     34  C   UNL A   1      42.720  27.497  30.450  1.00  0.00     0.074 A 
ATOM     35  C   UNL A   1      40.881  28.300  29.014  1.00  0.00     0.049 A 
ATOM     36  N   UNL A   1      42.491  28.156  31.558  1.00  0.00    -0.248 NA
ATOM     37  C   UNL A   1      43.935  26.669  30.478  1.00  0.00     0.031 C 
ATOM     38  C   UNL A   1      40.069  28.400  27.802  1.00  0.00     0.029 A 
ATOM     39  N   UNL A   1      40.316  29.206  29.876  1.00  0.00    -0.354 N 
ATOM     40  C   UNL A   1      43.516  27.802  32.424  1.00  0.00     0.074 A 
ATOM     41  C   UNL A   1      44.366  26.867  31.716  1.00  0.00     0.031 C 
ATOM     42  C   UNL A   1      39.101  29.308  28.001  1.00  0.00     0.029 A 
ATOM     43  C   UNL A   1      39.195  29.814  29.369  1.00  0.00     0.049 A 
ATOM     44  H   UNL A   1      40.680  29.402  30.769  1.00  0.00     0.167 HD
ATOM     45  C   UNL A   1      43.723  28.221  33.695  1.00  0.00     0.037 A 
ATOM     46  C   UNL A   1      38.319  30.651  29.957  1.00  0.00     0.037 A 
ATOM     47  C   UNL A   1      42.883  29.164  34.384  1.00  0.00     0.049 A 
ATOM     48  C   UNL A   1      38.530  31.047  31.393  1.00  0.00     0.074 A 
ATOM     49  C   UNL A   1      43.032  29.686  35.656  1.00  0.00     0.029 A 
ATOM     50  N   UNL A   1      41.728  29.723  33.856  1.00  0.00    -0.354 N 
ATOM     51  N   UNL A   1      39.500  30.712  32.208  1.00  0.00    -0.248 NA
ATOM     52  C   UNL A   1      37.518  31.926  31.995  1.00  0.00     0.031 C 
ATOM     53  C   UNL A   1      41.941  30.523  35.916  1.00  0.00     0.029 A 
ATOM     54  C   UNL A   1      41.133  30.556  34.790  1.00  0.00     0.049 A 
ATOM     55  H   UNL A   1      41.380  29.552  32.950  1.00  0.00     0.167 HD
ATOM     56  C   UNL A   1      39.219  31.336  33.415  1.00  0.00     0.074 A 
ATOM     57  C   UNL A   1      37.998  32.090  33.219  1.00  0.00     0.031 C 
ATOM     58  C   UNL A   1      39.906  31.283  34.583  1.00  0.00     0.037 A 
BRANCH  45  59
ATOM     59  C   UNL A   1      44.883  27.626  34.436  1.00  0.00     0.064 A 
ATOM     60  C   UNL A   1      46.154  28.218  34.424  1.00  0.00     0.173 A 
ATOM     61  C   UNL A   1      44.713  26.449  35.180  1.00  0.00     0.173 A 
ATOM     62  F   UNL A   1      46.372  29.336  33.715  1.00  0.00    -0.203 F 
ATOM     63  C   UNL A   1      47.219  27.639  35.110  1.00  0.00     0.198 A 
ATOM     64  C   UNL A   1      45.773  25.886  35.885  1.00  0.00     0.198 A 
ATOM     65  F   UNL A   1      43.515  25.845  35.225  1.00  0.00    -0.203 F 
ATOM     66  F   UNL A   1      48.436  28.196  35.048  1.00  0.00    -0.200 F 
ATOM     67  C   UNL A   1      47.027  26.477  35.843  1.00  0.00     0.200 A 
ATOM     68  F   UNL A   1      45.583  24.767  36.599  1.00  0.00    -0.200 F 
ATOM     69  F   UNL A   1      48.052  25.920  36.502  1.00  0.00    -0.200 F 
ENDBRANCH  45  59
BRANCH  46  70
ATOM     70  C   UNL A   1      37.136  31.127  29.196  1.00  0.00     0.064 A 
ATOM     71  C   UNL A   1      36.045  30.284  28.952  1.00  0.00     0.173 A 
ATOM     72  C   UNL A   1      37.068  32.443  28.713  1.00  0.00     0.173 A 
ATOM     73  F   UNL A   1      36.078  29.010  29.370  1.00  0.00    -0.203 F 
ATOM     74  C   UNL A   1      34.928  30.739  28.253  1.00  0.00     0.198 A 
ATOM     75  C   UNL A   1      35.941  32.904  28.036  1.00  0.00     0.198 A 
ATOM     76  F   UNL A   1      38.090  33.287  28.915  1.00  0.00    -0.203 F 
ATOM     77  F   UNL A   1      33.910  29.904  28.007  1.00  0.00    -0.200 F 
ATOM     78  C   UNL A   1      34.873  32.050  27.804  1.00  0.00     0.200 A 
ATOM     79  F   UNL A   1      35.888  34.174  27.613  1.00  0.00    -0.200 F 
ATOM     80  F   UNL A   1      33.795  32.490  27.142  1.00  0.00    -0.200 F 
ENDBRANCH  46  70
BRANCH  58  81
ATOM     81  C   UNL A   1      39.349  32.056  35.741  1.00  0.00     0.064 A 
ATOM     82  C   UNL A   1      39.679  33.405  35.941  1.00  0.00     0.173 A 
ATOM     83  C   UNL A   1      38.448  31.459  36.634  1.00  0.00     0.173 A 
ATOM     84  F   UNL A   1      40.551  34.014  35.124  1.00  0.00    -0.203 F 
ATOM     85  C   UNL A   1      39.140  34.123  37.004  1.00  0.00     0.198 A 
ATOM     86  C   UNL A   1      37.890  32.187  37.681  1.00  0.00     0.198 A 
ATOM     87  F   UNL A   1      38.098  30.173  36.482  1.00  0.00    -0.203 F 
ATOM     88  F   UNL A   1      39.497  35.399  37.200  1.00  0.00    -0.200 F 
ATOM     89  C   UNL A   1      38.240  33.516  37.868  1.00  0.00     0.200 A 
ATOM     90  F   UNL A   1      37.014  31.602  38.509  1.00  0.00    -0.200 F 
ATOM     91  F   UNL A   1      37.715  34.210  38.887  1.00  0.00    -0.200 F 
ENDBRANCH  58  81
ENDBRANCH  32  33
ENDBRANCH  25  27
ENDBRANCH  24  25
ENDBRANCH   1  24
TORSDOF 12
ENDMDL
