MODEL 1
REMARK VINA RESULT:     -12.5      0.000      0.000
REMARK SMILES COc1cccc([C@@H]2CN(C(=O)CSc3nc(C)n[nH]3)C[C@H]2C(=O)OCCOC(=O)c2ccc(-c3c4nc(c(-c5c(F)c(F)c(F)c(F)c5F)c5ccc([nH]5)c(-c5c(F)c(F)c(F)c(F)c5F)c5nc(c(-c6c(F)c(F)c(F)c(F)c6F)c6ccc3[nH]6)C=C5)C=C4)cc2)c1
REMARK SMILES IDX 26 1 25 2 23 3 24 4 22 5 8 6 9 7 10 8 21 9 7 10 3 11 4 12
REMARK SMILES IDX 94 13 5 14 6 15 2 16 1 17 11 18 12 19 13 20 14 21 15 22
REMARK SMILES IDX 16 23 20 24 17 25 19 26 18 28 27 29 28 30 29 31 30 32 31 33
REMARK SMILES IDX 32 34 93 35 33 36 92 37 34 38 35 39 36 40 86 41 37 42 91 43
REMARK SMILES IDX 85 44 87 45 38 46 90 47 84 48 83 49 39 51 71 52 51 53 70 54
REMARK SMILES IDX 52 55 55 56 69 57 88 58 53 59 54 60 68 62 89 63 56 64 40 65
REMARK SMILES IDX 41 66 49 67 42 68 43 69 47 70 50 71 44 72 45 73 48 74 46 75
REMARK SMILES IDX 72 76 73 77 81 78 74 79 75 80 79 81 82 82 76 83 77 84 80 85
REMARK SMILES IDX 78 86 57 87 58 88 66 89 59 90 60 91 64 92 67 93 61 94 62 95
REMARK SMILES IDX 65 96 63 97
REMARK H PARENT 20 27 87 50 55 61
REMARK Flexibility Score: inf
ROOT
ATOM      1  C   UNL A   1      37.044  20.997  24.966  1.00  0.00     0.274 C 
ENDROOT
BRANCH   1   2
ATOM      2  O   UNL A   1      36.082  21.354  25.984  1.00  0.00    -0.462 OA
BRANCH   2   3
ATOM      3  C   UNL A   1      35.166  22.306  25.653  1.00  0.00     0.311 C 
ATOM      4  O   UNL A   1      34.799  23.208  26.398  1.00  0.00    -0.252 OA
BRANCH   3   5
ATOM      5  C   UNL A   1      34.543  22.087  24.291  1.00  0.00     0.128 C 
ATOM      6  C   UNL A   1      33.108  21.514  24.253  1.00  0.00     0.055 C 
ATOM      7  C   UNL A   1      32.446  22.270  23.096  1.00  0.00     0.128 C 
ATOM      8  N   UNL A   1      33.157  23.529  22.994  1.00  0.00    -0.340 N 
ATOM      9  C   UNL A   1      34.453  23.462  23.637  1.00  0.00     0.135 C 
BRANCH   6  10
ATOM     10  C   UNL A   1      32.939  20.016  24.025  1.00  0.00    -0.039 A 
ATOM     11  C   UNL A   1      33.211  17.678  24.687  1.00  0.00     0.119 A 
ATOM     12  C   UNL A   1      32.702  17.269  23.455  1.00  0.00     0.046 A 
ATOM     13  C   UNL A   1      33.342  19.046  24.966  1.00  0.00     0.050 A 
ATOM     14  C   UNL A   1      32.302  18.211  22.512  1.00  0.00     0.004 A 
ATOM     15  C   UNL A   1      32.427  19.572  22.793  1.00  0.00     0.004 A 
BRANCH  11  16
ATOM     16  O   UNL A   1      33.579  16.655  25.517  1.00  0.00    -0.497 OA
ATOM     17  C   UNL A   1      32.605  15.646  25.749  1.00  0.00     0.278 C 
ENDBRANCH  11  16
ENDBRANCH   6  10
BRANCH   8  18
ATOM     18  C   UNL A   1      32.749  24.685  22.366  1.00  0.00     0.233 C 
ATOM     19  O   UNL A   1      33.296  25.062  21.327  1.00  0.00    -0.274 OA
BRANCH  18  20
ATOM     20  C   UNL A   1      31.603  25.477  22.968  1.00  0.00     0.178 C 
BRANCH  20  21
ATOM     21  S   UNL A   1      32.038  26.165  24.591  1.00  0.00    -0.077 SA
BRANCH  21  22
ATOM     22  C   UNL A   1      31.507  24.913  25.640  1.00  0.00     0.184 A 
ATOM     23  N   UNL A   1      30.332  24.337  25.659  1.00  0.00    -0.206 NA
ATOM     24  N   UNL A   1      32.276  24.438  26.654  1.00  0.00    -0.254 N 
ATOM     25  C   UNL A   1      30.431  23.495  26.738  1.00  0.00     0.148 A 
ATOM     26  N   UNL A   1      31.605  23.532  27.385  1.00  0.00    -0.158 NA
ATOM     27  H   UNL A   1      33.204  24.719  26.829  1.00  0.00     0.192 HD
ATOM     28  C   UNL A   1      29.309  22.637  27.163  1.00  0.00     0.092 C 
ENDBRANCH  21  22
ENDBRANCH  20  21
ENDBRANCH  18  20
ENDBRANCH   8  18
ENDBRANCH   3   5
ENDBRANCH   2   3
ENDBRANCH   1   2
BRANCH   1  29
ATOM     29  C   UNL A   1      38.493  21.081  25.448  1.00  0.00     0.275 C 
BRANCH  29  30
ATOM     30  O   UNL A   1      38.734  22.258  26.223  1.00  0.00    -0.458 OA
BRANCH  30  31
ATOM     31  C   UNL A   1      39.890  22.195  26.918  1.00  0.00     0.338 C 
ATOM     32  O   UNL A   1      40.281  21.260  27.593  1.00  0.00    -0.246 OA
BRANCH  31  33
ATOM     33  C   UNL A   1      40.601  23.471  26.889  1.00  0.00     0.060 A 
ATOM     34  C   UNL A   1      41.742  23.575  27.691  1.00  0.00     0.016 A 
ATOM     35  C   UNL A   1      39.938  24.594  26.397  1.00  0.00     0.016 A 
ATOM     36  C   UNL A   1      42.098  24.805  28.195  1.00  0.00     0.010 A 
ATOM     37  C   UNL A   1      40.298  25.827  26.893  1.00  0.00     0.010 A 
ATOM     38  C   UNL A   1      41.307  25.902  27.861  1.00  0.00    -0.014 A 
BRANCH  38  39
ATOM     39  C   UNL A   1      41.509  27.138  28.595  1.00  0.00     0.031 A 
ATOM     40  C   UNL A   1      42.675  27.957  28.189  1.00  0.00     0.074 A 
ATOM     41  C   UNL A   1      40.559  27.578  29.444  1.00  0.00     0.049 A 
ATOM     42  N   UNL A   1      43.558  28.540  28.935  1.00  0.00    -0.248 NA
ATOM     43  C   UNL A   1      42.905  28.119  26.743  1.00  0.00     0.031 C 
ATOM     44  C   UNL A   1      39.237  26.988  29.684  1.00  0.00     0.029 A 
ATOM     45  N   UNL A   1      40.516  28.739  30.153  1.00  0.00    -0.354 N 
ATOM     46  C   UNL A   1      44.361  29.270  28.064  1.00  0.00     0.074 A 
ATOM     47  C   UNL A   1      43.985  28.893  26.726  1.00  0.00     0.031 C 
ATOM     48  C   UNL A   1      38.446  27.909  30.275  1.00  0.00     0.029 A 
ATOM     49  C   UNL A   1      39.238  29.096  30.551  1.00  0.00     0.049 A 
ATOM     50  H   UNL A   1      41.316  29.274  30.363  1.00  0.00     0.167 HD
ATOM     51  C   UNL A   1      45.138  30.301  28.484  1.00  0.00     0.037 A 
ATOM     52  C   UNL A   1      38.835  30.319  30.971  1.00  0.00     0.037 A 
ATOM     53  C   UNL A   1      45.446  30.229  29.883  1.00  0.00     0.049 A 
ATOM     54  C   UNL A   1      40.040  31.097  31.348  1.00  0.00     0.074 A 
ATOM     55  C   UNL A   1      46.087  29.304  30.684  1.00  0.00     0.029 A 
ATOM     56  N   UNL A   1      44.809  31.082  30.747  1.00  0.00    -0.354 N 
ATOM     57  N   UNL A   1      40.787  30.846  32.386  1.00  0.00    -0.248 NA
ATOM     58  C   UNL A   1      40.650  31.940  30.330  1.00  0.00     0.031 C 
ATOM     59  C   UNL A   1      45.414  29.364  31.939  1.00  0.00     0.029 A 
ATOM     60  C   UNL A   1      44.415  30.330  31.824  1.00  0.00     0.049 A 
ATOM     61  H   UNL A   1      44.664  32.047  30.621  1.00  0.00     0.167 HD
ATOM     62  C   UNL A   1      42.077  31.147  31.973  1.00  0.00     0.074 A 
ATOM     63  C   UNL A   1      41.917  31.923  30.750  1.00  0.00     0.031 C 
ATOM     64  C   UNL A   1      43.155  30.502  32.506  1.00  0.00     0.037 A 
BRANCH  51  65
ATOM     65  C   UNL A   1      45.350  31.536  27.657  1.00  0.00     0.064 A 
ATOM     66  C   UNL A   1      46.625  31.837  27.151  1.00  0.00     0.173 A 
ATOM     67  C   UNL A   1      44.392  32.571  27.576  1.00  0.00     0.173 A 
ATOM     68  F   UNL A   1      47.618  30.940  27.228  1.00  0.00    -0.203 F 
ATOM     69  C   UNL A   1      46.925  33.097  26.625  1.00  0.00     0.198 A 
ATOM     70  C   UNL A   1      44.677  33.806  27.001  1.00  0.00     0.198 A 
ATOM     71  F   UNL A   1      43.183  32.459  28.145  1.00  0.00    -0.203 F 
ATOM     72  F   UNL A   1      48.179  33.379  26.249  1.00  0.00    -0.200 F 
ATOM     73  C   UNL A   1      45.951  34.078  26.547  1.00  0.00     0.200 A 
ATOM     74  F   UNL A   1      43.726  34.750  26.958  1.00  0.00    -0.200 F 
ATOM     75  F   UNL A   1      46.249  35.299  26.086  1.00  0.00    -0.200 F 
ENDBRANCH  51  65
BRANCH  52  76
ATOM     76  C   UNL A   1      37.505  30.936  30.780  1.00  0.00     0.064 A 
ATOM     77  C   UNL A   1      36.696  31.276  31.872  1.00  0.00     0.173 A 
ATOM     78  C   UNL A   1      37.091  31.412  29.519  1.00  0.00     0.173 A 
ATOM     79  F   UNL A   1      37.050  30.911  33.113  1.00  0.00    -0.203 F 
ATOM     80  C   UNL A   1      35.537  32.044  31.713  1.00  0.00     0.198 A 
ATOM     81  C   UNL A   1      35.928  32.163  29.358  1.00  0.00     0.198 A 
ATOM     82  F   UNL A   1      37.852  31.230  28.429  1.00  0.00    -0.203 F 
ATOM     83  F   UNL A   1      34.813  32.392  32.785  1.00  0.00    -0.200 F 
ATOM     84  C   UNL A   1      35.156  32.487  30.456  1.00  0.00     0.200 A 
ATOM     85  F   UNL A   1      35.592  32.614  28.141  1.00  0.00    -0.200 F 
ATOM     86  F   UNL A   1      34.069  33.256  30.308  1.00  0.00    -0.200 F 
ENDBRANCH  52  76
BRANCH  64  87
ATOM     87  C   UNL A   1      42.927  29.669  33.733  1.00  0.00     0.064 A 
ATOM     88  C   UNL A   1      42.467  28.341  33.689  1.00  0.00     0.173 A 
ATOM     89  C   UNL A   1      43.314  30.177  34.979  1.00  0.00     0.173 A 
ATOM     90  F   UNL A   1      42.188  27.749  32.522  1.00  0.00    -0.203 F 
ATOM     91  C   UNL A   1      42.343  27.579  34.849  1.00  0.00     0.198 A 
ATOM     92  C   UNL A   1      43.225  29.400  36.132  1.00  0.00     0.198 A 
ATOM     93  F   UNL A   1      43.824  31.415  35.071  1.00  0.00    -0.203 F 
ATOM     94  F   UNL A   1      41.886  26.320  34.781  1.00  0.00    -0.200 F 
ATOM     95  C   UNL A   1      42.728  28.109  36.069  1.00  0.00     0.200 A 
ATOM     96  F   UNL A   1      43.647  29.897  37.304  1.00  0.00    -0.200 F 
ATOM     97  F   UNL A   1      42.646  27.363  37.180  1.00  0.00    -0.200 F 
ENDBRANCH  64  87
ENDBRANCH  38  39
ENDBRANCH  31  33
ENDBRANCH  30  31
ENDBRANCH  29  30
ENDBRANCH   1  29
TORSDOF 17
ENDMDL
MODEL 2
REMARK VINA RESULT:     -12.4      1.465      2.170
REMARK SMILES COc1cccc([C@@H]2CN(C(=O)CSc3nc(C)n[nH]3)C[C@H]2C(=O)OCCOC(=O)c2ccc(-c3c4nc(c(-c5c(F)c(F)c(F)c(F)c5F)c5ccc([nH]5)c(-c5c(F)c(F)c(F)c(F)c5F)c5nc(c(-c6c(F)c(F)c(F)c(F)c6F)c6ccc3[nH]6)C=C5)C=C4)cc2)c1
REMARK SMILES IDX 26 1 25 2 23 3 24 4 22 5 8 6 9 7 10 8 21 9 7 10 3 11 4 12
REMARK SMILES IDX 94 13 5 14 6 15 2 16 1 17 11 18 12 19 13 20 14 21 15 22
REMARK SMILES IDX 16 23 20 24 17 25 19 26 18 28 27 29 28 30 29 31 30 32 31 33
REMARK SMILES IDX 32 34 93 35 33 36 92 37 34 38 35 39 36 40 86 41 37 42 91 43
REMARK SMILES IDX 85 44 87 45 38 46 90 47 84 48 83 49 39 51 71 52 51 53 70 54
REMARK SMILES IDX 52 55 55 56 69 57 88 58 53 59 54 60 68 62 89 63 56 64 40 65
REMARK SMILES IDX 41 66 49 67 42 68 43 69 47 70 50 71 44 72 45 73 48 74 46 75
REMARK SMILES IDX 72 76 73 77 81 78 74 79 75 80 79 81 82 82 76 83 77 84 80 85
REMARK SMILES IDX 78 86 57 87 58 88 66 89 59 90 60 91 64 92 67 93 61 94 62 95
REMARK SMILES IDX 65 96 63 97
REMARK H PARENT 20 27 87 50 55 61
REMARK Flexibility Score: inf
ROOT
ATOM      1  C   UNL A   1      36.618  21.520  25.009  1.00  0.00     0.274 C 
ENDROOT
BRANCH   1   2
ATOM      2  O   UNL A   1      35.793  22.116  26.036  1.00  0.00    -0.462 OA
BRANCH   2   3
ATOM      3  C   UNL A   1      34.803  22.952  25.615  1.00  0.00     0.311 C 
ATOM      4  O   UNL A   1      34.253  23.790  26.322  1.00  0.00    -0.252 OA
BRANCH   3   5
ATOM      5  C   UNL A   1      34.354  22.681  24.196  1.00  0.00     0.128 C 
ATOM      6  C   UNL A   1      32.948  22.069  24.004  1.00  0.00     0.055 C 
ATOM      7  C   UNL A   1      32.412  22.776  22.755  1.00  0.00     0.128 C 
ATOM      8  N   UNL A   1      33.100  24.050  22.701  1.00  0.00    -0.340 N 
ATOM      9  C   UNL A   1      34.311  24.036  23.496  1.00  0.00     0.135 C 
BRANCH   6  10
ATOM     10  C   UNL A   1      32.844  20.562  23.802  1.00  0.00    -0.039 A 
ATOM     11  C   UNL A   1      33.322  18.250  24.439  1.00  0.00     0.119 A 
ATOM     12  C   UNL A   1      32.707  17.799  23.272  1.00  0.00     0.046 A 
ATOM     13  C   UNL A   1      33.403  19.626  24.697  1.00  0.00     0.050 A 
ATOM     14  C   UNL A   1      32.153  18.706  22.374  1.00  0.00     0.004 A 
ATOM     15  C   UNL A   1      32.228  20.075  22.635  1.00  0.00     0.004 A 
BRANCH  11  16
ATOM     16  O   UNL A   1      33.838  17.258  25.228  1.00  0.00    -0.497 OA
ATOM     17  C   UNL A   1      33.735  15.932  24.726  1.00  0.00     0.278 C 
ENDBRANCH  11  16
ENDBRANCH   6  10
BRANCH   8  18
ATOM     18  C   UNL A   1      32.743  25.178  21.995  1.00  0.00     0.233 C 
ATOM     19  O   UNL A   1      33.280  25.439  20.916  1.00  0.00    -0.274 OA
BRANCH  18  20
ATOM     20  C   UNL A   1      31.666  26.084  22.563  1.00  0.00     0.178 C 
BRANCH  20  21
ATOM     21  S   UNL A   1      32.333  27.698  23.057  1.00  0.00    -0.077 SA
BRANCH  21  22
ATOM     22  C   UNL A   1      30.931  28.687  22.952  1.00  0.00     0.184 A 
ATOM     23  N   UNL A   1      30.027  28.685  22.007  1.00  0.00    -0.206 NA
ATOM     24  N   UNL A   1      30.666  29.670  23.851  1.00  0.00    -0.254 N 
ATOM     25  C   UNL A   1      29.206  29.720  22.379  1.00  0.00     0.148 A 
ATOM     26  N   UNL A   1      29.567  30.360  23.501  1.00  0.00    -0.158 NA
ATOM     27  H   UNL A   1      31.206  29.852  24.654  1.00  0.00     0.192 HD
ATOM     28  C   UNL A   1      28.030  30.109  21.578  1.00  0.00     0.092 C 
ENDBRANCH  21  22
ENDBRANCH  20  21
ENDBRANCH  18  20
ENDBRANCH   8  18
ENDBRANCH   3   5
ENDBRANCH   2   3
ENDBRANCH   1   2
BRANCH   1  29
ATOM     29  C   UNL A   1      38.105  21.501  25.364  1.00  0.00     0.275 C 
BRANCH  29  30
ATOM     30  O   UNL A   1      38.476  22.614  26.180  1.00  0.00    -0.458 OA
BRANCH  30  31
ATOM     31  C   UNL A   1      39.676  22.443  26.776  1.00  0.00     0.338 C 
ATOM     32  O   UNL A   1      40.080  21.431  27.320  1.00  0.00    -0.246 OA
BRANCH  31  33
ATOM     33  C   UNL A   1      40.431  23.694  26.826  1.00  0.00     0.060 A 
ATOM     34  C   UNL A   1      41.530  23.733  27.689  1.00  0.00     0.016 A 
ATOM     35  C   UNL A   1      39.833  24.854  26.337  1.00  0.00     0.016 A 
ATOM     36  C   UNL A   1      41.900  24.934  28.251  1.00  0.00     0.010 A 
ATOM     37  C   UNL A   1      40.208  26.058  26.890  1.00  0.00     0.010 A 
ATOM     38  C   UNL A   1      41.166  26.068  27.912  1.00  0.00    -0.014 A 
BRANCH  38  39
ATOM     39  C   UNL A   1      41.369  27.272  28.695  1.00  0.00     0.031 A 
ATOM     40  C   UNL A   1      42.568  28.076  28.360  1.00  0.00     0.074 A 
ATOM     41  C   UNL A   1      40.400  27.707  29.525  1.00  0.00     0.049 A 
ATOM     42  N   UNL A   1      43.437  28.611  29.157  1.00  0.00    -0.248 NA
ATOM     43  C   UNL A   1      42.855  28.280  26.930  1.00  0.00     0.031 C 
ATOM     44  C   UNL A   1      39.056  27.143  29.696  1.00  0.00     0.029 A 
ATOM     45  N   UNL A   1      40.358  28.844  30.272  1.00  0.00    -0.354 N 
ATOM     46  C   UNL A   1      44.288  29.350  28.341  1.00  0.00     0.074 A 
ATOM     47  C   UNL A   1      43.953  29.028  26.978  1.00  0.00     0.031 C 
ATOM     48  C   UNL A   1      38.266  28.061  30.291  1.00  0.00     0.029 A 
ATOM     49  C   UNL A   1      39.075  29.219  30.635  1.00  0.00     0.049 A 
ATOM     50  H   UNL A   1      41.162  29.352  30.529  1.00  0.00     0.167 HD
ATOM     51  C   UNL A   1      45.074  30.346  28.824  1.00  0.00     0.037 A 
ATOM     52  C   UNL A   1      38.687  30.436  31.083  1.00  0.00     0.037 A 
ATOM     53  C   UNL A   1      45.329  30.219  30.230  1.00  0.00     0.049 A 
ATOM     54  C   UNL A   1      39.894  31.171  31.530  1.00  0.00     0.074 A 
ATOM     55  C   UNL A   1      45.917  29.251  31.021  1.00  0.00     0.029 A 
ATOM     56  N   UNL A   1      44.681  31.058  31.100  1.00  0.00    -0.354 N 
ATOM     57  N   UNL A   1      40.597  30.866  32.585  1.00  0.00    -0.248 NA
ATOM     58  C   UNL A   1      40.561  32.033  30.565  1.00  0.00     0.031 C 
ATOM     59  C   UNL A   1      45.201  29.286  32.253  1.00  0.00     0.029 A 
ATOM     60  C   UNL A   1      44.230  30.280  32.136  1.00  0.00     0.049 A 
ATOM     61  H   UNL A   1      44.564  32.030  31.003  1.00  0.00     0.167 HD
ATOM     62  C   UNL A   1      41.908  31.149  32.230  1.00  0.00     0.074 A 
ATOM     63  C   UNL A   1      41.811  31.969  31.029  1.00  0.00     0.031 C 
ATOM     64  C   UNL A   1      42.950  30.459  32.778  1.00  0.00     0.037 A 
BRANCH  51  65
ATOM     65  C   UNL A   1      45.345  31.603  28.050  1.00  0.00     0.064 A 
ATOM     66  C   UNL A   1      44.282  32.419  27.630  1.00  0.00     0.173 A 
ATOM     67  C   UNL A   1      46.606  31.886  27.475  1.00  0.00     0.173 A 
ATOM     68  F   UNL A   1      43.037  32.198  28.078  1.00  0.00    -0.203 F 
ATOM     69  C   UNL A   1      44.464  33.429  26.683  1.00  0.00     0.198 A 
ATOM     70  C   UNL A   1      46.795  32.929  26.574  1.00  0.00     0.198 A 
ATOM     71  F   UNL A   1      47.669  31.098  27.687  1.00  0.00    -0.203 F 
ATOM     72  F   UNL A   1      43.406  34.115  26.231  1.00  0.00    -0.200 F 
ATOM     73  C   UNL A   1      45.719  33.686  26.159  1.00  0.00     0.200 A 
ATOM     74  F   UNL A   1      48.014  33.145  26.060  1.00  0.00    -0.200 F 
ATOM     75  F   UNL A   1      45.886  34.623  25.217  1.00  0.00    -0.200 F 
ENDBRANCH  51  65
BRANCH  52  76
ATOM     76  C   UNL A   1      37.379  31.092  30.867  1.00  0.00     0.064 A 
ATOM     77  C   UNL A   1      36.570  31.478  31.944  1.00  0.00     0.173 A 
ATOM     78  C   UNL A   1      36.994  31.559  29.593  1.00  0.00     0.173 A 
ATOM     79  F   UNL A   1      36.899  31.125  33.194  1.00  0.00    -0.203 F 
ATOM     80  C   UNL A   1      35.438  32.280  31.757  1.00  0.00     0.198 A 
ATOM     81  C   UNL A   1      35.858  32.344  29.405  1.00  0.00     0.198 A 
ATOM     82  F   UNL A   1      37.760  31.333  28.515  1.00  0.00    -0.203 F 
ATOM     83  F   UNL A   1      34.715  32.670  32.815  1.00  0.00    -0.200 F 
ATOM     84  C   UNL A   1      35.085  32.712  30.489  1.00  0.00     0.200 A 
ATOM     85  F   UNL A   1      35.549  32.783  28.177  1.00  0.00    -0.200 F 
ATOM     86  F   UNL A   1      34.025  33.513  30.315  1.00  0.00    -0.200 F 
ENDBRANCH  52  76
BRANCH  64  87
ATOM     87  C   UNL A   1      42.658  29.591  33.966  1.00  0.00     0.064 A 
ATOM     88  C   UNL A   1      42.070  28.317  33.865  1.00  0.00     0.173 A 
ATOM     89  C   UNL A   1      43.108  29.996  35.229  1.00  0.00     0.173 A 
ATOM     90  F   UNL A   1      41.720  27.815  32.675  1.00  0.00    -0.203 F 
ATOM     91  C   UNL A   1      41.888  27.514  34.988  1.00  0.00     0.198 A 
ATOM     92  C   UNL A   1      42.959  29.174  36.343  1.00  0.00     0.198 A 
ATOM     93  F   UNL A   1      43.738  31.172  35.373  1.00  0.00    -0.203 F 
ATOM     94  F   UNL A   1      41.309  26.310  34.865  1.00  0.00    -0.200 F 
ATOM     95  C   UNL A   1      42.337  27.941  36.225  1.00  0.00     0.200 A 
ATOM     96  F   UNL A   1      43.442  29.567  37.530  1.00  0.00    -0.200 F 
ATOM     97  F   UNL A   1      42.198  27.151  37.300  1.00  0.00    -0.200 F 
ENDBRANCH  64  87
ENDBRANCH  38  39
ENDBRANCH  31  33
ENDBRANCH  30  31
ENDBRANCH  29  30
ENDBRANCH   1  29
TORSDOF 17
ENDMDL
MODEL 3
REMARK VINA RESULT:     -12.2      3.534      8.897
REMARK SMILES COc1cccc([C@@H]2CN(C(=O)CSc3nc(C)n[nH]3)C[C@H]2C(=O)OCCOC(=O)c2ccc(-c3c4nc(c(-c5c(F)c(F)c(F)c(F)c5F)c5ccc([nH]5)c(-c5c(F)c(F)c(F)c(F)c5F)c5nc(c(-c6c(F)c(F)c(F)c(F)c6F)c6ccc3[nH]6)C=C5)C=C4)cc2)c1
REMARK SMILES IDX 26 1 25 2 23 3 24 4 22 5 8 6 9 7 10 8 21 9 7 10 3 11 4 12
REMARK SMILES IDX 94 13 5 14 6 15 2 16 1 17 11 18 12 19 13 20 14 21 15 22
REMARK SMILES IDX 16 23 20 24 17 25 19 26 18 28 27 29 28 30 29 31 30 32 31 33
REMARK SMILES IDX 32 34 93 35 33 36 92 37 34 38 35 39 36 40 86 41 37 42 91 43
REMARK SMILES IDX 85 44 87 45 38 46 90 47 84 48 83 49 39 51 71 52 51 53 70 54
REMARK SMILES IDX 52 55 55 56 69 57 88 58 53 59 54 60 68 62 89 63 56 64 40 65
REMARK SMILES IDX 41 66 49 67 42 68 43 69 47 70 50 71 44 72 45 73 48 74 46 75
REMARK SMILES IDX 72 76 73 77 81 78 74 79 75 80 79 81 82 82 76 83 77 84 80 85
REMARK SMILES IDX 78 86 57 87 58 88 66 89 59 90 60 91 64 92 67 93 61 94 62 95
REMARK SMILES IDX 65 96 63 97
REMARK H PARENT 20 27 87 50 55 61
REMARK Flexibility Score: inf
ROOT
ATOM      1  C   UNL A   1      32.733  30.078  26.213  1.00  0.00     0.274 C 
ENDROOT
BRANCH   1   2
ATOM      2  O   UNL A   1      33.621  29.059  25.699  1.00  0.00    -0.462 OA
BRANCH   2   3
ATOM      3  C   UNL A   1      33.090  28.181  24.803  1.00  0.00     0.311 C 
ATOM      4  O   UNL A   1      33.606  27.882  23.731  1.00  0.00    -0.252 OA
BRANCH   3   5
ATOM      5  C   UNL A   1      31.723  27.672  25.204  1.00  0.00     0.128 C 
ATOM      6  C   UNL A   1      30.758  27.265  24.067  1.00  0.00     0.055 C 
ATOM      7  C   UNL A   1      30.049  26.024  24.619  1.00  0.00     0.128 C 
ATOM      8  N   UNL A   1      30.970  25.441  25.575  1.00  0.00    -0.340 N 
ATOM      9  C   UNL A   1      31.960  26.402  26.014  1.00  0.00     0.135 C 
BRANCH   6  10
ATOM     10  C   UNL A   1      29.708  28.276  23.621  1.00  0.00    -0.039 A 
ATOM     11  C   UNL A   1      28.983  30.540  23.050  1.00  0.00     0.119 A 
ATOM     12  C   UNL A   1      27.670  30.089  22.921  1.00  0.00     0.046 A 
ATOM     13  C   UNL A   1      29.996  29.641  23.412  1.00  0.00     0.050 A 
ATOM     14  C   UNL A   1      27.365  28.747  23.127  1.00  0.00     0.004 A 
ATOM     15  C   UNL A   1      28.375  27.852  23.481  1.00  0.00     0.004 A 
BRANCH  11  16
ATOM     16  O   UNL A   1      29.145  31.882  22.835  1.00  0.00    -0.497 OA
ATOM     17  C   UNL A   1      28.176  32.512  22.008  1.00  0.00     0.278 C 
ENDBRANCH  11  16
ENDBRANCH   6  10
BRANCH   8  18
ATOM     18  C   UNL A   1      30.968  24.160  26.082  1.00  0.00     0.233 C 
ATOM     19  O   UNL A   1      30.643  23.948  27.252  1.00  0.00    -0.274 OA
BRANCH  18  20
ATOM     20  C   UNL A   1      31.360  23.013  25.167  1.00  0.00     0.178 C 
BRANCH  20  21
ATOM     21  S   UNL A   1      32.991  22.339  25.591  1.00  0.00    -0.077 SA
BRANCH  21  22
ATOM     22  C   UNL A   1      32.843  20.723  25.026  1.00  0.00     0.184 A 
ATOM     23  N   UNL A   1      32.860  20.311  23.785  1.00  0.00    -0.206 NA
ATOM     24  N   UNL A   1      32.601  19.680  25.861  1.00  0.00    -0.254 N 
ATOM     25  C   UNL A   1      32.610  18.968  23.913  1.00  0.00     0.148 A 
ATOM     26  N   UNL A   1      32.435  18.538  25.171  1.00  0.00    -0.158 NA
ATOM     27  H   UNL A   1      32.554  19.750  26.842  1.00  0.00     0.192 HD
ATOM     28  C   UNL A   1      32.516  18.076  22.742  1.00  0.00     0.092 C 
ENDBRANCH  21  22
ENDBRANCH  20  21
ENDBRANCH  18  20
ENDBRANCH   8  18
ENDBRANCH   3   5
ENDBRANCH   2   3
ENDBRANCH   1   2
BRANCH   1  29
ATOM     29  C   UNL A   1      33.315  30.844  27.401  1.00  0.00     0.275 C 
BRANCH  29  30
ATOM     30  O   UNL A   1      34.598  30.343  27.786  1.00  0.00    -0.458 OA
BRANCH  30  31
ATOM     31  C   UNL A   1      35.458  31.326  28.128  1.00  0.00     0.338 C 
ATOM     32  O   UNL A   1      35.533  32.433  27.625  1.00  0.00    -0.246 OA
BRANCH  31  33
ATOM     33  C   UNL A   1      36.429  30.866  29.120  1.00  0.00     0.060 A 
ATOM     34  C   UNL A   1      37.537  31.688  29.345  1.00  0.00     0.016 A 
ATOM     35  C   UNL A   1      36.414  29.524  29.495  1.00  0.00     0.016 A 
ATOM     36  C   UNL A   1      38.725  31.118  29.742  1.00  0.00     0.010 A 
ATOM     37  C   UNL A   1      37.599  28.954  29.902  1.00  0.00     0.010 A 
ATOM     38  C   UNL A   1      38.760  29.737  29.922  1.00  0.00    -0.014 A 
BRANCH  38  39
ATOM     39  C   UNL A   1      40.054  29.101  30.074  1.00  0.00     0.031 A 
ATOM     40  C   UNL A   1      40.580  29.006  31.456  1.00  0.00     0.074 A 
ATOM     41  C   UNL A   1      40.618  28.465  29.027  1.00  0.00     0.049 A 
ATOM     42  N   UNL A   1      41.772  29.263  31.891  1.00  0.00    -0.248 NA
ATOM     43  C   UNL A   1      39.628  28.600  32.504  1.00  0.00     0.031 C 
ATOM     44  C   UNL A   1      40.032  28.246  27.699  1.00  0.00     0.029 A 
ATOM     45  N   UNL A   1      41.769  27.741  28.983  1.00  0.00    -0.354 N 
ATOM     46  C   UNL A   1      41.765  28.901  33.235  1.00  0.00     0.074 A 
ATOM     47  C   UNL A   1      40.401  28.602  33.586  1.00  0.00     0.031 C 
ATOM     48  C   UNL A   1      40.707  27.255  27.079  1.00  0.00     0.029 A 
ATOM     49  C   UNL A   1      41.826  26.857  27.918  1.00  0.00     0.049 A 
ATOM     50  H   UNL A   1      42.493  27.836  29.644  1.00  0.00     0.167 HD
ATOM     51  C   UNL A   1      42.907  28.659  33.928  1.00  0.00     0.037 A 
ATOM     52  C   UNL A   1      42.663  25.801  27.789  1.00  0.00     0.037 A 
ATOM     53  C   UNL A   1      44.056  29.286  33.340  1.00  0.00     0.049 A 
ATOM     54  C   UNL A   1      43.785  25.983  28.741  1.00  0.00     0.074 A 
ATOM     55  C   UNL A   1      44.402  30.592  33.054  1.00  0.00     0.029 A 
ATOM     56  N   UNL A   1      44.959  28.510  32.659  1.00  0.00    -0.354 N 
ATOM     57  N   UNL A   1      44.710  26.894  28.628  1.00  0.00    -0.248 NA
ATOM     58  C   UNL A   1      43.659  25.383  30.062  1.00  0.00     0.031 C 
ATOM     59  C   UNL A   1      45.172  30.522  31.856  1.00  0.00     0.029 A 
ATOM     60  C   UNL A   1      45.253  29.177  31.497  1.00  0.00     0.049 A 
ATOM     61  H   UNL A   1      45.326  27.644  32.947  1.00  0.00     0.167 HD
ATOM     62  C   UNL A   1      44.998  27.269  29.932  1.00  0.00     0.074 A 
ATOM     63  C   UNL A   1      44.411  26.230  30.769  1.00  0.00     0.031 C 
ATOM     64  C   UNL A   1      45.437  28.528  30.222  1.00  0.00     0.037 A 
BRANCH  51  65
ATOM     65  C   UNL A   1      43.001  27.585  34.973  1.00  0.00     0.064 A 
ATOM     66  C   UNL A   1      43.403  27.904  36.280  1.00  0.00     0.173 A 
ATOM     67  C   UNL A   1      42.965  26.208  34.655  1.00  0.00     0.173 A 
ATOM     68  F   UNL A   1      43.519  29.184  36.664  1.00  0.00    -0.203 F 
ATOM     69  C   UNL A   1      43.770  26.913  37.195  1.00  0.00     0.198 A 
ATOM     70  C   UNL A   1      43.276  25.222  35.585  1.00  0.00     0.198 A 
ATOM     71  F   UNL A   1      42.730  25.780  33.407  1.00  0.00    -0.203 F 
ATOM     72  F   UNL A   1      44.249  27.263  38.396  1.00  0.00    -0.200 F 
ATOM     73  C   UNL A   1      43.703  25.575  36.849  1.00  0.00     0.200 A 
ATOM     74  F   UNL A   1      43.229  23.932  35.222  1.00  0.00    -0.200 F 
ATOM     75  F   UNL A   1      44.098  24.628  37.709  1.00  0.00    -0.200 F 
ENDBRANCH  51  65
BRANCH  52  76
ATOM     76  C   UNL A   1      42.386  24.519  27.106  1.00  0.00     0.064 A 
ATOM     77  C   UNL A   1      43.321  23.938  26.239  1.00  0.00     0.173 A 
ATOM     78  C   UNL A   1      41.282  23.720  27.467  1.00  0.00     0.173 A 
ATOM     79  F   UNL A   1      44.428  24.610  25.894  1.00  0.00    -0.203 F 
ATOM     80  C   UNL A   1      43.157  22.635  25.755  1.00  0.00     0.198 A 
ATOM     81  C   UNL A   1      41.111  22.428  26.972  1.00  0.00     0.198 A 
ATOM     82  F   UNL A   1      40.388  24.145  28.373  1.00  0.00    -0.203 F 
ATOM     83  F   UNL A   1      44.095  22.093  24.966  1.00  0.00    -0.200 F 
ATOM     84  C   UNL A   1      42.054  21.882  26.124  1.00  0.00     0.200 A 
ATOM     85  F   UNL A   1      40.056  21.700  27.365  1.00  0.00    -0.200 F 
ATOM     86  F   UNL A   1      41.918  20.620  25.693  1.00  0.00    -0.200 F 
ENDBRANCH  52  76
BRANCH  64  87
ATOM     87  C   UNL A   1      45.862  29.395  29.073  1.00  0.00     0.064 A 
ATOM     88  C   UNL A   1      44.965  30.176  28.323  1.00  0.00     0.173 A 
ATOM     89  C   UNL A   1      47.229  29.548  28.808  1.00  0.00     0.173 A 
ATOM     90  F   UNL A   1      43.655  30.170  28.596  1.00  0.00    -0.203 F 
ATOM     91  C   UNL A   1      45.414  31.026  27.314  1.00  0.00     0.198 A 
ATOM     92  C   UNL A   1      47.677  30.427  27.825  1.00  0.00     0.198 A 
ATOM     93  F   UNL A   1      48.134  28.879  29.538  1.00  0.00    -0.203 F 
ATOM     94  F   UNL A   1      44.535  31.748  26.603  1.00  0.00    -0.200 F 
ATOM     95  C   UNL A   1      46.771  31.154  27.070  1.00  0.00     0.200 A 
ATOM     96  F   UNL A   1      48.992  30.588  27.625  1.00  0.00    -0.200 F 
ATOM     97  F   UNL A   1      47.206  32.000  26.126  1.00  0.00    -0.200 F 
ENDBRANCH  64  87
ENDBRANCH  38  39
ENDBRANCH  31  33
ENDBRANCH  30  31
ENDBRANCH  29  30
ENDBRANCH   1  29
TORSDOF 17
ENDMDL
