MODEL 1
REMARK VINA RESULT:     -13.4      0.000      0.000
REMARK SMILES COc1ccc(-c2cc(F)cc(C(=O)OCCOC(=O)c3ccc(-c4c5nc(c(-c6c(F)c(F)c(F)c(F)c6F)c6ccc([nH]6)c(-c6c(F)c(F)c(F)c(F)c6F)c6nc(c(-c7c(F)c(F)c(F)c(F)c7F)c7ccc4[nH]7)C=C6)C=C5)cc3)c2)cc1C
REMARK SMILES IDX 16 1 15 2 13 3 14 4 12 5 7 6 8 7 84 8 9 9 10 10 11 11 6 12
REMARK SMILES IDX 3 13 4 14 86 15 5 16 85 17 87 18 2 19 1 20 17 21 18 22 19 23
REMARK SMILES IDX 20 24 21 25 22 26 83 27 23 28 82 29 24 30 25 31 26 32 76 33
REMARK SMILES IDX 27 34 81 35 75 36 77 37 28 38 80 39 74 40 73 41 29 43 61 44
REMARK SMILES IDX 41 45 60 46 42 47 45 48 59 49 78 50 43 51 44 52 58 54 79 55
REMARK SMILES IDX 46 56 30 57 31 58 39 59 32 60 33 61 37 62 40 63 34 64 35 65
REMARK SMILES IDX 38 66 36 67 62 68 63 69 71 70 64 71 65 72 69 73 72 74 66 75
REMARK SMILES IDX 67 76 70 77 68 78 47 79 48 80 56 81 49 82 50 83 54 84 57 85
REMARK SMILES IDX 51 86 52 87 55 88 53 89
REMARK H PARENT 77 42 45 53
REMARK Flexibility Score: inf
ROOT
ATOM      1  C   UNL A   1      33.459  29.776  26.702  1.00  0.00     0.275 C 
ENDROOT
BRANCH   1   2
ATOM      2  O   UNL A   1      33.245  28.520  27.361  1.00  0.00    -0.458 OA
BRANCH   2   3
ATOM      3  C   UNL A   1      32.062  27.889  27.216  1.00  0.00     0.338 C 
ATOM      4  O   UNL A   1      31.050  28.073  27.861  1.00  0.00    -0.246 OA
BRANCH   3   5
ATOM      5  C   UNL A   1      32.209  26.890  26.137  1.00  0.00     0.063 A 
ATOM      6  C   UNL A   1      33.369  24.944  25.194  1.00  0.00    -0.015 A 
ATOM      7  C   UNL A   1      32.459  25.002  24.121  1.00  0.00     0.048 A 
ATOM      8  C   UNL A   1      33.182  25.879  26.233  1.00  0.00     0.024 A 
ATOM      9  C   UNL A   1      31.484  25.995  24.047  1.00  0.00     0.124 A 
ATOM     10  F   UNL A   1      30.647  26.015  23.002  1.00  0.00    -0.207 F 
ATOM     11  C   UNL A   1      31.366  26.961  25.030  1.00  0.00     0.055 A 
BRANCH   6  12
ATOM     12  C   UNL A   1      34.469  23.941  25.200  1.00  0.00    -0.018 A 
ATOM     13  C   UNL A   1      36.511  21.946  25.338  1.00  0.00     0.121 A 
ATOM     14  C   UNL A   1      36.791  23.299  25.564  1.00  0.00     0.047 A 
ATOM     15  C   UNL A   1      35.204  21.569  25.015  1.00  0.00    -0.008 A 
ATOM     16  C   UNL A   1      35.794  24.282  25.493  1.00  0.00     0.012 A 
ATOM     17  C   UNL A   1      34.215  22.578  24.930  1.00  0.00     0.016 A 
ATOM     18  C   UNL A   1      34.763  20.148  24.806  1.00  0.00     0.048 C 
BRANCH  13  19
ATOM     19  O   UNL A   1      37.576  21.123  25.587  1.00  0.00    -0.496 OA
ATOM     20  C   UNL A   1      38.847  21.724  25.781  1.00  0.00     0.278 C 
ENDBRANCH  13  19
ENDBRANCH   6  12
ENDBRANCH   3   5
ENDBRANCH   2   3
ENDBRANCH   1   2
BRANCH   1  21
ATOM     21  C   UNL A   1      34.125  30.965  27.436  1.00  0.00     0.275 C 
BRANCH  21  22
ATOM     22  O   UNL A   1      35.518  31.053  27.864  1.00  0.00    -0.458 OA
BRANCH  22  23
ATOM     23  C   UNL A   1      36.051  31.009  29.101  1.00  0.00     0.338 C 
ATOM     24  O   UNL A   1      35.662  31.691  30.039  1.00  0.00    -0.246 OA
BRANCH  23  25
ATOM     25  C   UNL A   1      37.227  30.153  29.235  1.00  0.00     0.060 A 
ATOM     26  C   UNL A   1      37.202  29.068  30.125  1.00  0.00     0.016 A 
ATOM     27  C   UNL A   1      38.300  30.384  28.383  1.00  0.00     0.016 A 
ATOM     28  C   UNL A   1      38.206  28.116  30.066  1.00  0.00     0.010 A 
ATOM     29  C   UNL A   1      39.219  29.387  28.226  1.00  0.00     0.010 A 
ATOM     30  C   UNL A   1      39.196  28.288  29.101  1.00  0.00    -0.014 A 
BRANCH  30  31
ATOM     31  C   UNL A   1      40.490  27.649  29.180  1.00  0.00     0.031 A 
ATOM     32  C   UNL A   1      40.759  26.331  28.604  1.00  0.00     0.074 A 
ATOM     33  C   UNL A   1      41.418  28.536  29.605  1.00  0.00     0.049 A 
ATOM     34  N   UNL A   1      41.736  25.589  28.985  1.00  0.00    -0.248 NA
ATOM     35  C   UNL A   1      39.944  25.713  27.559  1.00  0.00     0.031 C 
ATOM     36  C   UNL A   1      42.860  28.546  29.478  1.00  0.00     0.029 A 
ATOM     37  N   UNL A   1      41.134  29.695  30.352  1.00  0.00    -0.354 N 
ATOM     38  C   UNL A   1      41.891  24.603  28.037  1.00  0.00     0.074 A 
ATOM     39  C   UNL A   1      40.679  24.633  27.251  1.00  0.00     0.031 C 
ATOM     40  C   UNL A   1      43.353  29.449  30.351  1.00  0.00     0.029 A 
ATOM     41  C   UNL A   1      42.240  29.935  31.165  1.00  0.00     0.049 A 
ATOM     42  H   UNL A   1      40.311  30.233  30.309  1.00  0.00     0.167 HD
ATOM     43  C   UNL A   1      43.117  24.021  27.897  1.00  0.00     0.037 A 
ATOM     44  C   UNL A   1      42.078  29.745  32.508  1.00  0.00     0.037 A 
ATOM     45  C   UNL A   1      44.066  24.646  28.814  1.00  0.00     0.049 A 
ATOM     46  C   UNL A   1      42.876  28.551  32.968  1.00  0.00     0.074 A 
ATOM     47  C   UNL A   1      44.930  25.714  28.629  1.00  0.00     0.029 A 
ATOM     48  N   UNL A   1      43.906  24.499  30.188  1.00  0.00    -0.354 N 
ATOM     49  N   UNL A   1      43.156  27.527  32.207  1.00  0.00    -0.248 NA
ATOM     50  C   UNL A   1      43.461  28.448  34.298  1.00  0.00     0.031 C 
ATOM     51  C   UNL A   1      45.230  26.259  29.900  1.00  0.00     0.029 A 
ATOM     52  C   UNL A   1      44.557  25.520  30.857  1.00  0.00     0.049 A 
ATOM     53  H   UNL A   1      43.401  23.774  30.621  1.00  0.00     0.167 HD
ATOM     54  C   UNL A   1      44.002  26.691  32.879  1.00  0.00     0.074 A 
ATOM     55  C   UNL A   1      44.141  27.294  34.193  1.00  0.00     0.031 C 
ATOM     56  C   UNL A   1      44.555  25.582  32.306  1.00  0.00     0.037 A 
BRANCH  43  57
ATOM     57  C   UNL A   1      43.534  23.162  26.730  1.00  0.00     0.064 A 
ATOM     58  C   UNL A   1      43.179  21.795  26.672  1.00  0.00     0.173 A 
ATOM     59  C   UNL A   1      44.276  23.633  25.632  1.00  0.00     0.173 A 
ATOM     60  F   UNL A   1      42.439  21.219  27.627  1.00  0.00    -0.203 F 
ATOM     61  C   UNL A   1      43.580  20.955  25.632  1.00  0.00     0.198 A 
ATOM     62  C   UNL A   1      44.701  22.782  24.601  1.00  0.00     0.198 A 
ATOM     63  F   UNL A   1      44.584  24.933  25.516  1.00  0.00    -0.203 F 
ATOM     64  F   UNL A   1      43.214  19.664  25.642  1.00  0.00    -0.200 F 
ATOM     65  C   UNL A   1      44.355  21.443  24.603  1.00  0.00     0.200 A 
ATOM     66  F   UNL A   1      45.449  23.269  23.601  1.00  0.00    -0.200 F 
ATOM     67  F   UNL A   1      44.755  20.632  23.615  1.00  0.00    -0.200 F 
ENDBRANCH  43  57
BRANCH  44  68
ATOM     68  C   UNL A   1      40.716  30.132  33.012  1.00  0.00     0.064 A 
ATOM     69  C   UNL A   1      40.385  31.506  33.077  1.00  0.00     0.173 A 
ATOM     70  C   UNL A   1      39.655  29.226  33.141  1.00  0.00     0.173 A 
ATOM     71  F   UNL A   1      41.350  32.433  32.960  1.00  0.00    -0.203 F 
ATOM     72  C   UNL A   1      39.063  31.947  33.161  1.00  0.00     0.198 A 
ATOM     73  C   UNL A   1      38.330  29.672  33.247  1.00  0.00     0.198 A 
ATOM     74  F   UNL A   1      39.878  27.905  33.089  1.00  0.00    -0.203 F 
ATOM     75  F   UNL A   1      38.791  33.259  33.112  1.00  0.00    -0.200 F 
ATOM     76  C   UNL A   1      38.033  31.028  33.230  1.00  0.00     0.200 A 
ATOM     77  F   UNL A   1      37.328  28.782  33.291  1.00  0.00    -0.200 F 
ATOM     78  F   UNL A   1      36.758  31.442  33.245  1.00  0.00    -0.200 F 
ENDBRANCH  44  68
BRANCH  56  79
ATOM     79  C   UNL A   1      45.253  24.487  33.057  1.00  0.00     0.064 A 
ATOM     80  C   UNL A   1      46.541  24.632  33.591  1.00  0.00     0.173 A 
ATOM     81  C   UNL A   1      44.555  23.313  33.424  1.00  0.00     0.173 A 
ATOM     82  F   UNL A   1      47.250  25.755  33.404  1.00  0.00    -0.203 F 
ATOM     83  C   UNL A   1      47.114  23.646  34.390  1.00  0.00     0.198 A 
ATOM     84  C   UNL A   1      45.103  22.364  34.280  1.00  0.00     0.198 A 
ATOM     85  F   UNL A   1      43.307  23.070  32.995  1.00  0.00    -0.203 F 
ATOM     86  F   UNL A   1      48.365  23.807  34.843  1.00  0.00    -0.200 F 
ATOM     87  C   UNL A   1      46.391  22.522  34.747  1.00  0.00     0.200 A 
ATOM     88  F   UNL A   1      44.368  21.313  34.667  1.00  0.00    -0.200 F 
ATOM     89  F   UNL A   1      46.927  21.605  35.562  1.00  0.00    -0.200 F 
ENDBRANCH  56  79
ENDBRANCH  30  31
ENDBRANCH  23  25
ENDBRANCH  22  23
ENDBRANCH  21  22
ENDBRANCH   1  21
TORSDOF 13
ENDMDL
MODEL 2
REMARK VINA RESULT:     -13.4      3.694     10.265
REMARK SMILES COc1ccc(-c2cc(F)cc(C(=O)OCCOC(=O)c3ccc(-c4c5nc(c(-c6c(F)c(F)c(F)c(F)c6F)c6ccc([nH]6)c(-c6c(F)c(F)c(F)c(F)c6F)c6nc(c(-c7c(F)c(F)c(F)c(F)c7F)c7ccc4[nH]7)C=C6)C=C5)cc3)c2)cc1C
REMARK SMILES IDX 16 1 15 2 13 3 14 4 12 5 7 6 8 7 84 8 9 9 10 10 11 11 6 12
REMARK SMILES IDX 3 13 4 14 86 15 5 16 85 17 87 18 2 19 1 20 17 21 18 22 19 23
REMARK SMILES IDX 20 24 21 25 22 26 83 27 23 28 82 29 24 30 25 31 26 32 76 33
REMARK SMILES IDX 27 34 81 35 75 36 77 37 28 38 80 39 74 40 73 41 29 43 61 44
REMARK SMILES IDX 41 45 60 46 42 47 45 48 59 49 78 50 43 51 44 52 58 54 79 55
REMARK SMILES IDX 46 56 30 57 31 58 39 59 32 60 33 61 37 62 40 63 34 64 35 65
REMARK SMILES IDX 38 66 36 67 62 68 63 69 71 70 64 71 65 72 69 73 72 74 66 75
REMARK SMILES IDX 67 76 70 77 68 78 47 79 48 80 56 81 49 82 50 83 54 84 57 85
REMARK SMILES IDX 51 86 52 87 55 88 53 89
REMARK H PARENT 77 42 45 53
REMARK Flexibility Score: inf
ROOT
ATOM      1  C   UNL A   1      36.984  21.930  25.724  1.00  0.00     0.275 C 
ENDROOT
BRANCH   1   2
ATOM      2  O   UNL A   1      36.535  21.597  24.403  1.00  0.00    -0.458 OA
BRANCH   2   3
ATOM      3  C   UNL A   1      36.172  22.584  23.559  1.00  0.00     0.338 C 
ATOM      4  O   UNL A   1      36.804  23.010  22.613  1.00  0.00    -0.246 OA
BRANCH   3   5
ATOM      5  C   UNL A   1      34.858  23.098  23.999  1.00  0.00     0.063 A 
ATOM      6  C   UNL A   1      33.455  24.971  24.739  1.00  0.00    -0.015 A 
ATOM      7  C   UNL A   1      32.383  24.060  24.798  1.00  0.00     0.048 A 
ATOM      8  C   UNL A   1      34.687  24.467  24.275  1.00  0.00     0.024 A 
ATOM      9  C   UNL A   1      32.558  22.710  24.502  1.00  0.00     0.124 A 
ATOM     10  F   UNL A   1      31.510  21.880  24.581  1.00  0.00    -0.207 F 
ATOM     11  C   UNL A   1      33.794  22.209  24.130  1.00  0.00     0.055 A 
BRANCH   6  12
ATOM     12  C   UNL A   1      33.270  26.385  25.163  1.00  0.00    -0.018 A 
ATOM     13  C   UNL A   1      32.757  29.084  25.952  1.00  0.00     0.121 A 
ATOM     14  C   UNL A   1      33.511  28.784  24.810  1.00  0.00     0.047 A 
ATOM     15  C   UNL A   1      32.265  28.035  26.734  1.00  0.00    -0.008 A 
ATOM     16  C   UNL A   1      33.769  27.462  24.422  1.00  0.00     0.012 A 
ATOM     17  C   UNL A   1      32.553  26.708  26.336  1.00  0.00     0.016 A 
ATOM     18  C   UNL A   1      31.399  28.223  27.947  1.00  0.00     0.048 C 
BRANCH  13  19
ATOM     19  O   UNL A   1      32.495  30.420  26.092  1.00  0.00    -0.496 OA
ATOM     20  C   UNL A   1      33.169  31.124  27.124  1.00  0.00     0.278 C 
ENDBRANCH  13  19
ENDBRANCH   6  12
ENDBRANCH   3   5
ENDBRANCH   2   3
ENDBRANCH   1   2
BRANCH   1  21
ATOM     21  C   UNL A   1      38.455  22.328  25.997  1.00  0.00     0.275 C 
BRANCH  21  22
ATOM     22  O   UNL A   1      38.916  23.441  26.822  1.00  0.00    -0.458 OA
BRANCH  22  23
ATOM     23  C   UNL A   1      40.127  24.029  26.889  1.00  0.00     0.338 C 
ATOM     24  O   UNL A   1      41.181  23.452  26.661  1.00  0.00    -0.246 OA
BRANCH  23  25
ATOM     25  C   UNL A   1      40.116  25.408  27.368  1.00  0.00     0.060 A 
ATOM     26  C   UNL A   1      40.466  26.451  26.497  1.00  0.00     0.016 A 
ATOM     27  C   UNL A   1      39.647  25.646  28.654  1.00  0.00     0.016 A 
ATOM     28  C   UNL A   1      40.212  27.762  26.868  1.00  0.00     0.010 A 
ATOM     29  C   UNL A   1      39.271  26.919  28.973  1.00  0.00     0.010 A 
ATOM     30  C   UNL A   1      39.602  27.971  28.103  1.00  0.00    -0.014 A 
BRANCH  30  31
ATOM     31  C   UNL A   1      39.653  29.237  28.800  1.00  0.00     0.031 A 
ATOM     32  C   UNL A   1      38.566  30.215  28.745  1.00  0.00     0.074 A 
ATOM     33  C   UNL A   1      40.684  29.241  29.674  1.00  0.00     0.049 A 
ATOM     34  N   UNL A   1      38.735  31.461  29.008  1.00  0.00    -0.248 NA
ATOM     35  C   UNL A   1      37.191  29.890  28.369  1.00  0.00     0.031 C 
ATOM     36  C   UNL A   1      40.935  30.044  30.852  1.00  0.00     0.029 A 
ATOM     37  N   UNL A   1      41.826  28.425  29.569  1.00  0.00    -0.354 N 
ATOM     38  C   UNL A   1      37.485  32.011  29.182  1.00  0.00     0.074 A 
ATOM     39  C   UNL A   1      36.560  31.043  28.641  1.00  0.00     0.031 C 
ATOM     40  C   UNL A   1      42.238  29.915  31.180  1.00  0.00     0.029 A 
ATOM     41  C   UNL A   1      42.886  29.136  30.127  1.00  0.00     0.049 A 
ATOM     42  H   UNL A   1      41.868  27.523  29.176  1.00  0.00     0.167 HD
ATOM     43  C   UNL A   1      37.368  33.129  29.957  1.00  0.00     0.037 A 
ATOM     44  C   UNL A   1      43.854  29.583  29.271  1.00  0.00     0.037 A 
ATOM     45  C   UNL A   1      38.674  33.490  30.501  1.00  0.00     0.049 A 
ATOM     46  C   UNL A   1      43.811  31.088  29.172  1.00  0.00     0.074 A 
ATOM     47  C   UNL A   1      39.282  33.140  31.696  1.00  0.00     0.029 A 
ATOM     48  N   UNL A   1      39.689  33.914  29.650  1.00  0.00    -0.354 N 
ATOM     49  N   UNL A   1      42.726  31.796  29.336  1.00  0.00    -0.248 NA
ATOM     50  C   UNL A   1      44.993  31.904  28.935  1.00  0.00     0.031 C 
ATOM     51  C   UNL A   1      40.680  33.284  31.535  1.00  0.00     0.029 A 
ATOM     52  C   UNL A   1      40.923  33.728  30.247  1.00  0.00     0.049 A 
ATOM     53  H   UNL A   1      39.549  34.292  28.751  1.00  0.00     0.167 HD
ATOM     54  C   UNL A   1      43.053  33.122  29.318  1.00  0.00     0.074 A 
ATOM     55  C   UNL A   1      44.478  33.141  29.036  1.00  0.00     0.031 C 
ATOM     56  C   UNL A   1      42.146  34.111  29.567  1.00  0.00     0.037 A 
BRANCH  43  57
ATOM     57  C   UNL A   1      36.067  33.673  30.492  1.00  0.00     0.064 A 
ATOM     58  C   UNL A   1      35.147  34.323  29.638  1.00  0.00     0.173 A 
ATOM     59  C   UNL A   1      35.667  33.575  31.836  1.00  0.00     0.173 A 
ATOM     60  F   UNL A   1      35.376  34.453  28.325  1.00  0.00    -0.203 F 
ATOM     61  C   UNL A   1      33.952  34.878  30.099  1.00  0.00     0.198 A 
ATOM     62  C   UNL A   1      34.479  34.157  32.304  1.00  0.00     0.198 A 
ATOM     63  F   UNL A   1      36.402  32.891  32.724  1.00  0.00    -0.203 F 
ATOM     64  F   UNL A   1      33.126  35.488  29.235  1.00  0.00    -0.200 F 
ATOM     65  C   UNL A   1      33.624  34.811  31.435  1.00  0.00     0.200 A 
ATOM     66  F   UNL A   1      34.166  34.079  33.604  1.00  0.00    -0.200 F 
ATOM     67  F   UNL A   1      32.486  35.360  31.880  1.00  0.00    -0.200 F 
ENDBRANCH  43  57
BRANCH  44  68
ATOM     68  C   UNL A   1      44.136  28.641  28.134  1.00  0.00     0.064 A 
ATOM     69  C   UNL A   1      44.723  27.387  28.427  1.00  0.00     0.173 A 
ATOM     70  C   UNL A   1      43.593  28.794  26.852  1.00  0.00     0.173 A 
ATOM     71  F   UNL A   1      45.262  27.167  29.638  1.00  0.00    -0.203 F 
ATOM     72  C   UNL A   1      44.676  26.319  27.529  1.00  0.00     0.198 A 
ATOM     73  C   UNL A   1      43.567  27.726  25.944  1.00  0.00     0.198 A 
ATOM     74  F   UNL A   1      43.016  29.948  26.491  1.00  0.00    -0.203 F 
ATOM     75  F   UNL A   1      45.150  25.119  27.892  1.00  0.00    -0.200 F 
ATOM     76  C   UNL A   1      44.083  26.485  26.292  1.00  0.00     0.200 A 
ATOM     77  F   UNL A   1      42.972  27.878  24.752  1.00  0.00    -0.200 F 
ATOM     78  F   UNL A   1      43.975  25.447  25.449  1.00  0.00    -0.200 F 
ENDBRANCH  44  68
BRANCH  56  79
ATOM     79  C   UNL A   1      42.369  35.569  29.291  1.00  0.00     0.064 A 
ATOM     80  C   UNL A   1      43.184  36.378  30.093  1.00  0.00     0.173 A 
ATOM     81  C   UNL A   1      41.909  36.147  28.084  1.00  0.00     0.173 A 
ATOM     82  F   UNL A   1      43.769  35.899  31.200  1.00  0.00    -0.203 F 
ATOM     83  C   UNL A   1      43.474  37.696  29.742  1.00  0.00     0.198 A 
ATOM     84  C   UNL A   1      42.259  37.437  27.704  1.00  0.00     0.198 A 
ATOM     85  F   UNL A   1      41.140  35.465  27.223  1.00  0.00    -0.203 F 
ATOM     86  F   UNL A   1      44.222  38.447  30.561  1.00  0.00    -0.200 F 
ATOM     87  C   UNL A   1      43.027  38.218  28.543  1.00  0.00     0.200 A 
ATOM     88  F   UNL A   1      41.871  37.908  26.511  1.00  0.00    -0.200 F 
ATOM     89  F   UNL A   1      43.356  39.465  28.185  1.00  0.00    -0.200 F 
ENDBRANCH  56  79
ENDBRANCH  30  31
ENDBRANCH  23  25
ENDBRANCH  22  23
ENDBRANCH  21  22
ENDBRANCH   1  21
TORSDOF 13
ENDMDL
MODEL 3
REMARK VINA RESULT:     -13.3      0.937      1.545
REMARK SMILES COc1ccc(-c2cc(F)cc(C(=O)OCCOC(=O)c3ccc(-c4c5nc(c(-c6c(F)c(F)c(F)c(F)c6F)c6ccc([nH]6)c(-c6c(F)c(F)c(F)c(F)c6F)c6nc(c(-c7c(F)c(F)c(F)c(F)c7F)c7ccc4[nH]7)C=C6)C=C5)cc3)c2)cc1C
REMARK SMILES IDX 16 1 15 2 13 3 14 4 12 5 7 6 8 7 84 8 9 9 10 10 11 11 6 12
REMARK SMILES IDX 3 13 4 14 86 15 5 16 85 17 87 18 2 19 1 20 17 21 18 22 19 23
REMARK SMILES IDX 20 24 21 25 22 26 83 27 23 28 82 29 24 30 25 31 26 32 76 33
REMARK SMILES IDX 27 34 81 35 75 36 77 37 28 38 80 39 74 40 73 41 29 43 61 44
REMARK SMILES IDX 41 45 60 46 42 47 45 48 59 49 78 50 43 51 44 52 58 54 79 55
REMARK SMILES IDX 46 56 30 57 31 58 39 59 32 60 33 61 37 62 40 63 34 64 35 65
REMARK SMILES IDX 38 66 36 67 62 68 63 69 71 70 64 71 65 72 69 73 72 74 66 75
REMARK SMILES IDX 67 76 70 77 68 78 47 79 48 80 56 81 49 82 50 83 54 84 57 85
REMARK SMILES IDX 51 86 52 87 55 88 53 89
REMARK H PARENT 77 42 45 53
REMARK Flexibility Score: inf
ROOT
ATOM      1  C   UNL A   1      32.556  30.268  27.233  1.00  0.00     0.275 C 
ENDROOT
BRANCH   1   2
ATOM      2  O   UNL A   1      32.504  28.847  27.042  1.00  0.00    -0.458 OA
BRANCH   2   3
ATOM      3  C   UNL A   1      32.784  28.331  25.827  1.00  0.00     0.338 C 
ATOM      4  O   UNL A   1      33.126  28.940  24.834  1.00  0.00    -0.246 OA
BRANCH   3   5
ATOM      5  C   UNL A   1      32.575  26.869  25.895  1.00  0.00     0.063 A 
ATOM      6  C   UNL A   1      33.477  24.591  25.757  1.00  0.00    -0.015 A 
ATOM      7  C   UNL A   1      32.180  24.129  26.051  1.00  0.00     0.048 A 
ATOM      8  C   UNL A   1      33.661  25.989  25.742  1.00  0.00     0.024 A 
ATOM      9  C   UNL A   1      31.114  25.011  26.223  1.00  0.00     0.124 A 
ATOM     10  F   UNL A   1      29.897  24.524  26.492  1.00  0.00    -0.207 F 
ATOM     11  C   UNL A   1      31.290  26.380  26.119  1.00  0.00     0.055 A 
BRANCH   6  12
ATOM     12  C   UNL A   1      34.576  23.630  25.472  1.00  0.00    -0.018 A 
ATOM     13  C   UNL A   1      36.650  21.707  25.061  1.00  0.00     0.121 A 
ATOM     14  C   UNL A   1      36.937  23.062  25.269  1.00  0.00     0.047 A 
ATOM     15  C   UNL A   1      35.315  21.292  25.032  1.00  0.00    -0.008 A 
ATOM     16  C   UNL A   1      35.923  24.009  25.467  1.00  0.00     0.012 A 
ATOM     17  C   UNL A   1      34.306  22.268  25.214  1.00  0.00     0.016 A 
ATOM     18  C   UNL A   1      34.879  19.864  24.874  1.00  0.00     0.048 C 
BRANCH  13  19
ATOM     19  O   UNL A   1      37.767  20.915  25.027  1.00  0.00    -0.496 OA
ATOM     20  C   UNL A   1      38.922  21.369  25.716  1.00  0.00     0.278 C 
ENDBRANCH  13  19
ENDBRANCH   6  12
ENDBRANCH   3   5
ENDBRANCH   2   3
ENDBRANCH   1   2
BRANCH   1  21
ATOM     21  C   UNL A   1      33.906  31.008  27.391  1.00  0.00     0.275 C 
BRANCH  21  22
ATOM     22  O   UNL A   1      35.178  30.418  27.799  1.00  0.00    -0.458 OA
BRANCH  22  23
ATOM     23  C   UNL A   1      36.279  31.000  28.315  1.00  0.00     0.338 C 
ATOM     24  O   UNL A   1      36.406  32.206  28.470  1.00  0.00    -0.246 OA
BRANCH  23  25
ATOM     25  C   UNL A   1      37.388  30.089  28.585  1.00  0.00     0.060 A 
ATOM     26  C   UNL A   1      37.338  29.243  29.704  1.00  0.00     0.016 A 
ATOM     27  C   UNL A   1      38.413  30.016  27.651  1.00  0.00     0.016 A 
ATOM     28  C   UNL A   1      38.254  28.211  29.819  1.00  0.00     0.010 A 
ATOM     29  C   UNL A   1      39.234  28.926  27.685  1.00  0.00     0.010 A 
ATOM     30  C   UNL A   1      39.184  28.063  28.792  1.00  0.00    -0.014 A 
BRANCH  30  31
ATOM     31  C   UNL A   1      40.424  27.338  28.953  1.00  0.00     0.031 A 
ATOM     32  C   UNL A   1      40.577  25.934  28.570  1.00  0.00     0.074 A 
ATOM     33  C   UNL A   1      41.428  28.197  29.240  1.00  0.00     0.049 A 
ATOM     34  N   UNL A   1      41.498  25.176  29.046  1.00  0.00    -0.248 NA
ATOM     35  C   UNL A   1      39.696  25.242  27.629  1.00  0.00     0.031 C 
ATOM     36  C   UNL A   1      42.863  28.072  29.103  1.00  0.00     0.029 A 
ATOM     37  N   UNL A   1      41.251  29.470  29.816  1.00  0.00    -0.354 N 
ATOM     38  C   UNL A   1      41.555  24.057  28.247  1.00  0.00     0.074 A 
ATOM     39  C   UNL A   1      40.336  24.073  27.474  1.00  0.00     0.031 C 
ATOM     40  C   UNL A   1      43.442  29.046  29.835  1.00  0.00     0.029 A 
ATOM     41  C   UNL A   1      42.388  29.732  30.578  1.00  0.00     0.049 A 
ATOM     42  H   UNL A   1      40.472  30.062  29.702  1.00  0.00     0.167 HD
ATOM     43  C   UNL A   1      42.728  23.362  28.184  1.00  0.00     0.037 A 
ATOM     44  C   UNL A   1      42.235  29.748  31.936  1.00  0.00     0.037 A 
ATOM     45  C   UNL A   1      43.741  24.031  28.996  1.00  0.00     0.049 A 
ATOM     46  C   UNL A   1      42.944  28.570  32.556  1.00  0.00     0.074 A 
ATOM     47  C   UNL A   1      44.684  24.987  28.654  1.00  0.00     0.029 A 
ATOM     48  N   UNL A   1      43.595  24.095  30.377  1.00  0.00    -0.354 N 
ATOM     49  N   UNL A   1      43.127  27.429  31.948  1.00  0.00    -0.248 NA
ATOM     50  C   UNL A   1      43.543  28.610  33.883  1.00  0.00     0.031 C 
ATOM     51  C   UNL A   1      45.051  25.681  29.832  1.00  0.00     0.029 A 
ATOM     52  C   UNL A   1      44.338  25.143  30.889  1.00  0.00     0.049 A 
ATOM     53  H   UNL A   1      43.042  23.481  30.914  1.00  0.00     0.167 HD
ATOM     54  C   UNL A   1      43.915  26.631  32.727  1.00  0.00     0.074 A 
ATOM     55  C   UNL A   1      44.126  27.401  33.940  1.00  0.00     0.031 C 
ATOM     56  C   UNL A   1      44.368  25.410  32.315  1.00  0.00     0.037 A 
BRANCH  43  57
ATOM     57  C   UNL A   1      43.054  22.315  27.148  1.00  0.00     0.064 A 
ATOM     58  C   UNL A   1      42.368  21.079  27.127  1.00  0.00     0.173 A 
ATOM     59  C   UNL A   1      44.025  22.476  26.145  1.00  0.00     0.173 A 
ATOM     60  F   UNL A   1      41.390  20.802  27.997  1.00  0.00    -0.203 F 
ATOM     61  C   UNL A   1      42.667  20.066  26.213  1.00  0.00     0.198 A 
ATOM     62  C   UNL A   1      44.343  21.449  25.244  1.00  0.00     0.198 A 
ATOM     63  F   UNL A   1      44.670  23.641  25.992  1.00  0.00    -0.203 F 
ATOM     64  F   UNL A   1      41.982  18.913  26.253  1.00  0.00    -0.200 F 
ATOM     65  C   UNL A   1      43.666  20.243  25.281  1.00  0.00     0.200 A 
ATOM     66  F   UNL A   1      45.312  21.633  24.337  1.00  0.00    -0.200 F 
ATOM     67  F   UNL A   1      43.965  19.264  24.417  1.00  0.00    -0.200 F 
ENDBRANCH  43  57
BRANCH  44  68
ATOM     68  C   UNL A   1      40.918  30.313  32.389  1.00  0.00     0.064 A 
ATOM     69  C   UNL A   1      40.633  31.670  32.109  1.00  0.00     0.173 A 
ATOM     70  C   UNL A   1      39.840  29.520  32.803  1.00  0.00     0.173 A 
ATOM     71  F   UNL A   1      41.617  32.491  31.705  1.00  0.00    -0.203 F 
ATOM     72  C   UNL A   1      39.332  32.176  32.140  1.00  0.00     0.198 A 
ATOM     73  C   UNL A   1      38.537  30.036  32.855  1.00  0.00     0.198 A 
ATOM     74  F   UNL A   1      40.020  28.222  33.087  1.00  0.00    -0.203 F 
ATOM     75  F   UNL A   1      39.097  33.441  31.763  1.00  0.00    -0.200 F 
ATOM     76  C   UNL A   1      38.281  31.353  32.499  1.00  0.00     0.200 A 
ATOM     77  F   UNL A   1      37.514  29.233  33.179  1.00  0.00    -0.200 F 
ATOM     78  F   UNL A   1      37.022  31.813  32.468  1.00  0.00    -0.200 F 
ENDBRANCH  44  68
BRANCH  56  79
ATOM     79  C   UNL A   1      44.990  24.380  33.209  1.00  0.00     0.064 A 
ATOM     80  C   UNL A   1      44.330  23.202  33.586  1.00  0.00     0.173 A 
ATOM     81  C   UNL A   1      46.358  24.467  33.559  1.00  0.00     0.173 A 
ATOM     82  F   UNL A   1      43.066  22.960  33.209  1.00  0.00    -0.203 F 
ATOM     83  C   UNL A   1      44.977  22.205  34.313  1.00  0.00     0.198 A 
ATOM     84  C   UNL A   1      47.018  23.439  34.222  1.00  0.00     0.198 A 
ATOM     85  F   UNL A   1      47.102  25.535  33.235  1.00  0.00    -0.203 F 
ATOM     86  F   UNL A   1      44.295  21.115  34.690  1.00  0.00    -0.200 F 
ATOM     87  C   UNL A   1      46.322  22.315  34.616  1.00  0.00     0.200 A 
ATOM     88  F   UNL A   1      48.335  23.534  34.453  1.00  0.00    -0.200 F 
ATOM     89  F   UNL A   1      46.952  21.329  35.264  1.00  0.00    -0.200 F 
ENDBRANCH  56  79
ENDBRANCH  30  31
ENDBRANCH  23  25
ENDBRANCH  22  23
ENDBRANCH  21  22
ENDBRANCH   1  21
TORSDOF 13
ENDMDL
