MODEL 1
REMARK VINA RESULT:     -11.6      0.000      0.000
REMARK SMILES Nc1cc(Br)ccc1C(=O)NC1(C(=O)OCCOC(=O)c2ccc(-c3c4nc(c(-c5c(F)c(F)c(F)c(F)c5F)c5ccc([nH]5)c(-c5c(F)c(F)c(F)c(F)c5F)c5nc(c(-c6c(F)c(F)c(F)c(F)c6F)c6ccc3[nH]6)C=C5)C=C4)cc2)CC1
REMARK SMILES IDX 16 1 15 2 13 3 14 4 12 5 84 6 85 7 11 8 9 9 10 10 8 12 2 13
REMARK SMILES IDX 3 14 4 15 7 16 5 17 6 18 1 19 17 22 18 23 19 24 20 25 21 26
REMARK SMILES IDX 22 27 83 28 23 29 82 30 24 31 25 32 26 33 76 34 27 35 81 36
REMARK SMILES IDX 75 37 77 38 28 39 80 40 74 41 73 42 29 44 61 45 41 46 60 47
REMARK SMILES IDX 42 48 45 49 59 50 78 51 43 52 44 53 58 55 79 56 46 57 30 58
REMARK SMILES IDX 31 59 39 60 32 61 33 62 37 63 40 64 34 65 35 66 38 67 36 68
REMARK SMILES IDX 62 69 63 70 71 71 64 72 65 73 69 74 72 75 66 76 67 77 70 78
REMARK SMILES IDX 68 79 47 80 48 81 56 82 49 83 50 84 54 85 57 86 51 87 52 88
REMARK SMILES IDX 55 89 53 90
REMARK H PARENT 11 11 1 20 1 21 77 43 45 54
REMARK Flexibility Score: inf
ROOT
ATOM      1  C   UNL A   1      41.823  19.483  26.445  1.00  0.00     0.274 C 
ENDROOT
BRANCH   1   2
ATOM      2  O   UNL A   1      42.521  19.080  25.250  1.00  0.00    -0.460 OA
BRANCH   2   3
ATOM      3  C   UNL A   1      43.851  18.840  25.441  1.00  0.00     0.331 C 
ATOM      4  O   UNL A   1      44.325  17.950  26.126  1.00  0.00    -0.249 OA
BRANCH   3   5
ATOM      5  C   UNL A   1      44.756  19.883  24.803  1.00  0.00     0.138 C 
ATOM      6  C   UNL A   1      45.696  19.205  23.765  1.00  0.00     0.043 C 
ATOM      7  C   UNL A   1      46.265  19.797  25.000  1.00  0.00     0.043 C 
BRANCH   5   8
ATOM      8  N   UNL A   1      44.151  21.094  24.287  1.00  0.00    -0.336 N 
ATOM      9  C   UNL A   1      44.186  22.439  24.576  1.00  0.00     0.254 C 
ATOM     10  O   UNL A   1      43.422  23.141  23.902  1.00  0.00    -0.269 OA
ATOM     11  H   UNL A   1      43.556  20.904  23.526  1.00  0.00     0.165 HD
BRANCH   9  12
ATOM     12  C   UNL A   1      44.984  23.116  25.634  1.00  0.00     0.062 A 
ATOM     13  C   UNL A   1      44.792  23.010  27.019  1.00  0.00     0.045 A 
ATOM     14  C   UNL A   1      45.659  23.706  27.884  1.00  0.00     0.042 A 
ATOM     15  C   UNL A   1      46.736  24.442  27.392  1.00  0.00     0.020 A 
ATOM     16  C   UNL A   1      46.091  23.857  25.157  1.00  0.00     0.017 A 
ATOM     17  Br  UNL A   1      47.912  25.309  28.591  1.00  0.00    -0.051 Br
ATOM     18  C   UNL A   1      46.966  24.512  26.027  1.00  0.00     0.016 A 
BRANCH  13  19
ATOM     19  N   UNL A   1      43.842  22.195  27.604  1.00  0.00    -0.398 N 
ATOM     20  H   UNL A   1      43.163  21.752  27.046  1.00  0.00     0.156 HD
ATOM     21  H   UNL A   1      43.845  22.057  28.579  1.00  0.00     0.156 HD
ENDBRANCH  13  19
ENDBRANCH   9  12
ENDBRANCH   5   8
ENDBRANCH   3   5
ENDBRANCH   2   3
ENDBRANCH   1   2
BRANCH   1  22
ATOM     22  C   UNL A   1      40.444  20.063  26.138  1.00  0.00     0.275 C 
BRANCH  22  23
ATOM     23  O   UNL A   1      40.141  21.132  27.051  1.00  0.00    -0.458 OA
BRANCH  23  24
ATOM     24  C   UNL A   1      39.306  22.078  26.573  1.00  0.00     0.338 C 
ATOM     25  O   UNL A   1      38.355  21.911  25.827  1.00  0.00    -0.246 OA
BRANCH  24  26
ATOM     26  C   UNL A   1      39.721  23.413  27.037  1.00  0.00     0.060 A 
ATOM     27  C   UNL A   1      40.703  23.495  28.023  1.00  0.00     0.016 A 
ATOM     28  C   UNL A   1      39.237  24.575  26.434  1.00  0.00     0.016 A 
ATOM     29  C   UNL A   1      41.162  24.747  28.434  1.00  0.00     0.010 A 
ATOM     30  C   UNL A   1      39.764  25.818  26.780  1.00  0.00     0.010 A 
ATOM     31  C   UNL A   1      40.701  25.921  27.813  1.00  0.00    -0.014 A 
BRANCH  31  32
ATOM     32  C   UNL A   1      41.176  27.250  28.273  1.00  0.00     0.031 A 
ATOM     33  C   UNL A   1      42.603  27.668  28.048  1.00  0.00     0.074 A 
ATOM     34  C   UNL A   1      40.327  28.086  28.899  1.00  0.00     0.049 A 
ATOM     35  N   UNL A   1      43.172  28.825  28.278  1.00  0.00    -0.248 NA
ATOM     36  C   UNL A   1      43.522  26.644  27.526  1.00  0.00     0.031 C 
ATOM     37  C   UNL A   1      38.949  27.764  29.270  1.00  0.00     0.029 A 
ATOM     38  N   UNL A   1      40.495  29.380  29.323  1.00  0.00    -0.354 N 
ATOM     39  C   UNL A   1      44.508  28.662  27.939  1.00  0.00     0.074 A 
ATOM     40  C   UNL A   1      44.683  27.280  27.553  1.00  0.00     0.031 C 
ATOM     41  C   UNL A   1      38.381  28.848  29.823  1.00  0.00     0.029 A 
ATOM     42  C   UNL A   1      39.356  29.936  29.851  1.00  0.00     0.049 A 
ATOM     43  H   UNL A   1      41.349  29.864  29.254  1.00  0.00     0.167 HD
ATOM     44  C   UNL A   1      45.494  29.590  27.912  1.00  0.00     0.037 A 
ATOM     45  C   UNL A   1      39.118  31.190  30.282  1.00  0.00     0.037 A 
ATOM     46  C   UNL A   1      45.309  30.974  28.253  1.00  0.00     0.049 A 
ATOM     47  C   UNL A   1      40.206  32.224  30.186  1.00  0.00     0.074 A 
ATOM     48  C   UNL A   1      46.215  32.015  28.158  1.00  0.00     0.029 A 
ATOM     49  N   UNL A   1      44.134  31.507  28.760  1.00  0.00    -0.354 N 
ATOM     50  N   UNL A   1      41.433  32.093  29.744  1.00  0.00    -0.248 NA
ATOM     51  C   UNL A   1      39.872  33.584  30.633  1.00  0.00     0.031 C 
ATOM     52  C   UNL A   1      45.597  33.174  28.642  1.00  0.00     0.029 A 
ATOM     53  C   UNL A   1      44.296  32.860  29.003  1.00  0.00     0.049 A 
ATOM     54  H   UNL A   1      43.307  30.999  28.923  1.00  0.00     0.167 HD
ATOM     55  C   UNL A   1      42.014  33.349  29.848  1.00  0.00     0.074 A 
ATOM     56  C   UNL A   1      40.998  34.236  30.377  1.00  0.00     0.031 C 
ATOM     57  C   UNL A   1      43.277  33.729  29.534  1.00  0.00     0.037 A 
BRANCH  44  58
ATOM     58  C   UNL A   1      46.856  29.136  27.474  1.00  0.00     0.064 A 
ATOM     59  C   UNL A   1      47.113  28.772  26.142  1.00  0.00     0.173 A 
ATOM     60  C   UNL A   1      47.919  29.076  28.387  1.00  0.00     0.173 A 
ATOM     61  F   UNL A   1      46.127  28.804  25.232  1.00  0.00    -0.203 F 
ATOM     62  C   UNL A   1      48.371  28.326  25.752  1.00  0.00     0.198 A 
ATOM     63  C   UNL A   1      49.185  28.657  27.985  1.00  0.00     0.198 A 
ATOM     64  F   UNL A   1      47.730  29.421  29.669  1.00  0.00    -0.203 F 
ATOM     65  F   UNL A   1      48.576  27.928  24.488  1.00  0.00    -0.200 F 
ATOM     66  C   UNL A   1      49.407  28.273  26.671  1.00  0.00     0.200 A 
ATOM     67  F   UNL A   1      50.189  28.617  28.872  1.00  0.00    -0.200 F 
ATOM     68  F   UNL A   1      50.619  27.842  26.293  1.00  0.00    -0.200 F 
ENDBRANCH  44  58
BRANCH  45  69
ATOM     69  C   UNL A   1      37.762  31.542  30.769  1.00  0.00     0.064 A 
ATOM     70  C   UNL A   1      37.500  31.649  32.142  1.00  0.00     0.173 A 
ATOM     71  C   UNL A   1      36.718  31.828  29.879  1.00  0.00     0.173 A 
ATOM     72  F   UNL A   1      38.465  31.370  33.031  1.00  0.00    -0.203 F 
ATOM     73  C   UNL A   1      36.243  32.028  32.606  1.00  0.00     0.198 A 
ATOM     74  C   UNL A   1      35.466  32.225  30.343  1.00  0.00     0.198 A 
ATOM     75  F   UNL A   1      36.922  31.742  28.556  1.00  0.00    -0.203 F 
ATOM     76  F   UNL A   1      36.013  32.104  33.924  1.00  0.00    -0.200 F 
ATOM     77  C   UNL A   1      35.229  32.323  31.707  1.00  0.00     0.200 A 
ATOM     78  F   UNL A   1      34.491  32.520  29.473  1.00  0.00    -0.200 F 
ATOM     79  F   UNL A   1      34.024  32.701  32.154  1.00  0.00    -0.200 F 
ENDBRANCH  45  69
BRANCH  57  80
ATOM     80  C   UNL A   1      43.646  35.165  29.756  1.00  0.00     0.064 A 
ATOM     81  C   UNL A   1      43.462  36.127  28.753  1.00  0.00     0.173 A 
ATOM     82  C   UNL A   1      44.100  35.599  31.012  1.00  0.00     0.173 A 
ATOM     83  F   UNL A   1      43.041  35.758  27.534  1.00  0.00    -0.203 F 
ATOM     84  C   UNL A   1      43.721  37.473  28.998  1.00  0.00     0.198 A 
ATOM     85  C   UNL A   1      44.335  36.948  31.259  1.00  0.00     0.198 A 
ATOM     86  F   UNL A   1      44.285  34.717  32.006  1.00  0.00    -0.203 F 
ATOM     87  F   UNL A   1      43.558  38.373  28.018  1.00  0.00    -0.200 F 
ATOM     88  C   UNL A   1      44.147  37.884  30.252  1.00  0.00     0.200 A 
ATOM     89  F   UNL A   1      44.733  37.346  32.476  1.00  0.00    -0.200 F 
ATOM     90  F   UNL A   1      44.376  39.182  30.491  1.00  0.00    -0.200 F 
ENDBRANCH  57  80
ENDBRANCH  31  32
ENDBRANCH  24  26
ENDBRANCH  23  24
ENDBRANCH  22  23
ENDBRANCH   1  22
TORSDOF 14
ENDMDL
MODEL 2
REMARK VINA RESULT:     -11.4      5.815     12.474
REMARK SMILES Nc1cc(Br)ccc1C(=O)NC1(C(=O)OCCOC(=O)c2ccc(-c3c4nc(c(-c5c(F)c(F)c(F)c(F)c5F)c5ccc([nH]5)c(-c5c(F)c(F)c(F)c(F)c5F)c5nc(c(-c6c(F)c(F)c(F)c(F)c6F)c6ccc3[nH]6)C=C5)C=C4)cc2)CC1
REMARK SMILES IDX 16 1 15 2 13 3 14 4 12 5 84 6 85 7 11 8 9 9 10 10 8 12 2 13
REMARK SMILES IDX 3 14 4 15 7 16 5 17 6 18 1 19 17 22 18 23 19 24 20 25 21 26
REMARK SMILES IDX 22 27 83 28 23 29 82 30 24 31 25 32 26 33 76 34 27 35 81 36
REMARK SMILES IDX 75 37 77 38 28 39 80 40 74 41 73 42 29 44 61 45 41 46 60 47
REMARK SMILES IDX 42 48 45 49 59 50 78 51 43 52 44 53 58 55 79 56 46 57 30 58
REMARK SMILES IDX 31 59 39 60 32 61 33 62 37 63 40 64 34 65 35 66 38 67 36 68
REMARK SMILES IDX 62 69 63 70 71 71 64 72 65 73 69 74 72 75 66 76 67 77 70 78
REMARK SMILES IDX 68 79 47 80 48 81 56 82 49 83 50 84 54 85 57 86 51 87 52 88
REMARK SMILES IDX 55 89 53 90
REMARK H PARENT 11 11 1 20 1 21 77 43 45 54
REMARK Flexibility Score: inf
ROOT
ATOM      1  C   UNL A   1      33.586  34.997  28.638  1.00  0.00     0.274 C 
ENDROOT
BRANCH   1   2
ATOM      2  O   UNL A   1      32.530  35.414  29.527  1.00  0.00    -0.460 OA
BRANCH   2   3
ATOM      3  C   UNL A   1      32.903  36.382  30.414  1.00  0.00     0.331 C 
ATOM      4  O   UNL A   1      33.027  37.569  30.165  1.00  0.00    -0.249 OA
BRANCH   3   5
ATOM      5  C   UNL A   1      33.290  35.840  31.780  1.00  0.00     0.138 C 
ATOM      6  C   UNL A   1      32.367  36.451  32.874  1.00  0.00     0.043 C 
ATOM      7  C   UNL A   1      33.811  36.790  32.852  1.00  0.00     0.043 C 
BRANCH   5   8
ATOM      8  N   UNL A   1      33.446  34.407  31.932  1.00  0.00    -0.336 N 
ATOM      9  C   UNL A   1      34.455  33.534  32.268  1.00  0.00     0.254 C 
ATOM     10  O   UNL A   1      34.158  32.335  32.196  1.00  0.00    -0.269 OA
ATOM     11  H   UNL A   1      32.605  33.931  31.744  1.00  0.00     0.165 HD
BRANCH   9  12
ATOM     12  C   UNL A   1      35.855  33.871  32.642  1.00  0.00     0.062 A 
ATOM     13  C   UNL A   1      36.877  34.274  31.770  1.00  0.00     0.045 A 
ATOM     14  C   UNL A   1      38.146  34.578  32.299  1.00  0.00     0.042 A 
ATOM     15  C   UNL A   1      38.385  34.548  33.672  1.00  0.00     0.020 A 
ATOM     16  C   UNL A   1      36.115  33.861  34.033  1.00  0.00     0.017 A 
ATOM     17  Br  UNL A   1      40.086  35.024  34.344  1.00  0.00    -0.051 Br
ATOM     18  C   UNL A   1      37.368  34.201  34.548  1.00  0.00     0.016 A 
BRANCH  13  19
ATOM     19  N   UNL A   1      36.698  34.469  30.413  1.00  0.00    -0.398 N 
ATOM     20  H   UNL A   1      36.324  35.318  30.083  1.00  0.00     0.156 HD
ATOM     21  H   UNL A   1      36.944  33.758  29.778  1.00  0.00     0.156 HD
ENDBRANCH  13  19
ENDBRANCH   9  12
ENDBRANCH   5   8
ENDBRANCH   3   5
ENDBRANCH   2   3
ENDBRANCH   1   2
BRANCH   1  22
ATOM     22  C   UNL A   1      33.306  33.632  28.012  1.00  0.00     0.275 C 
BRANCH  22  23
ATOM     23  O   UNL A   1      34.542  32.982  27.670  1.00  0.00    -0.458 OA
BRANCH  23  24
ATOM     24  C   UNL A   1      34.490  31.634  27.626  1.00  0.00     0.338 C 
ATOM     25  O   UNL A   1      33.559  30.946  27.240  1.00  0.00    -0.246 OA
BRANCH  24  26
ATOM     26  C   UNL A   1      35.730  31.053  28.170  1.00  0.00     0.060 A 
ATOM     27  C   UNL A   1      36.878  31.842  28.186  1.00  0.00     0.016 A 
ATOM     28  C   UNL A   1      35.741  29.790  28.763  1.00  0.00     0.016 A 
ATOM     29  C   UNL A   1      38.050  31.341  28.756  1.00  0.00     0.010 A 
ATOM     30  C   UNL A   1      36.884  29.329  29.414  1.00  0.00     0.010 A 
ATOM     31  C   UNL A   1      38.063  30.081  29.380  1.00  0.00    -0.014 A 
BRANCH  31  32
ATOM     32  C   UNL A   1      39.319  29.545  29.963  1.00  0.00     0.031 A 
ATOM     33  C   UNL A   1      39.796  30.018  31.308  1.00  0.00     0.074 A 
ATOM     34  C   UNL A   1      40.038  28.633  29.282  1.00  0.00     0.049 A 
ATOM     35  N   UNL A   1      40.804  29.588  32.026  1.00  0.00    -0.248 NA
ATOM     36  C   UNL A   1      39.069  31.143  31.916  1.00  0.00     0.031 C 
ATOM     37  C   UNL A   1      39.741  28.168  27.927  1.00  0.00     0.029 A 
ATOM     38  N   UNL A   1      41.157  27.927  29.642  1.00  0.00    -0.354 N 
ATOM     39  C   UNL A   1      40.833  30.393  33.156  1.00  0.00     0.074 A 
ATOM     40  C   UNL A   1      39.789  31.381  33.000  1.00  0.00     0.031 C 
ATOM     41  C   UNL A   1      40.627  27.217  27.588  1.00  0.00     0.029 A 
ATOM     42  C   UNL A   1      41.557  27.014  28.697  1.00  0.00     0.049 A 
ATOM     43  H   UNL A   1      41.629  28.061  30.495  1.00  0.00     0.167 HD
ATOM     44  C   UNL A   1      41.630  30.294  34.246  1.00  0.00     0.037 A 
ATOM     45  C   UNL A   1      42.543  26.098  28.734  1.00  0.00     0.037 A 
ATOM     46  C   UNL A   1      42.639  29.284  34.419  1.00  0.00     0.049 A 
ATOM     47  C   UNL A   1      43.378  25.959  29.977  1.00  0.00     0.074 A 
ATOM     48  C   UNL A   1      43.427  29.033  35.527  1.00  0.00     0.029 A 
ATOM     49  N   UNL A   1      42.998  28.360  33.450  1.00  0.00    -0.354 N 
ATOM     50  N   UNL A   1      43.316  26.643  31.094  1.00  0.00    -0.248 NA
ATOM     51  C   UNL A   1      44.411  24.913  29.971  1.00  0.00     0.031 C 
ATOM     52  C   UNL A   1      44.290  27.976  35.216  1.00  0.00     0.029 A 
ATOM     53  C   UNL A   1      44.012  27.548  33.927  1.00  0.00     0.049 A 
ATOM     54  H   UNL A   1      42.592  28.291  32.556  1.00  0.00     0.167 HD
ATOM     55  C   UNL A   1      44.288  26.106  31.926  1.00  0.00     0.074 A 
ATOM     56  C   UNL A   1      44.914  25.025  31.193  1.00  0.00     0.031 C 
ATOM     57  C   UNL A   1      44.629  26.478  33.184  1.00  0.00     0.037 A 
BRANCH  44  58
ATOM     58  C   UNL A   1      41.423  31.295  35.345  1.00  0.00     0.064 A 
ATOM     59  C   UNL A   1      40.263  31.283  36.136  1.00  0.00     0.173 A 
ATOM     60  C   UNL A   1      42.395  32.269  35.619  1.00  0.00     0.173 A 
ATOM     61  F   UNL A   1      39.300  30.377  35.908  1.00  0.00    -0.203 F 
ATOM     62  C   UNL A   1      40.067  32.232  37.135  1.00  0.00     0.198 A 
ATOM     63  C   UNL A   1      42.207  33.198  36.639  1.00  0.00     0.198 A 
ATOM     64  F   UNL A   1      43.525  32.320  34.899  1.00  0.00    -0.203 F 
ATOM     65  F   UNL A   1      38.926  32.235  37.837  1.00  0.00    -0.200 F 
ATOM     66  C   UNL A   1      41.040  33.186  37.388  1.00  0.00     0.200 A 
ATOM     67  F   UNL A   1      43.153  34.113  36.892  1.00  0.00    -0.200 F 
ATOM     68  F   UNL A   1      40.850  34.100  38.350  1.00  0.00    -0.200 F 
ENDBRANCH  44  58
BRANCH  45  69
ATOM     69  C   UNL A   1      42.731  25.190  27.575  1.00  0.00     0.064 A 
ATOM     70  C   UNL A   1      43.712  25.456  26.610  1.00  0.00     0.173 A 
ATOM     71  C   UNL A   1      41.975  24.019  27.435  1.00  0.00     0.173 A 
ATOM     72  F   UNL A   1      44.448  26.574  26.695  1.00  0.00    -0.203 F 
ATOM     73  C   UNL A   1      43.928  24.583  25.546  1.00  0.00     0.198 A 
ATOM     74  C   UNL A   1      42.204  23.136  26.381  1.00  0.00     0.198 A 
ATOM     75  F   UNL A   1      41.027  23.720  28.336  1.00  0.00    -0.203 F 
ATOM     76  F   UNL A   1      44.859  24.871  24.626  1.00  0.00    -0.200 F 
ATOM     77  C   UNL A   1      43.180  23.421  25.436  1.00  0.00     0.200 A 
ATOM     78  F   UNL A   1      41.488  22.009  26.283  1.00  0.00    -0.200 F 
ATOM     79  F   UNL A   1      43.399  22.575  24.421  1.00  0.00    -0.200 F 
ENDBRANCH  45  69
BRANCH  57  80
ATOM     80  C   UNL A   1      45.734  25.722  33.858  1.00  0.00     0.064 A 
ATOM     81  C   UNL A   1      47.066  26.151  33.773  1.00  0.00     0.173 A 
ATOM     82  C   UNL A   1      45.448  24.616  34.673  1.00  0.00     0.173 A 
ATOM     83  F   UNL A   1      47.389  27.197  32.998  1.00  0.00    -0.203 F 
ATOM     84  C   UNL A   1      48.074  25.497  34.477  1.00  0.00     0.198 A 
ATOM     85  C   UNL A   1      46.454  23.979  35.394  1.00  0.00     0.198 A 
ATOM     86  F   UNL A   1      44.187  24.172  34.793  1.00  0.00    -0.203 F 
ATOM     87  F   UNL A   1      49.344  25.911  34.364  1.00  0.00    -0.200 F 
ATOM     88  C   UNL A   1      47.766  24.419  35.294  1.00  0.00     0.200 A 
ATOM     89  F   UNL A   1      46.154  22.947  36.194  1.00  0.00    -0.200 F 
ATOM     90  F   UNL A   1      48.735  23.805  35.987  1.00  0.00    -0.200 F 
ENDBRANCH  57  80
ENDBRANCH  31  32
ENDBRANCH  24  26
ENDBRANCH  23  24
ENDBRANCH  22  23
ENDBRANCH   1  22
TORSDOF 14
ENDMDL
MODEL 3
REMARK VINA RESULT:     -11.3      6.491     11.855
REMARK SMILES Nc1cc(Br)ccc1C(=O)NC1(C(=O)OCCOC(=O)c2ccc(-c3c4nc(c(-c5c(F)c(F)c(F)c(F)c5F)c5ccc([nH]5)c(-c5c(F)c(F)c(F)c(F)c5F)c5nc(c(-c6c(F)c(F)c(F)c(F)c6F)c6ccc3[nH]6)C=C5)C=C4)cc2)CC1
REMARK SMILES IDX 16 1 15 2 13 3 14 4 12 5 84 6 85 7 11 8 9 9 10 10 8 12 2 13
REMARK SMILES IDX 3 14 4 15 7 16 5 17 6 18 1 19 17 22 18 23 19 24 20 25 21 26
REMARK SMILES IDX 22 27 83 28 23 29 82 30 24 31 25 32 26 33 76 34 27 35 81 36
REMARK SMILES IDX 75 37 77 38 28 39 80 40 74 41 73 42 29 44 61 45 41 46 60 47
REMARK SMILES IDX 42 48 45 49 59 50 78 51 43 52 44 53 58 55 79 56 46 57 30 58
REMARK SMILES IDX 31 59 39 60 32 61 33 62 37 63 40 64 34 65 35 66 38 67 36 68
REMARK SMILES IDX 62 69 63 70 71 71 64 72 65 73 69 74 72 75 66 76 67 77 70 78
REMARK SMILES IDX 68 79 47 80 48 81 56 82 49 83 50 84 54 85 57 86 51 87 52 88
REMARK SMILES IDX 55 89 53 90
REMARK H PARENT 11 11 1 20 1 21 77 43 45 54
REMARK Flexibility Score: inf
ROOT
ATOM      1  C   UNL A   1      31.517  29.147  27.100  1.00  0.00     0.274 C 
ENDROOT
BRANCH   1   2
ATOM      2  O   UNL A   1      32.278  27.922  27.128  1.00  0.00    -0.460 OA
BRANCH   2   3
ATOM      3  C   UNL A   1      31.666  26.877  26.498  1.00  0.00     0.331 C 
ATOM      4  O   UNL A   1      30.657  26.308  26.876  1.00  0.00    -0.249 OA
BRANCH   3   5
ATOM      5  C   UNL A   1      32.432  26.362  25.290  1.00  0.00     0.138 C 
ATOM      6  C   UNL A   1      33.756  25.687  25.750  1.00  0.00     0.043 C 
ATOM      7  C   UNL A   1      33.803  26.941  24.961  1.00  0.00     0.043 C 
BRANCH   5   8
ATOM      8  N   UNL A   1      31.719  25.563  24.314  1.00  0.00    -0.336 N 
ATOM      9  C   UNL A   1      30.689  25.748  23.421  1.00  0.00     0.254 C 
ATOM     10  O   UNL A   1      30.333  24.732  22.811  1.00  0.00    -0.269 OA
ATOM     11  H   UNL A   1      32.065  24.642  24.280  1.00  0.00     0.165 HD
BRANCH   9  12
ATOM     12  C   UNL A   1      29.931  27.001  23.161  1.00  0.00     0.062 A 
ATOM     13  C   UNL A   1      28.582  27.238  23.464  1.00  0.00     0.045 A 
ATOM     14  C   UNL A   1      28.027  28.498  23.169  1.00  0.00     0.042 A 
ATOM     15  C   UNL A   1      28.806  29.529  22.645  1.00  0.00     0.020 A 
ATOM     16  C   UNL A   1      30.707  28.066  22.643  1.00  0.00     0.017 A 
ATOM     17  Br  UNL A   1      28.034  31.224  22.324  1.00  0.00    -0.051 Br
ATOM     18  C   UNL A   1      30.152  29.323  22.391  1.00  0.00     0.016 A 
BRANCH  13  19
ATOM     19  N   UNL A   1      27.768  26.328  24.111  1.00  0.00    -0.398 N 
ATOM     20  H   UNL A   1      27.778  26.271  25.094  1.00  0.00     0.156 HD
ATOM     21  H   UNL A   1      27.178  25.737  23.589  1.00  0.00     0.156 HD
ENDBRANCH  13  19
ENDBRANCH   9  12
ENDBRANCH   5   8
ENDBRANCH   3   5
ENDBRANCH   2   3
ENDBRANCH   1   2
BRANCH   1  22
ATOM     22  C   UNL A   1      31.956  30.071  25.966  1.00  0.00     0.275 C 
BRANCH  22  23
ATOM     23  O   UNL A   1      33.339  30.429  26.127  1.00  0.00    -0.458 OA
BRANCH  23  24
ATOM     24  C   UNL A   1      33.584  31.379  27.055  1.00  0.00     0.338 C 
ATOM     25  O   UNL A   1      32.944  32.399  27.250  1.00  0.00    -0.246 OA
BRANCH  24  26
ATOM     26  C   UNL A   1      34.802  31.052  27.816  1.00  0.00     0.060 A 
ATOM     27  C   UNL A   1      35.015  29.727  28.189  1.00  0.00     0.016 A 
ATOM     28  C   UNL A   1      35.784  32.013  28.062  1.00  0.00     0.016 A 
ATOM     29  C   UNL A   1      36.192  29.378  28.853  1.00  0.00     0.010 A 
ATOM     30  C   UNL A   1      36.998  31.646  28.641  1.00  0.00     0.010 A 
ATOM     31  C   UNL A   1      37.198  30.334  29.080  1.00  0.00    -0.014 A 
BRANCH  31  32
ATOM     32  C   UNL A   1      38.437  29.961  29.808  1.00  0.00     0.031 A 
ATOM     33  C   UNL A   1      38.661  30.430  31.219  1.00  0.00     0.074 A 
ATOM     34  C   UNL A   1      39.368  29.201  29.201  1.00  0.00     0.049 A 
ATOM     35  N   UNL A   1      39.624  30.119  32.051  1.00  0.00    -0.248 NA
ATOM     36  C   UNL A   1      37.698  31.403  31.758  1.00  0.00     0.031 C 
ATOM     37  C   UNL A   1      39.321  28.767  27.806  1.00  0.00     0.029 A 
ATOM     38  N   UNL A   1      40.529  28.652  29.686  1.00  0.00    -0.354 N 
ATOM     39  C   UNL A   1      39.384  30.861  33.199  1.00  0.00     0.074 A 
ATOM     40  C   UNL A   1      38.229  31.690  32.936  1.00  0.00     0.031 C 
ATOM     41  C   UNL A   1      40.379  27.977  27.558  1.00  0.00     0.029 A 
ATOM     42  C   UNL A   1      41.180  27.858  28.775  1.00  0.00     0.049 A 
ATOM     43  H   UNL A   1      40.862  28.811  30.597  1.00  0.00     0.167 HD
ATOM     44  C   UNL A   1      40.042  30.827  34.382  1.00  0.00     0.037 A 
ATOM     45  C   UNL A   1      42.283  27.098  28.914  1.00  0.00     0.037 A 
ATOM     46  C   UNL A   1      41.164  29.971  34.657  1.00  0.00     0.049 A 
ATOM     47  C   UNL A   1      42.965  27.022  30.252  1.00  0.00     0.074 A 
ATOM     48  C   UNL A   1      41.834  29.783  35.852  1.00  0.00     0.029 A 
ATOM     49  N   UNL A   1      41.781  29.160  33.717  1.00  0.00    -0.354 N 
ATOM     50  N   UNL A   1      42.657  27.631  31.372  1.00  0.00    -0.248 NA
ATOM     51  C   UNL A   1      44.139  26.142  30.352  1.00  0.00     0.031 C 
ATOM     52  C   UNL A   1      42.882  28.884  35.627  1.00  0.00     0.029 A 
ATOM     53  C   UNL A   1      42.840  28.485  34.299  1.00  0.00     0.049 A 
ATOM     54  H   UNL A   1      41.508  29.077  32.775  1.00  0.00     0.167 HD
ATOM     55  C   UNL A   1      43.586  27.203  32.309  1.00  0.00     0.074 A 
ATOM     56  C   UNL A   1      44.460  26.266  31.633  1.00  0.00     0.031 C 
ATOM     57  C   UNL A   1      43.703  27.558  33.612  1.00  0.00     0.037 A 
BRANCH  44  58
ATOM     58  C   UNL A   1      39.546  31.729  35.474  1.00  0.00     0.064 A 
ATOM     59  C   UNL A   1      38.563  31.305  36.383  1.00  0.00     0.173 A 
ATOM     60  C   UNL A   1      40.062  33.025  35.623  1.00  0.00     0.173 A 
ATOM     61  F   UNL A   1      38.030  30.078  36.277  1.00  0.00    -0.203 F 
ATOM     62  C   UNL A   1      38.088  32.158  37.374  1.00  0.00     0.198 A 
ATOM     63  C   UNL A   1      39.605  33.864  36.636  1.00  0.00     0.198 A 
ATOM     64  F   UNL A   1      41.009  33.477  34.787  1.00  0.00    -0.203 F 
ATOM     65  F   UNL A   1      37.109  31.750  38.192  1.00  0.00    -0.200 F 
ATOM     66  C   UNL A   1      38.613  33.434  37.503  1.00  0.00     0.200 A 
ATOM     67  F   UNL A   1      40.121  35.095  36.768  1.00  0.00    -0.200 F 
ATOM     68  F   UNL A   1      38.154  34.255  38.459  1.00  0.00    -0.200 F 
ENDBRANCH  44  58
BRANCH  45  69
ATOM     69  C   UNL A   1      42.754  26.288  27.764  1.00  0.00     0.064 A 
ATOM     70  C   UNL A   1      42.203  25.025  27.506  1.00  0.00     0.173 A 
ATOM     71  C   UNL A   1      43.720  26.775  26.874  1.00  0.00     0.173 A 
ATOM     72  F   UNL A   1      41.286  24.512  28.340  1.00  0.00    -0.203 F 
ATOM     73  C   UNL A   1      42.603  24.279  26.400  1.00  0.00     0.198 A 
ATOM     74  C   UNL A   1      44.107  26.036  25.757  1.00  0.00     0.198 A 
ATOM     75  F   UNL A   1      44.274  27.980  27.077  1.00  0.00    -0.203 F 
ATOM     76  F   UNL A   1      42.075  23.066  26.186  1.00  0.00    -0.200 F 
ATOM     77  C   UNL A   1      43.548  24.788  25.522  1.00  0.00     0.200 A 
ATOM     78  F   UNL A   1      45.012  26.534  24.905  1.00  0.00    -0.200 F 
ATOM     79  F   UNL A   1      43.922  24.076  24.451  1.00  0.00    -0.200 F 
ENDBRANCH  45  69
BRANCH  57  80
ATOM     80  C   UNL A   1      44.817  26.941  34.404  1.00  0.00     0.064 A 
ATOM     81  C   UNL A   1      44.657  25.705  35.045  1.00  0.00     0.173 A 
ATOM     82  C   UNL A   1      46.083  27.546  34.443  1.00  0.00     0.173 A 
ATOM     83  F   UNL A   1      43.462  25.095  35.043  1.00  0.00    -0.203 F 
ATOM     84  C   UNL A   1      45.723  25.096  35.700  1.00  0.00     0.198 A 
ATOM     85  C   UNL A   1      47.153  26.923  35.080  1.00  0.00     0.198 A 
ATOM     86  F   UNL A   1      46.289  28.726  33.839  1.00  0.00    -0.203 F 
ATOM     87  F   UNL A   1      45.543  23.924  36.325  1.00  0.00    -0.200 F 
ATOM     88  C   UNL A   1      46.972  25.700  35.709  1.00  0.00     0.200 A 
ATOM     89  F   UNL A   1      48.363  27.500  35.075  1.00  0.00    -0.200 F 
ATOM     90  F   UNL A   1      48.002  25.102  36.323  1.00  0.00    -0.200 F 
ENDBRANCH  57  80
ENDBRANCH  31  32
ENDBRANCH  24  26
ENDBRANCH  23  24
ENDBRANCH  22  23
ENDBRANCH   1  22
TORSDOF 14
ENDMDL
