MODEL 1
REMARK VINA RESULT:     -13.2      0.000      0.000
REMARK SMILES Cc1c(NC(=S)NC(=O)CSc2ccc(Cl)cc2)cccc1C(=O)OCCOC(=O)c1ccc(-c2c3nc(c(-c4c(F)c(F)c(F)c(F)c4F)c4ccc([nH]4)c(-c4c(F)c(F)c(F)c(F)c4F)c4nc(c(-c5c(F)c(F)c(F)c(F)c5F)c5ccc2[nH]5)C=C4)C=C3)cc1
REMARK SMILES IDX 23 1 24 2 22 3 1 4 2 5 3 6 19 7 21 8 20 9 4 10 5 12 6 13
REMARK SMILES IDX 7 14 8 15 9 17 10 18 11 19 12 20 13 21 18 22 14 23 17 24
REMARK SMILES IDX 15 25 16 26 25 27 26 28 27 29 28 30 29 31 30 32 31 33 32 34
REMARK SMILES IDX 93 35 33 36 92 37 34 38 35 39 36 40 86 41 37 42 91 43 85 44
REMARK SMILES IDX 87 45 38 46 90 47 84 48 83 49 39 51 71 52 51 53 70 54 52 55
REMARK SMILES IDX 55 56 69 57 88 58 53 59 54 60 68 62 89 63 56 64 40 65 41 66
REMARK SMILES IDX 49 67 42 68 43 69 47 70 50 71 44 72 45 73 48 74 46 75 72 76
REMARK SMILES IDX 73 77 81 78 74 79 75 80 79 81 82 82 76 83 77 84 80 85 78 86
REMARK SMILES IDX 57 87 58 88 66 89 59 90 60 91 64 92 67 93 61 94 62 95 65 96
REMARK SMILES IDX 63 97
REMARK H PARENT 4 11 7 16 87 50 55 61
REMARK Flexibility Score: inf
ROOT
ATOM      1  C   UNL A   1      31.530  28.601  25.669  1.00  0.00     0.338 C 
ATOM      2  O   UNL A   1      31.236  29.168  24.629  1.00  0.00    -0.246 OA
ENDROOT
BRANCH   1   3
ATOM      3  C   UNL A   1      31.635  27.131  25.783  1.00  0.00     0.065 A 
ATOM      4  C   UNL A   1      34.092  27.275  25.125  1.00  0.00     0.047 C 
ATOM      5  C   UNL A   1      32.879  26.498  25.584  1.00  0.00    -0.013 A 
ATOM      6  C   UNL A   1      32.977  25.111  25.847  1.00  0.00     0.044 A 
ATOM      7  C   UNL A   1      31.825  24.370  26.115  1.00  0.00     0.026 A 
ATOM      8  C   UNL A   1      30.506  26.389  26.157  1.00  0.00     0.016 A 
ATOM      9  C   UNL A   1      30.597  25.008  26.296  1.00  0.00     0.003 A 
BRANCH   6  10
ATOM     10  N   UNL A   1      34.251  24.523  25.815  1.00  0.00    -0.332 N 
ATOM     11  H   UNL A   1      34.664  24.471  26.707  1.00  0.00     0.169 HD
BRANCH  10  12
ATOM     12  C   UNL A   1      35.034  24.017  24.857  1.00  0.00     0.177 C 
ATOM     13  S   UNL A   1      36.615  23.656  25.297  1.00  0.00    -0.040 S 
BRANCH  12  14
ATOM     14  N   UNL A   1      34.677  23.728  23.573  1.00  0.00    -0.302 N 
ATOM     15  C   UNL A   1      33.680  23.197  22.769  1.00  0.00     0.236 C 
ATOM     16  H   UNL A   1      35.418  24.006  22.988  1.00  0.00     0.172 HD
ATOM     17  O   UNL A   1      33.823  23.397  21.553  1.00  0.00    -0.274 OA
BRANCH  15  18
ATOM     18  C   UNL A   1      32.457  22.445  23.246  1.00  0.00     0.175 C 
BRANCH  18  19
ATOM     19  S   UNL A   1      31.894  21.094  22.178  1.00  0.00    -0.116 SA
BRANCH  19  20
ATOM     20  C   UNL A   1      32.348  19.722  23.204  1.00  0.00     0.008 A 
ATOM     21  C   UNL A   1      32.487  19.884  24.585  1.00  0.00     0.016 A 
ATOM     22  C   UNL A   1      32.545  18.467  22.622  1.00  0.00     0.016 A 
ATOM     23  C   UNL A   1      32.805  18.785  25.386  1.00  0.00     0.021 A 
ATOM     24  C   UNL A   1      32.862  17.370  23.422  1.00  0.00     0.021 A 
ATOM     25  C   UNL A   1      32.987  17.533  24.801  1.00  0.00     0.041 A 
ATOM     26  Cl  UNL A   1      33.371  16.175  25.785  1.00  0.00    -0.084 Cl
ENDBRANCH  19  20
ENDBRANCH  18  19
ENDBRANCH  15  18
ENDBRANCH  12  14
ENDBRANCH  10  12
ENDBRANCH   6  10
ENDBRANCH   1   3
BRANCH   1  27
ATOM     27  O   UNL A   1      31.735  29.196  26.871  1.00  0.00    -0.458 OA
BRANCH  27  28
ATOM     28  C   UNL A   1      32.743  30.210  26.840  1.00  0.00     0.275 C 
BRANCH  28  29
ATOM     29  C   UNL A   1      33.973  29.837  27.676  1.00  0.00     0.275 C 
BRANCH  29  30
ATOM     30  O   UNL A   1      35.330  30.110  27.218  1.00  0.00    -0.458 OA
BRANCH  30  31
ATOM     31  C   UNL A   1      36.290  30.730  27.953  1.00  0.00     0.338 C 
ATOM     32  O   UNL A   1      36.262  31.898  28.251  1.00  0.00    -0.246 OA
BRANCH  31  33
ATOM     33  C   UNL A   1      37.440  29.862  28.281  1.00  0.00     0.060 A 
ATOM     34  C   UNL A   1      37.365  29.010  29.399  1.00  0.00     0.016 A 
ATOM     35  C   UNL A   1      38.510  29.804  27.396  1.00  0.00     0.016 A 
ATOM     36  C   UNL A   1      38.327  28.026  29.581  1.00  0.00     0.010 A 
ATOM     37  C   UNL A   1      39.357  28.735  27.474  1.00  0.00     0.010 A 
ATOM     38  C   UNL A   1      39.306  27.898  28.601  1.00  0.00    -0.014 A 
BRANCH  38  39
ATOM     39  C   UNL A   1      40.550  27.182  28.792  1.00  0.00     0.031 A 
ATOM     40  C   UNL A   1      40.685  25.756  28.477  1.00  0.00     0.074 A 
ATOM     41  C   UNL A   1      41.545  28.063  29.046  1.00  0.00     0.049 A 
ATOM     42  N   UNL A   1      41.728  25.069  28.772  1.00  0.00    -0.248 NA
ATOM     43  C   UNL A   1      39.655  24.949  27.832  1.00  0.00     0.031 C 
ATOM     44  C   UNL A   1      42.987  27.969  28.951  1.00  0.00     0.029 A 
ATOM     45  N   UNL A   1      41.334  29.350  29.593  1.00  0.00    -0.354 N 
ATOM     46  C   UNL A   1      41.655  23.862  28.101  1.00  0.00     0.074 A 
ATOM     47  C   UNL A   1      40.295  23.789  27.635  1.00  0.00     0.031 C 
ATOM     48  C   UNL A   1      43.523  28.947  29.713  1.00  0.00     0.029 A 
ATOM     49  C   UNL A   1      42.424  29.595  30.426  1.00  0.00     0.049 A 
ATOM     50  H   UNL A   1      40.573  29.950  29.421  1.00  0.00     0.167 HD
ATOM     51  C   UNL A   1      42.824  23.180  27.919  1.00  0.00     0.037 A 
ATOM     52  C   UNL A   1      42.194  29.532  31.772  1.00  0.00     0.037 A 
ATOM     53  C   UNL A   1      43.878  23.855  28.681  1.00  0.00     0.049 A 
ATOM     54  C   UNL A   1      42.933  28.348  32.343  1.00  0.00     0.074 A 
ATOM     55  C   UNL A   1      44.805  24.816  28.315  1.00  0.00     0.029 A 
ATOM     56  N   UNL A   1      43.777  23.903  30.068  1.00  0.00    -0.354 N 
ATOM     57  N   UNL A   1      43.063  27.194  31.742  1.00  0.00    -0.248 NA
ATOM     58  C   UNL A   1      43.703  28.455  33.572  1.00  0.00     0.031 C 
ATOM     59  C   UNL A   1      45.168  25.528  29.491  1.00  0.00     0.029 A 
ATOM     60  C   UNL A   1      44.474  24.989  30.565  1.00  0.00     0.049 A 
ATOM     61  H   UNL A   1      43.280  23.254  30.617  1.00  0.00     0.167 HD
ATOM     62  C   UNL A   1      44.000  26.459  32.419  1.00  0.00     0.074 A 
ATOM     63  C   UNL A   1      44.345  27.277  33.571  1.00  0.00     0.031 C 
ATOM     64  C   UNL A   1      44.501  25.261  31.991  1.00  0.00     0.037 A 
BRANCH  51  65
ATOM     65  C   UNL A   1      43.129  22.105  26.889  1.00  0.00     0.064 A 
ATOM     66  C   UNL A   1      42.457  20.857  26.959  1.00  0.00     0.173 A 
ATOM     67  C   UNL A   1      44.100  22.178  25.872  1.00  0.00     0.173 A 
ATOM     68  F   UNL A   1      41.467  20.645  27.837  1.00  0.00    -0.203 F 
ATOM     69  C   UNL A   1      42.776  19.771  26.138  1.00  0.00     0.198 A 
ATOM     70  C   UNL A   1      44.421  21.087  25.050  1.00  0.00     0.198 A 
ATOM     71  F   UNL A   1      44.770  23.301  25.612  1.00  0.00    -0.203 F 
ATOM     72  F   UNL A   1      42.119  18.611  26.284  1.00  0.00    -0.200 F 
ATOM     73  C   UNL A   1      43.768  19.881  25.189  1.00  0.00     0.200 A 
ATOM     74  F   UNL A   1      45.379  21.218  24.119  1.00  0.00    -0.200 F 
ATOM     75  F   UNL A   1      44.085  18.838  24.410  1.00  0.00    -0.200 F 
ENDBRANCH  51  65
BRANCH  52  76
ATOM     76  C   UNL A   1      40.831  30.016  32.188  1.00  0.00     0.064 A 
ATOM     77  C   UNL A   1      40.473  31.355  31.894  1.00  0.00     0.173 A 
ATOM     78  C   UNL A   1      39.793  29.172  32.602  1.00  0.00     0.173 A 
ATOM     79  F   UNL A   1      41.415  32.229  31.499  1.00  0.00    -0.203 F 
ATOM     80  C   UNL A   1      39.147  31.792  31.905  1.00  0.00     0.198 A 
ATOM     81  C   UNL A   1      38.463  29.621  32.637  1.00  0.00     0.198 A 
ATOM     82  F   UNL A   1      40.034  27.889  32.904  1.00  0.00    -0.203 F 
ATOM     83  F   UNL A   1      38.847  33.037  31.507  1.00  0.00    -0.200 F 
ATOM     84  C   UNL A   1      38.139  30.918  32.264  1.00  0.00     0.200 A 
ATOM     85  F   UNL A   1      37.478  28.769  32.961  1.00  0.00    -0.200 F 
ATOM     86  F   UNL A   1      36.856  31.308  32.213  1.00  0.00    -0.200 F 
ENDBRANCH  52  76
BRANCH  64  87
ATOM     87  C   UNL A   1      45.183  24.270  32.899  1.00  0.00     0.064 A 
ATOM     88  C   UNL A   1      46.470  24.476  33.421  1.00  0.00     0.173 A 
ATOM     89  C   UNL A   1      44.481  23.157  33.419  1.00  0.00     0.173 A 
ATOM     90  F   UNL A   1      47.179  25.575  33.126  1.00  0.00    -0.203 F 
ATOM     91  C   UNL A   1      47.052  23.582  34.318  1.00  0.00     0.198 A 
ATOM     92  C   UNL A   1      45.034  22.316  34.379  1.00  0.00     0.198 A 
ATOM     93  F   UNL A   1      43.226  22.871  33.043  1.00  0.00    -0.203 F 
ATOM     94  F   UNL A   1      48.312  23.785  34.725  1.00  0.00    -0.200 F 
ATOM     95  C   UNL A   1      46.330  22.512  34.807  1.00  0.00     0.200 A 
ATOM     96  F   UNL A   1      44.294  21.328  34.902  1.00  0.00    -0.200 F 
ATOM     97  F   UNL A   1      46.875  21.685  35.708  1.00  0.00    -0.200 F 
ENDBRANCH  64  87
ENDBRANCH  38  39
ENDBRANCH  31  33
ENDBRANCH  30  31
ENDBRANCH  29  30
ENDBRANCH  28  29
ENDBRANCH  27  28
ENDBRANCH   1  27
TORSDOF 17
ENDMDL
MODEL 2
REMARK VINA RESULT:     -13.1      4.368     10.460
REMARK SMILES Cc1c(NC(=S)NC(=O)CSc2ccc(Cl)cc2)cccc1C(=O)OCCOC(=O)c1ccc(-c2c3nc(c(-c4c(F)c(F)c(F)c(F)c4F)c4ccc([nH]4)c(-c4c(F)c(F)c(F)c(F)c4F)c4nc(c(-c5c(F)c(F)c(F)c(F)c5F)c5ccc2[nH]5)C=C4)C=C3)cc1
REMARK SMILES IDX 23 1 24 2 22 3 1 4 2 5 3 6 19 7 21 8 20 9 4 10 5 12 6 13
REMARK SMILES IDX 7 14 8 15 9 17 10 18 11 19 12 20 13 21 18 22 14 23 17 24
REMARK SMILES IDX 15 25 16 26 25 27 26 28 27 29 28 30 29 31 30 32 31 33 32 34
REMARK SMILES IDX 93 35 33 36 92 37 34 38 35 39 36 40 86 41 37 42 91 43 85 44
REMARK SMILES IDX 87 45 38 46 90 47 84 48 83 49 39 51 71 52 51 53 70 54 52 55
REMARK SMILES IDX 55 56 69 57 88 58 53 59 54 60 68 62 89 63 56 64 40 65 41 66
REMARK SMILES IDX 49 67 42 68 43 69 47 70 50 71 44 72 45 73 48 74 46 75 72 76
REMARK SMILES IDX 73 77 81 78 74 79 75 80 79 81 82 82 76 83 77 84 80 85 78 86
REMARK SMILES IDX 57 87 58 88 66 89 59 90 60 91 64 92 67 93 61 94 62 95 65 96
REMARK SMILES IDX 63 97
REMARK H PARENT 4 11 7 16 87 50 55 61
REMARK Flexibility Score: inf
ROOT
ATOM      1  C   UNL A   1      35.114  21.243  24.503  1.00  0.00     0.338 C 
ATOM      2  O   UNL A   1      34.921  20.068  24.770  1.00  0.00    -0.246 OA
ENDROOT
BRANCH   1   3
ATOM      3  C   UNL A   1      34.048  22.144  24.014  1.00  0.00     0.065 A 
ATOM      4  C   UNL A   1      32.461  21.180  25.759  1.00  0.00     0.047 C 
ATOM      5  C   UNL A   1      32.793  22.160  24.656  1.00  0.00    -0.013 A 
ATOM      6  C   UNL A   1      31.848  23.136  24.261  1.00  0.00     0.044 A 
ATOM      7  C   UNL A   1      32.095  23.931  23.140  1.00  0.00     0.026 A 
ATOM      8  C   UNL A   1      34.322  23.023  22.957  1.00  0.00     0.016 A 
ATOM      9  C   UNL A   1      33.338  23.895  22.506  1.00  0.00     0.003 A 
BRANCH   6  10
ATOM     10  N   UNL A   1      30.672  23.259  25.018  1.00  0.00    -0.332 N 
ATOM     11  H   UNL A   1      29.900  22.828  24.586  1.00  0.00     0.169 HD
BRANCH  10  12
ATOM     12  C   UNL A   1      30.356  23.825  26.187  1.00  0.00     0.177 C 
ATOM     13  S   UNL A   1      29.478  22.879  27.262  1.00  0.00    -0.040 S 
BRANCH  12  14
ATOM     14  N   UNL A   1      30.704  25.072  26.615  1.00  0.00    -0.302 N 
ATOM     15  C   UNL A   1      30.844  26.399  26.240  1.00  0.00     0.236 C 
ATOM     16  H   UNL A   1      30.953  25.002  27.565  1.00  0.00     0.172 HD
ATOM     17  O   UNL A   1      31.004  27.197  27.175  1.00  0.00    -0.274 OA
BRANCH  15  18
ATOM     18  C   UNL A   1      30.786  26.935  24.826  1.00  0.00     0.175 C 
BRANCH  18  19
ATOM     19  S   UNL A   1      29.288  26.529  23.889  1.00  0.00    -0.116 SA
BRANCH  19  20
ATOM     20  C   UNL A   1      29.009  28.101  23.119  1.00  0.00     0.008 A 
ATOM     21  C   UNL A   1      27.742  28.691  23.148  1.00  0.00     0.016 A 
ATOM     22  C   UNL A   1      30.074  28.760  22.501  1.00  0.00     0.016 A 
ATOM     23  C   UNL A   1      27.547  29.949  22.573  1.00  0.00     0.021 A 
ATOM     24  C   UNL A   1      29.879  30.016  21.928  1.00  0.00     0.021 A 
ATOM     25  C   UNL A   1      28.617  30.606  21.969  1.00  0.00     0.041 A 
ATOM     26  Cl  UNL A   1      28.383  32.159  21.267  1.00  0.00    -0.084 Cl
ENDBRANCH  19  20
ENDBRANCH  18  19
ENDBRANCH  15  18
ENDBRANCH  12  14
ENDBRANCH  10  12
ENDBRANCH   6  10
ENDBRANCH   1   3
BRANCH   1  27
ATOM     27  O   UNL A   1      36.309  21.884  24.540  1.00  0.00    -0.458 OA
BRANCH  27  28
ATOM     28  C   UNL A   1      37.043  21.651  25.745  1.00  0.00     0.275 C 
BRANCH  28  29
ATOM     29  C   UNL A   1      38.430  22.304  25.721  1.00  0.00     0.275 C 
BRANCH  29  30
ATOM     30  O   UNL A   1      38.734  23.498  26.500  1.00  0.00    -0.458 OA
BRANCH  30  31
ATOM     31  C   UNL A   1      39.969  23.839  26.952  1.00  0.00     0.338 C 
ATOM     32  O   UNL A   1      40.898  23.072  27.021  1.00  0.00    -0.246 OA
BRANCH  31  33
ATOM     33  C   UNL A   1      40.058  25.227  27.451  1.00  0.00     0.060 A 
ATOM     34  C   UNL A   1      40.392  26.263  26.558  1.00  0.00     0.016 A 
ATOM     35  C   UNL A   1      39.669  25.495  28.758  1.00  0.00     0.016 A 
ATOM     36  C   UNL A   1      40.247  27.585  26.951  1.00  0.00     0.010 A 
ATOM     37  C   UNL A   1      39.361  26.784  29.090  1.00  0.00     0.010 A 
ATOM     38  C   UNL A   1      39.718  27.824  28.215  1.00  0.00    -0.014 A 
BRANCH  38  39
ATOM     39  C   UNL A   1      39.818  29.093  28.905  1.00  0.00     0.031 A 
ATOM     40  C   UNL A   1      38.757  30.102  28.838  1.00  0.00     0.074 A 
ATOM     41  C   UNL A   1      40.867  29.062  29.760  1.00  0.00     0.049 A 
ATOM     42  N   UNL A   1      38.883  31.285  29.318  1.00  0.00    -0.248 NA
ATOM     43  C   UNL A   1      37.462  29.902  28.196  1.00  0.00     0.031 C 
ATOM     44  C   UNL A   1      41.209  29.855  30.922  1.00  0.00     0.029 A 
ATOM     45  N   UNL A   1      41.984  28.209  29.602  1.00  0.00    -0.354 N 
ATOM     46  C   UNL A   1      37.635  31.879  29.343  1.00  0.00     0.074 A 
ATOM     47  C   UNL A   1      36.814  31.027  28.523  1.00  0.00     0.031 C 
ATOM     48  C   UNL A   1      42.533  29.715  31.152  1.00  0.00     0.029 A 
ATOM     49  C   UNL A   1      43.086  28.937  30.045  1.00  0.00     0.049 A 
ATOM     50  H   UNL A   1      41.983  27.289  29.252  1.00  0.00     0.167 HD
ATOM     51  C   UNL A   1      37.464  32.932  30.195  1.00  0.00     0.037 A 
ATOM     52  C   UNL A   1      43.938  29.406  29.083  1.00  0.00     0.037 A 
ATOM     53  C   UNL A   1      38.769  33.291  30.756  1.00  0.00     0.049 A 
ATOM     54  C   UNL A   1      43.858  30.910  29.046  1.00  0.00     0.074 A 
ATOM     55  C   UNL A   1      39.400  32.915  31.930  1.00  0.00     0.029 A 
ATOM     56  N   UNL A   1      39.760  33.762  29.900  1.00  0.00    -0.354 N 
ATOM     57  N   UNL A   1      42.758  31.600  29.203  1.00  0.00    -0.248 NA
ATOM     58  C   UNL A   1      45.056  31.733  28.978  1.00  0.00     0.031 C 
ATOM     59  C   UNL A   1      40.800  33.049  31.722  1.00  0.00     0.029 A 
ATOM     60  C   UNL A   1      41.013  33.519  30.433  1.00  0.00     0.049 A 
ATOM     61  H   UNL A   1      39.593  34.206  29.037  1.00  0.00     0.167 HD
ATOM     62  C   UNL A   1      43.094  32.917  29.372  1.00  0.00     0.074 A 
ATOM     63  C   UNL A   1      44.537  32.952  29.190  1.00  0.00     0.031 C 
ATOM     64  C   UNL A   1      42.213  33.905  29.712  1.00  0.00     0.037 A 
BRANCH  51  65
ATOM     65  C   UNL A   1      36.162  33.482  30.754  1.00  0.00     0.064 A 
ATOM     66  C   UNL A   1      35.270  34.176  29.896  1.00  0.00     0.173 A 
ATOM     67  C   UNL A   1      35.753  33.447  32.100  1.00  0.00     0.173 A 
ATOM     68  F   UNL A   1      35.487  34.253  28.575  1.00  0.00    -0.203 F 
ATOM     69  C   UNL A   1      34.121  34.828  30.355  1.00  0.00     0.198 A 
ATOM     70  C   UNL A   1      34.601  34.103  32.561  1.00  0.00     0.198 A 
ATOM     71  F   UNL A   1      36.430  32.769  33.029  1.00  0.00    -0.203 F 
ATOM     72  F   UNL A   1      33.341  35.493  29.490  1.00  0.00    -0.200 F 
ATOM     73  C   UNL A   1      33.791  34.803  31.693  1.00  0.00     0.200 A 
ATOM     74  F   UNL A   1      34.286  34.052  33.865  1.00  0.00    -0.200 F 
ATOM     75  F   UNL A   1      32.699  35.437  32.138  1.00  0.00    -0.200 F 
ENDBRANCH  51  65
BRANCH  52  76
ATOM     76  C   UNL A   1      44.092  28.492  27.897  1.00  0.00     0.064 A 
ATOM     77  C   UNL A   1      44.688  27.222  28.098  1.00  0.00     0.173 A 
ATOM     78  C   UNL A   1      43.452  28.691  26.668  1.00  0.00     0.173 A 
ATOM     79  F   UNL A   1      45.328  26.957  29.250  1.00  0.00    -0.203 F 
ATOM     80  C   UNL A   1      44.554  26.182  27.176  1.00  0.00     0.198 A 
ATOM     81  C   UNL A   1      43.342  27.651  25.731  1.00  0.00     0.198 A 
ATOM     82  F   UNL A   1      42.862  29.860  26.385  1.00  0.00    -0.203 F 
ATOM     83  F   UNL A   1      45.037  24.964  27.464  1.00  0.00    -0.200 F 
ATOM     84  C   UNL A   1      43.868  26.394  25.996  1.00  0.00     0.200 A 
ATOM     85  F   UNL A   1      42.655  27.845  24.594  1.00  0.00    -0.200 F 
ATOM     86  F   UNL A   1      43.677  25.384  25.135  1.00  0.00    -0.200 F 
ENDBRANCH  52  76
BRANCH  64  87
ATOM     87  C   UNL A   1      42.474  35.371  29.485  1.00  0.00     0.064 A 
ATOM     88  C   UNL A   1      43.374  36.113  30.266  1.00  0.00     0.173 A 
ATOM     89  C   UNL A   1      41.955  36.036  28.349  1.00  0.00     0.173 A 
ATOM     90  F   UNL A   1      44.051  35.554  31.278  1.00  0.00    -0.203 F 
ATOM     91  C   UNL A   1      43.657  37.450  29.992  1.00  0.00     0.198 A 
ATOM     92  C   UNL A   1      42.307  37.344  28.031  1.00  0.00     0.198 A 
ATOM     93  F   UNL A   1      41.121  35.429  27.492  1.00  0.00    -0.203 F 
ATOM     94  F   UNL A   1      44.464  38.134  30.815  1.00  0.00    -0.200 F 
ATOM     95  C   UNL A   1      43.135  38.061  28.869  1.00  0.00     0.200 A 
ATOM     96  F   UNL A   1      41.855  37.896  26.897  1.00  0.00    -0.200 F 
ATOM     97  F   UNL A   1      43.451  39.329  28.582  1.00  0.00    -0.200 F 
ENDBRANCH  64  87
ENDBRANCH  38  39
ENDBRANCH  31  33
ENDBRANCH  30  31
ENDBRANCH  29  30
ENDBRANCH  28  29
ENDBRANCH  27  28
ENDBRANCH   1  27
TORSDOF 17
ENDMDL
MODEL 3
REMARK VINA RESULT:     -12.8      2.264      2.961
REMARK SMILES Cc1c(NC(=S)NC(=O)CSc2ccc(Cl)cc2)cccc1C(=O)OCCOC(=O)c1ccc(-c2c3nc(c(-c4c(F)c(F)c(F)c(F)c4F)c4ccc([nH]4)c(-c4c(F)c(F)c(F)c(F)c4F)c4nc(c(-c5c(F)c(F)c(F)c(F)c5F)c5ccc2[nH]5)C=C4)C=C3)cc1
REMARK SMILES IDX 23 1 24 2 22 3 1 4 2 5 3 6 19 7 21 8 20 9 4 10 5 12 6 13
REMARK SMILES IDX 7 14 8 15 9 17 10 18 11 19 12 20 13 21 18 22 14 23 17 24
REMARK SMILES IDX 15 25 16 26 25 27 26 28 27 29 28 30 29 31 30 32 31 33 32 34
REMARK SMILES IDX 93 35 33 36 92 37 34 38 35 39 36 40 86 41 37 42 91 43 85 44
REMARK SMILES IDX 87 45 38 46 90 47 84 48 83 49 39 51 71 52 51 53 70 54 52 55
REMARK SMILES IDX 55 56 69 57 88 58 53 59 54 60 68 62 89 63 56 64 40 65 41 66
REMARK SMILES IDX 49 67 42 68 43 69 47 70 50 71 44 72 45 73 48 74 46 75 72 76
REMARK SMILES IDX 73 77 81 78 74 79 75 80 79 81 82 82 76 83 77 84 80 85 78 86
REMARK SMILES IDX 57 87 58 88 66 89 59 90 60 91 64 92 67 93 61 94 62 95 65 96
REMARK SMILES IDX 63 97
REMARK H PARENT 4 11 7 16 87 50 55 61
REMARK Flexibility Score: inf
ROOT
ATOM      1  C   UNL A   1      32.041  30.110  26.025  1.00  0.00     0.338 C 
ATOM      2  O   UNL A   1      31.427  30.926  26.692  1.00  0.00    -0.246 OA
ENDROOT
BRANCH   1   3
ATOM      3  C   UNL A   1      31.376  29.053  25.232  1.00  0.00     0.065 A 
ATOM      4  C   UNL A   1      31.908  27.369  27.070  1.00  0.00     0.047 C 
ATOM      5  C   UNL A   1      31.255  27.751  25.759  1.00  0.00    -0.013 A 
ATOM      6  C   UNL A   1      30.486  26.805  25.043  1.00  0.00     0.044 A 
ATOM      7  C   UNL A   1      30.021  27.111  23.763  1.00  0.00     0.026 A 
ATOM      8  C   UNL A   1      30.812  29.378  23.991  1.00  0.00     0.016 A 
ATOM      9  C   UNL A   1      30.159  28.400  23.248  1.00  0.00     0.003 A 
BRANCH   6  10
ATOM     10  N   UNL A   1      30.226  25.568  25.655  1.00  0.00    -0.332 N 
ATOM     11  H   UNL A   1      29.507  25.623  26.325  1.00  0.00     0.169 HD
BRANCH  10  12
ATOM     12  C   UNL A   1      30.725  24.334  25.539  1.00  0.00     0.177 C 
ATOM     13  S   UNL A   1      30.612  23.620  24.023  1.00  0.00    -0.040 S 
BRANCH  12  14
ATOM     14  N   UNL A   1      31.351  23.608  26.510  1.00  0.00    -0.302 N 
ATOM     15  C   UNL A   1      32.563  23.071  26.917  1.00  0.00     0.236 C 
ATOM     16  H   UNL A   1      30.677  23.374  27.188  1.00  0.00     0.172 HD
ATOM     17  O   UNL A   1      32.588  22.652  28.084  1.00  0.00    -0.274 OA
BRANCH  15  18
ATOM     18  C   UNL A   1      33.824  22.989  26.085  1.00  0.00     0.175 C 
BRANCH  18  19
ATOM     19  S   UNL A   1      34.645  24.567  25.737  1.00  0.00    -0.116 SA
BRANCH  19  20
ATOM     20  C   UNL A   1      34.094  24.804  24.070  1.00  0.00     0.008 A 
ATOM     21  C   UNL A   1      33.981  23.717  23.198  1.00  0.00     0.016 A 
ATOM     22  C   UNL A   1      33.751  26.087  23.638  1.00  0.00     0.016 A 
ATOM     23  C   UNL A   1      33.505  23.913  21.899  1.00  0.00     0.021 A 
ATOM     24  C   UNL A   1      33.276  26.283  22.341  1.00  0.00     0.021 A 
ATOM     25  C   UNL A   1      33.153  25.195  21.478  1.00  0.00     0.041 A 
ATOM     26  Cl  UNL A   1      32.560  25.440  19.883  1.00  0.00    -0.084 Cl
ENDBRANCH  19  20
ENDBRANCH  18  19
ENDBRANCH  15  18
ENDBRANCH  12  14
ENDBRANCH  10  12
ENDBRANCH   6  10
ENDBRANCH   1   3
BRANCH   1  27
ATOM     27  O   UNL A   1      33.390  29.989  25.955  1.00  0.00    -0.458 OA
BRANCH  27  28
ATOM     28  C   UNL A   1      34.040  30.115  27.224  1.00  0.00     0.275 C 
BRANCH  28  29
ATOM     29  C   UNL A   1      34.675  31.496  27.421  1.00  0.00     0.275 C 
BRANCH  29  30
ATOM     30  O   UNL A   1      35.936  31.672  28.130  1.00  0.00    -0.458 OA
BRANCH  30  31
ATOM     31  C   UNL A   1      36.173  31.276  29.408  1.00  0.00     0.338 C 
ATOM     32  O   UNL A   1      35.540  31.659  30.360  1.00  0.00    -0.246 OA
BRANCH  31  33
ATOM     33  C   UNL A   1      37.352  30.398  29.549  1.00  0.00     0.060 A 
ATOM     34  C   UNL A   1      37.207  29.140  30.166  1.00  0.00     0.016 A 
ATOM     35  C   UNL A   1      38.545  30.773  28.943  1.00  0.00     0.016 A 
ATOM     36  C   UNL A   1      38.239  28.214  30.094  1.00  0.00     0.010 A 
ATOM     37  C   UNL A   1      39.489  29.812  28.720  1.00  0.00     0.010 A 
ATOM     38  C   UNL A   1      39.364  28.565  29.356  1.00  0.00    -0.014 A 
BRANCH  38  39
ATOM     39  C   UNL A   1      40.640  27.887  29.458  1.00  0.00     0.031 A 
ATOM     40  C   UNL A   1      40.860  26.552  28.892  1.00  0.00     0.074 A 
ATOM     41  C   UNL A   1      41.578  28.752  29.906  1.00  0.00     0.049 A 
ATOM     42  N   UNL A   1      41.929  25.873  29.093  1.00  0.00    -0.248 NA
ATOM     43  C   UNL A   1      39.892  25.830  28.072  1.00  0.00     0.031 C 
ATOM     44  C   UNL A   1      43.026  28.746  29.848  1.00  0.00     0.029 A 
ATOM     45  N   UNL A   1      41.283  29.903  30.672  1.00  0.00    -0.354 N 
ATOM     46  C   UNL A   1      41.940  24.809  28.211  1.00  0.00     0.074 A 
ATOM     47  C   UNL A   1      40.599  24.759  27.689  1.00  0.00     0.031 C 
ATOM     48  C   UNL A   1      43.487  29.591  30.797  1.00  0.00     0.029 A 
ATOM     49  C   UNL A   1      42.335  30.042  31.575  1.00  0.00     0.049 A 
ATOM     50  H   UNL A   1      40.496  30.488  30.584  1.00  0.00     0.167 HD
ATOM     51  C   UNL A   1      43.149  24.229  27.950  1.00  0.00     0.037 A 
ATOM     52  C   UNL A   1      42.072  29.720  32.877  1.00  0.00     0.037 A 
ATOM     53  C   UNL A   1      44.143  24.801  28.861  1.00  0.00     0.049 A 
ATOM     54  C   UNL A   1      42.858  28.488  33.248  1.00  0.00     0.074 A 
ATOM     55  C   UNL A   1      45.027  25.856  28.712  1.00  0.00     0.029 A 
ATOM     56  N   UNL A   1      44.002  24.586  30.229  1.00  0.00    -0.354 N 
ATOM     57  N   UNL A   1      43.066  27.473  32.451  1.00  0.00    -0.248 NA
ATOM     58  C   UNL A   1      43.587  28.402  34.504  1.00  0.00     0.031 C 
ATOM     59  C   UNL A   1      45.319  26.354  30.011  1.00  0.00     0.029 A 
ATOM     60  C   UNL A   1      44.625  25.593  30.942  1.00  0.00     0.049 A 
ATOM     61  H   UNL A   1      43.526  23.824  30.631  1.00  0.00     0.167 HD
ATOM     62  C   UNL A   1      44.023  26.670  33.015  1.00  0.00     0.074 A 
ATOM     63  C   UNL A   1      44.291  27.276  34.310  1.00  0.00     0.031 C 
ATOM     64  C   UNL A   1      44.599  25.598  32.394  1.00  0.00     0.037 A 
BRANCH  51  65
ATOM     65  C   UNL A   1      43.540  23.379  26.752  1.00  0.00     0.064 A 
ATOM     66  C   UNL A   1      43.145  22.017  26.702  1.00  0.00     0.173 A 
ATOM     67  C   UNL A   1      44.348  23.783  25.672  1.00  0.00     0.173 A 
ATOM     68  F   UNL A   1      42.330  21.490  27.626  1.00  0.00    -0.203 F 
ATOM     69  C   UNL A   1      43.577  21.134  25.706  1.00  0.00     0.198 A 
ATOM     70  C   UNL A   1      44.781  22.896  24.675  1.00  0.00     0.198 A 
ATOM     71  F   UNL A   1      44.742  25.048  25.517  1.00  0.00    -0.203 F 
ATOM     72  F   UNL A   1      43.189  19.850  25.742  1.00  0.00    -0.200 F 
ATOM     73  C   UNL A   1      44.407  21.570  24.697  1.00  0.00     0.200 A 
ATOM     74  F   UNL A   1      45.576  23.344  23.690  1.00  0.00    -0.200 F 
ATOM     75  F   UNL A   1      44.832  20.724  23.750  1.00  0.00    -0.200 F 
ENDBRANCH  51  65
BRANCH  52  76
ATOM     76  C   UNL A   1      40.674  30.053  33.325  1.00  0.00     0.064 A 
ATOM     77  C   UNL A   1      40.347  31.412  33.556  1.00  0.00     0.173 A 
ATOM     78  C   UNL A   1      39.601  29.155  33.272  1.00  0.00     0.173 A 
ATOM     79  F   UNL A   1      41.323  32.333  33.629  1.00  0.00    -0.203 F 
ATOM     80  C   UNL A   1      39.026  31.860  33.617  1.00  0.00     0.198 A 
ATOM     81  C   UNL A   1      38.274  29.605  33.360  1.00  0.00     0.198 A 
ATOM     82  F   UNL A   1      39.811  27.849  33.060  1.00  0.00    -0.203 F 
ATOM     83  F   UNL A   1      38.767  33.172  33.722  1.00  0.00    -0.200 F 
ATOM     84  C   UNL A   1      37.988  30.956  33.506  1.00  0.00     0.200 A 
ATOM     85  F   UNL A   1      37.262  28.734  33.227  1.00  0.00    -0.200 F 
ATOM     86  F   UNL A   1      36.717  31.384  33.496  1.00  0.00    -0.200 F 
ENDBRANCH  52  76
BRANCH  64  87
ATOM     87  C   UNL A   1      45.308  24.489  33.129  1.00  0.00     0.064 A 
ATOM     88  C   UNL A   1      46.600  24.633  33.660  1.00  0.00     0.173 A 
ATOM     89  C   UNL A   1      44.630  23.298  33.478  1.00  0.00     0.173 A 
ATOM     90  F   UNL A   1      47.288  25.776  33.531  1.00  0.00    -0.203 F 
ATOM     91  C   UNL A   1      47.207  23.621  34.401  1.00  0.00     0.198 A 
ATOM     92  C   UNL A   1      45.209  22.327  34.290  1.00  0.00     0.198 A 
ATOM     93  F   UNL A   1      43.374  23.053  33.078  1.00  0.00    -0.203 F 
ATOM     94  F   UNL A   1      48.470  23.779  34.820  1.00  0.00    -0.200 F 
ATOM     95  C   UNL A   1      46.508  22.476  34.727  1.00  0.00     0.200 A 
ATOM     96  F   UNL A   1      44.491  21.259  34.662  1.00  0.00    -0.200 F 
ATOM     97  F   UNL A   1      47.077  21.529  35.482  1.00  0.00    -0.200 F 
ENDBRANCH  64  87
ENDBRANCH  38  39
ENDBRANCH  31  33
ENDBRANCH  30  31
ENDBRANCH  29  30
ENDBRANCH  28  29
ENDBRANCH  27  28
ENDBRANCH   1  27
TORSDOF 17
ENDMDL
