MODEL 1
REMARK VINA RESULT:     -13.6      0.000      0.000
REMARK SMILES Cc1ccc(CNc2ccc(C(=O)OCCOC(=O)c3ccc(-c4c5nc(c(-c6c(F)c(F)c(F)c(F)c6F)c6ccc([nH]6)c(-c6c(F)c(F)c(F)c(F)c6F)c6nc(c(-c7c(F)c(F)c(F)c(F)c7F)c7ccc4[nH]7)C=C6)C=C5)cc3)cc2Br)cc1
REMARK SMILES IDX 15 1 14 2 12 3 13 4 11 5 8 6 9 7 84 8 10 9 83 10 85 11 7 12
REMARK SMILES IDX 6 14 5 15 1 16 2 17 3 18 87 19 4 20 86 21 16 22 17 23 18 24
REMARK SMILES IDX 19 25 20 26 21 27 82 28 22 29 81 30 23 31 24 32 25 33 75 34
REMARK SMILES IDX 26 35 80 36 74 37 76 38 27 39 79 40 73 41 72 42 28 44 60 45
REMARK SMILES IDX 40 46 59 47 41 48 44 49 58 50 77 51 42 52 43 53 57 55 78 56
REMARK SMILES IDX 45 57 29 58 30 59 38 60 31 61 32 62 36 63 39 64 33 65 34 66
REMARK SMILES IDX 37 67 35 68 61 69 62 70 70 71 63 72 64 73 68 74 71 75 65 76
REMARK SMILES IDX 66 77 69 78 67 79 46 80 47 81 55 82 48 83 49 84 53 85 56 86
REMARK SMILES IDX 50 87 51 88 54 89 52 90
REMARK H PARENT 7 13 76 43 44 54
REMARK Flexibility Score: inf
ROOT
ATOM      1  C   UNL A   1      32.883  31.443  27.322  1.00  0.00     0.275 C 
ENDROOT
BRANCH   1   2
ATOM      2  O   UNL A   1      33.160  30.031  27.262  1.00  0.00    -0.458 OA
BRANCH   2   3
ATOM      3  C   UNL A   1      32.490  29.240  26.181  1.00  0.00     0.338 C 
ATOM      4  O   UNL A   1      32.011  30.195  25.500  1.00  0.00    -0.246 OA
BRANCH   3   5
ATOM      5  C   UNL A   1      32.436  27.090  25.977  1.00  0.00     0.061 A 
ATOM      6  C   UNL A   1      32.444  23.928  25.518  1.00  0.00     0.049 A 
ATOM      7  C   UNL A   1      31.283  24.663  25.635  1.00  0.00     0.028 A 
ATOM      8  C   UNL A   1      33.605  24.663  25.629  1.00  0.00     0.042 A 
ATOM      9  C   UNL A   1      31.284  26.086  25.881  1.00  0.00     0.018 A 
ATOM     10  C   UNL A   1      33.591  26.082  25.808  1.00  0.00     0.033 A 
ATOM     11  Br  UNL A   1      35.312  23.806  25.511  1.00  0.00    -0.049 Br
BRANCH   6  12
ATOM     12  N   UNL A   1      32.457  22.567  25.255  1.00  0.00    -0.380 N 
ATOM     13  H   UNL A   1      32.518  21.931  26.004  1.00  0.00     0.160 HD
BRANCH  12  14
ATOM     14  C   UNL A   1      32.381  22.059  23.894  1.00  0.00     0.148 C 
BRANCH  14  15
ATOM     15  C   UNL A   1      32.768  20.593  23.850  1.00  0.00    -0.029 A 
ATOM     16  C   UNL A   1      34.023  16.455  23.604  1.00  0.00     0.044 C 
ATOM     17  C   UNL A   1      33.565  17.881  23.698  1.00  0.00    -0.051 A 
ATOM     18  C   UNL A   1      34.158  18.747  24.624  1.00  0.00     0.004 A 
ATOM     19  C   UNL A   1      32.553  18.373  22.868  1.00  0.00     0.004 A 
ATOM     20  C   UNL A   1      33.769  20.088  24.694  1.00  0.00     0.006 A 
ATOM     21  C   UNL A   1      32.155  19.714  22.946  1.00  0.00     0.006 A 
ENDBRANCH  14  15
ENDBRANCH  12  14
ENDBRANCH   6  12
ENDBRANCH   3   5
ENDBRANCH   2   3
ENDBRANCH   1   2
BRANCH   1  22
ATOM     22  C   UNL A   1      34.156  32.176  27.762  1.00  0.00     0.275 C 
BRANCH  22  23
ATOM     23  O   UNL A   1      34.646  31.808  29.080  1.00  0.00    -0.458 OA
BRANCH  23  24
ATOM     24  C   UNL A   1      35.986  31.682  29.298  1.00  0.00     0.338 C 
ATOM     25  O   UNL A   1      36.774  32.602  29.411  1.00  0.00    -0.246 OA
BRANCH  24  26
ATOM     26  C   UNL A   1      36.434  30.301  29.031  1.00  0.00     0.060 A 
ATOM     27  C   UNL A   1      36.711  29.313  30.521  1.00  0.00     0.016 A 
ATOM     28  C   UNL A   1      37.486  30.093  27.584  1.00  0.00     0.016 A 
ATOM     29  C   UNL A   1      38.111  28.112  30.572  1.00  0.00     0.010 A 
ATOM     30  C   UNL A   1      38.919  28.940  27.659  1.00  0.00     0.010 A 
ATOM     31  C   UNL A   1      39.216  27.967  29.160  1.00  0.00    -0.014 A 
BRANCH  31  32
ATOM     32  C   UNL A   1      40.615  27.619  29.325  1.00  0.00     0.031 A 
ATOM     33  C   UNL A   1      41.026  26.315  28.797  1.00  0.00     0.074 A 
ATOM     34  C   UNL A   1      41.481  28.602  29.674  1.00  0.00     0.049 A 
ATOM     35  N   UNL A   1      42.235  25.906  28.807  1.00  0.00    -0.248 NA
ATOM     36  C   UNL A   1      40.111  25.330  28.222  1.00  0.00     0.031 C 
ATOM     37  C   UNL A   1      42.927  28.675  29.472  1.00  0.00     0.029 A 
ATOM     38  N   UNL A   1      41.209  29.737  30.449  1.00  0.00    -0.354 N 
ATOM     39  C   UNL A   1      42.317  24.744  28.081  1.00  0.00     0.074 A 
ATOM     40  C   UNL A   1      40.960  24.412  27.749  1.00  0.00     0.031 C 
ATOM     41  C   UNL A   1      43.448  29.583  30.316  1.00  0.00     0.029 A 
ATOM     42  C   UNL A   1      42.374  30.057  31.168  1.00  0.00     0.049 A 
ATOM     43  H   UNL A   1      40.353  30.225  30.484  1.00  0.00     0.167 HD
ATOM     44  C   UNL A   1      43.571  24.293  27.822  1.00  0.00     0.037 A 
ATOM     45  C   UNL A   1      42.364  29.947  32.529  1.00  0.00     0.037 A 
ATOM     46  C   UNL A   1      44.501  24.970  28.733  1.00  0.00     0.049 A 
ATOM     47  C   UNL A   1      43.169  28.747  32.992  1.00  0.00     0.074 A 
ATOM     48  C   UNL A   1      45.336  26.066  28.607  1.00  0.00     0.029 A 
ATOM     49  N   UNL A   1      44.297  24.788  30.098  1.00  0.00    -0.354 N 
ATOM     50  N   UNL A   1      43.460  27.725  32.226  1.00  0.00    -0.248 NA
ATOM     51  C   UNL A   1      43.791  28.646  34.306  1.00  0.00     0.031 C 
ATOM     52  C   UNL A   1      45.573  26.578  29.919  1.00  0.00     0.029 A 
ATOM     53  C   UNL A   1      44.913  25.775  30.838  1.00  0.00     0.049 A 
ATOM     54  H   UNL A   1      43.778  24.046  30.488  1.00  0.00     0.167 HD
ATOM     55  C   UNL A   1      44.320  26.880  32.881  1.00  0.00     0.074 A 
ATOM     56  C   UNL A   1      44.491  27.504  34.181  1.00  0.00     0.031 C 
ATOM     57  C   UNL A   1      44.847  25.755  32.298  1.00  0.00     0.037 A 
BRANCH  44  58
ATOM     58  C   UNL A   1      44.000  23.379  26.703  1.00  0.00     0.064 A 
ATOM     59  C   UNL A   1      43.526  22.048  26.679  1.00  0.00     0.173 A 
ATOM     60  C   UNL A   1      44.945  23.683  25.702  1.00  0.00     0.173 A 
ATOM     61  F   UNL A   1      42.628  21.611  27.572  1.00  0.00    -0.203 F 
ATOM     62  C   UNL A   1      43.981  21.101  25.755  1.00  0.00     0.198 A 
ATOM     63  C   UNL A   1      45.385  22.740  24.767  1.00  0.00     0.198 A 
ATOM     64  F   UNL A   1      45.507  24.888  25.589  1.00  0.00    -0.203 F 
ATOM     65  F   UNL A   1      43.522  19.844  25.813  1.00  0.00    -0.200 F 
ATOM     66  C   UNL A   1      44.910  21.448  24.798  1.00  0.00     0.200 A 
ATOM     67  F   UNL A   1      46.293  23.097  23.845  1.00  0.00    -0.200 F 
ATOM     68  F   UNL A   1      45.353  20.541  23.917  1.00  0.00    -0.200 F 
ENDBRANCH  44  58
BRANCH  45  69
ATOM     69  C   UNL A   1      41.126  30.546  33.123  1.00  0.00     0.064 A 
ATOM     70  C   UNL A   1      40.934  31.928  32.880  1.00  0.00     0.173 A 
ATOM     71  C   UNL A   1      39.990  29.801  33.453  1.00  0.00     0.173 A 
ATOM     72  F   UNL A   1      41.995  32.711  32.626  1.00  0.00    -0.203 F 
ATOM     73  C   UNL A   1      39.660  32.478  32.739  1.00  0.00     0.198 A 
ATOM     74  C   UNL A   1      38.710  30.378  33.371  1.00  0.00     0.198 A 
ATOM     75  F   UNL A   1      40.082  28.482  33.672  1.00  0.00    -0.203 F 
ATOM     76  F   UNL A   1      39.521  33.740  32.307  1.00  0.00    -0.200 F 
ATOM     77  C   UNL A   1      38.547  31.689  32.945  1.00  0.00     0.200 A 
ATOM     78  F   UNL A   1      37.622  29.602  33.511  1.00  0.00    -0.200 F 
ATOM     79  F   UNL A   1      37.324  32.162  32.662  1.00  0.00    -0.200 F 
ENDBRANCH  45  69
BRANCH  57  80
ATOM     80  C   UNL A   1      45.439  24.558  33.033  1.00  0.00     0.064 A 
ATOM     81  C   UNL A   1      46.714  24.543  33.624  1.00  0.00     0.173 A 
ATOM     82  C   UNL A   1      44.657  23.401  33.303  1.00  0.00     0.173 A 
ATOM     83  F   UNL A   1      47.511  25.616  33.616  1.00  0.00    -0.203 F 
ATOM     84  C   UNL A   1      47.203  23.432  34.320  1.00  0.00     0.198 A 
ATOM     85  C   UNL A   1      45.111  22.340  34.085  1.00  0.00     0.198 A 
ATOM     86  F   UNL A   1      43.403  23.257  32.851  1.00  0.00    -0.203 F 
ATOM     87  F   UNL A   1      48.460  23.449  34.785  1.00  0.00    -0.200 F 
ATOM     88  C   UNL A   1      46.398  22.338  34.563  1.00  0.00     0.200 A 
ATOM     89  F   UNL A   1      44.278  21.333  34.385  1.00  0.00    -0.200 F 
ATOM     90  F   UNL A   1      46.854  21.301  35.278  1.00  0.00    -0.200 F 
ENDBRANCH  57  80
ENDBRANCH  31  32
ENDBRANCH  24  26
ENDBRANCH  23  24
ENDBRANCH  22  23
ENDBRANCH   1  22
TORSDOF 14
ENDMDL
MODEL 2
REMARK VINA RESULT:     -13.4      5.001     10.681
REMARK SMILES Cc1ccc(CNc2ccc(C(=O)OCCOC(=O)c3ccc(-c4c5nc(c(-c6c(F)c(F)c(F)c(F)c6F)c6ccc([nH]6)c(-c6c(F)c(F)c(F)c(F)c6F)c6nc(c(-c7c(F)c(F)c(F)c(F)c7F)c7ccc4[nH]7)C=C6)C=C5)cc3)cc2Br)cc1
REMARK SMILES IDX 15 1 14 2 12 3 13 4 11 5 8 6 9 7 84 8 10 9 83 10 85 11 7 12
REMARK SMILES IDX 6 14 5 15 1 16 2 17 3 18 87 19 4 20 86 21 16 22 17 23 18 24
REMARK SMILES IDX 19 25 20 26 21 27 82 28 22 29 81 30 23 31 24 32 25 33 75 34
REMARK SMILES IDX 26 35 80 36 74 37 76 38 27 39 79 40 73 41 72 42 28 44 60 45
REMARK SMILES IDX 40 46 59 47 41 48 44 49 58 50 77 51 42 52 43 53 57 55 78 56
REMARK SMILES IDX 45 57 29 58 30 59 38 60 31 61 32 62 36 63 39 64 33 65 34 66
REMARK SMILES IDX 37 67 35 68 61 69 62 70 70 71 63 72 64 73 68 74 71 75 65 76
REMARK SMILES IDX 66 77 69 78 67 79 46 80 47 81 55 82 48 83 49 84 53 85 56 86
REMARK SMILES IDX 50 87 51 88 54 89 52 90
REMARK H PARENT 7 13 76 43 44 54
REMARK Flexibility Score: inf
ROOT
ATOM      1  C   UNL A   1      44.302  18.114  25.844  1.00  0.00     0.275 C 
ENDROOT
BRANCH   1   2
ATOM      2  O   UNL A   1      42.922  18.257  25.458  1.00  0.00    -0.458 OA
BRANCH   2   3
ATOM      3  C   UNL A   1      42.003  18.950  26.417  1.00  0.00     0.338 C 
ATOM      4  O   UNL A   1      42.608  18.690  27.499  1.00  0.00    -0.246 OA
BRANCH   3   5
ATOM      5  C   UNL A   1      40.196  20.035  25.942  1.00  0.00     0.061 A 
ATOM      6  C   UNL A   1      37.500  21.668  25.420  1.00  0.00     0.049 A 
ATOM      7  C   UNL A   1      37.661  20.351  25.043  1.00  0.00     0.028 A 
ATOM      8  C   UNL A   1      38.600  22.231  26.030  1.00  0.00     0.042 A 
ATOM      9  C   UNL A   1      38.894  19.629  25.246  1.00  0.00     0.018 A 
ATOM     10  C   UNL A   1      39.793  21.484  26.283  1.00  0.00     0.033 A 
ATOM     11  Br  UNL A   1      38.563  24.056  26.604  1.00  0.00    -0.049 Br
BRANCH   6  12
ATOM     12  N   UNL A   1      36.312  22.363  25.255  1.00  0.00    -0.380 N 
ATOM     13  H   UNL A   1      36.201  22.951  24.473  1.00  0.00     0.160 HD
BRANCH  12  14
ATOM     14  C   UNL A   1      35.226  22.244  26.216  1.00  0.00     0.148 C 
BRANCH  14  15
ATOM     15  C   UNL A   1      34.334  23.470  26.167  1.00  0.00    -0.029 A 
ATOM     16  C   UNL A   1      31.714  26.904  25.852  1.00  0.00     0.044 C 
ATOM     17  C   UNL A   1      32.635  25.726  25.979  1.00  0.00    -0.051 A 
ATOM     18  C   UNL A   1      32.164  24.523  26.516  1.00  0.00     0.004 A 
ATOM     19  C   UNL A   1      33.968  25.802  25.561  1.00  0.00     0.004 A 
ATOM     20  C   UNL A   1      33.002  23.407  26.602  1.00  0.00     0.006 A 
ATOM     21  C   UNL A   1      34.810  24.687  25.658  1.00  0.00     0.006 A 
ENDBRANCH  14  15
ENDBRANCH  12  14
ENDBRANCH   6  12
ENDBRANCH   3   5
ENDBRANCH   2   3
ENDBRANCH   1   2
BRANCH   1  22
ATOM     22  C   UNL A   1      45.155  19.044  24.973  1.00  0.00     0.275 C 
BRANCH  22  23
ATOM     23  O   UNL A   1      44.532  20.316  24.647  1.00  0.00    -0.458 OA
BRANCH  23  24
ATOM     24  C   UNL A   1      45.001  21.468  25.205  1.00  0.00     0.338 C 
ATOM     25  O   UNL A   1      46.094  21.609  25.720  1.00  0.00    -0.246 OA
BRANCH  24  26
ATOM     26  C   UNL A   1      43.903  22.428  25.430  1.00  0.00     0.060 A 
ATOM     27  C   UNL A   1      44.034  23.943  24.450  1.00  0.00     0.016 A 
ATOM     28  C   UNL A   1      43.244  22.474  27.106  1.00  0.00     0.016 A 
ATOM     29  C   UNL A   1      43.526  25.556  25.190  1.00  0.00     0.010 A 
ATOM     30  C   UNL A   1      42.797  24.090  27.864  1.00  0.00     0.010 A 
ATOM     31  C   UNL A   1      42.951  25.614  26.895  1.00  0.00    -0.014 A 
BRANCH  31  32
ATOM     32  C   UNL A   1      43.173  26.781  27.729  1.00  0.00     0.031 A 
ATOM     33  C   UNL A   1      41.994  27.596  28.032  1.00  0.00     0.074 A 
ATOM     34  C   UNL A   1      44.351  26.875  28.395  1.00  0.00     0.049 A 
ATOM     35  N   UNL A   1      42.024  28.607  28.809  1.00  0.00    -0.248 NA
ATOM     36  C   UNL A   1      40.663  27.365  27.473  1.00  0.00     0.031 C 
ATOM     37  C   UNL A   1      44.672  27.634  29.601  1.00  0.00     0.029 A 
ATOM     38  N   UNL A   1      45.595  26.368  27.994  1.00  0.00    -0.354 N 
ATOM     39  C   UNL A   1      40.739  29.035  29.032  1.00  0.00     0.074 A 
ATOM     40  C   UNL A   1      39.921  28.239  28.161  1.00  0.00     0.031 C 
ATOM     41  C   UNL A   1      46.005  27.795  29.683  1.00  0.00     0.029 A 
ATOM     42  C   UNL A   1      46.588  27.237  28.478  1.00  0.00     0.049 A 
ATOM     43  H   UNL A   1      45.746  25.549  27.468  1.00  0.00     0.167 HD
ATOM     44  C   UNL A   1      40.586  29.974  30.002  1.00  0.00     0.037 A 
ATOM     45  C   UNL A   1      47.341  27.946  27.585  1.00  0.00     0.037 A 
ATOM     46  C   UNL A   1      41.898  30.564  30.282  1.00  0.00     0.049 A 
ATOM     47  C   UNL A   1      46.953  29.413  27.581  1.00  0.00     0.074 A 
ATOM     48  C   UNL A   1      42.860  30.344  31.253  1.00  0.00     0.029 A 
ATOM     49  N   UNL A   1      42.547  31.200  29.227  1.00  0.00    -0.354 N 
ATOM     50  N   UNL A   1      45.804  29.866  28.017  1.00  0.00    -0.248 NA
ATOM     51  C   UNL A   1      47.855  30.488  27.184  1.00  0.00     0.031 C 
ATOM     52  C   UNL A   1      44.110  30.796  30.730  1.00  0.00     0.029 A 
ATOM     53  C   UNL A   1      43.900  31.321  29.463  1.00  0.00     0.049 A 
ATOM     54  H   UNL A   1      42.096  31.523  28.412  1.00  0.00     0.167 HD
ATOM     55  C   UNL A   1      45.813  31.237  28.022  1.00  0.00     0.074 A 
ATOM     56  C   UNL A   1      47.121  31.574  27.487  1.00  0.00     0.031 C 
ATOM     57  C   UNL A   1      44.764  31.987  28.490  1.00  0.00     0.037 A 
BRANCH  44  58
ATOM     58  C   UNL A   1      39.337  30.276  30.790  1.00  0.00     0.064 A 
ATOM     59  C   UNL A   1      38.785  31.576  30.737  1.00  0.00     0.173 A 
ATOM     60  C   UNL A   1      38.698  29.406  31.696  1.00  0.00     0.173 A 
ATOM     61  F   UNL A   1      39.289  32.515  29.925  1.00  0.00    -0.203 F 
ATOM     62  C   UNL A   1      37.711  31.974  31.539  1.00  0.00     0.198 A 
ATOM     63  C   UNL A   1      37.613  29.799  32.485  1.00  0.00     0.198 A 
ATOM     64  F   UNL A   1      39.100  28.147  31.884  1.00  0.00    -0.203 F 
ATOM     65  F   UNL A   1      37.262  33.235  31.470  1.00  0.00    -0.200 F 
ATOM     66  C   UNL A   1      37.124  31.085  32.414  1.00  0.00     0.200 A 
ATOM     67  F   UNL A   1      37.058  28.919  33.333  1.00  0.00    -0.200 F 
ATOM     68  F   UNL A   1      36.101  31.466  33.190  1.00  0.00    -0.200 F 
ENDBRANCH  44  58
BRANCH  45  69
ATOM     69  C   UNL A   1      47.814  27.085  26.455  1.00  0.00     0.064 A 
ATOM     70  C   UNL A   1      47.273  27.390  25.182  1.00  0.00     0.173 A 
ATOM     71  C   UNL A   1      49.022  26.381  26.473  1.00  0.00     0.173 A 
ATOM     72  F   UNL A   1      46.081  28.003  25.097  1.00  0.00    -0.203 F 
ATOM     73  C   UNL A   1      48.009  27.217  24.010  1.00  0.00     0.198 A 
ATOM     74  C   UNL A   1      49.732  26.152  25.281  1.00  0.00     0.198 A 
ATOM     75  F   UNL A   1      49.614  26.076  27.636  1.00  0.00    -0.203 F 
ATOM     76  F   UNL A   1      47.546  27.705  22.851  1.00  0.00    -0.200 F 
ATOM     77  C   UNL A   1      49.259  26.633  24.067  1.00  0.00     0.200 A 
ATOM     78  F   UNL A   1      50.973  25.640  25.336  1.00  0.00    -0.200 F 
ATOM     79  F   UNL A   1      50.039  26.603  22.976  1.00  0.00    -0.200 F 
ENDBRANCH  45  69
BRANCH  57  80
ATOM     80  C   UNL A   1      44.489  33.450  28.158  1.00  0.00     0.064 A 
ATOM     81  C   UNL A   1      43.964  33.899  26.934  1.00  0.00     0.173 A 
ATOM     82  C   UNL A   1      44.610  34.463  29.148  1.00  0.00     0.173 A 
ATOM     83  F   UNL A   1      43.626  33.053  25.956  1.00  0.00    -0.203 F 
ATOM     84  C   UNL A   1      43.695  35.249  26.687  1.00  0.00     0.198 A 
ATOM     85  C   UNL A   1      44.242  35.790  28.930  1.00  0.00     0.198 A 
ATOM     86  F   UNL A   1      45.058  34.211  30.386  1.00  0.00    -0.203 F 
ATOM     87  F   UNL A   1      43.277  35.623  25.469  1.00  0.00    -0.200 F 
ATOM     88  C   UNL A   1      43.819  36.191  27.686  1.00  0.00     0.200 A 
ATOM     89  F   UNL A   1      44.283  36.666  29.945  1.00  0.00    -0.200 F 
ATOM     90  F   UNL A   1      43.507  37.474  27.459  1.00  0.00    -0.200 F 
ENDBRANCH  57  80
ENDBRANCH  31  32
ENDBRANCH  24  26
ENDBRANCH  23  24
ENDBRANCH  22  23
ENDBRANCH   1  22
TORSDOF 14
ENDMDL
MODEL 3
REMARK VINA RESULT:     -13.3      1.554      2.056
REMARK SMILES Cc1ccc(CNc2ccc(C(=O)OCCOC(=O)c3ccc(-c4c5nc(c(-c6c(F)c(F)c(F)c(F)c6F)c6ccc([nH]6)c(-c6c(F)c(F)c(F)c(F)c6F)c6nc(c(-c7c(F)c(F)c(F)c(F)c7F)c7ccc4[nH]7)C=C6)C=C5)cc3)cc2Br)cc1
REMARK SMILES IDX 15 1 14 2 12 3 13 4 11 5 8 6 9 7 84 8 10 9 83 10 85 11 7 12
REMARK SMILES IDX 6 14 5 15 1 16 2 17 3 18 87 19 4 20 86 21 16 22 17 23 18 24
REMARK SMILES IDX 19 25 20 26 21 27 82 28 22 29 81 30 23 31 24 32 25 33 75 34
REMARK SMILES IDX 26 35 80 36 74 37 76 38 27 39 79 40 73 41 72 42 28 44 60 45
REMARK SMILES IDX 40 46 59 47 41 48 44 49 58 50 77 51 42 52 43 53 57 55 78 56
REMARK SMILES IDX 45 57 29 58 30 59 38 60 31 61 32 62 36 63 39 64 33 65 34 66
REMARK SMILES IDX 37 67 35 68 61 69 62 70 70 71 63 72 64 73 68 74 71 75 65 76
REMARK SMILES IDX 66 77 69 78 67 79 46 80 47 81 55 82 48 83 49 84 53 85 56 86
REMARK SMILES IDX 50 87 51 88 54 89 52 90
REMARK H PARENT 7 13 76 43 44 54
REMARK Flexibility Score: inf
ROOT
ATOM      1  C   UNL A   1      33.377  33.854  28.076  1.00  0.00     0.275 C 
ENDROOT
BRANCH   1   2
ATOM      2  O   UNL A   1      33.467  32.596  27.382  1.00  0.00    -0.458 OA
BRANCH   2   3
ATOM      3  C   UNL A   1      32.185  31.943  26.966  1.00  0.00     0.338 C 
ATOM      4  O   UNL A   1      31.422  32.953  27.004  1.00  0.00    -0.246 OA
BRANCH   3   5
ATOM      5  C   UNL A   1      31.877  29.860  26.480  1.00  0.00     0.061 A 
ATOM      6  C   UNL A   1      31.255  26.824  25.701  1.00  0.00     0.049 A 
ATOM      7  C   UNL A   1      31.550  27.220  26.989  1.00  0.00     0.028 A 
ATOM      8  C   UNL A   1      31.262  27.841  24.770  1.00  0.00     0.042 A 
ATOM      9  C   UNL A   1      31.869  28.587  27.330  1.00  0.00     0.018 A 
ATOM     10  C   UNL A   1      31.516  29.201  25.133  1.00  0.00     0.033 A 
ATOM     11  Br  UNL A   1      30.893  27.473  22.929  1.00  0.00    -0.049 Br
BRANCH   6  12
ATOM     12  N   UNL A   1      30.921  25.522  25.367  1.00  0.00    -0.380 N 
ATOM     13  H   UNL A   1      30.280  25.360  24.637  1.00  0.00     0.160 HD
BRANCH  12  14
ATOM     14  C   UNL A   1      31.499  24.388  26.072  1.00  0.00     0.148 C 
BRANCH  14  15
ATOM     15  C   UNL A   1      32.806  23.969  25.427  1.00  0.00    -0.029 A 
ATOM     16  C   UNL A   1      36.464  22.826  23.408  1.00  0.00     0.044 C 
ATOM     17  C   UNL A   1      35.204  23.209  24.128  1.00  0.00    -0.051 A 
ATOM     18  C   UNL A   1      34.988  24.541  24.500  1.00  0.00     0.004 A 
ATOM     19  C   UNL A   1      34.227  22.256  24.433  1.00  0.00     0.004 A 
ATOM     20  C   UNL A   1      33.800  24.917  25.136  1.00  0.00     0.006 A 
ATOM     21  C   UNL A   1      33.042  22.631  25.080  1.00  0.00     0.006 A 
ENDBRANCH  14  15
ENDBRANCH  12  14
ENDBRANCH   6  12
ENDBRANCH   3   5
ENDBRANCH   2   3
ENDBRANCH   1   2
BRANCH   1  22
ATOM     22  C   UNL A   1      34.059  33.713  29.442  1.00  0.00     0.275 C 
BRANCH  22  23
ATOM     23  O   UNL A   1      34.578  32.386  29.729  1.00  0.00    -0.458 OA
BRANCH  23  24
ATOM     24  C   UNL A   1      35.917  32.202  29.910  1.00  0.00     0.338 C 
ATOM     25  O   UNL A   1      36.740  33.088  30.045  1.00  0.00    -0.246 OA
BRANCH  24  26
ATOM     26  C   UNL A   1      36.307  30.819  29.573  1.00  0.00     0.060 A 
ATOM     27  C   UNL A   1      36.632  29.772  31.011  1.00  0.00     0.016 A 
ATOM     28  C   UNL A   1      37.276  30.633  28.065  1.00  0.00     0.016 A 
ATOM     29  C   UNL A   1      37.996  28.529  30.946  1.00  0.00     0.010 A 
ATOM     30  C   UNL A   1      38.674  29.438  28.023  1.00  0.00     0.010 A 
ATOM     31  C   UNL A   1      39.020  28.404  29.472  1.00  0.00    -0.014 A 
BRANCH  31  32
ATOM     32  C   UNL A   1      40.415  28.010  29.550  1.00  0.00     0.031 A 
ATOM     33  C   UNL A   1      40.743  26.680  29.030  1.00  0.00     0.074 A 
ATOM     34  C   UNL A   1      41.336  28.970  29.811  1.00  0.00     0.049 A 
ATOM     35  N   UNL A   1      41.935  26.228  28.968  1.00  0.00    -0.248 NA
ATOM     36  C   UNL A   1      39.758  25.715  28.547  1.00  0.00     0.031 C 
ATOM     37  C   UNL A   1      42.766  28.986  29.509  1.00  0.00     0.029 A 
ATOM     38  N   UNL A   1      41.157  30.133  30.573  1.00  0.00    -0.354 N 
ATOM     39  C   UNL A   1      41.927  25.047  28.270  1.00  0.00     0.074 A 
ATOM     40  C   UNL A   1      40.540  24.755  28.041  1.00  0.00     0.031 C 
ATOM     41  C   UNL A   1      43.375  29.896  30.289  1.00  0.00     0.029 A 
ATOM     42  C   UNL A   1      42.380  30.428  31.200  1.00  0.00     0.049 A 
ATOM     43  H   UNL A   1      40.323  30.652  30.653  1.00  0.00     0.167 HD
ATOM     44  C   UNL A   1      43.144  24.545  27.938  1.00  0.00     0.037 A 
ATOM     45  C   UNL A   1      42.461  30.353  32.562  1.00  0.00     0.037 A 
ATOM     46  C   UNL A   1      44.157  25.210  28.763  1.00  0.00     0.049 A 
ATOM     47  C   UNL A   1      43.255  29.137  33.000  1.00  0.00     0.074 A 
ATOM     48  C   UNL A   1      45.019  26.273  28.550  1.00  0.00     0.029 A 
ATOM     49  N   UNL A   1      44.044  25.069  30.144  1.00  0.00    -0.354 N 
ATOM     50  N   UNL A   1      43.457  28.086  32.244  1.00  0.00    -0.248 NA
ATOM     51  C   UNL A   1      43.964  29.046  34.271  1.00  0.00     0.031 C 
ATOM     52  C   UNL A   1      45.363  26.808  29.829  1.00  0.00     0.029 A 
ATOM     53  C   UNL A   1      44.742  26.052  30.812  1.00  0.00     0.049 A 
ATOM     54  H   UNL A   1      43.528  24.356  30.588  1.00  0.00     0.167 HD
ATOM     55  C   UNL A   1      44.332  27.228  32.861  1.00  0.00     0.074 A 
ATOM     56  C   UNL A   1      44.614  27.876  34.129  1.00  0.00     0.031 C 
ATOM     57  C   UNL A   1      44.778  26.070  32.274  1.00  0.00     0.037 A 
BRANCH  44  58
ATOM     58  C   UNL A   1      43.462  23.589  26.816  1.00  0.00     0.064 A 
ATOM     59  C   UNL A   1      43.074  22.235  26.932  1.00  0.00     0.173 A 
ATOM     60  C   UNL A   1      44.232  23.881  25.672  1.00  0.00     0.173 A 
ATOM     61  F   UNL A   1      42.342  21.806  27.970  1.00  0.00    -0.203 F 
ATOM     62  C   UNL A   1      43.448  21.260  26.002  1.00  0.00     0.198 A 
ATOM     63  C   UNL A   1      44.590  22.909  24.733  1.00  0.00     0.198 A 
ATOM     64  F   UNL A   1      44.697  25.106  25.415  1.00  0.00    -0.203 F 
ATOM     65  F   UNL A   1      43.080  19.986  26.193  1.00  0.00    -0.200 F 
ATOM     66  C   UNL A   1      44.206  21.597  24.902  1.00  0.00     0.200 A 
ATOM     67  F   UNL A   1      45.333  23.257  23.671  1.00  0.00    -0.200 F 
ATOM     68  F   UNL A   1      44.572  20.664  24.014  1.00  0.00    -0.200 F 
ENDBRANCH  44  58
BRANCH  45  69
ATOM     69  C   UNL A   1      41.289  31.010  33.223  1.00  0.00     0.064 A 
ATOM     70  C   UNL A   1      41.102  32.381  32.923  1.00  0.00     0.173 A 
ATOM     71  C   UNL A   1      40.170  30.310  33.685  1.00  0.00     0.173 A 
ATOM     72  F   UNL A   1      42.154  33.125  32.541  1.00  0.00    -0.203 F 
ATOM     73  C   UNL A   1      39.832  32.953  32.859  1.00  0.00     0.198 A 
ATOM     74  C   UNL A   1      38.898  30.911  33.678  1.00  0.00     0.198 A 
ATOM     75  F   UNL A   1      40.255  29.002  33.966  1.00  0.00    -0.203 F 
ATOM     76  F   UNL A   1      39.682  34.194  32.374  1.00  0.00    -0.200 F 
ATOM     77  C   UNL A   1      38.726  32.202  33.198  1.00  0.00     0.200 A 
ATOM     78  F   UNL A   1      37.812  30.169  33.949  1.00  0.00    -0.200 F 
ATOM     79  F   UNL A   1      37.492  32.688  32.991  1.00  0.00    -0.200 F 
ENDBRANCH  45  69
BRANCH  57  80
ATOM     80  C   UNL A   1      45.379  24.871  32.999  1.00  0.00     0.064 A 
ATOM     81  C   UNL A   1      46.676  24.841  33.539  1.00  0.00     0.173 A 
ATOM     82  C   UNL A   1      44.589  23.730  33.312  1.00  0.00     0.173 A 
ATOM     83  F   UNL A   1      47.490  25.900  33.486  1.00  0.00    -0.203 F 
ATOM     84  C   UNL A   1      47.174  23.729  34.227  1.00  0.00     0.198 A 
ATOM     85  C   UNL A   1      45.057  22.670  34.088  1.00  0.00     0.198 A 
ATOM     86  F   UNL A   1      43.317  23.603  32.912  1.00  0.00    -0.203 F 
ATOM     87  F   UNL A   1      48.449  23.730  34.642  1.00  0.00    -0.200 F 
ATOM     88  C   UNL A   1      46.362  22.652  34.515  1.00  0.00     0.200 A 
ATOM     89  F   UNL A   1      44.219  21.681  34.432  1.00  0.00    -0.200 F 
ATOM     90  F   UNL A   1      46.828  21.615  35.222  1.00  0.00    -0.200 F 
ENDBRANCH  57  80
ENDBRANCH  31  32
ENDBRANCH  24  26
ENDBRANCH  23  24
ENDBRANCH  22  23
ENDBRANCH   1  22
TORSDOF 14
ENDMDL
