MODEL 1
REMARK VINA RESULT:     -12.5      0.000      0.000
REMARK SMILES Cc1nn(C)c(C)c1[C@H](C)N1C(=O)CC[C@@H](C(=O)OCCOC(=O)c2ccc(-c3c4nc(c(-c5c(F)c(F)c(F)c(F)c5F)c5ccc([nH]5)c(-c5c(F)c(F)c(F)c(F)c5F)c5nc(c(-c6c(F)c(F)c(F)c(F)c6F)c6ccc3[nH]6)C=C5)C=C4)cc2)[C@@H]1c1ccco1
REMARK SMILES IDX 20 1 19 2 17 3 18 4 16 5 11 6 12 7 88 8 13 9 14 10 15 11
REMARK SMILES IDX 9 12 10 13 8 14 1 15 2 16 3 17 4 18 6 19 5 20 7 21 89 22
REMARK SMILES IDX 90 23 93 24 91 25 92 26 21 27 22 28 23 29 24 30 25 31 26 32
REMARK SMILES IDX 87 33 27 34 86 35 28 36 29 37 30 38 80 39 31 40 85 41 79 42
REMARK SMILES IDX 81 43 32 44 84 45 78 46 77 47 33 49 65 50 45 51 64 52 46 53
REMARK SMILES IDX 49 54 63 55 82 56 47 57 48 58 62 60 83 61 50 62 34 63 35 64
REMARK SMILES IDX 43 65 36 66 37 67 41 68 44 69 38 70 39 71 42 72 40 73 66 74
REMARK SMILES IDX 67 75 75 76 68 77 69 78 73 79 76 80 70 81 71 82 74 83 72 84
REMARK SMILES IDX 51 85 52 86 60 87 53 88 54 89 58 90 61 91 55 92 56 93 59 94
REMARK SMILES IDX 57 95
REMARK H PARENT 81 48 49 59
REMARK Flexibility Score: inf
ROOT
ATOM      1  C   UNL A   1      31.768  28.797  27.115  1.00  0.00     0.274 C 
ENDROOT
BRANCH   1   2
ATOM      2  O   UNL A   1      32.626  28.147  26.147  1.00  0.00    -0.462 OA
BRANCH   2   3
ATOM      3  C   UNL A   1      32.679  26.788  26.237  1.00  0.00     0.311 C 
ATOM      4  O   UNL A   1      31.845  26.118  26.826  1.00  0.00    -0.252 OA
BRANCH   3   5
ATOM      5  C   UNL A   1      33.931  26.225  25.587  1.00  0.00     0.130 C 
ATOM      6  N   UNL A   1      32.814  24.330  24.369  1.00  0.00    -0.325 N 
ATOM      7  C   UNL A   1      32.851  24.997  23.151  1.00  0.00     0.223 C 
ATOM      8  C   UNL A   1      33.800  24.705  25.398  1.00  0.00     0.166 C 
ATOM      9  O   UNL A   1      32.290  24.596  22.130  1.00  0.00    -0.275 OA
ATOM     10  C   UNL A   1      33.528  26.362  23.077  1.00  0.00     0.101 C 
ATOM     11  C   UNL A   1      34.282  26.902  24.277  1.00  0.00     0.028 C 
BRANCH   6  12
ATOM     12  C   UNL A   1      31.774  23.278  24.653  1.00  0.00     0.117 C 
ATOM     13  C   UNL A   1      30.469  23.383  23.848  1.00  0.00     0.036 C 
BRANCH  12  14
ATOM     14  C   UNL A   1      32.329  21.856  24.648  1.00  0.00     0.018 A 
ATOM     15  C   UNL A   1      33.470  21.526  27.032  1.00  0.00     0.069 C 
ATOM     16  C   UNL A   1      32.998  21.120  25.683  1.00  0.00     0.065 A 
ATOM     17  N   UNL A   1      33.261  19.863  25.308  1.00  0.00    -0.178 NA
ATOM     18  N   UNL A   1      32.793  19.776  24.062  1.00  0.00    -0.272 N 
ATOM     19  C   UNL A   1      32.360  20.973  23.563  1.00  0.00     0.040 A 
ATOM     20  C   UNL A   1      32.774  18.481  23.422  1.00  0.00     0.174 C 
ATOM     21  C   UNL A   1      31.968  21.136  22.138  1.00  0.00     0.067 C 
ENDBRANCH  12  14
ENDBRANCH   6  12
BRANCH   8  22
ATOM     22  C   UNL A   1      35.126  24.063  25.062  1.00  0.00     0.127 A 
ATOM     23  C   UNL A   1      35.574  23.331  23.980  1.00  0.00     0.048 A 
ATOM     24  O   UNL A   1      36.143  24.201  25.966  1.00  0.00    -0.467 OA
ATOM     25  C   UNL A   1      36.931  23.017  24.238  1.00  0.00     0.042 A 
ATOM     26  C   UNL A   1      37.231  23.578  25.456  1.00  0.00     0.195 A 
ENDBRANCH   8  22
ENDBRANCH   3   5
ENDBRANCH   2   3
ENDBRANCH   1   2
BRANCH   1  27
ATOM     27  C   UNL A   1      31.621  30.292  26.835  1.00  0.00     0.275 C 
BRANCH  27  28
ATOM     28  O   UNL A   1      32.889  30.840  26.438  1.00  0.00    -0.458 OA
BRANCH  28  29
ATOM     29  C   UNL A   1      33.400  31.803  27.237  1.00  0.00     0.338 C 
ATOM     30  O   UNL A   1      32.861  32.854  27.559  1.00  0.00    -0.246 OA
BRANCH  29  31
ATOM     31  C   UNL A   1      34.734  31.403  27.730  1.00  0.00     0.060 A 
ATOM     32  C   UNL A   1      34.989  30.074  28.044  1.00  0.00     0.016 A 
ATOM     33  C   UNL A   1      35.700  32.373  28.015  1.00  0.00     0.016 A 
ATOM     34  C   UNL A   1      36.148  29.734  28.733  1.00  0.00     0.010 A 
ATOM     35  C   UNL A   1      36.906  32.006  28.635  1.00  0.00     0.010 A 
ATOM     36  C   UNL A   1      37.126  30.682  29.048  1.00  0.00    -0.014 A 
BRANCH  36  37
ATOM     37  C   UNL A   1      38.299  30.287  29.888  1.00  0.00     0.031 A 
ATOM     38  C   UNL A   1      39.404  29.450  29.295  1.00  0.00     0.074 A 
ATOM     39  C   UNL A   1      38.450  30.750  31.147  1.00  0.00     0.049 A 
ATOM     40  N   UNL A   1      40.393  28.831  29.894  1.00  0.00    -0.248 NA
ATOM     41  C   UNL A   1      39.396  29.281  27.834  1.00  0.00     0.031 C 
ATOM     42  C   UNL A   1      37.543  31.673  31.830  1.00  0.00     0.029 A 
ATOM     43  N   UNL A   1      39.450  30.536  32.068  1.00  0.00    -0.354 N 
ATOM     44  C   UNL A   1      41.074  28.145  28.896  1.00  0.00     0.074 A 
ATOM     45  C   UNL A   1      40.401  28.437  27.648  1.00  0.00     0.031 C 
ATOM     46  C   UNL A   1      38.064  32.006  33.020  1.00  0.00     0.029 A 
ATOM     47  C   UNL A   1      39.271  31.221  33.246  1.00  0.00     0.049 A 
ATOM     48  H   UNL A   1      40.220  29.947  31.899  1.00  0.00     0.167 HD
ATOM     49  C   UNL A   1      42.155  27.338  29.015  1.00  0.00     0.037 A 
ATOM     50  C   UNL A   1      39.964  31.183  34.402  1.00  0.00     0.037 A 
ATOM     51  C   UNL A   1      42.873  27.113  30.244  1.00  0.00     0.049 A 
ATOM     52  C   UNL A   1      41.119  30.229  34.532  1.00  0.00     0.074 A 
ATOM     53  C   UNL A   1      43.950  26.275  30.477  1.00  0.00     0.029 A 
ATOM     54  N   UNL A   1      42.603  27.760  31.440  1.00  0.00    -0.354 N 
ATOM     55  N   UNL A   1      41.662  29.455  33.624  1.00  0.00    -0.248 NA
ATOM     56  C   UNL A   1      41.730  30.109  35.863  1.00  0.00     0.031 C 
ATOM     57  C   UNL A   1      44.313  26.392  31.823  1.00  0.00     0.029 A 
ATOM     58  C   UNL A   1      43.488  27.331  32.418  1.00  0.00     0.049 A 
ATOM     59  H   UNL A   1      41.890  28.424  31.576  1.00  0.00     0.167 HD
ATOM     60  C   UNL A   1      42.672  28.758  34.271  1.00  0.00     0.074 A 
ATOM     61  C   UNL A   1      42.690  29.222  35.642  1.00  0.00     0.031 C 
ATOM     62  C   UNL A   1      43.497  27.805  33.777  1.00  0.00     0.037 A 
BRANCH  49  63
ATOM     63  C   UNL A   1      42.594  26.580  27.798  1.00  0.00     0.064 A 
ATOM     64  C   UNL A   1      43.558  27.076  26.911  1.00  0.00     0.173 A 
ATOM     65  C   UNL A   1      42.059  25.306  27.542  1.00  0.00     0.173 A 
ATOM     66  F   UNL A   1      44.089  28.293  27.102  1.00  0.00    -0.203 F 
ATOM     67  C   UNL A   1      43.958  26.333  25.802  1.00  0.00     0.198 A 
ATOM     68  C   UNL A   1      42.480  24.557  26.448  1.00  0.00     0.198 A 
ATOM     69  F   UNL A   1      41.137  24.783  28.365  1.00  0.00    -0.203 F 
ATOM     70  F   UNL A   1      44.856  26.841  24.945  1.00  0.00    -0.200 F 
ATOM     71  C   UNL A   1      43.424  25.073  25.575  1.00  0.00     0.200 A 
ATOM     72  F   UNL A   1      41.970  23.335  26.238  1.00  0.00    -0.200 F 
ATOM     73  F   UNL A   1      43.818  24.358  24.512  1.00  0.00    -0.200 F 
ENDBRANCH  49  63
BRANCH  50  74
ATOM     74  C   UNL A   1      39.528  32.009  35.561  1.00  0.00     0.064 A 
ATOM     75  C   UNL A   1      40.073  33.279  35.792  1.00  0.00     0.173 A 
ATOM     76  C   UNL A   1      38.571  31.537  36.472  1.00  0.00     0.173 A 
ATOM     77  F   UNL A   1      41.020  33.762  34.973  1.00  0.00    -0.203 F 
ATOM     78  C   UNL A   1      39.682  34.041  36.892  1.00  0.00     0.198 A 
ATOM     79  C   UNL A   1      38.154  32.313  37.550  1.00  0.00     0.198 A 
ATOM     80  F   UNL A   1      38.029  30.321  36.309  1.00  0.00    -0.203 F 
ATOM     81  F   UNL A   1      40.255  35.231  37.118  1.00  0.00    -0.200 F 
ATOM     82  C   UNL A   1      38.715  33.562  37.763  1.00  0.00     0.200 A 
ATOM     83  F   UNL A   1      37.210  31.850  38.380  1.00  0.00    -0.200 F 
ATOM     84  F   UNL A   1      38.334  34.298  38.816  1.00  0.00    -0.200 F 
ENDBRANCH  50  74
BRANCH  62  85
ATOM     85  C   UNL A   1      44.502  27.215  34.720  1.00  0.00     0.064 A 
ATOM     86  C   UNL A   1      44.226  26.044  35.441  1.00  0.00     0.173 A 
ATOM     87  C   UNL A   1      45.762  27.808  34.881  1.00  0.00     0.173 A 
ATOM     88  F   UNL A   1      43.029  25.449  35.331  1.00  0.00    -0.203 F 
ATOM     89  C   UNL A   1      45.171  25.499  36.307  1.00  0.00     0.198 A 
ATOM     90  C   UNL A   1      46.713  27.247  35.731  1.00  0.00     0.198 A 
ATOM     91  F   UNL A   1      46.074  28.927  34.211  1.00  0.00    -0.203 F 
ATOM     92  F   UNL A   1      44.872  24.403  37.018  1.00  0.00    -0.200 F 
ATOM     93  C   UNL A   1      46.414  26.097  36.447  1.00  0.00     0.200 A 
ATOM     94  F   UNL A   1      47.917  27.821  35.858  1.00  0.00    -0.200 F 
ATOM     95  F   UNL A   1      47.323  25.570  37.278  1.00  0.00    -0.200 F 
ENDBRANCH  62  85
ENDBRANCH  36  37
ENDBRANCH  29  31
ENDBRANCH  28  29
ENDBRANCH  27  28
ENDBRANCH   1  27
TORSDOF 14
ENDMDL
MODEL 2
REMARK VINA RESULT:     -12.4      4.184      9.700
REMARK SMILES Cc1nn(C)c(C)c1[C@H](C)N1C(=O)CC[C@@H](C(=O)OCCOC(=O)c2ccc(-c3c4nc(c(-c5c(F)c(F)c(F)c(F)c5F)c5ccc([nH]5)c(-c5c(F)c(F)c(F)c(F)c5F)c5nc(c(-c6c(F)c(F)c(F)c(F)c6F)c6ccc3[nH]6)C=C5)C=C4)cc2)[C@@H]1c1ccco1
REMARK SMILES IDX 20 1 19 2 17 3 18 4 16 5 11 6 12 7 88 8 13 9 14 10 15 11
REMARK SMILES IDX 9 12 10 13 8 14 1 15 2 16 3 17 4 18 6 19 5 20 7 21 89 22
REMARK SMILES IDX 90 23 93 24 91 25 92 26 21 27 22 28 23 29 24 30 25 31 26 32
REMARK SMILES IDX 87 33 27 34 86 35 28 36 29 37 30 38 80 39 31 40 85 41 79 42
REMARK SMILES IDX 81 43 32 44 84 45 78 46 77 47 33 49 65 50 45 51 64 52 46 53
REMARK SMILES IDX 49 54 63 55 82 56 47 57 48 58 62 60 83 61 50 62 34 63 35 64
REMARK SMILES IDX 43 65 36 66 37 67 41 68 44 69 38 70 39 71 42 72 40 73 66 74
REMARK SMILES IDX 67 75 75 76 68 77 69 78 73 79 76 80 70 81 71 82 74 83 72 84
REMARK SMILES IDX 51 85 52 86 60 87 53 88 54 89 58 90 61 91 55 92 56 93 59 94
REMARK SMILES IDX 57 95
REMARK H PARENT 81 48 49 59
REMARK Flexibility Score: inf
ROOT
ATOM      1  C   UNL A   1      36.578  22.213  23.891  1.00  0.00     0.274 C 
ENDROOT
BRANCH   1   2
ATOM      2  O   UNL A   1      35.543  22.772  24.735  1.00  0.00    -0.462 OA
BRANCH   2   3
ATOM      3  C   UNL A   1      34.972  23.919  24.270  1.00  0.00     0.311 C 
ATOM      4  O   UNL A   1      34.918  24.215  23.086  1.00  0.00    -0.252 OA
BRANCH   3   5
ATOM      5  C   UNL A   1      34.488  24.811  25.402  1.00  0.00     0.130 C 
ATOM      6  N   UNL A   1      32.116  25.053  24.602  1.00  0.00    -0.325 N 
ATOM      7  C   UNL A   1      31.636  24.135  25.528  1.00  0.00     0.223 C 
ATOM      8  C   UNL A   1      33.378  25.751  24.906  1.00  0.00     0.166 C 
ATOM      9  O   UNL A   1      30.480  23.708  25.536  1.00  0.00    -0.275 OA
ATOM     10  C   UNL A   1      32.606  23.526  26.535  1.00  0.00     0.101 C 
ATOM     11  C   UNL A   1      34.032  24.035  26.621  1.00  0.00     0.028 C 
BRANCH   6  12
ATOM     12  C   UNL A   1      31.396  25.305  23.304  1.00  0.00     0.117 C 
ATOM     13  C   UNL A   1      30.361  24.247  22.889  1.00  0.00     0.036 C 
BRANCH  12  14
ATOM     14  C   UNL A   1      30.836  26.721  23.183  1.00  0.00     0.018 A 
ATOM     15  C   UNL A   1      32.905  28.250  22.495  1.00  0.00     0.069 C 
ATOM     16  C   UNL A   1      31.483  27.940  22.791  1.00  0.00     0.065 A 
ATOM     17  N   UNL A   1      30.622  28.964  22.736  1.00  0.00    -0.178 NA
ATOM     18  N   UNL A   1      29.448  28.438  23.093  1.00  0.00    -0.272 N 
ATOM     19  C   UNL A   1      29.542  27.141  23.513  1.00  0.00     0.040 A 
ATOM     20  C   UNL A   1      28.264  29.257  22.975  1.00  0.00     0.174 C 
ATOM     21  C   UNL A   1      28.390  26.425  24.122  1.00  0.00     0.067 C 
ENDBRANCH  12  14
ENDBRANCH   6  12
BRANCH   8  22
ATOM     22  C   UNL A   1      33.098  26.861  25.892  1.00  0.00     0.127 A 
ATOM     23  C   UNL A   1      31.952  27.287  26.534  1.00  0.00     0.048 A 
ATOM     24  O   UNL A   1      34.151  27.640  26.285  1.00  0.00    -0.467 OA
ATOM     25  C   UNL A   1      32.331  28.374  27.361  1.00  0.00     0.042 A 
ATOM     26  C   UNL A   1      33.683  28.541  27.179  1.00  0.00     0.195 A 
ENDBRANCH   8  22
ENDBRANCH   3   5
ENDBRANCH   2   3
ENDBRANCH   1   2
BRANCH   1  27
ATOM     27  C   UNL A   1      37.296  21.045  24.568  1.00  0.00     0.275 C 
BRANCH  27  28
ATOM     28  O   UNL A   1      37.732  21.438  25.880  1.00  0.00    -0.458 OA
BRANCH  28  29
ATOM     29  C   UNL A   1      39.055  21.323  26.130  1.00  0.00     0.338 C 
ATOM     30  O   UNL A   1      39.767  20.355  25.892  1.00  0.00    -0.246 OA
BRANCH  29  31
ATOM     31  C   UNL A   1      39.575  22.574  26.716  1.00  0.00     0.060 A 
ATOM     32  C   UNL A   1      39.105  23.802  26.265  1.00  0.00     0.016 A 
ATOM     33  C   UNL A   1      40.638  22.538  27.625  1.00  0.00     0.016 A 
ATOM     34  C   UNL A   1      39.759  24.973  26.632  1.00  0.00     0.010 A 
ATOM     35  C   UNL A   1      41.236  23.734  28.057  1.00  0.00     0.010 A 
ATOM     36  C   UNL A   1      40.834  24.970  27.525  1.00  0.00    -0.014 A 
BRANCH  36  37
ATOM     37  C   UNL A   1      41.574  26.241  27.799  1.00  0.00     0.031 A 
ATOM     38  C   UNL A   1      40.966  27.290  28.697  1.00  0.00     0.074 A 
ATOM     39  C   UNL A   1      42.830  26.436  27.345  1.00  0.00     0.049 A 
ATOM     40  N   UNL A   1      41.337  28.531  28.897  1.00  0.00    -0.248 NA
ATOM     41  C   UNL A   1      39.780  26.892  29.471  1.00  0.00     0.031 C 
ATOM     42  C   UNL A   1      43.615  25.472  26.573  1.00  0.00     0.029 A 
ATOM     43  N   UNL A   1      43.686  27.502  27.501  1.00  0.00    -0.354 N 
ATOM     44  C   UNL A   1      40.392  29.078  29.756  1.00  0.00     0.074 A 
ATOM     45  C   UNL A   1      39.440  28.031  30.058  1.00  0.00     0.031 C 
ATOM     46  C   UNL A   1      44.854  25.954  26.394  1.00  0.00     0.029 A 
ATOM     47  C   UNL A   1      44.915  27.313  26.917  1.00  0.00     0.049 A 
ATOM     48  H   UNL A   1      43.440  28.323  27.985  1.00  0.00     0.167 HD
ATOM     49  C   UNL A   1      40.322  30.342  30.238  1.00  0.00     0.037 A 
ATOM     50  C   UNL A   1      45.958  28.154  26.766  1.00  0.00     0.037 A 
ATOM     51  C   UNL A   1      41.314  31.360  30.003  1.00  0.00     0.049 A 
ATOM     52  C   UNL A   1      45.831  29.572  27.250  1.00  0.00     0.074 A 
ATOM     53  C   UNL A   1      41.310  32.684  30.407  1.00  0.00     0.029 A 
ATOM     54  N   UNL A   1      42.507  31.152  29.327  1.00  0.00    -0.354 N 
ATOM     55  N   UNL A   1      44.858  30.134  27.924  1.00  0.00    -0.248 NA
ATOM     56  C   UNL A   1      46.930  30.487  26.910  1.00  0.00     0.031 C 
ATOM     57  C   UNL A   1      42.487  33.286  29.949  1.00  0.00     0.029 A 
ATOM     58  C   UNL A   1      43.242  32.327  29.295  1.00  0.00     0.049 A 
ATOM     59  H   UNL A   1      42.791  30.298  28.930  1.00  0.00     0.167 HD
ATOM     60  C   UNL A   1      45.225  31.462  28.087  1.00  0.00     0.074 A 
ATOM     61  C   UNL A   1      46.524  31.618  27.469  1.00  0.00     0.031 C 
ATOM     62  C   UNL A   1      44.536  32.467  28.680  1.00  0.00     0.037 A 
BRANCH  49  63
ATOM     63  C   UNL A   1      39.098  30.722  31.017  1.00  0.00     0.064 A 
ATOM     64  C   UNL A   1      39.010  30.557  32.405  1.00  0.00     0.173 A 
ATOM     65  C   UNL A   1      38.006  31.304  30.353  1.00  0.00     0.173 A 
ATOM     66  F   UNL A   1      40.020  29.992  33.084  1.00  0.00    -0.203 F 
ATOM     67  C   UNL A   1      37.864  30.943  33.099  1.00  0.00     0.198 A 
ATOM     68  C   UNL A   1      36.875  31.712  31.053  1.00  0.00     0.198 A 
ATOM     69  F   UNL A   1      38.043  31.490  29.024  1.00  0.00    -0.203 F 
ATOM     70  F   UNL A   1      37.784  30.742  34.422  1.00  0.00    -0.200 F 
ATOM     71  C   UNL A   1      36.801  31.526  32.424  1.00  0.00     0.200 A 
ATOM     72  F   UNL A   1      35.854  32.286  30.399  1.00  0.00    -0.200 F 
ATOM     73  F   UNL A   1      35.705  31.904  33.095  1.00  0.00    -0.200 F 
ENDBRANCH  49  63
BRANCH  50  74
ATOM     74  C   UNL A   1      47.180  27.705  26.045  1.00  0.00     0.064 A 
ATOM     75  C   UNL A   1      48.307  27.250  26.742  1.00  0.00     0.173 A 
ATOM     76  C   UNL A   1      47.254  27.740  24.644  1.00  0.00     0.173 A 
ATOM     77  F   UNL A   1      48.304  27.233  28.084  1.00  0.00    -0.203 F 
ATOM     78  C   UNL A   1      49.461  26.853  26.066  1.00  0.00     0.198 A 
ATOM     79  C   UNL A   1      48.392  27.309  23.968  1.00  0.00     0.198 A 
ATOM     80  F   UNL A   1      46.210  28.183  23.926  1.00  0.00    -0.203 F 
ATOM     81  F   UNL A   1      50.542  26.470  26.759  1.00  0.00    -0.200 F 
ATOM     82  C   UNL A   1      49.498  26.873  24.680  1.00  0.00     0.200 A 
ATOM     83  F   UNL A   1      48.417  27.319  22.629  1.00  0.00    -0.200 F 
ATOM     84  F   UNL A   1      50.604  26.484  24.031  1.00  0.00    -0.200 F 
ENDBRANCH  50  74
BRANCH  62  85
ATOM     85  C   UNL A   1      45.184  33.818  28.705  1.00  0.00     0.064 A 
ATOM     86  C   UNL A   1      46.065  34.186  29.732  1.00  0.00     0.173 A 
ATOM     87  C   UNL A   1      44.948  34.741  27.676  1.00  0.00     0.173 A 
ATOM     88  F   UNL A   1      46.310  33.343  30.747  1.00  0.00    -0.203 F 
ATOM     89  C   UNL A   1      46.669  35.441  29.740  1.00  0.00     0.198 A 
ATOM     90  C   UNL A   1      45.572  35.986  27.675  1.00  0.00     0.198 A 
ATOM     91  F   UNL A   1      44.117  34.433  26.669  1.00  0.00    -0.203 F 
ATOM     92  F   UNL A   1      47.474  35.789  30.753  1.00  0.00    -0.200 F 
ATOM     93  C   UNL A   1      46.427  36.336  28.709  1.00  0.00     0.200 A 
ATOM     94  F   UNL A   1      45.344  36.846  26.673  1.00  0.00    -0.200 F 
ATOM     95  F   UNL A   1      47.011  37.542  28.716  1.00  0.00    -0.200 F 
ENDBRANCH  62  85
ENDBRANCH  36  37
ENDBRANCH  29  31
ENDBRANCH  28  29
ENDBRANCH  27  28
ENDBRANCH   1  27
TORSDOF 14
ENDMDL
MODEL 3
REMARK VINA RESULT:     -12.4      1.203      2.702
REMARK SMILES Cc1nn(C)c(C)c1[C@H](C)N1C(=O)CC[C@@H](C(=O)OCCOC(=O)c2ccc(-c3c4nc(c(-c5c(F)c(F)c(F)c(F)c5F)c5ccc([nH]5)c(-c5c(F)c(F)c(F)c(F)c5F)c5nc(c(-c6c(F)c(F)c(F)c(F)c6F)c6ccc3[nH]6)C=C5)C=C4)cc2)[C@@H]1c1ccco1
REMARK SMILES IDX 20 1 19 2 17 3 18 4 16 5 11 6 12 7 88 8 13 9 14 10 15 11
REMARK SMILES IDX 9 12 10 13 8 14 1 15 2 16 3 17 4 18 6 19 5 20 7 21 89 22
REMARK SMILES IDX 90 23 93 24 91 25 92 26 21 27 22 28 23 29 24 30 25 31 26 32
REMARK SMILES IDX 87 33 27 34 86 35 28 36 29 37 30 38 80 39 31 40 85 41 79 42
REMARK SMILES IDX 81 43 32 44 84 45 78 46 77 47 33 49 65 50 45 51 64 52 46 53
REMARK SMILES IDX 49 54 63 55 82 56 47 57 48 58 62 60 83 61 50 62 34 63 35 64
REMARK SMILES IDX 43 65 36 66 37 67 41 68 44 69 38 70 39 71 42 72 40 73 66 74
REMARK SMILES IDX 67 75 75 76 68 77 69 78 73 79 76 80 70 81 71 82 74 83 72 84
REMARK SMILES IDX 51 85 52 86 60 87 53 88 54 89 58 90 61 91 55 92 56 93 59 94
REMARK SMILES IDX 57 95
REMARK H PARENT 81 48 49 59
REMARK Flexibility Score: inf
ROOT
ATOM      1  C   UNL A   1      32.064  28.167  25.877  1.00  0.00     0.274 C 
ENDROOT
BRANCH   1   2
ATOM      2  O   UNL A   1      32.990  27.168  26.366  1.00  0.00    -0.462 OA
BRANCH   2   3
ATOM      3  C   UNL A   1      33.715  26.529  25.404  1.00  0.00     0.311 C 
ATOM      4  O   UNL A   1      33.963  27.014  24.311  1.00  0.00    -0.252 OA
BRANCH   3   5
ATOM      5  C   UNL A   1      34.106  25.123  25.829  1.00  0.00     0.130 C 
ATOM      6  N   UNL A   1      33.054  23.918  23.889  1.00  0.00    -0.325 N 
ATOM      7  C   UNL A   1      34.273  23.735  23.249  1.00  0.00     0.223 C 
ATOM      8  C   UNL A   1      33.056  24.108  25.351  1.00  0.00     0.166 C 
ATOM      9  O   UNL A   1      34.390  23.289  22.107  1.00  0.00    -0.275 OA
ATOM     10  C   UNL A   1      35.547  24.207  23.941  1.00  0.00     0.101 C 
ATOM     11  C   UNL A   1      35.493  24.722  25.367  1.00  0.00     0.028 C 
BRANCH   6  12
ATOM     12  C   UNL A   1      31.763  23.962  23.114  1.00  0.00     0.117 C 
ATOM     13  C   UNL A   1      30.632  23.059  23.633  1.00  0.00     0.036 C 
BRANCH  12  14
ATOM     14  C   UNL A   1      31.269  25.379  22.832  1.00  0.00     0.018 A 
ATOM     15  C   UNL A   1      32.669  26.217  20.727  1.00  0.00     0.069 C 
ATOM     16  C   UNL A   1      31.631  26.294  21.788  1.00  0.00     0.065 A 
ATOM     17  N   UNL A   1      30.910  27.420  21.841  1.00  0.00    -0.178 NA
ATOM     18  N   UNL A   1      30.108  27.258  22.895  1.00  0.00    -0.272 N 
ATOM     19  C   UNL A   1      30.379  26.126  23.612  1.00  0.00     0.040 A 
ATOM     20  C   UNL A   1      29.075  28.241  23.131  1.00  0.00     0.174 C 
ATOM     21  C   UNL A   1      29.726  25.847  24.918  1.00  0.00     0.067 C 
ENDBRANCH  12  14
ENDBRANCH   6  12
BRANCH   8  22
ATOM     22  C   UNL A   1      33.228  22.763  26.018  1.00  0.00     0.127 A 
ATOM     23  C   UNL A   1      33.050  21.464  25.585  1.00  0.00     0.048 A 
ATOM     24  O   UNL A   1      33.654  22.751  27.318  1.00  0.00    -0.467 OA
ATOM     25  C   UNL A   1      33.393  20.624  26.674  1.00  0.00     0.042 A 
ATOM     26  C   UNL A   1      33.763  21.458  27.701  1.00  0.00     0.195 A 
ENDBRANCH   8  22
ENDBRANCH   3   5
ENDBRANCH   2   3
ENDBRANCH   1   2
BRANCH   1  27
ATOM     27  C   UNL A   1      32.066  29.422  26.750  1.00  0.00     0.275 C 
BRANCH  27  28
ATOM     28  O   UNL A   1      33.051  30.350  26.266  1.00  0.00    -0.458 OA
BRANCH  28  29
ATOM     29  C   UNL A   1      33.458  31.298  27.138  1.00  0.00     0.338 C 
ATOM     30  O   UNL A   1      32.822  32.275  27.513  1.00  0.00    -0.246 OA
BRANCH  29  31
ATOM     31  C   UNL A   1      34.812  30.985  27.638  1.00  0.00     0.060 A 
ATOM     32  C   UNL A   1      35.168  29.668  27.902  1.00  0.00     0.016 A 
ATOM     33  C   UNL A   1      35.693  32.016  27.981  1.00  0.00     0.016 A 
ATOM     34  C   UNL A   1      36.340  29.392  28.598  1.00  0.00     0.010 A 
ATOM     35  C   UNL A   1      36.915  31.718  28.607  1.00  0.00     0.010 A 
ATOM     36  C   UNL A   1      37.234  30.400  28.969  1.00  0.00    -0.014 A 
BRANCH  36  37
ATOM     37  C   UNL A   1      38.422  30.064  29.814  1.00  0.00     0.031 A 
ATOM     38  C   UNL A   1      39.549  29.243  29.239  1.00  0.00     0.074 A 
ATOM     39  C   UNL A   1      38.565  30.566  31.058  1.00  0.00     0.049 A 
ATOM     40  N   UNL A   1      40.558  28.670  29.849  1.00  0.00    -0.248 NA
ATOM     41  C   UNL A   1      39.539  29.033  27.783  1.00  0.00     0.031 C 
ATOM     42  C   UNL A   1      37.634  31.481  31.720  1.00  0.00     0.029 A 
ATOM     43  N   UNL A   1      39.575  30.408  31.980  1.00  0.00    -0.354 N 
ATOM     44  C   UNL A   1      41.254  27.977  28.867  1.00  0.00     0.074 A 
ATOM     45  C   UNL A   1      40.568  28.214  27.616  1.00  0.00     0.031 C 
ATOM     46  C   UNL A   1      38.150  31.863  32.897  1.00  0.00     0.029 A 
ATOM     47  C   UNL A   1      39.381  31.120  33.139  1.00  0.00     0.049 A 
ATOM     48  H   UNL A   1      40.361  29.837  31.823  1.00  0.00     0.167 HD
ATOM     49  C   UNL A   1      42.359  27.206  29.003  1.00  0.00     0.037 A 
ATOM     50  C   UNL A   1      40.080  31.135  34.292  1.00  0.00     0.037 A 
ATOM     51  C   UNL A   1      43.089  27.037  30.234  1.00  0.00     0.049 A 
ATOM     52  C   UNL A   1      41.264  30.220  34.442  1.00  0.00     0.074 A 
ATOM     53  C   UNL A   1      44.192  26.238  30.485  1.00  0.00     0.029 A 
ATOM     54  N   UNL A   1      42.806  27.709  31.413  1.00  0.00    -0.354 N 
ATOM     55  N   UNL A   1      41.825  29.437  33.554  1.00  0.00    -0.248 NA
ATOM     56  C   UNL A   1      41.884  30.156  35.773  1.00  0.00     0.031 C 
ATOM     57  C   UNL A   1      44.557  26.404  31.826  1.00  0.00     0.029 A 
ATOM     58  C   UNL A   1      43.707  27.335  32.398  1.00  0.00     0.049 A 
ATOM     59  H   UNL A   1      42.074  28.355  31.534  1.00  0.00     0.167 HD
ATOM     60  C   UNL A   1      42.857  28.789  34.215  1.00  0.00     0.074 A 
ATOM     61  C   UNL A   1      42.868  29.292  35.572  1.00  0.00     0.031 C 
ATOM     62  C   UNL A   1      43.709  27.847  33.743  1.00  0.00     0.037 A 
BRANCH  49  63
ATOM     63  C   UNL A   1      42.815  26.427  27.806  1.00  0.00     0.064 A 
ATOM     64  C   UNL A   1      42.293  25.166  27.486  1.00  0.00     0.173 A 
ATOM     65  C   UNL A   1      43.771  26.982  26.939  1.00  0.00     0.173 A 
ATOM     66  F   UNL A   1      41.390  24.586  28.290  1.00  0.00    -0.203 F 
ATOM     67  C   UNL A   1      42.725  24.481  26.352  1.00  0.00     0.198 A 
ATOM     68  C   UNL A   1      44.180  26.306  25.794  1.00  0.00     0.198 A 
ATOM     69  F   UNL A   1      44.297  28.189  27.197  1.00  0.00    -0.203 F 
ATOM     70  F   UNL A   1      42.240  23.260  26.084  1.00  0.00    -0.200 F 
ATOM     71  C   UNL A   1      43.662  25.053  25.504  1.00  0.00     0.200 A 
ATOM     72  F   UNL A   1      45.077  26.867  24.970  1.00  0.00    -0.200 F 
ATOM     73  F   UNL A   1      44.068  24.396  24.410  1.00  0.00    -0.200 F 
ENDBRANCH  49  63
BRANCH  50  74
ATOM     74  C   UNL A   1      39.625  31.980  35.429  1.00  0.00     0.064 A 
ATOM     75  C   UNL A   1      40.171  33.252  35.652  1.00  0.00     0.173 A 
ATOM     76  C   UNL A   1      38.647  31.527  36.328  1.00  0.00     0.173 A 
ATOM     77  F   UNL A   1      41.137  33.718  34.845  1.00  0.00    -0.203 F 
ATOM     78  C   UNL A   1      39.762  34.032  36.733  1.00  0.00     0.198 A 
ATOM     79  C   UNL A   1      38.213  32.321  37.385  1.00  0.00     0.198 A 
ATOM     80  F   UNL A   1      38.103  30.311  36.172  1.00  0.00    -0.203 F 
ATOM     81  F   UNL A   1      40.337  35.223  36.953  1.00  0.00    -0.200 F 
ATOM     82  C   UNL A   1      38.775  33.571  37.591  1.00  0.00     0.200 A 
ATOM     83  F   UNL A   1      37.251  31.875  38.204  1.00  0.00    -0.200 F 
ATOM     84  F   UNL A   1      38.377  34.324  38.625  1.00  0.00    -0.200 F 
ENDBRANCH  50  74
BRANCH  62  85
ATOM     85  C   UNL A   1      44.735  27.314  34.697  1.00  0.00     0.064 A 
ATOM     86  C   UNL A   1      44.492  26.163  35.461  1.00  0.00     0.173 A 
ATOM     87  C   UNL A   1      45.983  27.940  34.826  1.00  0.00     0.173 A 
ATOM     88  F   UNL A   1      43.308  25.538  35.384  1.00  0.00    -0.203 F 
ATOM     89  C   UNL A   1      45.456  25.671  36.337  1.00  0.00     0.198 A 
ATOM     90  C   UNL A   1      46.953  27.432  35.686  1.00  0.00     0.198 A 
ATOM     91  F   UNL A   1      46.263  29.042  34.113  1.00  0.00    -0.203 F 
ATOM     92  F   UNL A   1      45.189  24.594  37.089  1.00  0.00    -0.200 F 
ATOM     93  C   UNL A   1      46.687  26.302  36.444  1.00  0.00     0.200 A 
ATOM     94  F   UNL A   1      48.144  28.037  35.781  1.00  0.00    -0.200 F 
ATOM     95  F   UNL A   1      47.614  25.825  37.285  1.00  0.00    -0.200 F 
ENDBRANCH  62  85
ENDBRANCH  36  37
ENDBRANCH  29  31
ENDBRANCH  28  29
ENDBRANCH  27  28
ENDBRANCH   1  27
TORSDOF 14
ENDMDL
