MODEL 1
REMARK VINA RESULT:     -13.8      0.000      0.000
REMARK SMILES C[C@H](C(=O)OCCOC(=O)c1ccc(-c2c3nc(c(-c4c(F)c(F)c(F)c(F)c4F)c4ccc([nH]4)c(-c4c(F)c(F)c(F)c(F)c4F)c4nc(c(-c5c(F)c(F)c(F)c(F)c5F)c5ccc2[nH]5)C=C4)C=C3)cc1)c1ccc2c3cc(Cl)ccc3n(C(=O)c3ccc(Cl)cc3)c2c1
REMARK SMILES IDX 6 1 5 2 3 3 4 4 2 5 1 6 74 7 75 8 96 9 76 10 95 11 77 12
REMARK SMILES IDX 85 13 78 14 84 15 79 16 83 17 80 18 82 19 81 20 86 21 87 22
REMARK SMILES IDX 88 23 89 24 94 25 90 26 93 27 91 28 92 29 7 30 8 31 9 32
REMARK SMILES IDX 10 33 11 34 12 35 73 36 13 37 72 38 14 39 15 40 16 41 66 42
REMARK SMILES IDX 17 43 71 44 65 45 67 46 18 47 70 48 64 49 63 50 19 52 51 53
REMARK SMILES IDX 31 54 50 55 32 56 35 57 49 58 68 59 33 60 34 61 48 63 69 64
REMARK SMILES IDX 36 65 20 66 21 67 29 68 22 69 23 70 27 71 30 72 24 73 25 74
REMARK SMILES IDX 28 75 26 76 52 77 53 78 61 79 54 80 55 81 59 82 62 83 56 84
REMARK SMILES IDX 57 85 60 86 58 87 37 88 38 89 46 90 39 91 40 92 44 93 47 94
REMARK SMILES IDX 41 95 42 96 45 97 43 98
REMARK H PARENT 67 51 35 62
REMARK Flexibility Score: inf
ROOT
ATOM      1  C   UNL A   1      31.422  29.741  24.450  1.00  0.00     0.274 C 
ENDROOT
BRANCH   1   2
ATOM      2  O   UNL A   1      30.386  28.762  24.230  1.00  0.00    -0.462 OA
BRANCH   2   3
ATOM      3  C   UNL A   1      30.749  27.642  23.539  1.00  0.00     0.313 C 
ATOM      4  O   UNL A   1      31.038  27.625  22.348  1.00  0.00    -0.252 OA
BRANCH   3   5
ATOM      5  C   UNL A   1      30.683  26.395  24.415  1.00  0.00     0.126 C 
ATOM      6  C   UNL A   1      29.690  25.367  23.862  1.00  0.00     0.025 C 
BRANCH   5   7
ATOM      7  C   UNL A   1      32.039  25.761  24.696  1.00  0.00    -0.032 A 
ATOM      8  C   UNL A   1      33.142  26.477  25.165  1.00  0.00     0.005 A 
ATOM      9  C   UNL A   1      32.184  24.390  24.458  1.00  0.00     0.032 A 
ATOM     10  C   UNL A   1      34.364  25.846  25.442  1.00  0.00     0.011 A 
ATOM     11  C   UNL A   1      33.434  23.774  24.656  1.00  0.00     0.057 A 
ATOM     12  C   UNL A   1      34.512  24.470  25.187  1.00  0.00     0.008 A 
ATOM     13  N   UNL A   1      33.833  22.459  24.405  1.00  0.00    -0.276 N 
ATOM     14  C   UNL A   1      35.584  23.544  25.330  1.00  0.00     0.009 A 
ATOM     15  C   UNL A   1      35.167  22.314  24.803  1.00  0.00     0.057 A 
ATOM     16  C   UNL A   1      36.900  23.679  25.827  1.00  0.00     0.031 A 
ATOM     17  C   UNL A   1      36.075  21.244  24.677  1.00  0.00     0.029 A 
ATOM     18  C   UNL A   1      37.775  22.598  25.753  1.00  0.00     0.041 A 
ATOM     19  C   UNL A   1      37.376  21.401  25.174  1.00  0.00     0.023 A 
ATOM     20  Cl  UNL A   1      39.380  22.763  26.354  1.00  0.00    -0.084 Cl
BRANCH  13  21
ATOM     21  C   UNL A   1      32.985  21.523  23.764  1.00  0.00     0.262 C 
ATOM     22  O   UNL A   1      32.284  21.974  22.856  1.00  0.00    -0.268 OA
BRANCH  21  23
ATOM     23  C   UNL A   1      32.784  20.086  24.093  1.00  0.00     0.040 A 
ATOM     24  C   UNL A   1      32.914  19.721  25.447  1.00  0.00     0.015 A 
ATOM     25  C   UNL A   1      32.605  19.082  23.138  1.00  0.00     0.015 A 
ATOM     26  C   UNL A   1      32.833  18.386  25.845  1.00  0.00     0.021 A 
ATOM     27  C   UNL A   1      32.490  17.744  23.543  1.00  0.00     0.021 A 
ATOM     28  C   UNL A   1      32.607  17.403  24.891  1.00  0.00     0.041 A 
ATOM     29  Cl  UNL A   1      32.496  15.758  25.375  1.00  0.00    -0.084 Cl
ENDBRANCH  21  23
ENDBRANCH  13  21
ENDBRANCH   5   7
ENDBRANCH   3   5
ENDBRANCH   2   3
ENDBRANCH   1   2
BRANCH   1  30
ATOM     30  C   UNL A   1      31.773  29.802  25.934  1.00  0.00     0.275 C 
BRANCH  30  31
ATOM     31  O   UNL A   1      33.151  30.187  26.064  1.00  0.00    -0.458 OA
BRANCH  31  32
ATOM     32  C   UNL A   1      33.413  31.147  26.975  1.00  0.00     0.338 C 
ATOM     33  O   UNL A   1      32.713  32.114  27.251  1.00  0.00    -0.246 OA
BRANCH  32  34
ATOM     34  C   UNL A   1      34.707  30.868  27.631  1.00  0.00     0.060 A 
ATOM     35  C   UNL A   1      35.072  29.565  27.975  1.00  0.00     0.016 A 
ATOM     36  C   UNL A   1      35.534  31.931  27.993  1.00  0.00     0.016 A 
ATOM     37  C   UNL A   1      36.201  29.328  28.756  1.00  0.00     0.010 A 
ATOM     38  C   UNL A   1      36.724  31.682  28.682  1.00  0.00     0.010 A 
ATOM     39  C   UNL A   1      37.056  30.381  29.100  1.00  0.00    -0.014 A 
BRANCH  39  40
ATOM     40  C   UNL A   1      38.281  30.140  29.909  1.00  0.00     0.031 A 
ATOM     41  C   UNL A   1      39.394  29.292  29.355  1.00  0.00     0.074 A 
ATOM     42  C   UNL A   1      38.398  30.661  31.147  1.00  0.00     0.049 A 
ATOM     43  N   UNL A   1      40.422  28.763  29.970  1.00  0.00    -0.248 NA
ATOM     44  C   UNL A   1      39.332  28.983  27.917  1.00  0.00     0.031 C 
ATOM     45  C   UNL A   1      37.425  31.541  31.795  1.00  0.00     0.029 A 
ATOM     46  N   UNL A   1      39.390  30.516  32.087  1.00  0.00    -0.354 N 
ATOM     47  C   UNL A   1      41.091  28.012  29.013  1.00  0.00     0.074 A 
ATOM     48  C   UNL A   1      40.357  28.155  27.774  1.00  0.00     0.031 C 
ATOM     49  C   UNL A   1      37.875  31.876  33.013  1.00  0.00     0.029 A 
ATOM     50  C   UNL A   1      39.123  31.164  33.268  1.00  0.00     0.049 A 
ATOM     51  H   UNL A   1      40.211  29.997  31.930  1.00  0.00     0.167 HD
ATOM     52  C   UNL A   1      42.213  27.266  29.160  1.00  0.00     0.037 A 
ATOM     53  C   UNL A   1      39.778  31.149  34.444  1.00  0.00     0.037 A 
ATOM     54  C   UNL A   1      42.970  27.173  30.380  1.00  0.00     0.049 A 
ATOM     55  C   UNL A   1      41.009  30.301  34.589  1.00  0.00     0.074 A 
ATOM     56  C   UNL A   1      44.125  26.450  30.628  1.00  0.00     0.029 A 
ATOM     57  N   UNL A   1      42.659  27.842  31.554  1.00  0.00    -0.354 N 
ATOM     58  N   UNL A   1      41.594  29.535  33.701  1.00  0.00    -0.248 NA
ATOM     59  C   UNL A   1      41.658  30.298  35.907  1.00  0.00     0.031 C 
ATOM     60  C   UNL A   1      44.497  26.662  31.959  1.00  0.00     0.029 A 
ATOM     61  C   UNL A   1      43.596  27.546  32.530  1.00  0.00     0.049 A 
ATOM     62  H   UNL A   1      41.886  28.440  31.676  1.00  0.00     0.167 HD
ATOM     63  C   UNL A   1      42.681  28.966  34.347  1.00  0.00     0.074 A 
ATOM     64  C   UNL A   1      42.688  29.489  35.697  1.00  0.00     0.031 C 
ATOM     65  C   UNL A   1      43.588  28.080  33.866  1.00  0.00     0.037 A 
BRANCH  52  66
ATOM     66  C   UNL A   1      42.675  26.466  27.979  1.00  0.00     0.064 A 
ATOM     67  C   UNL A   1      43.526  27.004  27.005  1.00  0.00     0.173 A 
ATOM     68  C   UNL A   1      42.286  25.124  27.843  1.00  0.00     0.173 A 
ATOM     69  F   UNL A   1      43.913  28.287  27.080  1.00  0.00    -0.203 F 
ATOM     70  C   UNL A   1      43.957  26.235  25.927  1.00  0.00     0.198 A 
ATOM     71  C   UNL A   1      42.737  24.350  26.778  1.00  0.00     0.198 A 
ATOM     72  F   UNL A   1      41.474  24.560  28.750  1.00  0.00    -0.203 F 
ATOM     73  F   UNL A   1      44.739  26.781  24.986  1.00  0.00    -0.200 F 
ATOM     74  C   UNL A   1      43.568  24.908  25.818  1.00  0.00     0.200 A 
ATOM     75  F   UNL A   1      42.370  23.065  26.680  1.00  0.00    -0.200 F 
ATOM     76  F   UNL A   1      43.990  24.166  24.784  1.00  0.00    -0.200 F 
ENDBRANCH  52  66
BRANCH  53  77
ATOM     77  C   UNL A   1      39.250  31.931  35.591  1.00  0.00     0.064 A 
ATOM     78  C   UNL A   1      38.379  31.348  36.520  1.00  0.00     0.173 A 
ATOM     79  C   UNL A   1      39.617  33.271  35.790  1.00  0.00     0.173 A 
ATOM     80  F   UNL A   1      37.979  30.078  36.357  1.00  0.00    -0.203 F 
ATOM     81  C   UNL A   1      37.888  32.078  37.600  1.00  0.00     0.198 A 
ATOM     82  C   UNL A   1      39.148  33.991  36.885  1.00  0.00     0.198 A 
ATOM     83  F   UNL A   1      40.449  33.875  34.927  1.00  0.00    -0.203 F 
ATOM     84  F   UNL A   1      37.026  31.509  38.455  1.00  0.00    -0.200 F 
ATOM     85  C   UNL A   1      38.279  33.396  37.786  1.00  0.00     0.200 A 
ATOM     86  F   UNL A   1      39.539  35.259  37.069  1.00  0.00    -0.200 F 
ATOM     87  F   UNL A   1      37.814  34.094  38.831  1.00  0.00    -0.200 F 
ENDBRANCH  53  77
BRANCH  65  88
ATOM     88  C   UNL A   1      44.675  27.645  34.801  1.00  0.00     0.064 A 
ATOM     89  C   UNL A   1      45.866  28.376  34.929  1.00  0.00     0.173 A 
ATOM     90  C   UNL A   1      44.513  26.503  35.597  1.00  0.00     0.173 A 
ATOM     91  F   UNL A   1      46.072  29.466  34.174  1.00  0.00    -0.203 F 
ATOM     92  C   UNL A   1      46.864  27.965  35.808  1.00  0.00     0.198 A 
ATOM     93  C   UNL A   1      45.504  26.108  36.491  1.00  0.00     0.198 A 
ATOM     94  F   UNL A   1      43.390  25.773  35.512  1.00  0.00    -0.203 F 
ATOM     95  F   UNL A   1      48.010  28.655  35.886  1.00  0.00    -0.200 F 
ATOM     96  C   UNL A   1      46.680  26.836  36.592  1.00  0.00     0.200 A 
ATOM     97  F   UNL A   1      45.321  25.020  37.253  1.00  0.00    -0.200 F 
ATOM     98  F   UNL A   1      47.640  26.443  37.439  1.00  0.00    -0.200 F 
ENDBRANCH  65  88
ENDBRANCH  39  40
ENDBRANCH  32  34
ENDBRANCH  31  32
ENDBRANCH  30  31
ENDBRANCH   1  30
TORSDOF 14
ENDMDL
MODEL 2
REMARK VINA RESULT:     -13.7      4.504     10.023
REMARK SMILES C[C@H](C(=O)OCCOC(=O)c1ccc(-c2c3nc(c(-c4c(F)c(F)c(F)c(F)c4F)c4ccc([nH]4)c(-c4c(F)c(F)c(F)c(F)c4F)c4nc(c(-c5c(F)c(F)c(F)c(F)c5F)c5ccc2[nH]5)C=C4)C=C3)cc1)c1ccc2c3cc(Cl)ccc3n(C(=O)c3ccc(Cl)cc3)c2c1
REMARK SMILES IDX 6 1 5 2 3 3 4 4 2 5 1 6 74 7 75 8 96 9 76 10 95 11 77 12
REMARK SMILES IDX 85 13 78 14 84 15 79 16 83 17 80 18 82 19 81 20 86 21 87 22
REMARK SMILES IDX 88 23 89 24 94 25 90 26 93 27 91 28 92 29 7 30 8 31 9 32
REMARK SMILES IDX 10 33 11 34 12 35 73 36 13 37 72 38 14 39 15 40 16 41 66 42
REMARK SMILES IDX 17 43 71 44 65 45 67 46 18 47 70 48 64 49 63 50 19 52 51 53
REMARK SMILES IDX 31 54 50 55 32 56 35 57 49 58 68 59 33 60 34 61 48 63 69 64
REMARK SMILES IDX 36 65 20 66 21 67 29 68 22 69 23 70 27 71 30 72 24 73 25 74
REMARK SMILES IDX 28 75 26 76 52 77 53 78 61 79 54 80 55 81 59 82 62 83 56 84
REMARK SMILES IDX 57 85 60 86 58 87 37 88 38 89 46 90 39 91 40 92 44 93 47 94
REMARK SMILES IDX 41 95 42 96 45 97 43 98
REMARK H PARENT 67 51 35 62
REMARK Flexibility Score: inf
ROOT
ATOM      1  C   UNL A   1      35.328  20.904  25.435  1.00  0.00     0.274 C 
ENDROOT
BRANCH   1   2
ATOM      2  O   UNL A   1      34.660  21.228  24.198  1.00  0.00    -0.462 OA
BRANCH   2   3
ATOM      3  C   UNL A   1      33.324  21.491  24.284  1.00  0.00     0.313 C 
ATOM      4  O   UNL A   1      32.522  20.813  24.914  1.00  0.00    -0.252 OA
BRANCH   3   5
ATOM      5  C   UNL A   1      32.933  22.699  23.437  1.00  0.00     0.126 C 
ATOM      6  C   UNL A   1      31.496  22.586  22.920  1.00  0.00     0.025 C 
BRANCH   5   7
ATOM      7  C   UNL A   1      33.174  24.040  24.118  1.00  0.00    -0.032 A 
ATOM      8  C   UNL A   1      34.299  24.316  24.898  1.00  0.00     0.005 A 
ATOM      9  C   UNL A   1      32.207  25.038  23.962  1.00  0.00     0.032 A 
ATOM     10  C   UNL A   1      34.497  25.577  25.481  1.00  0.00     0.011 A 
ATOM     11  C   UNL A   1      32.366  26.274  24.616  1.00  0.00     0.057 A 
ATOM     12  C   UNL A   1      33.514  26.575  25.334  1.00  0.00     0.008 A 
ATOM     13  N   UNL A   1      31.503  27.372  24.676  1.00  0.00    -0.276 N 
ATOM     14  C   UNL A   1      33.388  27.916  25.794  1.00  0.00     0.009 A 
ATOM     15  C   UNL A   1      32.121  28.385  25.417  1.00  0.00     0.057 A 
ATOM     16  C   UNL A   1      34.244  28.751  26.547  1.00  0.00     0.031 A 
ATOM     17  C   UNL A   1      31.659  29.639  25.865  1.00  0.00     0.029 A 
ATOM     18  C   UNL A   1      33.802  30.014  26.936  1.00  0.00     0.041 A 
ATOM     19  C   UNL A   1      32.524  30.448  26.614  1.00  0.00     0.023 A 
ATOM     20  Cl  UNL A   1      34.843  31.029  27.858  1.00  0.00    -0.084 Cl
BRANCH  13  21
ATOM     21  C   UNL A   1      30.199  27.336  24.125  1.00  0.00     0.262 C 
ATOM     22  O   UNL A   1      29.539  26.326  24.380  1.00  0.00    -0.268 OA
BRANCH  21  23
ATOM     23  C   UNL A   1      29.552  28.329  23.224  1.00  0.00     0.040 A 
ATOM     24  C   UNL A   1      30.408  29.123  22.436  1.00  0.00     0.015 A 
ATOM     25  C   UNL A   1      28.181  28.597  23.211  1.00  0.00     0.015 A 
ATOM     26  C   UNL A   1      29.905  30.143  21.628  1.00  0.00     0.021 A 
ATOM     27  C   UNL A   1      27.673  29.600  22.373  1.00  0.00     0.021 A 
ATOM     28  C   UNL A   1      28.535  30.368  21.589  1.00  0.00     0.041 A 
ATOM     29  Cl  UNL A   1      27.907  31.615  20.587  1.00  0.00    -0.084 Cl
ENDBRANCH  21  23
ENDBRANCH  13  21
ENDBRANCH   5   7
ENDBRANCH   3   5
ENDBRANCH   2   3
ENDBRANCH   1   2
BRANCH   1  30
ATOM     30  C   UNL A   1      36.814  20.668  25.178  1.00  0.00     0.275 C 
BRANCH  30  31
ATOM     31  O   UNL A   1      37.557  21.756  25.750  1.00  0.00    -0.458 OA
BRANCH  31  32
ATOM     32  C   UNL A   1      38.829  21.483  26.103  1.00  0.00     0.338 C 
ATOM     33  O   UNL A   1      39.398  20.400  26.035  1.00  0.00    -0.246 OA
BRANCH  32  34
ATOM     34  C   UNL A   1      39.482  22.712  26.599  1.00  0.00     0.060 A 
ATOM     35  C   UNL A   1      39.047  23.973  26.185  1.00  0.00     0.016 A 
ATOM     36  C   UNL A   1      40.603  22.607  27.421  1.00  0.00     0.016 A 
ATOM     37  C   UNL A   1      39.778  25.115  26.505  1.00  0.00     0.010 A 
ATOM     38  C   UNL A   1      41.273  23.764  27.832  1.00  0.00     0.010 A 
ATOM     39  C   UNL A   1      40.887  25.029  27.354  1.00  0.00    -0.014 A 
BRANCH  39  40
ATOM     40  C   UNL A   1      41.661  26.243  27.730  1.00  0.00     0.031 A 
ATOM     41  C   UNL A   1      41.032  27.295  28.602  1.00  0.00     0.074 A 
ATOM     42  C   UNL A   1      42.919  26.419  27.280  1.00  0.00     0.049 A 
ATOM     43  N   UNL A   1      41.429  28.519  28.845  1.00  0.00    -0.248 NA
ATOM     44  C   UNL A   1      39.778  26.927  29.277  1.00  0.00     0.031 C 
ATOM     45  C   UNL A   1      43.675  25.464  26.469  1.00  0.00     0.029 A 
ATOM     46  N   UNL A   1      43.784  27.476  27.437  1.00  0.00    -0.354 N 
ATOM     47  C   UNL A   1      40.446  29.084  29.648  1.00  0.00     0.074 A 
ATOM     48  C   UNL A   1      39.436  28.070  29.855  1.00  0.00     0.031 C 
ATOM     49  C   UNL A   1      44.894  25.964  26.219  1.00  0.00     0.029 A 
ATOM     50  C   UNL A   1      44.975  27.311  26.773  1.00  0.00     0.049 A 
ATOM     51  H   UNL A   1      43.570  28.274  27.971  1.00  0.00     0.167 HD
ATOM     52  C   UNL A   1      40.393  30.338  30.159  1.00  0.00     0.037 A 
ATOM     53  C   UNL A   1      46.000  28.164  26.585  1.00  0.00     0.037 A 
ATOM     54  C   UNL A   1      41.429  31.324  29.997  1.00  0.00     0.049 A 
ATOM     55  C   UNL A   1      45.911  29.554  27.146  1.00  0.00     0.074 A 
ATOM     56  C   UNL A   1      41.472  32.621  30.481  1.00  0.00     0.029 A 
ATOM     57  N   UNL A   1      42.616  31.115  29.311  1.00  0.00    -0.354 N 
ATOM     58  N   UNL A   1      44.946  30.105  27.841  1.00  0.00    -0.248 NA
ATOM     59  C   UNL A   1      47.044  30.450  26.876  1.00  0.00     0.031 C 
ATOM     60  C   UNL A   1      42.674  33.203  30.068  1.00  0.00     0.029 A 
ATOM     61  C   UNL A   1      43.396  32.259  29.356  1.00  0.00     0.049 A 
ATOM     62  H   UNL A   1      42.867  30.277  28.859  1.00  0.00     0.167 HD
ATOM     63  C   UNL A   1      45.355  31.405  28.098  1.00  0.00     0.074 A 
ATOM     64  C   UNL A   1      46.667  31.557  27.502  1.00  0.00     0.031 C 
ATOM     65  C   UNL A   1      44.700  32.388  28.761  1.00  0.00     0.037 A 
BRANCH  52  66
ATOM     66  C   UNL A   1      39.160  30.727  30.918  1.00  0.00     0.064 A 
ATOM     67  C   UNL A   1      39.024  30.477  32.290  1.00  0.00     0.173 A 
ATOM     68  C   UNL A   1      38.113  31.396  30.264  1.00  0.00     0.173 A 
ATOM     69  F   UNL A   1      39.989  29.826  32.957  1.00  0.00    -0.203 F 
ATOM     70  C   UNL A   1      37.876  30.865  32.977  1.00  0.00     0.198 A 
ATOM     71  C   UNL A   1      36.978  31.804  30.958  1.00  0.00     0.198 A 
ATOM     72  F   UNL A   1      38.196  31.662  28.952  1.00  0.00    -0.203 F 
ATOM     73  F   UNL A   1      37.749  30.582  34.281  1.00  0.00    -0.200 F 
ATOM     74  C   UNL A   1      36.858  31.534  32.313  1.00  0.00     0.200 A 
ATOM     75  F   UNL A   1      36.000  32.460  30.317  1.00  0.00    -0.200 F 
ATOM     76  F   UNL A   1      35.758  31.913  32.978  1.00  0.00    -0.200 F 
ENDBRANCH  52  66
BRANCH  53  77
ATOM     77  C   UNL A   1      47.179  27.735  25.790  1.00  0.00     0.064 A 
ATOM     78  C   UNL A   1      47.164  27.794  24.391  1.00  0.00     0.173 A 
ATOM     79  C   UNL A   1      48.348  27.272  26.413  1.00  0.00     0.173 A 
ATOM     80  F   UNL A   1      46.059  28.205  23.750  1.00  0.00    -0.203 F 
ATOM     81  C   UNL A   1      48.270  27.398  23.644  1.00  0.00     0.198 A 
ATOM     82  C   UNL A   1      49.464  26.903  25.666  1.00  0.00     0.198 A 
ATOM     83  F   UNL A   1      48.412  27.197  27.751  1.00  0.00    -0.203 F 
ATOM     84  F   UNL A   1      48.218  27.429  22.304  1.00  0.00    -0.200 F 
ATOM     85  C   UNL A   1      49.422  26.962  24.282  1.00  0.00     0.200 A 
ATOM     86  F   UNL A   1      50.579  26.496  26.287  1.00  0.00    -0.200 F 
ATOM     87  F   UNL A   1      50.490  26.591  23.562  1.00  0.00    -0.200 F 
ENDBRANCH  53  77
BRANCH  65  88
ATOM     88  C   UNL A   1      45.404  33.704  28.896  1.00  0.00     0.064 A 
ATOM     89  C   UNL A   1      45.235  34.725  27.949  1.00  0.00     0.173 A 
ATOM     90  C   UNL A   1      46.232  33.956  29.999  1.00  0.00     0.173 A 
ATOM     91  F   UNL A   1      44.466  34.522  26.869  1.00  0.00    -0.203 F 
ATOM     92  C   UNL A   1      45.888  35.946  28.093  1.00  0.00     0.198 A 
ATOM     93  C   UNL A   1      46.865  35.187  30.151  1.00  0.00     0.198 A 
ATOM     94  F   UNL A   1      46.422  33.011  30.932  1.00  0.00    -0.203 F 
ATOM     95  F   UNL A   1      45.744  36.893  27.156  1.00  0.00    -0.200 F 
ATOM     96  C   UNL A   1      46.697  36.178  29.195  1.00  0.00     0.200 A 
ATOM     97  F   UNL A   1      47.642  35.411  31.220  1.00  0.00    -0.200 F 
ATOM     98  F   UNL A   1      47.323  37.354  29.333  1.00  0.00    -0.200 F 
ENDBRANCH  65  88
ENDBRANCH  39  40
ENDBRANCH  32  34
ENDBRANCH  31  32
ENDBRANCH  30  31
ENDBRANCH   1  30
TORSDOF 14
ENDMDL
MODEL 3
REMARK VINA RESULT:     -13.4      1.022      2.825
REMARK SMILES C[C@H](C(=O)OCCOC(=O)c1ccc(-c2c3nc(c(-c4c(F)c(F)c(F)c(F)c4F)c4ccc([nH]4)c(-c4c(F)c(F)c(F)c(F)c4F)c4nc(c(-c5c(F)c(F)c(F)c(F)c5F)c5ccc2[nH]5)C=C4)C=C3)cc1)c1ccc2c3cc(Cl)ccc3n(C(=O)c3ccc(Cl)cc3)c2c1
REMARK SMILES IDX 6 1 5 2 3 3 4 4 2 5 1 6 74 7 75 8 96 9 76 10 95 11 77 12
REMARK SMILES IDX 85 13 78 14 84 15 79 16 83 17 80 18 82 19 81 20 86 21 87 22
REMARK SMILES IDX 88 23 89 24 94 25 90 26 93 27 91 28 92 29 7 30 8 31 9 32
REMARK SMILES IDX 10 33 11 34 12 35 73 36 13 37 72 38 14 39 15 40 16 41 66 42
REMARK SMILES IDX 17 43 71 44 65 45 67 46 18 47 70 48 64 49 63 50 19 52 51 53
REMARK SMILES IDX 31 54 50 55 32 56 35 57 49 58 68 59 33 60 34 61 48 63 69 64
REMARK SMILES IDX 36 65 20 66 21 67 29 68 22 69 23 70 27 71 30 72 24 73 25 74
REMARK SMILES IDX 28 75 26 76 52 77 53 78 61 79 54 80 55 81 59 82 62 83 56 84
REMARK SMILES IDX 57 85 60 86 58 87 37 88 38 89 46 90 39 91 40 92 44 93 47 94
REMARK SMILES IDX 41 95 42 96 45 97 43 98
REMARK H PARENT 67 51 35 62
REMARK Flexibility Score: inf
ROOT
ATOM      1  C   UNL A   1      31.495  29.351  24.731  1.00  0.00     0.274 C 
ENDROOT
BRANCH   1   2
ATOM      2  O   UNL A   1      32.781  28.762  24.450  1.00  0.00    -0.462 OA
BRANCH   2   3
ATOM      3  C   UNL A   1      32.912  27.432  24.732  1.00  0.00     0.313 C 
ATOM      4  O   UNL A   1      33.287  26.986  25.810  1.00  0.00    -0.252 OA
BRANCH   3   5
ATOM      5  C   UNL A   1      32.601  26.566  23.516  1.00  0.00     0.126 C 
ATOM      6  C   UNL A   1      33.500  26.918  22.326  1.00  0.00     0.025 C 
BRANCH   5   7
ATOM      7  C   UNL A   1      32.615  25.069  23.799  1.00  0.00    -0.032 A 
ATOM      8  C   UNL A   1      31.480  24.345  24.170  1.00  0.00     0.005 A 
ATOM      9  C   UNL A   1      33.835  24.393  23.693  1.00  0.00     0.032 A 
ATOM     10  C   UNL A   1      31.532  22.961  24.390  1.00  0.00     0.011 A 
ATOM     11  C   UNL A   1      33.903  23.020  23.996  1.00  0.00     0.057 A 
ATOM     12  C   UNL A   1      32.764  22.286  24.298  1.00  0.00     0.008 A 
ATOM     13  N   UNL A   1      35.009  22.168  24.044  1.00  0.00    -0.276 N 
ATOM     14  C   UNL A   1      33.168  20.932  24.472  1.00  0.00     0.009 A 
ATOM     15  C   UNL A   1      34.565  20.878  24.355  1.00  0.00     0.057 A 
ATOM     16  C   UNL A   1      32.449  19.752  24.768  1.00  0.00     0.031 A 
ATOM     17  C   UNL A   1      35.261  19.683  24.626  1.00  0.00     0.029 A 
ATOM     18  C   UNL A   1      33.139  18.561  24.977  1.00  0.00     0.041 A 
ATOM     19  C   UNL A   1      34.526  18.527  24.922  1.00  0.00     0.023 A 
ATOM     20  Cl  UNL A   1      32.264  17.125  25.343  1.00  0.00    -0.084 Cl
BRANCH  13  21
ATOM     21  C   UNL A   1      36.333  22.643  23.884  1.00  0.00     0.262 C 
ATOM     22  O   UNL A   1      36.614  23.072  22.763  1.00  0.00    -0.268 OA
BRANCH  21  23
ATOM     23  C   UNL A   1      37.445  22.622  24.873  1.00  0.00     0.040 A 
ATOM     24  C   UNL A   1      38.153  21.412  25.009  1.00  0.00     0.015 A 
ATOM     25  C   UNL A   1      37.735  23.674  25.746  1.00  0.00     0.015 A 
ATOM     26  C   UNL A   1      39.151  21.264  25.972  1.00  0.00     0.021 A 
ATOM     27  C   UNL A   1      38.761  23.536  26.691  1.00  0.00     0.021 A 
ATOM     28  C   UNL A   1      39.461  22.334  26.802  1.00  0.00     0.041 A 
ATOM     29  Cl  UNL A   1      40.698  22.162  27.983  1.00  0.00    -0.084 Cl
ENDBRANCH  21  23
ENDBRANCH  13  21
ENDBRANCH   5   7
ENDBRANCH   3   5
ENDBRANCH   2   3
ENDBRANCH   1   2
BRANCH   1  30
ATOM     30  C   UNL A   1      31.643  30.444  25.786  1.00  0.00     0.275 C 
BRANCH  30  31
ATOM     31  O   UNL A   1      33.010  30.477  26.224  1.00  0.00    -0.458 OA
BRANCH  31  32
ATOM     32  C   UNL A   1      33.341  31.487  27.056  1.00  0.00     0.338 C 
ATOM     33  O   UNL A   1      32.694  32.504  27.276  1.00  0.00    -0.246 OA
BRANCH  32  34
ATOM     34  C   UNL A   1      34.636  31.194  27.702  1.00  0.00     0.060 A 
ATOM     35  C   UNL A   1      34.965  29.895  28.097  1.00  0.00     0.016 A 
ATOM     36  C   UNL A   1      35.504  32.243  28.001  1.00  0.00     0.016 A 
ATOM     37  C   UNL A   1      36.099  29.655  28.869  1.00  0.00     0.010 A 
ATOM     38  C   UNL A   1      36.699  31.984  28.681  1.00  0.00     0.010 A 
ATOM     39  C   UNL A   1      36.994  30.692  29.151  1.00  0.00    -0.014 A 
BRANCH  39  40
ATOM     40  C   UNL A   1      38.226  30.446  29.949  1.00  0.00     0.031 A 
ATOM     41  C   UNL A   1      39.360  29.655  29.356  1.00  0.00     0.074 A 
ATOM     42  C   UNL A   1      38.330  30.911  31.210  1.00  0.00     0.049 A 
ATOM     43  N   UNL A   1      40.402  29.125  29.947  1.00  0.00    -0.248 NA
ATOM     44  C   UNL A   1      39.306  29.412  27.906  1.00  0.00     0.031 C 
ATOM     45  C   UNL A   1      37.334  31.734  31.897  1.00  0.00     0.029 A 
ATOM     46  N   UNL A   1      39.325  30.749  32.143  1.00  0.00    -0.354 N 
ATOM     47  C   UNL A   1      41.091  28.437  28.956  1.00  0.00     0.074 A 
ATOM     48  C   UNL A   1      40.353  28.619  27.725  1.00  0.00     0.031 C 
ATOM     49  C   UNL A   1      37.776  32.023  33.130  1.00  0.00     0.029 A 
ATOM     50  C   UNL A   1      39.041  31.334  33.353  1.00  0.00     0.049 A 
ATOM     51  H   UNL A   1      40.160  30.259  31.963  1.00  0.00     0.167 HD
ATOM     52  C   UNL A   1      42.232  27.715  29.069  1.00  0.00     0.037 A 
ATOM     53  C   UNL A   1      39.697  31.281  34.528  1.00  0.00     0.037 A 
ATOM     54  C   UNL A   1      42.992  27.585  30.284  1.00  0.00     0.049 A 
ATOM     55  C   UNL A   1      40.950  30.460  34.634  1.00  0.00     0.074 A 
ATOM     56  C   UNL A   1      44.165  26.881  30.499  1.00  0.00     0.029 A 
ATOM     57  N   UNL A   1      42.663  28.189  31.489  1.00  0.00    -0.354 N 
ATOM     58  N   UNL A   1      41.555  29.751  33.711  1.00  0.00    -0.248 NA
ATOM     59  C   UNL A   1      41.599  30.411  35.951  1.00  0.00     0.031 C 
ATOM     60  C   UNL A   1      44.532  27.040  31.840  1.00  0.00     0.029 A 
ATOM     61  C   UNL A   1      43.608  27.873  32.451  1.00  0.00     0.049 A 
ATOM     62  H   UNL A   1      41.875  28.761  31.637  1.00  0.00     0.167 HD
ATOM     63  C   UNL A   1      42.657  29.181  34.331  1.00  0.00     0.074 A 
ATOM     64  C   UNL A   1      42.651  29.641  35.704  1.00  0.00     0.031 C 
ATOM     65  C   UNL A   1      43.586  28.343  33.810  1.00  0.00     0.037 A 
BRANCH  52  66
ATOM     66  C   UNL A   1      42.714  26.983  27.853  1.00  0.00     0.064 A 
ATOM     67  C   UNL A   1      43.644  27.547  26.968  1.00  0.00     0.173 A 
ATOM     68  C   UNL A   1      42.264  25.679  27.591  1.00  0.00     0.173 A 
ATOM     69  F   UNL A   1      44.091  28.796  27.165  1.00  0.00    -0.203 F 
ATOM     70  C   UNL A   1      44.091  26.840  25.855  1.00  0.00     0.198 A 
ATOM     71  C   UNL A   1      42.731  24.966  26.491  1.00  0.00     0.198 A 
ATOM     72  F   UNL A   1      41.377  25.094  28.410  1.00  0.00    -0.203 F 
ATOM     73  F   UNL A   1      44.950  27.412  25.000  1.00  0.00    -0.200 F 
ATOM     74  C   UNL A   1      43.641  25.549  25.621  1.00  0.00     0.200 A 
ATOM     75  F   UNL A   1      42.303  23.714  26.274  1.00  0.00    -0.200 F 
ATOM     76  F   UNL A   1      44.078  24.867  24.553  1.00  0.00    -0.200 F 
ENDBRANCH  52  66
BRANCH  53  77
ATOM     77  C   UNL A   1      39.149  31.994  35.710  1.00  0.00     0.064 A 
ATOM     78  C   UNL A   1      38.288  31.347  36.606  1.00  0.00     0.173 A 
ATOM     79  C   UNL A   1      39.487  33.330  35.975  1.00  0.00     0.173 A 
ATOM     80  F   UNL A   1      37.917  30.078  36.379  1.00  0.00    -0.203 F 
ATOM     81  C   UNL A   1      37.778  32.012  37.718  1.00  0.00     0.198 A 
ATOM     82  C   UNL A   1      38.999  33.985  37.103  1.00  0.00     0.198 A 
ATOM     83  F   UNL A   1      40.308  33.993  35.147  1.00  0.00    -0.203 F 
ATOM     84  F   UNL A   1      36.927  31.383  38.540  1.00  0.00    -0.200 F 
ATOM     85  C   UNL A   1      38.141  33.327  37.970  1.00  0.00     0.200 A 
ATOM     86  F   UNL A   1      39.362  35.251  37.350  1.00  0.00    -0.200 F 
ATOM     87  F   UNL A   1      37.658  33.963  39.046  1.00  0.00    -0.200 F 
ENDBRANCH  53  77
BRANCH  65  88
ATOM     88  C   UNL A   1      44.685  27.893  34.725  1.00  0.00     0.064 A 
ATOM     89  C   UNL A   1      45.874  28.626  34.855  1.00  0.00     0.173 A 
ATOM     90  C   UNL A   1      44.536  26.734  35.498  1.00  0.00     0.173 A 
ATOM     91  F   UNL A   1      46.068  29.733  34.122  1.00  0.00    -0.203 F 
ATOM     92  C   UNL A   1      46.882  28.202  35.716  1.00  0.00     0.198 A 
ATOM     93  C   UNL A   1      45.537  26.325  36.374  1.00  0.00     0.198 A 
ATOM     94  F   UNL A   1      43.415  26.001  35.409  1.00  0.00    -0.203 F 
ATOM     95  F   UNL A   1      48.026  28.895  35.796  1.00  0.00    -0.200 F 
ATOM     96  C   UNL A   1      46.711  27.056  36.478  1.00  0.00     0.200 A 
ATOM     97  F   UNL A   1      45.367  25.221  37.115  1.00  0.00    -0.200 F 
ATOM     98  F   UNL A   1      47.682  26.650  37.307  1.00  0.00    -0.200 F 
ENDBRANCH  65  88
ENDBRANCH  39  40
ENDBRANCH  32  34
ENDBRANCH  31  32
ENDBRANCH  30  31
ENDBRANCH   1  30
TORSDOF 14
ENDMDL
