MODEL 1
REMARK VINA RESULT:     -10.8      0.000      0.000
REMARK SMILES C=CCN(CC(=O)OCCOC(=O)c1ccc(-c2c3nc(c(-c4c(F)c(F)c(F)c(F)c4F)c4ccc([nH]4)c(-c4c(F)c(F)c(F)c(F)c4F)c4nc(c(-c5c(F)c(F)c(F)c(F)c5F)c5ccc2[nH]5)C=C4)C=C3)cc1)c1nccn(C)c1=O
REMARK SMILES IDX 9 1 8 2 6 3 7 4 5 5 4 6 3 7 2 8 1 9 77 10 78 11 83 12 79 13
REMARK SMILES IDX 81 14 84 15 80 16 82 17 10 18 11 19 12 20 13 21 14 22 15 23
REMARK SMILES IDX 76 24 16 25 75 26 17 27 18 28 19 29 69 30 20 31 74 32 68 33
REMARK SMILES IDX 70 34 21 35 73 36 67 37 66 38 22 40 54 41 34 42 53 43 35 44
REMARK SMILES IDX 38 45 52 46 71 47 36 48 37 49 51 51 72 52 39 53 23 54 24 55
REMARK SMILES IDX 32 56 25 57 26 58 30 59 33 60 27 61 28 62 31 63 29 64 55 65
REMARK SMILES IDX 56 66 64 67 57 68 58 69 62 70 65 71 59 72 60 73 63 74 61 75
REMARK SMILES IDX 40 76 41 77 49 78 42 79 43 80 47 81 50 82 44 83 45 84 48 85
REMARK SMILES IDX 46 86
REMARK H PARENT 70 39 38 50
REMARK Flexibility Score: inf
ROOT
ATOM      1  C   UNL A   1      31.757  28.663  27.209  1.00  0.00     0.274 C 
ENDROOT
BRANCH   1   2
ATOM      2  O   UNL A   1      31.398  27.784  26.125  1.00  0.00    -0.461 OA
BRANCH   2   3
ATOM      3  C   UNL A   1      32.357  27.521  25.203  1.00  0.00     0.325 C 
ATOM      4  O   UNL A   1      33.361  26.847  25.426  1.00  0.00    -0.250 OA
BRANCH   3   5
ATOM      5  C   UNL A   1      32.109  28.162  23.841  1.00  0.00     0.241 C 
BRANCH   5   6
ATOM      6  N   UNL A   1      31.125  27.475  23.001  1.00  0.00    -0.337 N 
BRANCH   6   7
ATOM      7  C   UNL A   1      31.416  26.113  22.596  1.00  0.00     0.146 C 
BRANCH   7   8
ATOM      8  C   UNL A   1      32.537  26.141  21.592  1.00  0.00    -0.014 C 
ATOM      9  C   UNL A   1      32.524  25.508  20.411  1.00  0.00     0.006 C 
ENDBRANCH   7   8
ENDBRANCH   6   7
BRANCH   6  10
ATOM     10  C   UNL A   1      29.814  27.936  22.972  1.00  0.00     0.196 A 
ATOM     11  N   UNL A   1      28.866  27.238  23.553  1.00  0.00    -0.233 NA
ATOM     12  C   UNL A   1      29.514  29.302  22.275  1.00  0.00     0.293 A 
ATOM     13  C   UNL A   1      27.603  27.761  23.540  1.00  0.00     0.131 A 
ATOM     14  N   UNL A   1      28.218  29.775  22.479  1.00  0.00    -0.314 N 
ATOM     15  O   UNL A   1      30.392  29.874  21.637  1.00  0.00    -0.265 OA
ATOM     16  C   UNL A   1      27.277  28.973  23.078  1.00  0.00     0.109 A 
ATOM     17  C   UNL A   1      27.898  31.154  22.177  1.00  0.00     0.153 C 
ENDBRANCH   6  10
ENDBRANCH   5   6
ENDBRANCH   3   5
ENDBRANCH   2   3
ENDBRANCH   1   2
BRANCH   1  18
ATOM     18  C   UNL A   1      31.811  30.128  26.767  1.00  0.00     0.275 C 
BRANCH  18  19
ATOM     19  O   UNL A   1      33.149  30.535  26.421  1.00  0.00    -0.458 OA
BRANCH  19  20
ATOM     20  C   UNL A   1      33.670  31.460  27.255  1.00  0.00     0.338 C 
ATOM     21  O   UNL A   1      33.161  32.504  27.612  1.00  0.00    -0.246 OA
BRANCH  20  22
ATOM     22  C   UNL A   1      34.992  31.077  27.741  1.00  0.00     0.060 A 
ATOM     23  C   UNL A   1      35.212  29.751  28.126  1.00  0.00     0.016 A 
ATOM     24  C   UNL A   1      35.921  32.078  28.024  1.00  0.00     0.016 A 
ATOM     25  C   UNL A   1      36.377  29.420  28.812  1.00  0.00     0.010 A 
ATOM     26  C   UNL A   1      37.091  31.742  28.701  1.00  0.00     0.010 A 
ATOM     27  C   UNL A   1      37.315  30.417  29.110  1.00  0.00    -0.014 A 
BRANCH  27  28
ATOM     28  C   UNL A   1      38.557  30.089  29.837  1.00  0.00     0.031 A 
ATOM     29  C   UNL A   1      39.538  29.120  29.257  1.00  0.00     0.074 A 
ATOM     30  C   UNL A   1      38.753  30.628  31.051  1.00  0.00     0.049 A 
ATOM     31  N   UNL A   1      40.567  28.549  29.825  1.00  0.00    -0.248 NA
ATOM     32  C   UNL A   1      39.332  28.737  27.851  1.00  0.00     0.031 C 
ATOM     33  C   UNL A   1      37.874  31.612  31.684  1.00  0.00     0.029 A 
ATOM     34  N   UNL A   1      39.733  30.401  31.980  1.00  0.00    -0.354 N 
ATOM     35  C   UNL A   1      41.121  27.721  28.858  1.00  0.00     0.074 A 
ATOM     36  C   UNL A   1      40.315  27.866  27.664  1.00  0.00     0.031 C 
ATOM     37  C   UNL A   1      38.340  31.883  32.912  1.00  0.00     0.029 A 
ATOM     38  C   UNL A   1      39.516  31.056  33.165  1.00  0.00     0.049 A 
ATOM     39  H   UNL A   1      40.515  29.826  31.813  1.00  0.00     0.167 HD
ATOM     40  C   UNL A   1      42.200  26.911  28.971  1.00  0.00     0.037 A 
ATOM     41  C   UNL A   1      40.167  30.961  34.338  1.00  0.00     0.037 A 
ATOM     42  C   UNL A   1      42.993  26.785  30.167  1.00  0.00     0.049 A 
ATOM     43  C   UNL A   1      41.335  30.028  34.450  1.00  0.00     0.074 A 
ATOM     44  C   UNL A   1      44.103  25.989  30.390  1.00  0.00     0.029 A 
ATOM     45  N   UNL A   1      42.755  27.480  31.344  1.00  0.00    -0.354 N 
ATOM     46  N   UNL A   1      41.837  29.224  33.544  1.00  0.00    -0.248 NA
ATOM     47  C   UNL A   1      42.023  29.980  35.746  1.00  0.00     0.031 C 
ATOM     48  C   UNL A   1      44.523  26.187  31.710  1.00  0.00     0.029 A 
ATOM     49  C   UNL A   1      43.692  27.126  32.300  1.00  0.00     0.049 A 
ATOM     50  H   UNL A   1      42.027  28.128  31.479  1.00  0.00     0.167 HD
ATOM     51  C   UNL A   1      42.908  28.587  34.151  1.00  0.00     0.074 A 
ATOM     52  C   UNL A   1      42.987  29.101  35.505  1.00  0.00     0.031 C 
ATOM     53  C   UNL A   1      43.749  27.659  33.636  1.00  0.00     0.037 A 
BRANCH  40  54
ATOM     54  C   UNL A   1      42.569  26.076  27.784  1.00  0.00     0.064 A 
ATOM     55  C   UNL A   1      43.576  26.471  26.892  1.00  0.00     0.173 A 
ATOM     56  C   UNL A   1      41.937  24.844  27.560  1.00  0.00     0.173 A 
ATOM     57  F   UNL A   1      44.200  27.648  27.057  1.00  0.00    -0.203 F 
ATOM     58  C   UNL A   1      43.928  25.668  25.810  1.00  0.00     0.198 A 
ATOM     59  C   UNL A   1      42.304  24.035  26.488  1.00  0.00     0.198 A 
ATOM     60  F   UNL A   1      40.967  24.423  28.386  1.00  0.00    -0.203 F 
ATOM     61  F   UNL A   1      44.875  26.076  24.954  1.00  0.00    -0.200 F 
ATOM     62  C   UNL A   1      43.297  24.448  25.613  1.00  0.00     0.200 A 
ATOM     63  F   UNL A   1      41.696  22.855  26.302  1.00  0.00    -0.200 F 
ATOM     64  F   UNL A   1      43.641  23.674  24.575  1.00  0.00    -0.200 F 
ENDBRANCH  40  54
BRANCH  41  65
ATOM     65  C   UNL A   1      39.694  31.760  35.492  1.00  0.00     0.064 A 
ATOM     66  C   UNL A   1      40.212  33.036  35.745  1.00  0.00     0.173 A 
ATOM     67  C   UNL A   1      38.675  31.285  36.332  1.00  0.00     0.173 A 
ATOM     68  F   UNL A   1      41.199  33.520  34.977  1.00  0.00    -0.203 F 
ATOM     69  C   UNL A   1      39.727  33.810  36.797  1.00  0.00     0.198 A 
ATOM     70  C   UNL A   1      38.177  32.069  37.369  1.00  0.00     0.198 A 
ATOM     71  F   UNL A   1      38.145  30.071  36.124  1.00  0.00    -0.203 F 
ATOM     72  F   UNL A   1      40.251  35.021  37.030  1.00  0.00    -0.200 F 
ATOM     73  C   UNL A   1      38.704  33.330  37.602  1.00  0.00     0.200 A 
ATOM     74  F   UNL A   1      37.180  31.607  38.137  1.00  0.00    -0.200 F 
ATOM     75  F   UNL A   1      38.228  34.082  38.603  1.00  0.00    -0.200 F 
ENDBRANCH  41  65
BRANCH  53  76
ATOM     76  C   UNL A   1      44.845  27.170  34.530  1.00  0.00     0.064 A 
ATOM     77  C   UNL A   1      46.076  27.836  34.606  1.00  0.00     0.173 A 
ATOM     78  C   UNL A   1      44.645  26.047  35.345  1.00  0.00     0.173 A 
ATOM     79  F   UNL A   1      46.313  28.906  33.832  1.00  0.00    -0.203 F 
ATOM     80  C   UNL A   1      47.076  27.386  35.462  1.00  0.00     0.198 A 
ATOM     81  C   UNL A   1      45.643  25.609  36.211  1.00  0.00     0.198 A 
ATOM     82  F   UNL A   1      43.482  25.381  35.305  1.00  0.00    -0.203 F 
ATOM     83  F   UNL A   1      48.257  28.018  35.500  1.00  0.00    -0.200 F 
ATOM     84  C   UNL A   1      46.858  26.276  36.266  1.00  0.00     0.200 A 
ATOM     85  F   UNL A   1      45.429  24.540  36.991  1.00  0.00    -0.200 F 
ATOM     86  F   UNL A   1      47.822  25.845  37.090  1.00  0.00    -0.200 F 
ENDBRANCH  53  76
ENDBRANCH  27  28
ENDBRANCH  20  22
ENDBRANCH  19  20
ENDBRANCH  18  19
ENDBRANCH   1  18
TORSDOF 15
ENDMDL
MODEL 2
REMARK VINA RESULT:     -10.7      4.477      9.877
REMARK SMILES C=CCN(CC(=O)OCCOC(=O)c1ccc(-c2c3nc(c(-c4c(F)c(F)c(F)c(F)c4F)c4ccc([nH]4)c(-c4c(F)c(F)c(F)c(F)c4F)c4nc(c(-c5c(F)c(F)c(F)c(F)c5F)c5ccc2[nH]5)C=C4)C=C3)cc1)c1nccn(C)c1=O
REMARK SMILES IDX 9 1 8 2 6 3 7 4 5 5 4 6 3 7 2 8 1 9 77 10 78 11 83 12 79 13
REMARK SMILES IDX 81 14 84 15 80 16 82 17 10 18 11 19 12 20 13 21 14 22 15 23
REMARK SMILES IDX 76 24 16 25 75 26 17 27 18 28 19 29 69 30 20 31 74 32 68 33
REMARK SMILES IDX 70 34 21 35 73 36 67 37 66 38 22 40 54 41 34 42 53 43 35 44
REMARK SMILES IDX 38 45 52 46 71 47 36 48 37 49 51 51 72 52 39 53 23 54 24 55
REMARK SMILES IDX 32 56 25 57 26 58 30 59 33 60 27 61 28 62 31 63 29 64 55 65
REMARK SMILES IDX 56 66 64 67 57 68 58 69 62 70 65 71 59 72 60 73 63 74 61 75
REMARK SMILES IDX 40 76 41 77 49 78 42 79 43 80 47 81 50 82 44 83 45 84 48 85
REMARK SMILES IDX 46 86
REMARK H PARENT 70 39 38 50
REMARK Flexibility Score: inf
ROOT
ATOM      1  C   UNL A   1      34.394  33.906  29.138  1.00  0.00     0.274 C 
ENDROOT
BRANCH   1   2
ATOM      2  O   UNL A   1      33.770  33.984  30.434  1.00  0.00    -0.461 OA
BRANCH   2   3
ATOM      3  C   UNL A   1      34.499  33.556  31.494  1.00  0.00     0.325 C 
ATOM      4  O   UNL A   1      34.093  32.752  32.331  1.00  0.00    -0.250 OA
BRANCH   3   5
ATOM      5  C   UNL A   1      35.887  34.184  31.595  1.00  0.00     0.241 C 
BRANCH   5   6
ATOM      6  N   UNL A   1      37.003  33.235  31.552  1.00  0.00    -0.337 N 
BRANCH   6   7
ATOM      7  C   UNL A   1      37.453  32.781  30.250  1.00  0.00     0.146 C 
BRANCH   7   8
ATOM      8  C   UNL A   1      37.890  33.978  29.450  1.00  0.00    -0.014 C 
ATOM      9  C   UNL A   1      39.133  34.478  29.434  1.00  0.00     0.006 C 
ENDBRANCH   7   8
ENDBRANCH   6   7
BRANCH   6  10
ATOM     10  C   UNL A   1      37.852  33.131  32.648  1.00  0.00     0.196 A 
ATOM     11  N   UNL A   1      38.667  34.119  32.935  1.00  0.00    -0.233 NA
ATOM     12  C   UNL A   1      37.780  31.845  33.532  1.00  0.00     0.293 A 
ATOM     13  C   UNL A   1      39.443  33.987  34.053  1.00  0.00     0.131 A 
ATOM     14  N   UNL A   1      38.513  31.924  34.716  1.00  0.00    -0.314 N 
ATOM     15  O   UNL A   1      37.099  30.889  33.176  1.00  0.00    -0.265 OA
ATOM     16  C   UNL A   1      39.362  32.983  34.932  1.00  0.00     0.109 A 
ATOM     17  C   UNL A   1      38.285  30.959  35.771  1.00  0.00     0.153 C 
ENDBRANCH   6  10
ENDBRANCH   5   6
ENDBRANCH   3   5
ENDBRANCH   2   3
ENDBRANCH   1   2
BRANCH   1  18
ATOM     18  C   UNL A   1      33.921  32.685  28.345  1.00  0.00     0.275 C 
BRANCH  18  19
ATOM     19  O   UNL A   1      35.020  31.993  27.721  1.00  0.00    -0.458 OA
BRANCH  19  20
ATOM     20  C   UNL A   1      34.899  30.649  27.739  1.00  0.00     0.338 C 
ATOM     21  O   UNL A   1      33.913  29.991  27.473  1.00  0.00    -0.246 OA
BRANCH  20  22
ATOM     22  C   UNL A   1      36.145  29.991  28.124  1.00  0.00     0.060 A 
ATOM     23  C   UNL A   1      36.261  29.467  29.413  1.00  0.00     0.016 A 
ATOM     24  C   UNL A   1      37.253  30.106  27.284  1.00  0.00     0.016 A 
ATOM     25  C   UNL A   1      37.507  29.057  29.878  1.00  0.00     0.010 A 
ATOM     26  C   UNL A   1      38.497  29.685  27.747  1.00  0.00     0.010 A 
ATOM     27  C   UNL A   1      38.631  29.174  29.049  1.00  0.00    -0.014 A 
BRANCH  27  28
ATOM     28  C   UNL A   1      39.962  28.746  29.519  1.00  0.00     0.031 A 
ATOM     29  C   UNL A   1      40.780  29.647  30.391  1.00  0.00     0.074 A 
ATOM     30  C   UNL A   1      40.446  27.567  29.098  1.00  0.00     0.049 A 
ATOM     31  N   UNL A   1      42.038  29.547  30.730  1.00  0.00    -0.248 NA
ATOM     32  C   UNL A   1      40.093  30.821  30.952  1.00  0.00     0.031 C 
ATOM     33  C   UNL A   1      39.710  26.602  28.279  1.00  0.00     0.029 A 
ATOM     34  N   UNL A   1      41.677  26.994  29.272  1.00  0.00    -0.354 N 
ATOM     35  C   UNL A   1      42.304  30.653  31.524  1.00  0.00     0.074 A 
ATOM     36  C   UNL A   1      41.075  31.411  31.621  1.00  0.00     0.031 C 
ATOM     37  C   UNL A   1      40.516  25.568  27.997  1.00  0.00     0.029 A 
ATOM     38  C   UNL A   1      41.833  25.824  28.572  1.00  0.00     0.049 A 
ATOM     39  H   UNL A   1      42.380  27.383  29.842  1.00  0.00     0.167 HD
ATOM     40  C   UNL A   1      43.476  30.998  32.109  1.00  0.00     0.037 A 
ATOM     41  C   UNL A   1      42.930  25.071  28.380  1.00  0.00     0.037 A 
ATOM     42  C   UNL A   1      44.688  30.227  32.006  1.00  0.00     0.049 A 
ATOM     43  C   UNL A   1      44.226  25.495  29.005  1.00  0.00     0.074 A 
ATOM     44  C   UNL A   1      45.931  30.490  32.555  1.00  0.00     0.029 A 
ATOM     45  N   UNL A   1      44.803  29.036  31.304  1.00  0.00    -0.354 N 
ATOM     46  N   UNL A   1      44.481  26.557  29.730  1.00  0.00    -0.248 NA
ATOM     47  C   UNL A   1      45.386  24.624  28.781  1.00  0.00     0.031 C 
ATOM     48  C   UNL A   1      46.805  29.468  32.166  1.00  0.00     0.029 A 
ATOM     49  C   UNL A   1      46.098  28.555  31.399  1.00  0.00     0.049 A 
ATOM     50  H   UNL A   1      44.072  28.597  30.812  1.00  0.00     0.167 HD
ATOM     51  C   UNL A   1      45.824  26.477  30.063  1.00  0.00     0.074 A 
ATOM     52  C   UNL A   1      46.331  25.257  29.464  1.00  0.00     0.031 C 
ATOM     53  C   UNL A   1      46.571  27.335  30.798  1.00  0.00     0.037 A 
BRANCH  40  54
ATOM     54  C   UNL A   1      43.513  32.279  32.885  1.00  0.00     0.064 A 
ATOM     55  C   UNL A   1      43.141  32.330  34.236  1.00  0.00     0.173 A 
ATOM     56  C   UNL A   1      43.969  33.459  32.282  1.00  0.00     0.173 A 
ATOM     57  F   UNL A   1      42.685  31.229  34.853  1.00  0.00    -0.203 F 
ATOM     58  C   UNL A   1      43.211  33.522  34.952  1.00  0.00     0.198 A 
ATOM     59  C   UNL A   1      44.055  34.646  33.006  1.00  0.00     0.198 A 
ATOM     60  F   UNL A   1      44.337  33.461  30.992  1.00  0.00    -0.203 F 
ATOM     61  F   UNL A   1      42.825  33.557  36.235  1.00  0.00    -0.200 F 
ATOM     62  C   UNL A   1      43.674  34.678  34.338  1.00  0.00     0.200 A 
ATOM     63  F   UNL A   1      44.508  35.760  32.412  1.00  0.00    -0.200 F 
ATOM     64  F   UNL A   1      43.747  35.823  35.030  1.00  0.00    -0.200 F 
ENDBRANCH  40  54
BRANCH  41  65
ATOM     65  C   UNL A   1      42.834  23.860  27.532  1.00  0.00     0.064 A 
ATOM     66  C   UNL A   1      43.173  23.904  26.175  1.00  0.00     0.173 A 
ATOM     67  C   UNL A   1      42.454  22.623  28.076  1.00  0.00     0.173 A 
ATOM     68  F   UNL A   1      43.525  25.069  25.611  1.00  0.00    -0.203 F 
ATOM     69  C   UNL A   1      43.137  22.753  25.390  1.00  0.00     0.198 A 
ATOM     70  C   UNL A   1      42.440  21.471  27.295  1.00  0.00     0.198 A 
ATOM     71  F   UNL A   1      42.126  22.534  29.373  1.00  0.00    -0.203 F 
ATOM     72  F   UNL A   1      43.450  22.823  24.089  1.00  0.00    -0.200 F 
ATOM     73  C   UNL A   1      42.780  21.537  25.953  1.00  0.00     0.200 A 
ATOM     74  F   UNL A   1      42.105  20.295  27.846  1.00  0.00    -0.200 F 
ATOM     75  F   UNL A   1      42.761  20.428  25.201  1.00  0.00    -0.200 F 
ENDBRANCH  41  65
BRANCH  53  76
ATOM     76  C   UNL A   1      48.004  26.964  31.020  1.00  0.00     0.064 A 
ATOM     77  C   UNL A   1      49.022  27.465  30.197  1.00  0.00     0.173 A 
ATOM     78  C   UNL A   1      48.362  26.130  32.089  1.00  0.00     0.173 A 
ATOM     79  F   UNL A   1      48.721  28.253  29.154  1.00  0.00    -0.203 F 
ATOM     80  C   UNL A   1      50.353  27.133  30.431  1.00  0.00     0.198 A 
ATOM     81  C   UNL A   1      49.695  25.814  32.329  1.00  0.00     0.198 A 
ATOM     82  F   UNL A   1      47.419  25.630  32.901  1.00  0.00    -0.203 F 
ATOM     83  F   UNL A   1      51.310  27.598  29.617  1.00  0.00    -0.200 F 
ATOM     84  C   UNL A   1      50.689  26.312  31.499  1.00  0.00     0.200 A 
ATOM     85  F   UNL A   1      50.019  25.024  33.362  1.00  0.00    -0.200 F 
ATOM     86  F   UNL A   1      51.971  25.995  31.722  1.00  0.00    -0.200 F 
ENDBRANCH  53  76
ENDBRANCH  27  28
ENDBRANCH  20  22
ENDBRANCH  19  20
ENDBRANCH  18  19
ENDBRANCH   1  18
TORSDOF 15
ENDMDL
MODEL 3
REMARK VINA RESULT:     -10.7      1.887      3.231
REMARK SMILES C=CCN(CC(=O)OCCOC(=O)c1ccc(-c2c3nc(c(-c4c(F)c(F)c(F)c(F)c4F)c4ccc([nH]4)c(-c4c(F)c(F)c(F)c(F)c4F)c4nc(c(-c5c(F)c(F)c(F)c(F)c5F)c5ccc2[nH]5)C=C4)C=C3)cc1)c1nccn(C)c1=O
REMARK SMILES IDX 9 1 8 2 6 3 7 4 5 5 4 6 3 7 2 8 1 9 77 10 78 11 83 12 79 13
REMARK SMILES IDX 81 14 84 15 80 16 82 17 10 18 11 19 12 20 13 21 14 22 15 23
REMARK SMILES IDX 76 24 16 25 75 26 17 27 18 28 19 29 69 30 20 31 74 32 68 33
REMARK SMILES IDX 70 34 21 35 73 36 67 37 66 38 22 40 54 41 34 42 53 43 35 44
REMARK SMILES IDX 38 45 52 46 71 47 36 48 37 49 51 51 72 52 39 53 23 54 24 55
REMARK SMILES IDX 32 56 25 57 26 58 30 59 33 60 27 61 28 62 31 63 29 64 55 65
REMARK SMILES IDX 56 66 64 67 57 68 58 69 62 70 65 71 59 72 60 73 63 74 61 75
REMARK SMILES IDX 40 76 41 77 49 78 42 79 43 80 47 81 50 82 44 83 45 84 48 85
REMARK SMILES IDX 46 86
REMARK H PARENT 70 39 38 50
REMARK Flexibility Score: inf
ROOT
ATOM      1  C   UNL A   1      31.986  28.342  27.570  1.00  0.00     0.274 C 
ENDROOT
BRANCH   1   2
ATOM      2  O   UNL A   1      31.022  27.368  27.126  1.00  0.00    -0.461 OA
BRANCH   2   3
ATOM      3  C   UNL A   1      31.485  26.348  26.362  1.00  0.00     0.325 C 
ATOM      4  O   UNL A   1      30.773  25.463  25.889  1.00  0.00    -0.250 OA
BRANCH   3   5
ATOM      5  C   UNL A   1      32.996  26.359  26.151  1.00  0.00     0.241 C 
BRANCH   5   6
ATOM      6  N   UNL A   1      33.465  25.604  24.985  1.00  0.00    -0.337 N 
BRANCH   6   7
ATOM      7  C   UNL A   1      33.573  26.309  23.723  1.00  0.00     0.146 C 
BRANCH   7   8
ATOM      8  C   UNL A   1      33.875  27.756  24.007  1.00  0.00    -0.014 C 
ATOM      9  C   UNL A   1      33.579  28.776  23.190  1.00  0.00     0.006 C 
ENDBRANCH   7   8
ENDBRANCH   6   7
BRANCH   6  10
ATOM     10  C   UNL A   1      34.179  24.427  25.178  1.00  0.00     0.196 A 
ATOM     11  N   UNL A   1      35.411  24.480  25.629  1.00  0.00    -0.233 NA
ATOM     12  C   UNL A   1      33.472  23.064  24.885  1.00  0.00     0.293 A 
ATOM     13  C   UNL A   1      36.050  23.291  25.850  1.00  0.00     0.131 A 
ATOM     14  N   UNL A   1      34.191  21.946  25.304  1.00  0.00    -0.314 N 
ATOM     15  O   UNL A   1      32.367  23.046  24.353  1.00  0.00    -0.265 OA
ATOM     16  C   UNL A   1      35.486  22.083  25.744  1.00  0.00     0.109 A 
ATOM     17  C   UNL A   1      33.534  20.659  25.397  1.00  0.00     0.153 C 
ENDBRANCH   6  10
ENDBRANCH   5   6
ENDBRANCH   3   5
ENDBRANCH   2   3
ENDBRANCH   1   2
BRANCH   1  18
ATOM     18  C   UNL A   1      31.796  29.695  26.879  1.00  0.00     0.275 C 
BRANCH  18  19
ATOM     19  O   UNL A   1      33.048  30.247  26.426  1.00  0.00    -0.458 OA
BRANCH  19  20
ATOM     20  C   UNL A   1      33.535  31.221  27.223  1.00  0.00     0.338 C 
ATOM     21  O   UNL A   1      32.990  32.261  27.536  1.00  0.00    -0.246 OA
BRANCH  20  22
ATOM     22  C   UNL A   1      34.867  30.902  27.729  1.00  0.00     0.060 A 
ATOM     23  C   UNL A   1      35.135  29.596  28.147  1.00  0.00     0.016 A 
ATOM     24  C   UNL A   1      35.753  31.945  27.994  1.00  0.00     0.016 A 
ATOM     25  C   UNL A   1      36.306  29.327  28.850  1.00  0.00     0.010 A 
ATOM     26  C   UNL A   1      36.929  31.672  28.687  1.00  0.00     0.010 A 
ATOM     27  C   UNL A   1      37.202  30.367  29.130  1.00  0.00    -0.014 A 
BRANCH  27  28
ATOM     28  C   UNL A   1      38.449  30.106  29.875  1.00  0.00     0.031 A 
ATOM     29  C   UNL A   1      39.482  29.178  29.316  1.00  0.00     0.074 A 
ATOM     30  C   UNL A   1      38.606  30.667  31.084  1.00  0.00     0.049 A 
ATOM     31  N   UNL A   1      40.530  28.662  29.902  1.00  0.00    -0.248 NA
ATOM     32  C   UNL A   1      39.310  28.771  27.912  1.00  0.00     0.031 C 
ATOM     33  C   UNL A   1      37.675  31.615  31.697  1.00  0.00     0.029 A 
ATOM     34  N   UNL A   1      39.585  30.497  32.026  1.00  0.00    -0.354 N 
ATOM     35  C   UNL A   1      41.133  27.851  28.950  1.00  0.00     0.074 A 
ATOM     36  C   UNL A   1      40.335  27.945  27.746  1.00  0.00     0.031 C 
ATOM     37  C   UNL A   1      38.113  31.921  32.927  1.00  0.00     0.029 A 
ATOM     38  C   UNL A   1      39.324  31.153  33.202  1.00  0.00     0.049 A 
ATOM     39  H   UNL A   1      40.395  29.957  31.875  1.00  0.00     0.167 HD
ATOM     40  C   UNL A   1      42.247  27.094  29.084  1.00  0.00     0.037 A 
ATOM     41  C   UNL A   1      39.966  31.102  34.382  1.00  0.00     0.037 A 
ATOM     42  C   UNL A   1      43.032  27.018  30.290  1.00  0.00     0.049 A 
ATOM     43  C   UNL A   1      41.175  30.225  34.518  1.00  0.00     0.074 A 
ATOM     44  C   UNL A   1      44.176  26.278  30.534  1.00  0.00     0.029 A 
ATOM     45  N   UNL A   1      42.748  27.714  31.456  1.00  0.00    -0.354 N 
ATOM     46  N   UNL A   1      41.724  29.437  33.626  1.00  0.00    -0.248 NA
ATOM     47  C   UNL A   1      41.850  30.225  35.822  1.00  0.00     0.031 C 
ATOM     48  C   UNL A   1      44.571  26.510  31.856  1.00  0.00     0.029 A 
ATOM     49  C   UNL A   1      43.690  27.415  32.426  1.00  0.00     0.049 A 
ATOM     50  H   UNL A   1      41.989  28.329  31.576  1.00  0.00     0.167 HD
ATOM     51  C   UNL A   1      42.817  28.857  34.253  1.00  0.00     0.074 A 
ATOM     52  C   UNL A   1      42.856  29.389  35.601  1.00  0.00     0.031 C 
ATOM     53  C   UNL A   1      43.707  27.965  33.757  1.00  0.00     0.037 A 
BRANCH  40  54
ATOM     54  C   UNL A   1      42.668  26.265  27.910  1.00  0.00     0.064 A 
ATOM     55  C   UNL A   1      43.593  26.740  26.969  1.00  0.00     0.173 A 
ATOM     56  C   UNL A   1      42.175  24.962  27.750  1.00  0.00     0.173 A 
ATOM     57  F   UNL A   1      44.083  27.984  27.073  1.00  0.00    -0.203 F 
ATOM     58  C   UNL A   1      43.997  25.943  25.900  1.00  0.00     0.198 A 
ATOM     59  C   UNL A   1      42.595  24.162  26.690  1.00  0.00     0.198 A 
ATOM     60  F   UNL A   1      41.289  24.463  28.625  1.00  0.00    -0.203 F 
ATOM     61  F   UNL A   1      44.861  26.425  24.996  1.00  0.00    -0.200 F 
ATOM     62  C   UNL A   1      43.503  24.654  25.765  1.00  0.00     0.200 A 
ATOM     63  F   UNL A   1      42.120  22.915  26.565  1.00  0.00    -0.200 F 
ATOM     64  F   UNL A   1      43.898  23.887  24.740  1.00  0.00    -0.200 F 
ENDBRANCH  40  54
BRANCH  41  65
ATOM     65  C   UNL A   1      39.442  31.889  35.523  1.00  0.00     0.064 A 
ATOM     66  C   UNL A   1      38.531  31.329  36.426  1.00  0.00     0.173 A 
ATOM     67  C   UNL A   1      39.886  33.199  35.763  1.00  0.00     0.173 A 
ATOM     68  F   UNL A   1      38.069  30.086  36.223  1.00  0.00    -0.203 F 
ATOM     69  C   UNL A   1      38.082  32.049  37.530  1.00  0.00     0.198 A 
ATOM     70  C   UNL A   1      39.453  33.909  36.879  1.00  0.00     0.198 A 
ATOM     71  F   UNL A   1      40.763  33.774  34.927  1.00  0.00    -0.203 F 
ATOM     72  F   UNL A   1      37.197  31.498  38.371  1.00  0.00    -0.200 F 
ATOM     73  C   UNL A   1      38.550  33.334  37.761  1.00  0.00     0.200 A 
ATOM     74  F   UNL A   1      39.916  35.146  37.105  1.00  0.00    -0.200 F 
ATOM     75  F   UNL A   1      38.130  34.020  38.832  1.00  0.00    -0.200 F 
ENDBRANCH  41  65
BRANCH  53  76
ATOM     76  C   UNL A   1      44.815  27.537  34.668  1.00  0.00     0.064 A 
ATOM     77  C   UNL A   1      46.016  28.255  34.741  1.00  0.00     0.173 A 
ATOM     78  C   UNL A   1      44.653  26.422  35.503  1.00  0.00     0.173 A 
ATOM     79  F   UNL A   1      46.216  29.318  33.948  1.00  0.00    -0.203 F 
ATOM     80  C   UNL A   1      47.027  27.861  35.612  1.00  0.00     0.198 A 
ATOM     81  C   UNL A   1      45.661  26.042  36.384  1.00  0.00     0.198 A 
ATOM     82  F   UNL A   1      43.518  25.709  35.466  1.00  0.00    -0.203 F 
ATOM     83  F   UNL A   1      48.181  28.541  35.647  1.00  0.00    -0.200 F 
ATOM     84  C   UNL A   1      46.847  26.759  36.436  1.00  0.00     0.200 A 
ATOM     85  F   UNL A   1      45.484  24.979  37.182  1.00  0.00    -0.200 F 
ATOM     86  F   UNL A   1      47.822  26.383  37.275  1.00  0.00    -0.200 F 
ENDBRANCH  53  76
ENDBRANCH  27  28
ENDBRANCH  20  22
ENDBRANCH  19  20
ENDBRANCH  18  19
ENDBRANCH   1  18
TORSDOF 15
ENDMDL
