MODEL 1
REMARK VINA RESULT:     -14.6      0.000      0.000
REMARK SMILES COC(=O)c1ccc(C)c(NC(=O)[C@H]2CC=CC[C@H]2C(=O)OCCOC(=O)c2ccc(-c3c4nc(c(-c5c(F)c(F)c(F)c(F)c5F)c5ccc([nH]5)c(-c5c(F)c(F)c(F)c(F)c5F)c5nc(c(-c6c(F)c(F)c(F)c(F)c6F)c6ccc3[nH]6)C=C5)C=C4)cc2)c1
REMARK SMILES IDX 23 1 22 2 20 3 21 4 19 5 14 6 15 7 16 8 18 9 17 10 12 11
REMARK SMILES IDX 11 12 13 14 10 15 5 16 6 17 91 18 7 19 8 20 9 21 3 22 4 23
REMARK SMILES IDX 2 24 1 25 24 26 25 27 26 28 27 29 28 30 29 31 90 32 30 33
REMARK SMILES IDX 89 34 31 35 32 36 33 37 83 38 34 39 88 40 82 41 84 42 35 43
REMARK SMILES IDX 87 44 81 45 80 46 36 48 68 49 48 50 67 51 49 52 52 53 66 54
REMARK SMILES IDX 85 55 50 56 51 57 65 59 86 60 53 61 37 62 38 63 46 64 39 65
REMARK SMILES IDX 40 66 44 67 47 68 41 69 42 70 45 71 43 72 69 73 70 74 78 75
REMARK SMILES IDX 71 76 72 77 76 78 79 79 73 80 74 81 77 82 75 83 54 84 55 85
REMARK SMILES IDX 63 86 56 87 57 88 61 89 64 90 58 91 59 92 62 93 60 94
REMARK H PARENT 11 13 84 47 52 58
REMARK Flexibility Score: inf
ROOT
ATOM      1  C   UNL A   1      31.784  28.518  26.297  1.00  0.00     0.274 C 
ENDROOT
BRANCH   1   2
ATOM      2  O   UNL A   1      31.167  27.303  25.478  1.00  0.00    -0.462 OA
BRANCH   2   3
ATOM      3  C   UNL A   1      31.964  26.328  25.014  1.00  0.00     0.310 C 
ATOM      4  O   UNL A   1      32.841  26.500  24.189  1.00  0.00    -0.252 OA
BRANCH   3   5
ATOM      5  C   UNL A   1      31.885  25.027  25.709  1.00  0.00     0.116 C 
ATOM      6  C   UNL A   1      30.990  23.936  25.115  1.00  0.00     0.097 C 
ATOM      7  C   UNL A   1      31.142  22.614  25.916  1.00  0.00     0.041 C 
ATOM      8  C   UNL A   1      32.293  22.518  26.883  1.00  0.00    -0.030 C 
ATOM      9  C   UNL A   1      33.296  24.651  26.142  1.00  0.00     0.043 C 
ATOM     10  C   UNL A   1      33.275  23.421  26.979  1.00  0.00    -0.030 C 
BRANCH   6  11
ATOM     11  C   UNL A   1      30.801  23.779  23.573  1.00  0.00     0.228 C 
ATOM     12  N   UNL A   1      31.662  23.132  22.678  1.00  0.00    -0.326 N 
ATOM     13  H   UNL A   1      31.508  23.384  21.738  1.00  0.00     0.169 HD
ATOM     14  O   UNL A   1      29.787  24.272  23.058  1.00  0.00    -0.274 OA
BRANCH  12  15
ATOM     15  C   UNL A   1      32.722  22.177  22.848  1.00  0.00     0.044 A 
ATOM     16  C   UNL A   1      33.166  19.366  24.180  1.00  0.00     0.062 A 
ATOM     17  C   UNL A   1      34.602  19.935  25.016  1.00  0.00     0.016 A 
ATOM     18  C   UNL A   1      32.247  20.464  23.105  1.00  0.00     0.042 A 
ATOM     19  C   UNL A   1      35.097  21.649  24.752  1.00  0.00     0.006 A 
ATOM     20  C   UNL A   1      34.240  22.763  23.559  1.00  0.00    -0.027 A 
ATOM     21  C   UNL A   1      34.918  23.757  22.609  1.00  0.00     0.046 C 
BRANCH  16  22
ATOM     22  C   UNL A   1      32.748  18.026  24.623  1.00  0.00     0.337 C 
ATOM     23  O   UNL A   1      32.071  17.862  25.622  1.00  0.00    -0.246 OA
BRANCH  22  24
ATOM     24  O   UNL A   1      32.775  17.195  23.558  1.00  0.00    -0.465 OA
ATOM     25  C   UNL A   1      34.073  16.726  23.211  1.00  0.00     0.282 C 
ENDBRANCH  22  24
ENDBRANCH  16  22
ENDBRANCH  12  15
ENDBRANCH   6  11
ENDBRANCH   3   5
ENDBRANCH   2   3
ENDBRANCH   1   2
BRANCH   1  26
ATOM     26  C   UNL A   1      33.750  28.648  27.278  1.00  0.00     0.275 C 
BRANCH  26  27
ATOM     27  O   UNL A   1      34.758  30.177  27.432  1.00  0.00    -0.458 OA
BRANCH  27  28
ATOM     28  C   UNL A   1      35.709  30.993  28.153  1.00  0.00     0.338 C 
ATOM     29  O   UNL A   1      35.873  32.161  27.798  1.00  0.00    -0.246 OA
BRANCH  28  30
ATOM     30  C   UNL A   1      36.682  30.517  29.284  1.00  0.00     0.060 A 
ATOM     31  C   UNL A   1      36.766  29.241  29.930  1.00  0.00     0.016 A 
ATOM     32  C   UNL A   1      37.847  31.235  29.238  1.00  0.00     0.016 A 
ATOM     33  C   UNL A   1      38.040  28.557  30.137  1.00  0.00     0.010 A 
ATOM     34  C   UNL A   1      39.018  30.461  29.210  1.00  0.00     0.010 A 
ATOM     35  C   UNL A   1      39.203  29.079  29.561  1.00  0.00    -0.014 A 
BRANCH  35  36
ATOM     36  C   UNL A   1      40.541  28.391  29.097  1.00  0.00     0.031 A 
ATOM     37  C   UNL A   1      40.848  26.975  28.520  1.00  0.00     0.074 A 
ATOM     38  C   UNL A   1      41.638  29.189  29.225  1.00  0.00     0.049 A 
ATOM     39  N   UNL A   1      41.562  26.023  29.075  1.00  0.00    -0.248 NA
ATOM     40  C   UNL A   1      40.531  26.579  27.127  1.00  0.00     0.031 C 
ATOM     41  C   UNL A   1      43.057  28.949  29.038  1.00  0.00     0.029 A 
ATOM     42  N   UNL A   1      41.665  30.452  29.847  1.00  0.00    -0.354 N 
ATOM     43  C   UNL A   1      41.871  25.073  28.071  1.00  0.00     0.074 A 
ATOM     44  C   UNL A   1      40.959  25.318  26.999  1.00  0.00     0.031 C 
ATOM     45  C   UNL A   1      43.709  29.741  29.930  1.00  0.00     0.029 A 
ATOM     46  C   UNL A   1      42.696  30.414  30.753  1.00  0.00     0.049 A 
ATOM     47  H   UNL A   1      41.065  31.211  29.665  1.00  0.00     0.167 HD
ATOM     48  C   UNL A   1      43.101  24.472  27.916  1.00  0.00     0.037 A 
ATOM     49  C   UNL A   1      42.350  30.247  32.067  1.00  0.00     0.037 A 
ATOM     50  C   UNL A   1      44.063  25.157  28.740  1.00  0.00     0.049 A 
ATOM     51  C   UNL A   1      42.983  29.015  32.633  1.00  0.00     0.074 A 
ATOM     52  C   UNL A   1      45.020  26.120  28.481  1.00  0.00     0.029 A 
ATOM     53  N   UNL A   1      43.910  25.100  30.095  1.00  0.00    -0.354 N 
ATOM     54  N   UNL A   1      43.490  28.077  31.891  1.00  0.00    -0.248 NA
ATOM     55  C   UNL A   1      43.033  28.699  34.055  1.00  0.00     0.031 C 
ATOM     56  C   UNL A   1      45.455  26.638  29.730  1.00  0.00     0.029 A 
ATOM     57  C   UNL A   1      44.757  25.977  30.723  1.00  0.00     0.049 A 
ATOM     58  H   UNL A   1      43.275  24.509  30.559  1.00  0.00     0.167 HD
ATOM     59  C   UNL A   1      43.984  27.095  32.682  1.00  0.00     0.074 A 
ATOM     60  C   UNL A   1      43.620  27.492  34.028  1.00  0.00     0.031 C 
ATOM     61  C   UNL A   1      44.661  26.039  32.158  1.00  0.00     0.037 A 
BRANCH  48  62
ATOM     62  C   UNL A   1      43.579  23.493  26.829  1.00  0.00     0.064 A 
ATOM     63  C   UNL A   1      43.216  22.117  26.861  1.00  0.00     0.173 A 
ATOM     64  C   UNL A   1      44.300  23.865  25.676  1.00  0.00     0.173 A 
ATOM     65  F   UNL A   1      42.448  21.612  27.834  1.00  0.00    -0.203 F 
ATOM     66  C   UNL A   1      43.602  21.191  25.884  1.00  0.00     0.198 A 
ATOM     67  C   UNL A   1      44.696  22.929  24.696  1.00  0.00     0.198 A 
ATOM     68  F   UNL A   1      44.614  25.148  25.448  1.00  0.00    -0.203 F 
ATOM     69  F   UNL A   1      43.228  19.908  25.999  1.00  0.00    -0.200 F 
ATOM     70  C   UNL A   1      44.355  21.593  24.806  1.00  0.00     0.200 A 
ATOM     71  F   UNL A   1      45.407  23.333  23.632  1.00  0.00    -0.200 F 
ATOM     72  F   UNL A   1      44.731  20.705  23.875  1.00  0.00    -0.200 F 
ENDBRANCH  48  62
BRANCH  49  73
ATOM     73  C   UNL A   1      40.984  30.759  32.491  1.00  0.00     0.064 A 
ATOM     74  C   UNL A   1      40.643  32.120  32.322  1.00  0.00     0.173 A 
ATOM     75  C   UNL A   1      39.922  29.901  32.836  1.00  0.00     0.173 A 
ATOM     76  F   UNL A   1      41.577  33.007  31.940  1.00  0.00    -0.203 F 
ATOM     77  C   UNL A   1      39.323  32.579  32.432  1.00  0.00     0.198 A 
ATOM     78  C   UNL A   1      38.601  30.362  32.952  1.00  0.00     0.198 A 
ATOM     79  F   UNL A   1      40.132  28.587  32.997  1.00  0.00    -0.203 F 
ATOM     80  F   UNL A   1      39.028  33.852  32.124  1.00  0.00    -0.200 F 
ATOM     81  C   UNL A   1      38.300  31.697  32.737  1.00  0.00     0.200 A 
ATOM     82  F   UNL A   1      37.608  29.496  33.204  1.00  0.00    -0.200 F 
ATOM     83  F   UNL A   1      37.025  32.113  32.737  1.00  0.00    -0.200 F 
ENDBRANCH  49  73
BRANCH  61  84
ATOM     84  C   UNL A   1      45.231  24.940  32.983  1.00  0.00     0.064 A 
ATOM     85  C   UNL A   1      46.566  24.965  33.394  1.00  0.00     0.173 A 
ATOM     86  C   UNL A   1      44.482  23.793  33.323  1.00  0.00     0.173 A 
ATOM     87  F   UNL A   1      47.389  25.950  33.005  1.00  0.00    -0.203 F 
ATOM     88  C   UNL A   1      47.086  23.966  34.209  1.00  0.00     0.198 A 
ATOM     89  C   UNL A   1      45.024  22.766  34.081  1.00  0.00     0.198 A 
ATOM     90  F   UNL A   1      43.200  23.639  32.963  1.00  0.00    -0.203 F 
ATOM     91  F   UNL A   1      48.340  24.075  34.665  1.00  0.00    -0.200 F 
ATOM     92  C   UNL A   1      46.315  22.869  34.553  1.00  0.00     0.200 A 
ATOM     93  F   UNL A   1      44.279  21.689  34.364  1.00  0.00    -0.200 F 
ATOM     94  F   UNL A   1      46.818  21.910  35.338  1.00  0.00    -0.200 F 
ENDBRANCH  61  84
ENDBRANCH  35  36
ENDBRANCH  28  30
ENDBRANCH  27  28
ENDBRANCH  26  27
ENDBRANCH   1  26
TORSDOF 15
ENDMDL
MODEL 2
REMARK VINA RESULT:     -14.5      1.119      1.688
REMARK SMILES COC(=O)c1ccc(C)c(NC(=O)[C@H]2CC=CC[C@H]2C(=O)OCCOC(=O)c2ccc(-c3c4nc(c(-c5c(F)c(F)c(F)c(F)c5F)c5ccc([nH]5)c(-c5c(F)c(F)c(F)c(F)c5F)c5nc(c(-c6c(F)c(F)c(F)c(F)c6F)c6ccc3[nH]6)C=C5)C=C4)cc2)c1
REMARK SMILES IDX 23 1 22 2 20 3 21 4 19 5 14 6 15 7 16 8 18 9 17 10 12 11
REMARK SMILES IDX 11 12 13 14 10 15 5 16 6 17 91 18 7 19 8 20 9 21 3 22 4 23
REMARK SMILES IDX 2 24 1 25 24 26 25 27 26 28 27 29 28 30 29 31 90 32 30 33
REMARK SMILES IDX 89 34 31 35 32 36 33 37 83 38 34 39 88 40 82 41 84 42 35 43
REMARK SMILES IDX 87 44 81 45 80 46 36 48 68 49 48 50 67 51 49 52 52 53 66 54
REMARK SMILES IDX 85 55 50 56 51 57 65 59 86 60 53 61 37 62 38 63 46 64 39 65
REMARK SMILES IDX 40 66 44 67 47 68 41 69 42 70 45 71 43 72 69 73 70 74 78 75
REMARK SMILES IDX 71 76 72 77 76 78 79 79 73 80 74 81 77 82 75 83 54 84 55 85
REMARK SMILES IDX 63 86 56 87 57 88 61 89 64 90 58 91 59 92 62 93 60 94
REMARK H PARENT 11 13 84 47 52 58
REMARK Flexibility Score: inf
ROOT
ATOM      1  C   UNL A   1      31.943  29.267  25.098  1.00  0.00     0.274 C 
ENDROOT
BRANCH   1   2
ATOM      2  O   UNL A   1      31.849  27.681  25.081  1.00  0.00    -0.462 OA
BRANCH   2   3
ATOM      3  C   UNL A   1      32.577  26.952  25.941  1.00  0.00     0.310 C 
ATOM      4  O   UNL A   1      33.598  27.345  26.473  1.00  0.00    -0.252 OA
BRANCH   3   5
ATOM      5  C   UNL A   1      31.976  25.685  26.404  1.00  0.00     0.116 C 
ATOM      6  C   UNL A   1      30.551  25.347  25.957  1.00  0.00     0.097 C 
ATOM      7  C   UNL A   1      30.152  23.926  26.443  1.00  0.00     0.041 C 
ATOM      8  C   UNL A   1      31.252  23.039  26.965  1.00  0.00    -0.030 C 
ATOM      9  C   UNL A   1      33.044  24.604  26.300  1.00  0.00     0.043 C 
ATOM     10  C   UNL A   1      32.556  23.328  26.888  1.00  0.00    -0.030 C 
BRANCH   6  11
ATOM     11  C   UNL A   1      30.013  25.762  24.551  1.00  0.00     0.228 C 
ATOM     12  N   UNL A   1      30.610  25.510  23.310  1.00  0.00    -0.326 N 
ATOM     13  H   UNL A   1      30.266  26.084  22.588  1.00  0.00     0.169 HD
ATOM     14  O   UNL A   1      28.942  26.383  24.498  1.00  0.00    -0.274 OA
BRANCH  12  15
ATOM     15  C   UNL A   1      31.621  24.586  22.873  1.00  0.00     0.044 A 
ATOM     16  C   UNL A   1      32.603  21.679  23.552  1.00  0.00     0.062 A 
ATOM     17  C   UNL A   1      34.267  22.221  23.689  1.00  0.00     0.016 A 
ATOM     18  C   UNL A   1      31.301  22.838  23.140  1.00  0.00     0.042 A 
ATOM     19  C   UNL A   1      34.600  23.971  23.406  1.00  0.00     0.006 A 
ATOM     20  C   UNL A   1      33.300  25.160  22.864  1.00  0.00    -0.027 A 
ATOM     21  C   UNL A   1      33.473  26.268  21.818  1.00  0.00     0.046 C 
BRANCH  16  22
ATOM     22  C   UNL A   1      32.424  20.287  23.996  1.00  0.00     0.337 C 
ATOM     23  O   UNL A   1      32.044  20.015  25.121  1.00  0.00    -0.246 OA
BRANCH  22  24
ATOM     24  O   UNL A   1      32.242  19.510  22.906  1.00  0.00    -0.465 OA
ATOM     25  C   UNL A   1      32.581  18.141  23.096  1.00  0.00     0.282 C 
ENDBRANCH  22  24
ENDBRANCH  16  22
ENDBRANCH  12  15
ENDBRANCH   6  11
ENDBRANCH   3   5
ENDBRANCH   2   3
ENDBRANCH   1   2
BRANCH   1  26
ATOM     26  C   UNL A   1      32.538  30.584  26.758  1.00  0.00     0.275 C 
BRANCH  26  27
ATOM     27  O   UNL A   1      34.227  30.685  27.477  1.00  0.00    -0.458 OA
BRANCH  27  28
ATOM     28  C   UNL A   1      35.308  31.452  28.055  1.00  0.00     0.338 C 
ATOM     29  O   UNL A   1      35.601  32.535  27.546  1.00  0.00    -0.246 OA
BRANCH  28  30
ATOM     30  C   UNL A   1      36.266  30.997  29.207  1.00  0.00     0.060 A 
ATOM     31  C   UNL A   1      36.334  29.738  29.886  1.00  0.00     0.016 A 
ATOM     32  C   UNL A   1      37.437  31.705  29.154  1.00  0.00     0.016 A 
ATOM     33  C   UNL A   1      37.600  29.049  30.122  1.00  0.00     0.010 A 
ATOM     34  C   UNL A   1      38.602  30.921  29.156  1.00  0.00     0.010 A 
ATOM     35  C   UNL A   1      38.773  29.547  29.544  1.00  0.00    -0.014 A 
BRANCH  35  36
ATOM     36  C   UNL A   1      40.109  28.837  29.110  1.00  0.00     0.031 A 
ATOM     37  C   UNL A   1      40.416  27.391  28.614  1.00  0.00     0.074 A 
ATOM     38  C   UNL A   1      41.205  29.644  29.184  1.00  0.00     0.049 A 
ATOM     39  N   UNL A   1      41.137  26.475  29.217  1.00  0.00    -0.248 NA
ATOM     40  C   UNL A   1      40.090  26.914  27.248  1.00  0.00     0.031 C 
ATOM     41  C   UNL A   1      42.623  29.398  28.999  1.00  0.00     0.029 A 
ATOM     42  N   UNL A   1      41.232  30.941  29.731  1.00  0.00    -0.354 N 
ATOM     43  C   UNL A   1      41.442  25.469  28.268  1.00  0.00     0.074 A 
ATOM     44  C   UNL A   1      40.521  25.650  27.190  1.00  0.00     0.031 C 
ATOM     45  C   UNL A   1      43.279  30.242  29.839  1.00  0.00     0.029 A 
ATOM     46  C   UNL A   1      42.270  30.959  30.630  1.00  0.00     0.049 A 
ATOM     47  H   UNL A   1      40.629  31.687  29.511  1.00  0.00     0.167 HD
ATOM     48  C   UNL A   1      42.673  24.864  28.138  1.00  0.00     0.037 A 
ATOM     49  C   UNL A   1      41.935  30.866  31.954  1.00  0.00     0.037 A 
ATOM     50  C   UNL A   1      43.639  25.598  28.913  1.00  0.00     0.049 A 
ATOM     51  C   UNL A   1      42.576  29.671  32.585  1.00  0.00     0.074 A 
ATOM     52  C   UNL A   1      44.591  26.547  28.592  1.00  0.00     0.029 A 
ATOM     53  N   UNL A   1      43.496  25.619  30.270  1.00  0.00    -0.354 N 
ATOM     54  N   UNL A   1      43.080  28.694  31.894  1.00  0.00    -0.248 NA
ATOM     55  C   UNL A   1      42.637  29.438  34.023  1.00  0.00     0.031 C 
ATOM     56  C   UNL A   1      45.034  27.137  29.805  1.00  0.00     0.029 A 
ATOM     57  C   UNL A   1      44.345  26.532  30.840  1.00  0.00     0.049 A 
ATOM     58  H   UNL A   1      42.867  25.054  30.773  1.00  0.00     0.167 HD
ATOM     59  C   UNL A   1      43.584  27.760  32.738  1.00  0.00     0.074 A 
ATOM     60  C   UNL A   1      43.228  28.233  34.061  1.00  0.00     0.031 C 
ATOM     61  C   UNL A   1      44.260  26.678  32.270  1.00  0.00     0.037 A 
BRANCH  48  62
ATOM     62  C   UNL A   1      43.146  23.825  27.106  1.00  0.00     0.064 A 
ATOM     63  C   UNL A   1      42.827  22.445  27.245  1.00  0.00     0.173 A 
ATOM     64  C   UNL A   1      43.818  24.135  25.906  1.00  0.00     0.173 A 
ATOM     65  F   UNL A   1      42.107  21.987  28.276  1.00  0.00    -0.203 F 
ATOM     66  C   UNL A   1      43.210  21.464  26.323  1.00  0.00     0.198 A 
ATOM     67  C   UNL A   1      44.211  23.145  24.980  1.00  0.00     0.198 A 
ATOM     68  F   UNL A   1      44.084  25.407  25.579  1.00  0.00    -0.203 F 
ATOM     69  F   UNL A   1      42.880  20.182  26.539  1.00  0.00    -0.200 F 
ATOM     70  C   UNL A   1      43.915  21.811  25.194  1.00  0.00     0.200 A 
ATOM     71  F   UNL A   1      44.874  23.493  23.867  1.00  0.00    -0.200 F 
ATOM     72  F   UNL A   1      44.289  20.870  24.314  1.00  0.00    -0.200 F 
ENDBRANCH  48  62
BRANCH  49  73
ATOM     73  C   UNL A   1      40.570  31.398  32.358  1.00  0.00     0.064 A 
ATOM     74  C   UNL A   1      40.233  32.754  32.138  1.00  0.00     0.173 A 
ATOM     75  C   UNL A   1      39.505  30.557  32.734  1.00  0.00     0.173 A 
ATOM     76  F   UNL A   1      41.171  33.622  31.724  1.00  0.00    -0.203 F 
ATOM     77  C   UNL A   1      38.915  33.221  32.232  1.00  0.00     0.198 A 
ATOM     78  C   UNL A   1      38.186  31.027  32.832  1.00  0.00     0.198 A 
ATOM     79  F   UNL A   1      39.711  29.250  32.944  1.00  0.00    -0.203 F 
ATOM     80  F   UNL A   1      38.625  34.482  31.876  1.00  0.00    -0.200 F 
ATOM     81  C   UNL A   1      37.889  32.354  32.568  1.00  0.00     0.200 A 
ATOM     82  F   UNL A   1      37.190  30.174  33.116  1.00  0.00    -0.200 F 
ATOM     83  F   UNL A   1      36.615  32.774  32.552  1.00  0.00    -0.200 F 
ENDBRANCH  49  73
BRANCH  61  84
ATOM     84  C   UNL A   1      44.840  25.630  33.152  1.00  0.00     0.064 A 
ATOM     85  C   UNL A   1      44.028  24.862  33.991  1.00  0.00     0.173 A 
ATOM     86  C   UNL A   1      46.231  25.412  33.242  1.00  0.00     0.173 A 
ATOM     87  F   UNL A   1      42.708  25.091  34.071  1.00  0.00    -0.203 F 
ATOM     88  C   UNL A   1      44.561  23.848  34.777  1.00  0.00     0.198 A 
ATOM     89  C   UNL A   1      46.767  24.443  34.077  1.00  0.00     0.198 A 
ATOM     90  F   UNL A   1      47.115  26.104  32.509  1.00  0.00    -0.203 F 
ATOM     91  F   UNL A   1      43.740  23.069  35.492  1.00  0.00    -0.200 F 
ATOM     92  C   UNL A   1      45.929  23.637  34.819  1.00  0.00     0.200 A 
ATOM     93  F   UNL A   1      48.096  24.285  34.140  1.00  0.00    -0.200 F 
ATOM     94  F   UNL A   1      46.439  22.659  35.574  1.00  0.00    -0.200 F 
ENDBRANCH  61  84
ENDBRANCH  35  36
ENDBRANCH  28  30
ENDBRANCH  27  28
ENDBRANCH  26  27
ENDBRANCH   1  26
TORSDOF 15
ENDMDL
MODEL 3
REMARK VINA RESULT:     -14.5      3.466      9.911
REMARK SMILES COC(=O)c1ccc(C)c(NC(=O)[C@H]2CC=CC[C@H]2C(=O)OCCOC(=O)c2ccc(-c3c4nc(c(-c5c(F)c(F)c(F)c(F)c5F)c5ccc([nH]5)c(-c5c(F)c(F)c(F)c(F)c5F)c5nc(c(-c6c(F)c(F)c(F)c(F)c6F)c6ccc3[nH]6)C=C5)C=C4)cc2)c1
REMARK SMILES IDX 23 1 22 2 20 3 21 4 19 5 14 6 15 7 16 8 18 9 17 10 12 11
REMARK SMILES IDX 11 12 13 14 10 15 5 16 6 17 91 18 7 19 8 20 9 21 3 22 4 23
REMARK SMILES IDX 2 24 1 25 24 26 25 27 26 28 27 29 28 30 29 31 90 32 30 33
REMARK SMILES IDX 89 34 31 35 32 36 33 37 83 38 34 39 88 40 82 41 84 42 35 43
REMARK SMILES IDX 87 44 81 45 80 46 36 48 68 49 48 50 67 51 49 52 52 53 66 54
REMARK SMILES IDX 85 55 50 56 51 57 65 59 86 60 53 61 37 62 38 63 46 64 39 65
REMARK SMILES IDX 40 66 44 67 47 68 41 69 42 70 45 71 43 72 69 73 70 74 78 75
REMARK SMILES IDX 71 76 72 77 76 78 79 79 73 80 74 81 77 82 75 83 54 84 55 85
REMARK SMILES IDX 63 86 56 87 57 88 61 89 64 90 58 91 59 92 62 93 60 94
REMARK H PARENT 11 13 84 47 52 58
REMARK Flexibility Score: inf
ROOT
ATOM      1  C   UNL A   1      35.134  23.263  26.143  1.00  0.00     0.274 C 
ENDROOT
BRANCH   1   2
ATOM      2  O   UNL A   1      33.802  23.600  25.345  1.00  0.00    -0.462 OA
BRANCH   2   3
ATOM      3  C   UNL A   1      33.762  23.465  24.010  1.00  0.00     0.310 C 
ATOM      4  O   UNL A   1      33.801  22.396  23.432  1.00  0.00    -0.252 OA
BRANCH   3   5
ATOM      5  C   UNL A   1      33.449  24.683  23.235  1.00  0.00     0.116 C 
ATOM      6  C   UNL A   1      32.055  24.817  22.616  1.00  0.00     0.097 C 
ATOM      7  C   UNL A   1      31.887  26.213  21.955  1.00  0.00     0.041 C 
ATOM      8  C   UNL A   1      32.921  27.259  22.273  1.00  0.00    -0.030 C 
ATOM      9  C   UNL A   1      34.021  25.872  23.997  1.00  0.00     0.043 C 
ATOM     10  C   UNL A   1      33.874  27.121  23.203  1.00  0.00    -0.030 C 
BRANCH   6  11
ATOM     11  C   UNL A   1      30.787  24.239  23.320  1.00  0.00     0.228 C 
ATOM     12  N   UNL A   1      29.986  24.878  24.275  1.00  0.00    -0.326 N 
ATOM     13  H   UNL A   1      29.419  24.257  24.787  1.00  0.00     0.169 HD
ATOM     14  O   UNL A   1      30.426  23.093  23.019  1.00  0.00    -0.274 OA
BRANCH  12  15
ATOM     15  C   UNL A   1      29.822  26.253  24.663  1.00  0.00     0.044 A 
ATOM     16  C   UNL A   1      29.147  29.011  23.318  1.00  0.00     0.062 A 
ATOM     17  C   UNL A   1      30.530  29.777  24.082  1.00  0.00     0.016 A 
ATOM     18  C   UNL A   1      28.790  27.281  23.611  1.00  0.00     0.042 A 
ATOM     19  C   UNL A   1      31.562  28.757  25.152  1.00  0.00     0.006 A 
ATOM     20  C   UNL A   1      31.150  27.009  25.565  1.00  0.00    -0.027 A 
ATOM     21  C   UNL A   1      31.291  26.352  26.944  1.00  0.00     0.046 C 
BRANCH  16  22
ATOM     22  C   UNL A   1      28.500  29.879  22.319  1.00  0.00     0.337 C 
ATOM     23  O   UNL A   1      28.756  29.792  21.132  1.00  0.00    -0.246 OA
BRANCH  22  24
ATOM     24  O   UNL A   1      27.333  30.325  22.832  1.00  0.00    -0.465 OA
ATOM     25  C   UNL A   1      27.429  31.572  23.513  1.00  0.00     0.282 C 
ENDBRANCH  22  24
ENDBRANCH  16  22
ENDBRANCH  12  15
ENDBRANCH   6  11
ENDBRANCH   3   5
ENDBRANCH   2   3
ENDBRANCH   1   2
BRANCH   1  26
ATOM     26  C   UNL A   1      37.217  23.676  25.562  1.00  0.00     0.275 C 
BRANCH  26  27
ATOM     27  O   UNL A   1      38.705  23.031  26.426  1.00  0.00    -0.458 OA
BRANCH  27  28
ATOM     28  C   UNL A   1      40.022  23.230  26.989  1.00  0.00     0.338 C 
ATOM     29  O   UNL A   1      40.507  22.338  27.685  1.00  0.00    -0.246 OA
BRANCH  28  30
ATOM     30  C   UNL A   1      40.879  24.540  26.926  1.00  0.00     0.060 A 
ATOM     31  C   UNL A   1      40.647  25.739  26.176  1.00  0.00     0.016 A 
ATOM     32  C   UNL A   1      41.592  24.694  28.084  1.00  0.00     0.016 A 
ATOM     33  C   UNL A   1      40.764  27.065  26.776  1.00  0.00     0.010 A 
ATOM     34  C   UNL A   1      41.448  25.945  28.704  1.00  0.00     0.010 A 
ATOM     35  C   UNL A   1      40.959  27.182  28.157  1.00  0.00    -0.014 A 
BRANCH  35  36
ATOM     36  C   UNL A   1      40.582  28.321  29.175  1.00  0.00     0.031 A 
ATOM     37  C   UNL A   1      39.408  29.348  29.214  1.00  0.00     0.074 A 
ATOM     38  C   UNL A   1      41.449  28.428  30.221  1.00  0.00     0.049 A 
ATOM     39  N   UNL A   1      39.485  30.653  29.108  1.00  0.00    -0.248 NA
ATOM     40  C   UNL A   1      38.023  28.982  29.594  1.00  0.00     0.031 C 
ATOM     41  C   UNL A   1      41.565  29.380  31.310  1.00  0.00     0.029 A 
ATOM     42  N   UNL A   1      42.663  27.726  30.355  1.00  0.00    -0.354 N 
ATOM     43  C   UNL A   1      38.253  31.196  29.550  1.00  0.00     0.074 A 
ATOM     44  C   UNL A   1      37.317  30.117  29.536  1.00  0.00     0.031 C 
ATOM     45  C   UNL A   1      42.890  29.484  31.599  1.00  0.00     0.029 A 
ATOM     46  C   UNL A   1      43.625  28.668  30.625  1.00  0.00     0.049 A 
ATOM     47  H   UNL A   1      42.794  26.754  30.273  1.00  0.00     0.167 HD
ATOM     48  C   UNL A   1      38.133  32.312  30.350  1.00  0.00     0.037 A 
ATOM     49  C   UNL A   1      44.439  29.027  29.584  1.00  0.00     0.037 A 
ATOM     50  C   UNL A   1      39.430  32.655  30.872  1.00  0.00     0.049 A 
ATOM     51  C   UNL A   1      44.339  30.494  29.311  1.00  0.00     0.074 A 
ATOM     52  C   UNL A   1      40.056  32.428  32.083  1.00  0.00     0.029 A 
ATOM     53  N   UNL A   1      40.393  33.061  29.995  1.00  0.00    -0.354 N 
ATOM     54  N   UNL A   1      43.371  31.233  29.763  1.00  0.00    -0.248 NA
ATOM     55  C   UNL A   1      45.261  31.233  28.457  1.00  0.00     0.031 C 
ATOM     56  C   UNL A   1      41.435  32.725  31.915  1.00  0.00     0.029 A 
ATOM     57  C   UNL A   1      41.618  33.130  30.606  1.00  0.00     0.049 A 
ATOM     58  H   UNL A   1      40.230  33.275  29.048  1.00  0.00     0.167 HD
ATOM     59  C   UNL A   1      43.550  32.512  29.351  1.00  0.00     0.074 A 
ATOM     60  C   UNL A   1      44.708  32.457  28.482  1.00  0.00     0.031 C 
ATOM     61  C   UNL A   1      42.728  33.510  29.770  1.00  0.00     0.037 A 
BRANCH  48  62
ATOM     62  C   UNL A   1      36.868  32.948  30.954  1.00  0.00     0.064 A 
ATOM     63  C   UNL A   1      36.012  33.777  30.176  1.00  0.00     0.173 A 
ATOM     64  C   UNL A   1      36.386  32.693  32.254  1.00  0.00     0.173 A 
ATOM     65  F   UNL A   1      36.267  34.045  28.889  1.00  0.00    -0.203 F 
ATOM     66  C   UNL A   1      34.838  34.358  30.669  1.00  0.00     0.198 A 
ATOM     67  C   UNL A   1      35.206  33.285  32.753  1.00  0.00     0.198 A 
ATOM     68  F   UNL A   1      37.022  31.837  33.065  1.00  0.00    -0.203 F 
ATOM     69  F   UNL A   1      34.096  35.140  29.871  1.00  0.00    -0.200 F 
ATOM     70  C   UNL A   1      34.440  34.124  31.964  1.00  0.00     0.200 A 
ATOM     71  F   UNL A   1      34.807  33.030  34.009  1.00  0.00    -0.200 F 
ATOM     72  F   UNL A   1      33.319  34.686  32.439  1.00  0.00    -0.200 F 
ENDBRANCH  48  62
BRANCH  49  73
ATOM     73  C   UNL A   1      44.676  27.987  28.503  1.00  0.00     0.064 A 
ATOM     74  C   UNL A   1      45.265  26.741  28.822  1.00  0.00     0.173 A 
ATOM     75  C   UNL A   1      44.123  28.089  27.212  1.00  0.00     0.173 A 
ATOM     76  F   UNL A   1      45.771  26.529  30.048  1.00  0.00    -0.203 F 
ATOM     77  C   UNL A   1      45.248  25.657  27.933  1.00  0.00     0.198 A 
ATOM     78  C   UNL A   1      44.111  27.005  26.320  1.00  0.00     0.198 A 
ATOM     79  F   UNL A   1      43.519  29.218  26.817  1.00  0.00    -0.203 F 
ATOM     80  F   UNL A   1      45.692  24.456  28.333  1.00  0.00    -0.200 F 
ATOM     81  C   UNL A   1      44.661  25.787  26.685  1.00  0.00     0.200 A 
ATOM     82  F   UNL A   1      43.503  27.121  25.130  1.00  0.00    -0.200 F 
ATOM     83  F   UNL A   1      44.549  24.722  25.877  1.00  0.00    -0.200 F 
ENDBRANCH  49  73
BRANCH  61  84
ATOM     84  C   UNL A   1      42.886  34.929  29.356  1.00  0.00     0.064 A 
ATOM     85  C   UNL A   1      42.731  35.313  28.021  1.00  0.00     0.173 A 
ATOM     86  C   UNL A   1      43.270  35.937  30.266  1.00  0.00     0.173 A 
ATOM     87  F   UNL A   1      42.497  34.401  27.065  1.00  0.00    -0.203 F 
ATOM     88  C   UNL A   1      42.826  36.646  27.640  1.00  0.00     0.198 A 
ATOM     89  C   UNL A   1      43.429  37.257  29.870  1.00  0.00     0.198 A 
ATOM     90  F   UNL A   1      43.476  35.689  31.567  1.00  0.00    -0.203 F 
ATOM     91  F   UNL A   1      42.574  36.987  26.370  1.00  0.00    -0.200 F 
ATOM     92  C   UNL A   1      43.173  37.617  28.564  1.00  0.00     0.200 A 
ATOM     93  F   UNL A   1      43.812  38.175  30.767  1.00  0.00    -0.200 F 
ATOM     94  F   UNL A   1      43.262  38.899  28.195  1.00  0.00    -0.200 F 
ENDBRANCH  61  84
ENDBRANCH  35  36
ENDBRANCH  28  30
ENDBRANCH  27  28
ENDBRANCH  26  27
ENDBRANCH   1  26
TORSDOF 15
ENDMDL
