MODEL 1
REMARK VINA RESULT:     -12.4      0.000      0.000
REMARK SMILES O=C(OCCOC(=O)c1ccccc1C(=O)N1CCS[C@H]1c1ccccc1)c1ccc(-c2c3nc(c(-c4c(F)c(F)c(F)c(F)c4F)c4ccc([nH]4)c(-c4c(F)c(F)c(F)c(F)c4F)c4nc(c(-c5c(F)c(F)c(F)c(F)c5F)c5ccc2[nH]5)C=C4)C=C3)cc1
REMARK SMILES IDX 5 1 4 2 3 3 2 4 1 5 28 6 29 7 90 8 30 9 89 10 31 11 32 12
REMARK SMILES IDX 33 13 83 14 34 15 88 16 82 17 84 18 35 19 87 20 81 21 80 22
REMARK SMILES IDX 36 24 68 25 48 26 67 27 49 28 52 29 66 30 85 31 50 32 51 33
REMARK SMILES IDX 65 35 86 36 53 37 37 38 38 39 46 40 39 41 40 42 44 43 47 44
REMARK SMILES IDX 41 45 42 46 45 47 43 48 69 49 70 50 78 51 71 52 72 53 76 54
REMARK SMILES IDX 79 55 73 56 74 57 77 58 75 59 54 60 55 61 63 62 56 63 57 64
REMARK SMILES IDX 61 65 64 66 58 67 59 68 62 69 60 70 6 71 7 72 8 73 9 74
REMARK SMILES IDX 10 75 14 76 11 77 13 78 12 79 15 80 16 81 17 82 18 83 21 84
REMARK SMILES IDX 19 85 20 86 22 87 23 88 27 89 24 90 26 91 25 92
REMARK H PARENT 84 23 52 34
REMARK Flexibility Score: inf
ROOT
ATOM      1  C   UNL A   1      32.563  31.289  26.848  1.00  0.00     0.275 C 
ENDROOT
BRANCH   1   2
ATOM      2  C   UNL A   1      31.829  32.565  27.256  1.00  0.00     0.275 C 
BRANCH   2   3
ATOM      3  O   UNL A   1      32.649  33.737  27.401  1.00  0.00    -0.458 OA
BRANCH   3   4
ATOM      4  C   UNL A   1      33.464  34.116  28.411  1.00  0.00     0.338 C 
ATOM      5  O   UNL A   1      33.289  35.211  28.943  1.00  0.00    -0.246 OA
BRANCH   4   6
ATOM      6  C   UNL A   1      34.635  33.310  28.866  1.00  0.00     0.060 A 
ATOM      7  C   UNL A   1      34.582  32.242  29.762  1.00  0.00     0.016 A 
ATOM      8  C   UNL A   1      35.893  33.679  28.351  1.00  0.00     0.016 A 
ATOM      9  C   UNL A   1      35.721  31.502  30.068  1.00  0.00     0.010 A 
ATOM     10  C   UNL A   1      37.051  32.963  28.679  1.00  0.00     0.010 A 
ATOM     11  C   UNL A   1      36.963  31.872  29.548  1.00  0.00    -0.014 A 
BRANCH  11  12
ATOM     12  C   UNL A   1      38.162  31.272  30.167  1.00  0.00     0.031 A 
ATOM     13  C   UNL A   1      38.447  31.646  31.579  1.00  0.00     0.074 A 
ATOM     14  C   UNL A   1      38.866  30.301  29.560  1.00  0.00     0.049 A 
ATOM     15  N   UNL A   1      39.334  31.146  32.393  1.00  0.00    -0.248 NA
ATOM     16  C   UNL A   1      37.578  32.675  32.174  1.00  0.00     0.031 C 
ATOM     17  C   UNL A   1      38.552  29.786  28.245  1.00  0.00     0.029 A 
ATOM     18  N   UNL A   1      39.950  29.561  29.944  1.00  0.00    -0.354 N 
ATOM     19  C   UNL A   1      39.093  31.759  33.608  1.00  0.00     0.074 A 
ATOM     20  C   UNL A   1      38.014  32.703  33.421  1.00  0.00     0.031 C 
ATOM     21  C   UNL A   1      39.439  28.847  27.888  1.00  0.00     0.029 A 
ATOM     22  C   UNL A   1      40.390  28.687  28.975  1.00  0.00     0.049 A 
ATOM     23  H   UNL A   1      40.374  29.644  30.829  1.00  0.00     0.167 HD
ATOM     24  C   UNL A   1      39.714  31.526  34.783  1.00  0.00     0.037 A 
ATOM     25  C   UNL A   1      41.446  27.854  28.972  1.00  0.00     0.037 A 
ATOM     26  C   UNL A   1      40.835  30.639  34.921  1.00  0.00     0.049 A 
ATOM     27  C   UNL A   1      42.237  27.753  30.246  1.00  0.00     0.074 A 
ATOM     28  C   UNL A   1      41.626  30.415  36.029  1.00  0.00     0.029 A 
ATOM     29  N   UNL A   1      41.337  29.846  33.896  1.00  0.00    -0.354 N 
ATOM     30  N   UNL A   1      42.018  28.351  31.394  1.00  0.00    -0.248 NA
ATOM     31  C   UNL A   1      43.396  26.855  30.244  1.00  0.00     0.031 C 
ATOM     32  C   UNL A   1      42.642  29.528  35.660  1.00  0.00     0.029 A 
ATOM     33  C   UNL A   1      42.447  29.147  34.340  1.00  0.00     0.049 A 
ATOM     34  H   UNL A   1      40.961  29.789  32.987  1.00  0.00     0.167 HD
ATOM     35  C   UNL A   1      42.993  27.883  32.259  1.00  0.00     0.074 A 
ATOM     36  C   UNL A   1      43.785  26.927  31.509  1.00  0.00     0.031 C 
ATOM     37  C   UNL A   1      43.216  28.213  33.556  1.00  0.00     0.037 A 
BRANCH  24  38
ATOM     38  C   UNL A   1      39.219  32.306  35.958  1.00  0.00     0.064 A 
ATOM     39  C   UNL A   1      39.683  33.605  36.224  1.00  0.00     0.173 A 
ATOM     40  C   UNL A   1      38.326  31.725  36.867  1.00  0.00     0.173 A 
ATOM     41  F   UNL A   1      40.576  34.184  35.406  1.00  0.00    -0.203 F 
ATOM     42  C   UNL A   1      39.284  34.284  37.371  1.00  0.00     0.198 A 
ATOM     43  C   UNL A   1      37.911  32.417  38.000  1.00  0.00     0.198 A 
ATOM     44  F   UNL A   1      37.880  30.475  36.670  1.00  0.00    -0.203 F 
ATOM     45  F   UNL A   1      39.787  35.497  37.639  1.00  0.00    -0.200 F 
ATOM     46  C   UNL A   1      38.395  33.692  38.255  1.00  0.00     0.200 A 
ATOM     47  F   UNL A   1      37.056  31.841  38.857  1.00  0.00    -0.200 F 
ATOM     48  F   UNL A   1      38.018  34.342  39.364  1.00  0.00    -0.200 F 
ENDBRANCH  24  38
BRANCH  25  49
ATOM     49  C   UNL A   1      41.822  27.082  27.753  1.00  0.00     0.064 A 
ATOM     50  C   UNL A   1      41.329  25.792  27.510  1.00  0.00     0.173 A 
ATOM     51  C   UNL A   1      42.744  27.603  26.828  1.00  0.00     0.173 A 
ATOM     52  F   UNL A   1      40.457  25.237  28.364  1.00  0.00    -0.203 F 
ATOM     53  C   UNL A   1      41.775  25.038  26.422  1.00  0.00     0.198 A 
ATOM     54  C   UNL A   1      43.165  26.861  25.725  1.00  0.00     0.198 A 
ATOM     55  F   UNL A   1      43.252  28.831  27.005  1.00  0.00    -0.203 F 
ATOM     56  F   UNL A   1      41.342  23.780  26.261  1.00  0.00    -0.200 F 
ATOM     57  C   UNL A   1      42.693  25.573  25.531  1.00  0.00     0.200 A 
ATOM     58  F   UNL A   1      44.046  27.388  24.863  1.00  0.00    -0.200 F 
ATOM     59  F   UNL A   1      43.136  24.841  24.501  1.00  0.00    -0.200 F 
ENDBRANCH  25  49
BRANCH  37  60
ATOM     60  C   UNL A   1      44.357  27.514  34.233  1.00  0.00     0.064 A 
ATOM     61  C   UNL A   1      45.644  28.068  34.266  1.00  0.00     0.173 A 
ATOM     62  C   UNL A   1      44.150  26.281  34.869  1.00  0.00     0.173 A 
ATOM     63  F   UNL A   1      45.892  29.237  33.656  1.00  0.00    -0.203 F 
ATOM     64  C   UNL A   1      46.694  27.393  34.878  1.00  0.00     0.198 A 
ATOM     65  C   UNL A   1      45.194  25.629  35.516  1.00  0.00     0.198 A 
ATOM     66  F   UNL A   1      42.934  25.713  34.870  1.00  0.00    -0.203 F 
ATOM     67  F   UNL A   1      47.931  27.907  34.839  1.00  0.00    -0.200 F 
ATOM     68  C   UNL A   1      46.467  26.178  35.509  1.00  0.00     0.200 A 
ATOM     69  F   UNL A   1      44.968  24.464  36.139  1.00  0.00    -0.200 F 
ATOM     70  F   UNL A   1      47.479  25.531  36.102  1.00  0.00    -0.200 F 
ENDBRANCH  37  60
ENDBRANCH  11  12
ENDBRANCH   4   6
ENDBRANCH   3   4
ENDBRANCH   2   3
ENDBRANCH   1   2
BRANCH   1  71
ATOM     71  O   UNL A   1      31.742  30.118  26.656  1.00  0.00    -0.458 OA
BRANCH  71  72
ATOM     72  C   UNL A   1      32.228  29.251  25.731  1.00  0.00     0.339 C 
ATOM     73  O   UNL A   1      33.407  28.940  25.650  1.00  0.00    -0.246 OA
BRANCH  72  74
ATOM     74  C   UNL A   1      31.201  28.523  24.937  1.00  0.00     0.072 A 
ATOM     75  C   UNL A   1      30.599  29.366  23.964  1.00  0.00     0.016 A 
ATOM     76  C   UNL A   1      30.731  27.204  25.061  1.00  0.00     0.054 A 
ATOM     77  C   UNL A   1      29.604  28.923  23.094  1.00  0.00     0.001 A 
ATOM     78  C   UNL A   1      29.685  26.795  24.185  1.00  0.00     0.015 A 
ATOM     79  C   UNL A   1      29.147  27.625  23.203  1.00  0.00     0.001 A 
BRANCH  76  80
ATOM     80  C   UNL A   1      31.150  26.102  26.003  1.00  0.00     0.255 C 
ATOM     81  O   UNL A   1      31.544  26.377  27.139  1.00  0.00    -0.269 OA
BRANCH  80  82
ATOM     82  N   UNL A   1      31.077  24.777  25.620  1.00  0.00    -0.322 N 
ATOM     83  C   UNL A   1      30.540  23.865  26.619  1.00  0.00     0.132 C 
ATOM     84  C   UNL A   1      32.295  24.211  25.040  1.00  0.00     0.174 C 
ATOM     85  C   UNL A   1      30.522  22.469  26.033  1.00  0.00     0.093 C 
ATOM     86  S   UNL A   1      31.945  22.426  24.899  1.00  0.00    -0.130 SA
BRANCH  84  87
ATOM     87  C   UNL A   1      32.720  24.965  23.791  1.00  0.00    -0.015 A 
ATOM     88  C   UNL A   1      32.039  24.909  22.570  1.00  0.00     0.007 A 
ATOM     89  C   UNL A   1      33.730  25.941  23.935  1.00  0.00     0.007 A 
ATOM     90  C   UNL A   1      32.248  25.894  21.599  1.00  0.00     0.000 A 
ATOM     91  C   UNL A   1      33.915  26.940  22.982  1.00  0.00     0.000 A 
ATOM     92  C   UNL A   1      33.149  26.933  21.826  1.00  0.00     0.000 A 
ENDBRANCH  84  87
ENDBRANCH  80  82
ENDBRANCH  76  80
ENDBRANCH  72  74
ENDBRANCH  71  72
ENDBRANCH   1  71
TORSDOF 14
ENDMDL
MODEL 2
REMARK VINA RESULT:     -12.3      1.112      1.800
REMARK SMILES O=C(OCCOC(=O)c1ccccc1C(=O)N1CCS[C@H]1c1ccccc1)c1ccc(-c2c3nc(c(-c4c(F)c(F)c(F)c(F)c4F)c4ccc([nH]4)c(-c4c(F)c(F)c(F)c(F)c4F)c4nc(c(-c5c(F)c(F)c(F)c(F)c5F)c5ccc2[nH]5)C=C4)C=C3)cc1
REMARK SMILES IDX 5 1 4 2 3 3 2 4 1 5 28 6 29 7 90 8 30 9 89 10 31 11 32 12
REMARK SMILES IDX 33 13 83 14 34 15 88 16 82 17 84 18 35 19 87 20 81 21 80 22
REMARK SMILES IDX 36 24 68 25 48 26 67 27 49 28 52 29 66 30 85 31 50 32 51 33
REMARK SMILES IDX 65 35 86 36 53 37 37 38 38 39 46 40 39 41 40 42 44 43 47 44
REMARK SMILES IDX 41 45 42 46 45 47 43 48 69 49 70 50 78 51 71 52 72 53 76 54
REMARK SMILES IDX 79 55 73 56 74 57 77 58 75 59 54 60 55 61 63 62 56 63 57 64
REMARK SMILES IDX 61 65 64 66 58 67 59 68 62 69 60 70 6 71 7 72 8 73 9 74
REMARK SMILES IDX 10 75 14 76 11 77 13 78 12 79 15 80 16 81 17 82 18 83 21 84
REMARK SMILES IDX 19 85 20 86 22 87 23 88 27 89 24 90 26 91 25 92
REMARK H PARENT 84 23 52 34
REMARK Flexibility Score: inf
ROOT
ATOM      1  C   UNL A   1      31.780  31.463  26.992  1.00  0.00     0.275 C 
ENDROOT
BRANCH   1   2
ATOM      2  C   UNL A   1      32.082  32.948  26.797  1.00  0.00     0.275 C 
BRANCH   2   3
ATOM      3  O   UNL A   1      32.478  33.664  27.979  1.00  0.00    -0.458 OA
BRANCH   3   4
ATOM      4  C   UNL A   1      33.675  34.187  28.326  1.00  0.00     0.338 C 
ATOM      5  O   UNL A   1      33.858  35.397  28.203  1.00  0.00    -0.246 OA
BRANCH   4   6
ATOM      6  C   UNL A   1      34.834  33.359  28.773  1.00  0.00     0.060 A 
ATOM      7  C   UNL A   1      34.745  32.167  29.494  1.00  0.00     0.016 A 
ATOM      8  C   UNL A   1      36.116  33.838  28.443  1.00  0.00     0.016 A 
ATOM      9  C   UNL A   1      35.883  31.425  29.800  1.00  0.00     0.010 A 
ATOM     10  C   UNL A   1      37.269  33.117  28.775  1.00  0.00     0.010 A 
ATOM     11  C   UNL A   1      37.150  31.907  29.463  1.00  0.00    -0.014 A 
BRANCH  11  12
ATOM     12  C   UNL A   1      38.312  31.257  30.104  1.00  0.00     0.031 A 
ATOM     13  C   UNL A   1      38.573  31.602  31.528  1.00  0.00     0.074 A 
ATOM     14  C   UNL A   1      38.998  30.271  29.501  1.00  0.00     0.049 A 
ATOM     15  N   UNL A   1      39.422  31.062  32.356  1.00  0.00    -0.248 NA
ATOM     16  C   UNL A   1      37.724  32.652  32.116  1.00  0.00     0.031 C 
ATOM     17  C   UNL A   1      38.700  29.785  28.171  1.00  0.00     0.029 A 
ATOM     18  N   UNL A   1      40.046  29.489  29.901  1.00  0.00    -0.354 N 
ATOM     19  C   UNL A   1      39.171  31.666  33.574  1.00  0.00     0.074 A 
ATOM     20  C   UNL A   1      38.130  32.648  33.373  1.00  0.00     0.031 C 
ATOM     21  C   UNL A   1      39.564  28.821  27.823  1.00  0.00     0.029 A 
ATOM     22  C   UNL A   1      40.481  28.614  28.931  1.00  0.00     0.049 A 
ATOM     23  H   UNL A   1      40.450  29.546  30.798  1.00  0.00     0.167 HD
ATOM     24  C   UNL A   1      39.754  31.396  34.761  1.00  0.00     0.037 A 
ATOM     25  C   UNL A   1      41.508  27.745  28.942  1.00  0.00     0.037 A 
ATOM     26  C   UNL A   1      40.840  30.470  34.913  1.00  0.00     0.049 A 
ATOM     27  C   UNL A   1      42.262  27.600  30.234  1.00  0.00     0.074 A 
ATOM     28  C   UNL A   1      41.594  30.204  36.038  1.00  0.00     0.029 A 
ATOM     29  N   UNL A   1      41.341  29.673  33.890  1.00  0.00    -0.354 N 
ATOM     30  N   UNL A   1      42.035  28.190  31.385  1.00  0.00    -0.248 NA
ATOM     31  C   UNL A   1      43.390  26.664  30.248  1.00  0.00     0.031 C 
ATOM     32  C   UNL A   1      42.589  29.287  35.681  1.00  0.00     0.029 A 
ATOM     33  C   UNL A   1      42.415  28.932  34.351  1.00  0.00     0.049 A 
ATOM     34  H   UNL A   1      40.986  29.642  32.972  1.00  0.00     0.167 HD
ATOM     35  C   UNL A   1      42.971  27.677  32.267  1.00  0.00     0.074 A 
ATOM     36  C   UNL A   1      43.749  26.705  31.523  1.00  0.00     0.031 C 
ATOM     37  C   UNL A   1      43.172  27.982  33.574  1.00  0.00     0.037 A 
BRANCH  24  38
ATOM     38  C   UNL A   1      39.255  32.177  35.933  1.00  0.00     0.064 A 
ATOM     39  C   UNL A   1      39.787  33.437  36.255  1.00  0.00     0.173 A 
ATOM     40  C   UNL A   1      38.288  31.631  36.787  1.00  0.00     0.173 A 
ATOM     41  F   UNL A   1      40.751  33.978  35.493  1.00  0.00    -0.203 F 
ATOM     42  C   UNL A   1      39.380  34.111  37.402  1.00  0.00     0.198 A 
ATOM     43  C   UNL A   1      37.866  32.320  37.919  1.00  0.00     0.198 A 
ATOM     44  F   UNL A   1      37.774  30.418  36.536  1.00  0.00    -0.203 F 
ATOM     45  F   UNL A   1      39.945  35.283  37.725  1.00  0.00    -0.200 F 
ATOM     46  C   UNL A   1      38.416  33.555  38.229  1.00  0.00     0.200 A 
ATOM     47  F   UNL A   1      36.939  31.778  38.721  1.00  0.00    -0.200 F 
ATOM     48  F   UNL A   1      38.031  34.200  39.339  1.00  0.00    -0.200 F 
ENDBRANCH  24  38
BRANCH  25  49
ATOM     49  C   UNL A   1      41.888  26.978  27.722  1.00  0.00     0.064 A 
ATOM     50  C   UNL A   1      41.376  25.699  27.460  1.00  0.00     0.173 A 
ATOM     51  C   UNL A   1      42.833  27.490  26.816  1.00  0.00     0.173 A 
ATOM     52  F   UNL A   1      40.480  25.153  28.296  1.00  0.00    -0.203 F 
ATOM     53  C   UNL A   1      41.825  24.947  26.372  1.00  0.00     0.198 A 
ATOM     54  C   UNL A   1      43.258  26.750  25.713  1.00  0.00     0.198 A 
ATOM     55  F   UNL A   1      43.362  28.707  27.012  1.00  0.00    -0.203 F 
ATOM     56  F   UNL A   1      41.371  23.698  26.193  1.00  0.00    -0.200 F 
ATOM     57  C   UNL A   1      42.765  25.473  25.500  1.00  0.00     0.200 A 
ATOM     58  F   UNL A   1      44.162  27.268  24.869  1.00  0.00    -0.200 F 
ATOM     59  F   UNL A   1      43.211  24.741  24.470  1.00  0.00    -0.200 F 
ENDBRANCH  25  49
BRANCH  37  60
ATOM     60  C   UNL A   1      44.271  27.235  34.269  1.00  0.00     0.064 A 
ATOM     61  C   UNL A   1      44.043  25.997  34.885  1.00  0.00     0.173 A 
ATOM     62  C   UNL A   1      45.570  27.762  34.301  1.00  0.00     0.173 A 
ATOM     63  F   UNL A   1      42.812  25.462  34.894  1.00  0.00    -0.203 F 
ATOM     64  C   UNL A   1      45.070  25.331  35.545  1.00  0.00     0.198 A 
ATOM     65  C   UNL A   1      46.603  27.073  34.926  1.00  0.00     0.198 A 
ATOM     66  F   UNL A   1      45.839  28.941  33.719  1.00  0.00    -0.203 F 
ATOM     67  F   UNL A   1      44.815  24.181  36.187  1.00  0.00    -0.200 F 
ATOM     68  C   UNL A   1      46.350  25.865  35.559  1.00  0.00     0.200 A 
ATOM     69  F   UNL A   1      47.843  27.582  34.924  1.00  0.00    -0.200 F 
ATOM     70  F   UNL A   1      47.338  25.220  36.191  1.00  0.00    -0.200 F 
ENDBRANCH  37  60
ENDBRANCH  11  12
ENDBRANCH   4   6
ENDBRANCH   3   4
ENDBRANCH   2   3
ENDBRANCH   1   2
BRANCH   1  71
ATOM     71  O   UNL A   1      31.959  30.621  25.834  1.00  0.00    -0.458 OA
BRANCH  71  72
ATOM     72  C   UNL A   1      31.755  29.301  26.077  1.00  0.00     0.339 C 
ATOM     73  O   UNL A   1      31.510  28.847  27.185  1.00  0.00    -0.246 OA
BRANCH  72  74
ATOM     74  C   UNL A   1      31.639  28.440  24.869  1.00  0.00     0.072 A 
ATOM     75  C   UNL A   1      30.837  29.051  23.867  1.00  0.00     0.016 A 
ATOM     76  C   UNL A   1      32.135  27.146  24.629  1.00  0.00     0.054 A 
ATOM     77  C   UNL A   1      30.572  28.446  22.640  1.00  0.00     0.001 A 
ATOM     78  C   UNL A   1      31.811  26.540  23.383  1.00  0.00     0.015 A 
ATOM     79  C   UNL A   1      31.067  27.182  22.394  1.00  0.00     0.001 A 
BRANCH  76  80
ATOM     80  C   UNL A   1      32.978  26.248  25.500  1.00  0.00     0.255 C 
ATOM     81  O   UNL A   1      34.025  26.672  25.996  1.00  0.00    -0.269 OA
BRANCH  80  82
ATOM     82  N   UNL A   1      32.584  24.953  25.772  1.00  0.00    -0.322 N 
ATOM     83  C   UNL A   1      31.398  24.822  26.606  1.00  0.00     0.132 C 
ATOM     84  C   UNL A   1      33.629  24.054  26.260  1.00  0.00     0.174 C 
ATOM     85  C   UNL A   1      31.103  23.348  26.792  1.00  0.00     0.093 C 
ATOM     86  S   UNL A   1      32.736  22.544  26.761  1.00  0.00    -0.130 SA
BRANCH  84  87
ATOM     87  C   UNL A   1      34.764  23.923  25.256  1.00  0.00    -0.015 A 
ATOM     88  C   UNL A   1      36.120  23.936  25.598  1.00  0.00     0.007 A 
ATOM     89  C   UNL A   1      34.423  23.553  23.936  1.00  0.00     0.007 A 
ATOM     90  C   UNL A   1      37.078  23.439  24.708  1.00  0.00     0.000 A 
ATOM     91  C   UNL A   1      35.372  23.029  23.062  1.00  0.00     0.000 A 
ATOM     92  C   UNL A   1      36.698  22.944  23.462  1.00  0.00     0.000 A 
ENDBRANCH  84  87
ENDBRANCH  80  82
ENDBRANCH  76  80
ENDBRANCH  72  74
ENDBRANCH  71  72
ENDBRANCH   1  71
TORSDOF 14
ENDMDL
MODEL 3
REMARK VINA RESULT:     -12.2      4.999     10.459
REMARK SMILES O=C(OCCOC(=O)c1ccccc1C(=O)N1CCS[C@H]1c1ccccc1)c1ccc(-c2c3nc(c(-c4c(F)c(F)c(F)c(F)c4F)c4ccc([nH]4)c(-c4c(F)c(F)c(F)c(F)c4F)c4nc(c(-c5c(F)c(F)c(F)c(F)c5F)c5ccc2[nH]5)C=C4)C=C3)cc1
REMARK SMILES IDX 5 1 4 2 3 3 2 4 1 5 28 6 29 7 90 8 30 9 89 10 31 11 32 12
REMARK SMILES IDX 33 13 83 14 34 15 88 16 82 17 84 18 35 19 87 20 81 21 80 22
REMARK SMILES IDX 36 24 68 25 48 26 67 27 49 28 52 29 66 30 85 31 50 32 51 33
REMARK SMILES IDX 65 35 86 36 53 37 37 38 38 39 46 40 39 41 40 42 44 43 47 44
REMARK SMILES IDX 41 45 42 46 45 47 43 48 69 49 70 50 78 51 71 52 72 53 76 54
REMARK SMILES IDX 79 55 73 56 74 57 77 58 75 59 54 60 55 61 63 62 56 63 57 64
REMARK SMILES IDX 61 65 64 66 58 67 59 68 62 69 60 70 6 71 7 72 8 73 9 74
REMARK SMILES IDX 10 75 14 76 11 77 13 78 12 79 15 80 16 81 17 82 18 83 21 84
REMARK SMILES IDX 19 85 20 86 22 87 23 88 27 89 24 90 26 91 25 92
REMARK H PARENT 84 23 52 34
REMARK Flexibility Score: inf
ROOT
ATOM      1  C   UNL A   1      38.183  21.051  25.344  1.00  0.00     0.275 C 
ENDROOT
BRANCH   1   2
ATOM      2  C   UNL A   1      38.756  19.647  25.163  1.00  0.00     0.275 C 
BRANCH   2   3
ATOM      3  O   UNL A   1      39.790  19.271  26.086  1.00  0.00    -0.458 OA
BRANCH   3   4
ATOM      4  C   UNL A   1      41.118  19.525  26.065  1.00  0.00     0.338 C 
ATOM      5  O   UNL A   1      41.892  18.636  25.713  1.00  0.00    -0.246 OA
BRANCH   4   6
ATOM      6  C   UNL A   1      41.715  20.810  26.535  1.00  0.00     0.060 A 
ATOM      7  C   UNL A   1      41.946  21.155  27.867  1.00  0.00     0.016 A 
ATOM      8  C   UNL A   1      42.055  21.748  25.541  1.00  0.00     0.016 A 
ATOM      9  C   UNL A   1      42.579  22.349  28.202  1.00  0.00     0.010 A 
ATOM     10  C   UNL A   1      42.661  22.967  25.869  1.00  0.00     0.010 A 
ATOM     11  C   UNL A   1      42.917  23.270  27.208  1.00  0.00    -0.014 A 
BRANCH  11  12
ATOM     12  C   UNL A   1      43.266  24.638  27.644  1.00  0.00     0.031 A 
ATOM     13  C   UNL A   1      44.673  25.073  27.427  1.00  0.00     0.074 A 
ATOM     14  C   UNL A   1      42.332  25.514  28.050  1.00  0.00     0.049 A 
ATOM     15  N   UNL A   1      45.192  26.259  27.573  1.00  0.00    -0.248 NA
ATOM     16  C   UNL A   1      45.605  24.053  26.918  1.00  0.00     0.031 C 
ATOM     17  C   UNL A   1      40.924  25.200  28.143  1.00  0.00     0.029 A 
ATOM     18  N   UNL A   1      42.394  26.825  28.435  1.00  0.00    -0.354 N 
ATOM     19  C   UNL A   1      46.493  26.141  27.123  1.00  0.00     0.074 A 
ATOM     20  C   UNL A   1      46.706  24.762  26.745  1.00  0.00     0.031 C 
ATOM     21  C   UNL A   1      40.238  26.256  28.602  1.00  0.00     0.029 A 
ATOM     22  C   UNL A   1      41.179  27.341  28.828  1.00  0.00     0.049 A 
ATOM     23  H   UNL A   1      43.227  27.351  28.431  1.00  0.00     0.167 HD
ATOM     24  C   UNL A   1      47.418  27.118  27.017  1.00  0.00     0.037 A 
ATOM     25  C   UNL A   1      40.867  28.555  29.316  1.00  0.00     0.037 A 
ATOM     26  C   UNL A   1      47.202  28.461  27.474  1.00  0.00     0.049 A 
ATOM     27  C   UNL A   1      41.971  29.575  29.359  1.00  0.00     0.074 A 
ATOM     28  C   UNL A   1      48.101  29.506  27.535  1.00  0.00     0.029 A 
ATOM     29  N   UNL A   1      45.994  28.935  27.974  1.00  0.00    -0.354 N 
ATOM     30  N   UNL A   1      43.212  29.455  28.949  1.00  0.00    -0.248 NA
ATOM     31  C   UNL A   1      41.640  30.896  29.902  1.00  0.00     0.031 C 
ATOM     32  C   UNL A   1      47.453  30.597  28.125  1.00  0.00     0.029 A 
ATOM     33  C   UNL A   1      46.132  30.254  28.371  1.00  0.00     0.049 A 
ATOM     34  H   UNL A   1      45.163  28.410  28.038  1.00  0.00     0.167 HD
ATOM     35  C   UNL A   1      43.803  30.689  29.157  1.00  0.00     0.074 A 
ATOM     36  C   UNL A   1      42.773  31.553  29.702  1.00  0.00     0.031 C 
ATOM     37  C   UNL A   1      45.083  31.077  28.921  1.00  0.00     0.037 A 
BRANCH  24  38
ATOM     38  C   UNL A   1      48.741  26.715  26.452  1.00  0.00     0.064 A 
ATOM     39  C   UNL A   1      49.761  26.200  27.270  1.00  0.00     0.173 A 
ATOM     40  C   UNL A   1      49.021  26.912  25.094  1.00  0.00     0.173 A 
ATOM     41  F   UNL A   1      49.555  26.040  28.587  1.00  0.00    -0.203 F 
ATOM     42  C   UNL A   1      51.019  25.916  26.748  1.00  0.00     0.198 A 
ATOM     43  C   UNL A   1      50.272  26.603  24.571  1.00  0.00     0.198 A 
ATOM     44  F   UNL A   1      48.088  27.430  24.281  1.00  0.00    -0.203 F 
ATOM     45  F   UNL A   1      51.997  25.485  27.557  1.00  0.00    -0.200 F 
ATOM     46  C   UNL A   1      51.272  26.113  25.399  1.00  0.00     0.200 A 
ATOM     47  F   UNL A   1      50.517  26.800  23.269  1.00  0.00    -0.200 F 
ATOM     48  F   UNL A   1      52.487  25.849  24.898  1.00  0.00    -0.200 F 
ENDBRANCH  24  38
BRANCH  25  49
ATOM     49  C   UNL A   1      39.495  28.865  29.807  1.00  0.00     0.064 A 
ATOM     50  C   UNL A   1      38.530  29.468  28.987  1.00  0.00     0.173 A 
ATOM     51  C   UNL A   1      39.137  28.618  31.145  1.00  0.00     0.173 A 
ATOM     52  F   UNL A   1      38.819  29.740  27.705  1.00  0.00    -0.203 F 
ATOM     53  C   UNL A   1      37.287  29.853  29.491  1.00  0.00     0.198 A 
ATOM     54  C   UNL A   1      37.883  28.976  31.639  1.00  0.00     0.198 A 
ATOM     55  F   UNL A   1      40.015  28.045  31.980  1.00  0.00    -0.203 F 
ATOM     56  F   UNL A   1      36.417  30.497  28.700  1.00  0.00    -0.200 F 
ATOM     57  C   UNL A   1      36.965  29.607  30.817  1.00  0.00     0.200 A 
ATOM     58  F   UNL A   1      37.575  28.727  32.920  1.00  0.00    -0.200 F 
ATOM     59  F   UNL A   1      35.779  29.997  31.305  1.00  0.00    -0.200 F 
ENDBRANCH  25  49
BRANCH  37  60
ATOM     60  C   UNL A   1      45.415  32.502  29.243  1.00  0.00     0.064 A 
ATOM     61  C   UNL A   1      45.928  32.874  30.494  1.00  0.00     0.173 A 
ATOM     62  C   UNL A   1      45.233  33.503  28.279  1.00  0.00     0.173 A 
ATOM     63  F   UNL A   1      46.103  31.952  31.453  1.00  0.00    -0.203 F 
ATOM     64  C   UNL A   1      46.208  34.204  30.782  1.00  0.00     0.198 A 
ATOM     65  C   UNL A   1      45.553  34.828  28.556  1.00  0.00     0.198 A 
ATOM     66  F   UNL A   1      44.751  33.196  27.064  1.00  0.00    -0.203 F 
ATOM     67  F   UNL A   1      46.632  34.548  32.006  1.00  0.00    -0.200 F 
ATOM     68  C   UNL A   1      46.028  35.179  29.811  1.00  0.00     0.200 A 
ATOM     69  F   UNL A   1      45.394  35.765  27.612  1.00  0.00    -0.200 F 
ATOM     70  F   UNL A   1      46.302  36.460  30.089  1.00  0.00    -0.200 F 
ENDBRANCH  37  60
ENDBRANCH  11  12
ENDBRANCH   4   6
ENDBRANCH   3   4
ENDBRANCH   2   3
ENDBRANCH   1   2
BRANCH   1  71
ATOM     71  O   UNL A   1      37.078  21.403  24.487  1.00  0.00    -0.458 OA
BRANCH  71  72
ATOM     72  C   UNL A   1      35.985  21.855  25.154  1.00  0.00     0.339 C 
ATOM     73  O   UNL A   1      36.042  22.629  26.098  1.00  0.00    -0.246 OA
BRANCH  72  74
ATOM     74  C   UNL A   1      34.674  21.516  24.536  1.00  0.00     0.072 A 
ATOM     75  C   UNL A   1      34.273  20.190  24.855  1.00  0.00     0.016 A 
ATOM     76  C   UNL A   1      33.860  22.271  23.674  1.00  0.00     0.054 A 
ATOM     77  C   UNL A   1      33.083  19.632  24.395  1.00  0.00     0.001 A 
ATOM     78  C   UNL A   1      32.672  21.656  23.188  1.00  0.00     0.015 A 
ATOM     79  C   UNL A   1      32.273  20.372  23.558  1.00  0.00     0.001 A 
BRANCH  76  80
ATOM     80  C   UNL A   1      34.035  23.673  23.144  1.00  0.00     0.255 C 
ATOM     81  O   UNL A   1      35.166  24.124  22.948  1.00  0.00    -0.269 OA
BRANCH  80  82
ATOM     82  N   UNL A   1      32.939  24.461  22.850  1.00  0.00    -0.322 N 
ATOM     83  C   UNL A   1      33.020  25.203  21.600  1.00  0.00     0.132 C 
ATOM     84  C   UNL A   1      32.481  25.346  23.919  1.00  0.00     0.174 C 
ATOM     85  C   UNL A   1      31.742  25.997  21.431  1.00  0.00     0.093 C 
ATOM     86  S   UNL A   1      31.225  26.406  23.129  1.00  0.00    -0.130 SA
BRANCH  84  87
ATOM     87  C   UNL A   1      32.087  24.562  25.161  1.00  0.00    -0.015 A 
ATOM     88  C   UNL A   1      30.939  23.768  25.257  1.00  0.00     0.007 A 
ATOM     89  C   UNL A   1      33.045  24.460  26.195  1.00  0.00     0.007 A 
ATOM     90  C   UNL A   1      30.835  22.796  26.257  1.00  0.00     0.000 A 
ATOM     91  C   UNL A   1      32.956  23.471  27.170  1.00  0.00     0.000 A 
ATOM     92  C   UNL A   1      31.862  22.616  27.181  1.00  0.00     0.000 A 
ENDBRANCH  84  87
ENDBRANCH  80  82
ENDBRANCH  76  80
ENDBRANCH  72  74
ENDBRANCH  71  72
ENDBRANCH   1  71
TORSDOF 14
ENDMDL
