MODEL 1
REMARK VINA RESULT:     -12.7      0.000      0.000
REMARK SMILES Cc1c(C#N)c2ccccc2n1CC(=O)N1CC[C@H](O)C[C@@H]1C(=O)OCCOC(=O)c1ccc(-c2c3nc(c(-c4c(F)c(F)c(F)c(F)c4F)c4ccc([nH]4)c(-c4c(F)c(F)c(F)c(F)c4F)c4nc(c(-c5c(F)c(F)c(F)c(F)c5F)c5ccc2[nH]5)C=C4)C=C3)cc1
REMARK SMILES IDX 26 1 25 2 23 3 24 4 22 5 16 6 17 7 18 8 21 9 19 10 14 11
REMARK SMILES IDX 15 12 13 13 12 14 1 15 2 16 3 17 6 18 11 19 7 20 10 21 8 22
REMARK SMILES IDX 9 23 4 24 5 25 20 26 27 28 28 29 29 30 30 31 31 32 32 33
REMARK SMILES IDX 93 34 33 35 92 36 34 37 35 38 36 39 86 40 37 41 91 42 85 43
REMARK SMILES IDX 87 44 38 45 90 46 84 47 83 48 39 50 71 51 51 52 70 53 52 54
REMARK SMILES IDX 55 55 69 56 88 57 53 58 54 59 68 61 89 62 56 63 40 64 41 65
REMARK SMILES IDX 49 66 42 67 43 68 47 69 50 70 44 71 45 72 48 73 46 74 72 75
REMARK SMILES IDX 73 76 81 77 74 78 75 79 79 80 82 81 76 82 77 83 80 84 78 85
REMARK SMILES IDX 57 86 58 87 66 88 59 89 60 90 64 91 67 92 61 93 62 94 65 95
REMARK SMILES IDX 63 96
REMARK H PARENT 20 27 87 49 55 60
REMARK Flexibility Score: inf
ROOT
ATOM      1  C   UNL A   1      36.414  21.681  25.743  1.00  0.00     0.274 C 
ENDROOT
BRANCH   1   2
ATOM      2  O   UNL A   1      35.610  22.684  25.063  1.00  0.00    -0.461 OA
BRANCH   2   3
ATOM      3  C   UNL A   1      34.269  22.602  25.269  1.00  0.00     0.329 C 
ATOM      4  O   UNL A   1      33.686  21.534  25.405  1.00  0.00    -0.250 OA
BRANCH   3   5
ATOM      5  C   UNL A   1      33.561  23.979  25.322  1.00  0.00     0.197 C 
ATOM      6  N   UNL A   1      32.084  23.909  25.189  1.00  0.00    -0.327 N 
ATOM      7  C   UNL A   1      31.528  23.692  23.871  1.00  0.00     0.123 C 
ATOM      8  C   UNL A   1      32.158  24.517  22.766  1.00  0.00     0.053 C 
ATOM      9  C   UNL A   1      34.142  24.954  24.285  1.00  0.00     0.069 C 
ATOM     10  C   UNL A   1      33.651  24.685  22.876  1.00  0.00     0.118 C 
BRANCH   6  11
ATOM     11  C   UNL A   1      31.310  24.252  26.276  1.00  0.00     0.243 C 
ATOM     12  O   UNL A   1      31.281  23.487  27.251  1.00  0.00    -0.273 OA
BRANCH  11  13
ATOM     13  C   UNL A   1      30.392  25.468  26.320  1.00  0.00     0.222 C 
BRANCH  13  14
ATOM     14  N   UNL A   1      30.645  26.683  25.540  1.00  0.00    -0.334 N 
ATOM     15  C   UNL A   1      28.759  26.345  23.853  1.00  0.00     0.066 C 
ATOM     16  C   UNL A   1      29.968  27.048  24.381  1.00  0.00     0.034 A 
ATOM     17  C   UNL A   1      30.620  28.150  23.850  1.00  0.00     0.080 A 
ATOM     18  C   UNL A   1      31.784  28.396  24.625  1.00  0.00     0.018 A 
ATOM     19  C   UNL A   1      31.780  27.476  25.679  1.00  0.00     0.050 A 
ATOM     20  C   UNL A   1      32.856  29.307  24.503  1.00  0.00     0.012 A 
ATOM     21  C   UNL A   1      32.825  27.450  26.620  1.00  0.00     0.027 A 
ATOM     22  C   UNL A   1      33.907  29.266  25.420  1.00  0.00     0.001 A 
ATOM     23  C   UNL A   1      33.888  28.349  26.463  1.00  0.00     0.002 A 
BRANCH  17  24
ATOM     24  C   UNL A   1      30.220  28.871  22.690  1.00  0.00     0.102 C 
ATOM     25  N   UNL A   1      29.904  29.450  21.719  1.00  0.00    -0.192 NA
ENDBRANCH  17  24
ENDBRANCH  13  14
ENDBRANCH  11  13
ENDBRANCH   6  11
BRANCH  10  26
ATOM     26  O   UNL A   1      34.270  23.548  22.348  1.00  0.00    -0.393 OA
ATOM     27  H   UNL A   1      35.211  23.731  22.200  1.00  0.00     0.210 HD
ENDBRANCH  10  26
ENDBRANCH   3   5
ENDBRANCH   2   3
ENDBRANCH   1   2
BRANCH   1  28
ATOM     28  C   UNL A   1      37.923  21.798  25.472  1.00  0.00     0.275 C 
BRANCH  28  29
ATOM     29  O   UNL A   1      38.478  22.883  26.243  1.00  0.00    -0.458 OA
BRANCH  29  30
ATOM     30  C   UNL A   1      39.604  22.610  26.950  1.00  0.00     0.338 C 
ATOM     31  O   UNL A   1      40.096  21.507  27.120  1.00  0.00    -0.246 OA
BRANCH  30  32
ATOM     32  C   UNL A   1      40.328  23.888  27.160  1.00  0.00     0.060 A 
ATOM     33  C   UNL A   1      41.265  24.110  28.178  1.00  0.00     0.016 A 
ATOM     34  C   UNL A   1      39.835  24.965  26.444  1.00  0.00     0.016 A 
ATOM     35  C   UNL A   1      41.516  25.421  28.636  1.00  0.00     0.010 A 
ATOM     36  C   UNL A   1      40.082  26.250  26.912  1.00  0.00     0.010 A 
ATOM     37  C   UNL A   1      40.817  26.499  28.090  1.00  0.00    -0.014 A 
BRANCH  37  38
ATOM     38  C   UNL A   1      40.854  27.902  28.608  1.00  0.00     0.031 A 
ATOM     39  C   UNL A   1      41.984  28.674  28.026  1.00  0.00     0.074 A 
ATOM     40  C   UNL A   1      39.923  28.623  29.300  1.00  0.00     0.049 A 
ATOM     41  N   UNL A   1      43.220  28.606  28.404  1.00  0.00    -0.248 NA
ATOM     42  C   UNL A   1      41.804  29.406  26.759  1.00  0.00     0.031 C 
ATOM     43  C   UNL A   1      38.569  28.247  29.731  1.00  0.00     0.029 A 
ATOM     44  N   UNL A   1      39.968  29.954  29.670  1.00  0.00    -0.354 N 
ATOM     45  C   UNL A   1      43.882  29.490  27.568  1.00  0.00     0.074 A 
ATOM     46  C   UNL A   1      43.074  29.586  26.388  1.00  0.00     0.031 C 
ATOM     47  C   UNL A   1      37.851  29.356  30.052  1.00  0.00     0.029 A 
ATOM     48  C   UNL A   1      38.748  30.496  30.098  1.00  0.00     0.049 A 
ATOM     49  H   UNL A   1      40.797  30.483  29.635  1.00  0.00     0.167 HD
ATOM     50  C   UNL A   1      44.734  30.431  28.065  1.00  0.00     0.037 A 
ATOM     51  C   UNL A   1      38.516  31.766  30.534  1.00  0.00     0.037 A 
ATOM     52  C   UNL A   1      44.879  30.260  29.492  1.00  0.00     0.049 A 
ATOM     53  C   UNL A   1      39.808  32.246  31.070  1.00  0.00     0.074 A 
ATOM     54  C   UNL A   1      45.359  29.273  30.326  1.00  0.00     0.029 A 
ATOM     55  N   UNL A   1      44.048  31.056  30.241  1.00  0.00    -0.354 N 
ATOM     56  N   UNL A   1      40.376  31.744  32.130  1.00  0.00    -0.248 NA
ATOM     57  C   UNL A   1      40.641  33.132  30.268  1.00  0.00     0.031 C 
ATOM     58  C   UNL A   1      44.600  29.369  31.527  1.00  0.00     0.029 A 
ATOM     59  C   UNL A   1      43.730  30.453  31.429  1.00  0.00     0.049 A 
ATOM     60  H   UNL A   1      43.723  31.941  29.960  1.00  0.00     0.167 HD
ATOM     61  C   UNL A   1      41.719  31.843  31.851  1.00  0.00     0.074 A 
ATOM     62  C   UNL A   1      41.824  32.881  30.834  1.00  0.00     0.031 C 
ATOM     63  C   UNL A   1      42.559  30.828  32.196  1.00  0.00     0.037 A 
BRANCH  50  64
ATOM     64  C   UNL A   1      45.077  31.755  27.415  1.00  0.00     0.064 A 
ATOM     65  C   UNL A   1      46.397  31.951  26.964  1.00  0.00     0.173 A 
ATOM     66  C   UNL A   1      44.263  32.909  27.411  1.00  0.00     0.173 A 
ATOM     67  F   UNL A   1      47.278  30.939  26.979  1.00  0.00    -0.203 F 
ATOM     68  C   UNL A   1      46.864  33.203  26.555  1.00  0.00     0.198 A 
ATOM     69  C   UNL A   1      44.711  34.141  26.938  1.00  0.00     0.198 A 
ATOM     70  F   UNL A   1      43.049  32.938  27.970  1.00  0.00    -0.203 F 
ATOM     71  F   UNL A   1      48.156  33.359  26.236  1.00  0.00    -0.200 F 
ATOM     72  C   UNL A   1      46.018  34.295  26.530  1.00  0.00     0.200 A 
ATOM     73  F   UNL A   1      43.882  35.195  26.959  1.00  0.00    -0.200 F 
ATOM     74  F   UNL A   1      46.469  35.503  26.169  1.00  0.00    -0.200 F 
ENDBRANCH  50  64
BRANCH  51  75
ATOM     75  C   UNL A   1      37.334  32.672  30.577  1.00  0.00     0.064 A 
ATOM     76  C   UNL A   1      36.919  33.377  29.425  1.00  0.00     0.173 A 
ATOM     77  C   UNL A   1      36.393  32.586  31.616  1.00  0.00     0.173 A 
ATOM     78  F   UNL A   1      37.739  33.501  28.371  1.00  0.00    -0.203 F 
ATOM     79  C   UNL A   1      35.624  33.891  29.290  1.00  0.00     0.198 A 
ATOM     80  C   UNL A   1      35.098  33.107  31.482  1.00  0.00     0.198 A 
ATOM     81  F   UNL A   1      36.680  31.903  32.734  1.00  0.00    -0.203 F 
ATOM     82  F   UNL A   1      35.248  34.467  28.139  1.00  0.00    -0.200 F 
ATOM     83  C   UNL A   1      34.707  33.736  30.311  1.00  0.00     0.200 A 
ATOM     84  F   UNL A   1      34.201  32.928  32.464  1.00  0.00    -0.200 F 
ATOM     85  F   UNL A   1      33.440  34.147  30.151  1.00  0.00    -0.200 F 
ENDBRANCH  51  75
BRANCH  63  86
ATOM     86  C   UNL A   1      42.151  29.922  33.326  1.00  0.00     0.064 A 
ATOM     87  C   UNL A   1      41.630  28.625  33.182  1.00  0.00     0.173 A 
ATOM     88  C   UNL A   1      42.441  30.353  34.628  1.00  0.00     0.173 A 
ATOM     89  F   UNL A   1      41.358  28.113  31.979  1.00  0.00    -0.203 F 
ATOM     90  C   UNL A   1      41.423  27.800  34.287  1.00  0.00     0.198 A 
ATOM     91  C   UNL A   1      42.268  29.515  35.725  1.00  0.00     0.198 A 
ATOM     92  F   UNL A   1      42.953  31.577  34.830  1.00  0.00    -0.203 F 
ATOM     93  F   UNL A   1      40.932  26.562  34.118  1.00  0.00    -0.200 F 
ATOM     94  C   UNL A   1      41.759  28.238  35.555  1.00  0.00     0.200 A 
ATOM     95  F   UNL A   1      42.629  29.935  36.945  1.00  0.00    -0.200 F 
ATOM     96  F   UNL A   1      41.618  27.424  36.609  1.00  0.00    -0.200 F 
ENDBRANCH  63  86
ENDBRANCH  37  38
ENDBRANCH  30  32
ENDBRANCH  29  30
ENDBRANCH  28  29
ENDBRANCH   1  28
TORSDOF 16
ENDMDL
MODEL 2
REMARK VINA RESULT:     -12.1      3.333      8.801
REMARK SMILES Cc1c(C#N)c2ccccc2n1CC(=O)N1CC[C@H](O)C[C@@H]1C(=O)OCCOC(=O)c1ccc(-c2c3nc(c(-c4c(F)c(F)c(F)c(F)c4F)c4ccc([nH]4)c(-c4c(F)c(F)c(F)c(F)c4F)c4nc(c(-c5c(F)c(F)c(F)c(F)c5F)c5ccc2[nH]5)C=C4)C=C3)cc1
REMARK SMILES IDX 26 1 25 2 23 3 24 4 22 5 16 6 17 7 18 8 21 9 19 10 14 11
REMARK SMILES IDX 15 12 13 13 12 14 1 15 2 16 3 17 6 18 11 19 7 20 10 21 8 22
REMARK SMILES IDX 9 23 4 24 5 25 20 26 27 28 28 29 29 30 30 31 31 32 32 33
REMARK SMILES IDX 93 34 33 35 92 36 34 37 35 38 36 39 86 40 37 41 91 42 85 43
REMARK SMILES IDX 87 44 38 45 90 46 84 47 83 48 39 50 71 51 51 52 70 53 52 54
REMARK SMILES IDX 55 55 69 56 88 57 53 58 54 59 68 61 89 62 56 63 40 64 41 65
REMARK SMILES IDX 49 66 42 67 43 68 47 69 50 70 44 71 45 72 48 73 46 74 72 75
REMARK SMILES IDX 73 76 81 77 74 78 75 79 79 80 82 81 76 82 77 83 80 84 78 85
REMARK SMILES IDX 57 86 58 87 66 88 59 89 60 90 64 91 67 92 61 93 62 94 65 95
REMARK SMILES IDX 63 96
REMARK H PARENT 20 27 87 49 55 60
REMARK Flexibility Score: inf
ROOT
ATOM      1  C   UNL A   1      33.054  29.741  27.415  1.00  0.00     0.274 C 
ENDROOT
BRANCH   1   2
ATOM      2  O   UNL A   1      32.416  29.166  26.241  1.00  0.00    -0.461 OA
BRANCH   2   3
ATOM      3  C   UNL A   1      31.721  28.018  26.453  1.00  0.00     0.329 C 
ATOM      4  O   UNL A   1      31.109  27.798  27.489  1.00  0.00    -0.250 OA
BRANCH   3   5
ATOM      5  C   UNL A   1      31.772  27.030  25.260  1.00  0.00     0.197 C 
ATOM      6  N   UNL A   1      33.109  26.912  24.625  1.00  0.00    -0.327 N 
ATOM      7  C   UNL A   1      33.540  27.974  23.742  1.00  0.00     0.123 C 
ATOM      8  C   UNL A   1      32.490  28.462  22.764  1.00  0.00     0.053 C 
ATOM      9  C   UNL A   1      30.710  27.366  24.202  1.00  0.00     0.069 C 
ATOM     10  C   UNL A   1      31.094  28.542  23.325  1.00  0.00     0.118 C 
BRANCH   6  11
ATOM     11  C   UNL A   1      33.787  25.718  24.739  1.00  0.00     0.243 C 
ATOM     12  O   UNL A   1      34.424  25.492  25.777  1.00  0.00    -0.273 OA
BRANCH  11  13
ATOM     13  C   UNL A   1      33.898  24.690  23.619  1.00  0.00     0.222 C 
BRANCH  13  14
ATOM     14  N   UNL A   1      34.018  23.250  23.872  1.00  0.00    -0.334 N 
ATOM     15  C   UNL A   1      31.515  22.767  24.001  1.00  0.00     0.066 C 
ATOM     16  C   UNL A   1      32.956  22.389  24.125  1.00  0.00     0.034 A 
ATOM     17  C   UNL A   1      33.494  21.165  24.494  1.00  0.00     0.080 A 
ATOM     18  C   UNL A   1      34.903  21.306  24.585  1.00  0.00     0.018 A 
ATOM     19  C   UNL A   1      35.214  22.611  24.187  1.00  0.00     0.050 A 
ATOM     20  C   UNL A   1      35.940  20.442  25.000  1.00  0.00     0.012 A 
ATOM     21  C   UNL A   1      36.543  23.071  24.191  1.00  0.00     0.027 A 
ATOM     22  C   UNL A   1      37.257  20.904  25.029  1.00  0.00     0.001 A 
ATOM     23  C   UNL A   1      37.550  22.201  24.628  1.00  0.00     0.002 A 
BRANCH  17  24
ATOM     24  C   UNL A   1      32.750  19.988  24.787  1.00  0.00     0.102 C 
ATOM     25  N   UNL A   1      32.155  19.002  25.019  1.00  0.00    -0.192 NA
ENDBRANCH  17  24
ENDBRANCH  13  14
ENDBRANCH  11  13
ENDBRANCH   6  11
BRANCH  10  26
ATOM     26  O   UNL A   1      30.963  29.744  24.029  1.00  0.00    -0.393 OA
ATOM     27  H   UNL A   1      30.803  30.469  23.405  1.00  0.00     0.210 HD
ENDBRANCH  10  26
ENDBRANCH   3   5
ENDBRANCH   2   3
ENDBRANCH   1   2
BRANCH   1  28
ATOM     28  C   UNL A   1      33.446  31.220  27.254  1.00  0.00     0.275 C 
BRANCH  28  29
ATOM     29  O   UNL A   1      34.241  31.641  28.381  1.00  0.00    -0.458 OA
BRANCH  29  30
ATOM     30  C   UNL A   1      35.401  32.285  28.095  1.00  0.00     0.338 C 
ATOM     31  O   UNL A   1      35.506  33.378  27.565  1.00  0.00    -0.246 OA
BRANCH  30  32
ATOM     32  C   UNL A   1      36.488  31.620  28.857  1.00  0.00     0.060 A 
ATOM     33  C   UNL A   1      37.730  32.203  29.139  1.00  0.00     0.016 A 
ATOM     34  C   UNL A   1      36.313  30.262  29.063  1.00  0.00     0.016 A 
ATOM     35  C   UNL A   1      38.855  31.389  29.389  1.00  0.00     0.010 A 
ATOM     36  C   UNL A   1      37.430  29.471  29.299  1.00  0.00     0.010 A 
ATOM     37  C   UNL A   1      38.738  29.999  29.336  1.00  0.00    -0.014 A 
BRANCH  37  38
ATOM     38  C   UNL A   1      39.880  29.034  29.398  1.00  0.00     0.031 A 
ATOM     39  C   UNL A   1      40.228  28.682  30.801  1.00  0.00     0.074 A 
ATOM     40  C   UNL A   1      40.461  28.274  28.424  1.00  0.00     0.049 A 
ATOM     41  N   UNL A   1      40.925  29.410  31.612  1.00  0.00    -0.248 NA
ATOM     42  C   UNL A   1      39.556  27.552  31.467  1.00  0.00     0.031 C 
ATOM     43  C   UNL A   1      40.122  28.148  26.999  1.00  0.00     0.029 A 
ATOM     44  N   UNL A   1      41.453  27.321  28.553  1.00  0.00    -0.354 N 
ATOM     45  C   UNL A   1      40.966  28.672  32.783  1.00  0.00     0.074 A 
ATOM     46  C   UNL A   1      39.810  27.826  32.749  1.00  0.00     0.031 C 
ATOM     47  C   UNL A   1      40.690  27.029  26.476  1.00  0.00     0.029 A 
ATOM     48  C   UNL A   1      41.634  26.491  27.439  1.00  0.00     0.049 A 
ATOM     49  H   UNL A   1      41.994  27.232  29.371  1.00  0.00     0.167 HD
ATOM     50  C   UNL A   1      42.143  28.438  33.431  1.00  0.00     0.037 A 
ATOM     51  C   UNL A   1      42.547  25.492  27.292  1.00  0.00     0.037 A 
ATOM     52  C   UNL A   1      43.217  29.144  32.773  1.00  0.00     0.049 A 
ATOM     53  C   UNL A   1      43.672  25.844  28.186  1.00  0.00     0.074 A 
ATOM     54  C   UNL A   1      43.526  30.464  32.525  1.00  0.00     0.029 A 
ATOM     55  N   UNL A   1      43.917  28.386  31.868  1.00  0.00    -0.354 N 
ATOM     56  N   UNL A   1      44.439  26.880  27.996  1.00  0.00    -0.248 NA
ATOM     57  C   UNL A   1      43.801  25.191  29.481  1.00  0.00     0.031 C 
ATOM     58  C   UNL A   1      44.242  30.477  31.294  1.00  0.00     0.029 A 
ATOM     59  C   UNL A   1      44.418  29.165  30.858  1.00  0.00     0.049 A 
ATOM     60  H   UNL A   1      44.040  27.412  31.935  1.00  0.00     0.167 HD
ATOM     61  C   UNL A   1      44.751  27.285  29.274  1.00  0.00     0.074 A 
ATOM     62  C   UNL A   1      44.532  26.114  30.111  1.00  0.00     0.031 C 
ATOM     63  C   UNL A   1      44.793  28.614  29.572  1.00  0.00     0.037 A 
BRANCH  50  64
ATOM     64  C   UNL A   1      42.444  27.262  34.337  1.00  0.00     0.064 A 
ATOM     65  C   UNL A   1      42.146  27.386  35.708  1.00  0.00     0.173 A 
ATOM     66  C   UNL A   1      43.202  26.122  33.987  1.00  0.00     0.173 A 
ATOM     67  F   UNL A   1      41.483  28.459  36.165  1.00  0.00    -0.203 F 
ATOM     68  C   UNL A   1      42.584  26.452  36.651  1.00  0.00     0.198 A 
ATOM     69  C   UNL A   1      43.577  25.156  34.919  1.00  0.00     0.198 A 
ATOM     70  F   UNL A   1      43.718  25.945  32.767  1.00  0.00    -0.203 F 
ATOM     71  F   UNL A   1      42.366  26.671  37.955  1.00  0.00    -0.200 F 
ATOM     72  C   UNL A   1      43.288  25.331  36.255  1.00  0.00     0.200 A 
ATOM     73  F   UNL A   1      44.293  24.096  34.516  1.00  0.00    -0.200 F 
ATOM     74  F   UNL A   1      43.736  24.449  37.158  1.00  0.00    -0.200 F 
ENDBRANCH  50  64
BRANCH  51  75
ATOM     75  C   UNL A   1      42.629  24.240  26.486  1.00  0.00     0.064 A 
ATOM     76  C   UNL A   1      43.431  24.176  25.326  1.00  0.00     0.173 A 
ATOM     77  C   UNL A   1      42.226  23.006  27.023  1.00  0.00     0.173 A 
ATOM     78  F   UNL A   1      43.880  25.300  24.747  1.00  0.00    -0.203 F 
ATOM     79  C   UNL A   1      43.868  22.961  24.785  1.00  0.00     0.198 A 
ATOM     80  C   UNL A   1      42.661  21.789  26.478  1.00  0.00     0.198 A 
ATOM     81  F   UNL A   1      41.496  22.962  28.148  1.00  0.00    -0.203 F 
ATOM     82  F   UNL A   1      44.708  22.956  23.740  1.00  0.00    -0.200 F 
ATOM     83  C   UNL A   1      43.500  21.768  25.376  1.00  0.00     0.200 A 
ATOM     84  F   UNL A   1      42.325  20.634  27.072  1.00  0.00    -0.200 F 
ATOM     85  F   UNL A   1      43.989  20.606  24.916  1.00  0.00    -0.200 F 
ENDBRANCH  51  75
BRANCH  63  86
ATOM     86  C   UNL A   1      45.059  29.584  28.453  1.00  0.00     0.064 A 
ATOM     87  C   UNL A   1      44.089  30.370  27.808  1.00  0.00     0.173 A 
ATOM     88  C   UNL A   1      46.399  29.823  28.119  1.00  0.00     0.173 A 
ATOM     89  F   UNL A   1      42.790  30.241  28.087  1.00  0.00    -0.203 F 
ATOM     90  C   UNL A   1      44.447  31.353  26.887  1.00  0.00     0.198 A 
ATOM     91  C   UNL A   1      46.757  30.830  27.227  1.00  0.00     0.198 A 
ATOM     92  F   UNL A   1      47.373  29.114  28.710  1.00  0.00    -0.203 F 
ATOM     93  F   UNL A   1      43.499  32.095  26.294  1.00  0.00    -0.200 F 
ATOM     94  C   UNL A   1      45.781  31.595  26.611  1.00  0.00     0.200 A 
ATOM     95  F   UNL A   1      48.052  31.079  26.992  1.00  0.00    -0.200 F 
ATOM     96  F   UNL A   1      46.128  32.580  25.772  1.00  0.00    -0.200 F 
ENDBRANCH  63  86
ENDBRANCH  37  38
ENDBRANCH  30  32
ENDBRANCH  29  30
ENDBRANCH  28  29
ENDBRANCH   1  28
TORSDOF 16
ENDMDL
MODEL 3
REMARK VINA RESULT:     -11.8      5.274     10.013
REMARK SMILES Cc1c(C#N)c2ccccc2n1CC(=O)N1CC[C@H](O)C[C@@H]1C(=O)OCCOC(=O)c1ccc(-c2c3nc(c(-c4c(F)c(F)c(F)c(F)c4F)c4ccc([nH]4)c(-c4c(F)c(F)c(F)c(F)c4F)c4nc(c(-c5c(F)c(F)c(F)c(F)c5F)c5ccc2[nH]5)C=C4)C=C3)cc1
REMARK SMILES IDX 26 1 25 2 23 3 24 4 22 5 16 6 17 7 18 8 21 9 19 10 14 11
REMARK SMILES IDX 15 12 13 13 12 14 1 15 2 16 3 17 6 18 11 19 7 20 10 21 8 22
REMARK SMILES IDX 9 23 4 24 5 25 20 26 27 28 28 29 29 30 30 31 31 32 32 33
REMARK SMILES IDX 93 34 33 35 92 36 34 37 35 38 36 39 86 40 37 41 91 42 85 43
REMARK SMILES IDX 87 44 38 45 90 46 84 47 83 48 39 50 71 51 51 52 70 53 52 54
REMARK SMILES IDX 55 55 69 56 88 57 53 58 54 59 68 61 89 62 56 63 40 64 41 65
REMARK SMILES IDX 49 66 42 67 43 68 47 69 50 70 44 71 45 72 48 73 46 74 72 75
REMARK SMILES IDX 73 76 81 77 74 78 75 79 79 80 82 81 76 82 77 83 80 84 78 85
REMARK SMILES IDX 57 86 58 87 66 88 59 89 60 90 64 91 67 92 61 93 62 94 65 95
REMARK SMILES IDX 63 96
REMARK H PARENT 20 27 87 49 55 60
REMARK Flexibility Score: inf
ROOT
ATOM      1  C   UNL A   1      42.336  28.127  25.998  1.00  0.00     0.274 C 
ENDROOT
BRANCH   1   2
ATOM      2  O   UNL A   1      43.728  27.929  25.630  1.00  0.00    -0.461 OA
BRANCH   2   3
ATOM      3  C   UNL A   1      44.610  27.900  26.664  1.00  0.00     0.329 C 
ATOM      4  O   UNL A   1      44.685  28.797  27.493  1.00  0.00    -0.250 OA
BRANCH   3   5
ATOM      5  C   UNL A   1      45.496  26.629  26.692  1.00  0.00     0.197 C 
ATOM      6  N   UNL A   1      44.762  25.370  26.411  1.00  0.00    -0.327 N 
ATOM      7  C   UNL A   1      43.947  24.806  27.465  1.00  0.00     0.123 C 
ATOM      8  C   UNL A   1      44.593  24.791  28.836  1.00  0.00     0.053 C 
ATOM      9  C   UNL A   1      46.269  26.509  28.015  1.00  0.00     0.069 C 
ATOM     10  C   UNL A   1      45.411  26.013  29.163  1.00  0.00     0.118 C 
BRANCH   6  11
ATOM     11  C   UNL A   1      45.044  24.692  25.245  1.00  0.00     0.243 C 
ATOM     12  O   UNL A   1      46.041  25.024  24.589  1.00  0.00    -0.273 OA
BRANCH  11  13
ATOM     13  C   UNL A   1      44.144  23.618  24.643  1.00  0.00     0.222 C 
BRANCH  13  14
ATOM     14  N   UNL A   1      44.141  22.229  25.114  1.00  0.00    -0.334 N 
ATOM     15  C   UNL A   1      46.462  21.619  24.245  1.00  0.00     0.066 C 
ATOM     16  C   UNL A   1      45.144  21.297  24.872  1.00  0.00     0.034 A 
ATOM     17  C   UNL A   1      44.683  20.068  25.318  1.00  0.00     0.080 A 
ATOM     18  C   UNL A   1      43.334  20.220  25.731  1.00  0.00     0.018 A 
ATOM     19  C   UNL A   1      43.014  21.576  25.605  1.00  0.00     0.050 A 
ATOM     20  C   UNL A   1      42.348  19.313  26.178  1.00  0.00     0.012 A 
ATOM     21  C   UNL A   1      41.727  22.047  25.919  1.00  0.00     0.027 A 
ATOM     22  C   UNL A   1      41.062  19.774  26.466  1.00  0.00     0.001 A 
ATOM     23  C   UNL A   1      40.760  21.124  26.338  1.00  0.00     0.002 A 
BRANCH  17  24
ATOM     24  C   UNL A   1      45.422  18.851  25.304  1.00  0.00     0.102 C 
ATOM     25  N   UNL A   1      46.027  17.845  25.318  1.00  0.00    -0.192 NA
ENDBRANCH  17  24
ENDBRANCH  13  14
ENDBRANCH  11  13
ENDBRANCH   6  11
BRANCH  10  26
ATOM     26  O   UNL A   1      44.550  27.023  29.605  1.00  0.00    -0.393 OA
ATOM     27  H   UNL A   1      44.532  27.030  30.575  1.00  0.00     0.210 HD
ENDBRANCH  10  26
ENDBRANCH   3   5
ENDBRANCH   2   3
ENDBRANCH   1   2
BRANCH   1  28
ATOM     28  C   UNL A   1      41.480  26.851  25.926  1.00  0.00     0.275 C 
BRANCH  28  29
ATOM     29  O   UNL A   1      40.375  26.949  26.848  1.00  0.00    -0.458 OA
BRANCH  29  30
ATOM     30  C   UNL A   1      40.287  25.977  27.791  1.00  0.00     0.338 C 
ATOM     31  O   UNL A   1      40.598  24.807  27.650  1.00  0.00    -0.246 OA
BRANCH  30  32
ATOM     32  C   UNL A   1      40.105  26.639  29.107  1.00  0.00     0.060 A 
ATOM     33  C   UNL A   1      38.949  26.539  29.892  1.00  0.00     0.016 A 
ATOM     34  C   UNL A   1      41.057  27.596  29.418  1.00  0.00     0.016 A 
ATOM     35  C   UNL A   1      38.637  27.551  30.825  1.00  0.00     0.010 A 
ATOM     36  C   UNL A   1      40.732  28.591  30.331  1.00  0.00     0.010 A 
ATOM     37  C   UNL A   1      39.469  28.665  30.955  1.00  0.00    -0.014 A 
BRANCH  37  38
ATOM     38  C   UNL A   1      39.159  29.883  31.765  1.00  0.00     0.031 A 
ATOM     39  C   UNL A   1      38.040  30.668  31.175  1.00  0.00     0.074 A 
ATOM     40  C   UNL A   1      39.548  30.241  33.024  1.00  0.00     0.049 A 
ATOM     41  N   UNL A   1      38.133  31.478  30.171  1.00  0.00    -0.248 NA
ATOM     42  C   UNL A   1      36.647  30.363  31.550  1.00  0.00     0.031 C 
ATOM     43  C   UNL A   1      40.381  29.517  33.994  1.00  0.00     0.029 A 
ATOM     44  N   UNL A   1      39.152  31.336  33.768  1.00  0.00    -0.354 N 
ATOM     45  C   UNL A   1      36.843  31.950  29.994  1.00  0.00     0.074 A 
ATOM     46  C   UNL A   1      35.983  30.948  30.549  1.00  0.00     0.031 C 
ATOM     47  C   UNL A   1      40.218  30.039  35.239  1.00  0.00     0.029 A 
ATOM     48  C   UNL A   1      39.476  31.282  35.131  1.00  0.00     0.049 A 
ATOM     49  H   UNL A   1      38.676  32.100  33.369  1.00  0.00     0.167 HD
ATOM     50  C   UNL A   1      36.589  33.285  29.876  1.00  0.00     0.037 A 
ATOM     51  C   UNL A   1      39.224  32.227  36.078  1.00  0.00     0.037 A 
ATOM     52  C   UNL A   1      37.829  34.025  29.861  1.00  0.00     0.049 A 
ATOM     53  C   UNL A   1      39.150  33.512  35.351  1.00  0.00     0.074 A 
ATOM     54  C   UNL A   1      38.934  34.084  29.040  1.00  0.00     0.029 A 
ATOM     55  N   UNL A   1      38.206  34.514  31.086  1.00  0.00    -0.354 N 
ATOM     56  N   UNL A   1      40.172  34.058  34.755  1.00  0.00    -0.248 NA
ATOM     57  C   UNL A   1      37.852  34.095  35.038  1.00  0.00     0.031 C 
ATOM     58  C   UNL A   1      40.036  34.400  29.885  1.00  0.00     0.029 A 
ATOM     59  C   UNL A   1      39.570  34.599  31.183  1.00  0.00     0.049 A 
ATOM     60  H   UNL A   1      37.579  34.770  31.801  1.00  0.00     0.167 HD
ATOM     61  C   UNL A   1      39.612  34.679  33.662  1.00  0.00     0.074 A 
ATOM     62  C   UNL A   1      38.207  34.860  34.003  1.00  0.00     0.031 C 
ATOM     63  C   UNL A   1      40.252  34.644  32.461  1.00  0.00     0.037 A 
BRANCH  50  64
ATOM     64  C   UNL A   1      35.289  33.979  30.229  1.00  0.00     0.064 A 
ATOM     65  C   UNL A   1      34.598  34.655  29.204  1.00  0.00     0.173 A 
ATOM     66  C   UNL A   1      34.803  34.209  31.535  1.00  0.00     0.173 A 
ATOM     67  F   UNL A   1      35.007  34.559  27.930  1.00  0.00    -0.203 F 
ATOM     68  C   UNL A   1      33.518  35.501  29.470  1.00  0.00     0.198 A 
ATOM     69  C   UNL A   1      33.683  34.998  31.790  1.00  0.00     0.198 A 
ATOM     70  F   UNL A   1      35.447  33.790  32.629  1.00  0.00    -0.203 F 
ATOM     71  F   UNL A   1      32.962  36.203  28.473  1.00  0.00    -0.200 F 
ATOM     72  C   UNL A   1      33.053  35.662  30.761  1.00  0.00     0.200 A 
ATOM     73  F   UNL A   1      33.274  35.170  33.055  1.00  0.00    -0.200 F 
ATOM     74  F   UNL A   1      32.038  36.496  31.024  1.00  0.00    -0.200 F 
ENDBRANCH  50  64
BRANCH  51  75
ATOM     75  C   UNL A   1      39.032  32.221  37.557  1.00  0.00     0.064 A 
ATOM     76  C   UNL A   1      39.728  33.131  38.382  1.00  0.00     0.173 A 
ATOM     77  C   UNL A   1      37.920  31.590  38.139  1.00  0.00     0.173 A 
ATOM     78  F   UNL A   1      40.794  33.797  37.913  1.00  0.00    -0.203 F 
ATOM     79  C   UNL A   1      39.295  33.450  39.675  1.00  0.00     0.198 A 
ATOM     80  C   UNL A   1      37.490  31.906  39.436  1.00  0.00     0.198 A 
ATOM     81  F   UNL A   1      37.171  30.739  37.421  1.00  0.00    -0.203 F 
ATOM     82  F   UNL A   1      39.933  34.393  40.382  1.00  0.00    -0.200 F 
ATOM     83  C   UNL A   1      38.162  32.853  40.192  1.00  0.00     0.200 A 
ATOM     84  F   UNL A   1      36.373  31.345  39.924  1.00  0.00    -0.200 F 
ATOM     85  F   UNL A   1      37.692  33.220  41.394  1.00  0.00    -0.200 F 
ENDBRANCH  51  75
BRANCH  63  86
ATOM     86  C   UNL A   1      41.744  34.450  32.457  1.00  0.00     0.064 A 
ATOM     87  C   UNL A   1      42.687  35.385  32.916  1.00  0.00     0.173 A 
ATOM     88  C   UNL A   1      42.225  33.184  32.095  1.00  0.00     0.173 A 
ATOM     89  F   UNL A   1      42.321  36.604  33.319  1.00  0.00    -0.203 F 
ATOM     90  C   UNL A   1      44.040  35.062  33.017  1.00  0.00     0.198 A 
ATOM     91  C   UNL A   1      43.569  32.851  32.231  1.00  0.00     0.198 A 
ATOM     92  F   UNL A   1      41.371  32.244  31.661  1.00  0.00    -0.203 F 
ATOM     93  F   UNL A   1      44.917  35.973  33.468  1.00  0.00    -0.200 F 
ATOM     94  C   UNL A   1      44.476  33.790  32.693  1.00  0.00     0.200 A 
ATOM     95  F   UNL A   1      43.977  31.607  31.947  1.00  0.00    -0.200 F 
ATOM     96  F   UNL A   1      45.765  33.459  32.848  1.00  0.00    -0.200 F 
ENDBRANCH  63  86
ENDBRANCH  37  38
ENDBRANCH  30  32
ENDBRANCH  29  30
ENDBRANCH  28  29
ENDBRANCH   1  28
TORSDOF 16
ENDMDL
