MODEL 1
REMARK VINA RESULT:     -12.8      0.000      0.000
REMARK SMILES NS(=O)(=O)c1ccc(-n2nc(NC(=O)NCCCC(=O)OCCOC(=O)c3ccc(-c4c5nc(c(-c6c(F)c(F)c(F)c(F)c6F)c6ccc([nH]6)c(-c6c(F)c(F)c(F)c(F)c6F)c6nc(c(-c7c(F)c(F)c(F)c(F)c7F)c7ccc4[nH]7)C=C6)C=C5)cc3)cc2-c2ccccc2)cc1
REMARK SMILES IDX 19 1 20 2 18 3 17 4 16 5 15 6 12 7 13 8 14 10 11 12 9 13
REMARK SMILES IDX 10 14 91 15 90 16 8 17 5 18 6 19 99 20 7 21 98 22 2 23 3 24
REMARK SMILES IDX 4 25 1 26 92 29 93 30 97 31 94 32 96 33 95 34 21 35 22 36
REMARK SMILES IDX 23 37 24 38 25 39 26 40 27 41 28 42 89 43 29 44 88 45 30 46
REMARK SMILES IDX 31 47 32 48 82 49 33 50 87 51 81 52 83 53 34 54 86 55 80 56
REMARK SMILES IDX 79 57 35 59 67 60 47 61 66 62 48 63 51 64 65 65 84 66 49 67
REMARK SMILES IDX 50 68 64 70 85 71 52 72 36 73 37 74 45 75 38 76 39 77 43 78
REMARK SMILES IDX 46 79 40 80 41 81 44 82 42 83 68 84 69 85 77 86 70 87 71 88
REMARK SMILES IDX 75 89 78 90 72 91 73 92 76 93 74 94 53 95 54 96 62 97 55 98
REMARK SMILES IDX 56 99 60 100 63 101 57 102 58 103 61 104 59 105
REMARK H PARENT 12 9 15 11 1 27 1 28 83 58 51 69
REMARK Flexibility Score: inf
ROOT
ATOM      1  C   UNL A   1      36.265  22.462  24.496  1.00  0.00     0.305 C 
ATOM      2  O   UNL A   1      35.632  22.570  25.541  1.00  0.00    -0.252 OA
ENDROOT
BRANCH   1   3
ATOM      3  C   UNL A   1      35.759  22.979  23.170  1.00  0.00     0.124 C 
BRANCH   3   4
ATOM      4  C   UNL A   1      34.657  24.038  23.181  1.00  0.00     0.033 C 
BRANCH   4   5
ATOM      5  C   UNL A   1      33.314  23.691  22.535  1.00  0.00     0.118 C 
BRANCH   5   6
ATOM      6  N   UNL A   1      32.848  22.340  22.818  1.00  0.00    -0.338 N 
ATOM      7  N   UNL A   1      32.396  22.335  25.164  1.00  0.00    -0.291 N 
ATOM      8  C   UNL A   1      32.490  21.716  23.965  1.00  0.00     0.320 C 
ATOM      9  H   UNL A   1      32.583  21.767  25.947  1.00  0.00     0.173 HD
ATOM     10  O   UNL A   1      32.344  20.490  23.921  1.00  0.00    -0.248 OA
ATOM     11  H   UNL A   1      32.782  21.768  22.018  1.00  0.00     0.165 HD
BRANCH   7  12
ATOM     12  C   UNL A   1      32.080  23.638  25.447  1.00  0.00     0.157 A 
ATOM     13  N   UNL A   1      31.234  25.509  25.124  1.00  0.00    -0.231 N 
ATOM     14  N   UNL A   1      30.943  24.206  25.067  1.00  0.00    -0.149 NA
ATOM     15  C   UNL A   1      32.261  25.796  26.010  1.00  0.00     0.076 A 
ATOM     16  C   UNL A   1      32.853  24.555  26.209  1.00  0.00     0.078 A 
BRANCH  13  17
ATOM     17  C   UNL A   1      30.627  26.363  24.201  1.00  0.00     0.065 A 
ATOM     18  C   UNL A   1      29.534  28.331  22.745  1.00  0.00     0.082 A 
ATOM     19  C   UNL A   1      30.878  28.027  22.527  1.00  0.00     0.024 A 
ATOM     20  C   UNL A   1      28.689  27.579  23.557  1.00  0.00     0.024 A 
ATOM     21  C   UNL A   1      31.439  27.033  23.282  1.00  0.00     0.030 A 
ATOM     22  C   UNL A   1      29.243  26.545  24.277  1.00  0.00     0.030 A 
BRANCH  18  23
ATOM     23  S   UNL A   1      28.942  29.829  22.114  1.00  0.00     0.238 S 
ATOM     24  O   UNL A   1      28.868  30.725  23.247  1.00  0.00    -0.207 OA
ATOM     25  O   UNL A   1      27.807  29.568  21.267  1.00  0.00    -0.207 OA
BRANCH  23  26
ATOM     26  N   UNL A   1      30.211  30.352  21.126  1.00  0.00    -0.225 NA
ATOM     27  H   UNL A   1      30.568  29.564  20.586  1.00  0.00     0.137 HD
ATOM     28  H   UNL A   1      30.958  30.733  21.706  1.00  0.00     0.137 HD
ENDBRANCH  23  26
ENDBRANCH  18  23
ENDBRANCH  13  17
BRANCH  15  29
ATOM     29  C   UNL A   1      32.588  27.159  26.473  1.00  0.00     0.000 A 
ATOM     30  C   UNL A   1      33.918  27.625  26.458  1.00  0.00     0.010 A 
ATOM     31  C   UNL A   1      31.604  28.003  27.000  1.00  0.00     0.010 A 
ATOM     32  C   UNL A   1      34.256  28.881  26.971  1.00  0.00     0.001 A 
ATOM     33  C   UNL A   1      31.941  29.269  27.500  1.00  0.00     0.001 A 
ATOM     34  C   UNL A   1      33.264  29.706  27.488  1.00  0.00     0.000 A 
ENDBRANCH  15  29
ENDBRANCH   7  12
ENDBRANCH   5   6
ENDBRANCH   4   5
ENDBRANCH   3   4
ENDBRANCH   1   3
BRANCH   1  35
ATOM     35  O   UNL A   1      37.448  21.807  24.375  1.00  0.00    -0.462 OA
BRANCH  35  36
ATOM     36  C   UNL A   1      37.767  20.879  25.427  1.00  0.00     0.274 C 
BRANCH  36  37
ATOM     37  C   UNL A   1      39.214  20.403  25.360  1.00  0.00     0.275 C 
BRANCH  37  38
ATOM     38  O   UNL A   1      40.005  20.808  26.486  1.00  0.00    -0.458 OA
BRANCH  38  39
ATOM     39  C   UNL A   1      40.907  21.792  26.251  1.00  0.00     0.338 C 
ATOM     40  O   UNL A   1      41.886  21.715  25.531  1.00  0.00    -0.246 OA
BRANCH  39  41
ATOM     41  C   UNL A   1      40.752  22.867  27.252  1.00  0.00     0.060 A 
ATOM     42  C   UNL A   1      39.707  23.778  27.050  1.00  0.00     0.016 A 
ATOM     43  C   UNL A   1      41.798  23.165  28.128  1.00  0.00     0.016 A 
ATOM     44  C   UNL A   1      39.824  25.064  27.561  1.00  0.00     0.010 A 
ATOM     45  C   UNL A   1      41.933  24.462  28.593  1.00  0.00     0.010 A 
ATOM     46  C   UNL A   1      40.993  25.436  28.237  1.00  0.00    -0.014 A 
BRANCH  46  47
ATOM     47  C   UNL A   1      41.117  26.794  28.779  1.00  0.00     0.031 A 
ATOM     48  C   UNL A   1      42.343  27.430  28.250  1.00  0.00     0.074 A 
ATOM     49  C   UNL A   1      40.228  27.497  29.518  1.00  0.00     0.049 A 
ATOM     50  N   UNL A   1      43.457  27.631  28.873  1.00  0.00    -0.248 NA
ATOM     51  C   UNL A   1      42.410  27.661  26.798  1.00  0.00     0.031 C 
ATOM     52  C   UNL A   1      38.882  27.142  29.931  1.00  0.00     0.029 A 
ATOM     53  N   UNL A   1      40.338  28.763  30.041  1.00  0.00    -0.354 N 
ATOM     54  C   UNL A   1      44.278  28.233  27.929  1.00  0.00     0.074 A 
ATOM     55  C   UNL A   1      43.700  27.955  26.646  1.00  0.00     0.031 C 
ATOM     56  C   UNL A   1      38.232  28.168  30.489  1.00  0.00     0.029 A 
ATOM     57  C   UNL A   1      39.138  29.273  30.538  1.00  0.00     0.049 A 
ATOM     58  H   UNL A   1      41.186  29.264  30.064  1.00  0.00     0.167 HD
ATOM     59  C   UNL A   1      45.128  29.230  28.295  1.00  0.00     0.037 A 
ATOM     60  C   UNL A   1      38.830  30.501  31.003  1.00  0.00     0.037 A 
ATOM     61  C   UNL A   1      45.375  29.201  29.716  1.00  0.00     0.049 A 
ATOM     62  C   UNL A   1      40.106  31.134  31.378  1.00  0.00     0.074 A 
ATOM     63  C   UNL A   1      45.914  28.295  30.606  1.00  0.00     0.029 A 
ATOM     64  N   UNL A   1      44.696  30.119  30.475  1.00  0.00    -0.354 N 
ATOM     65  N   UNL A   1      40.845  30.727  32.376  1.00  0.00    -0.248 NA
ATOM     66  C   UNL A   1      40.801  31.882  30.346  1.00  0.00     0.031 C 
ATOM     67  C   UNL A   1      45.202  28.489  31.827  1.00  0.00     0.029 A 
ATOM     68  C   UNL A   1      44.295  29.535  31.644  1.00  0.00     0.049 A 
ATOM     69  H   UNL A   1      44.525  31.054  30.218  1.00  0.00     0.167 HD
ATOM     70  C   UNL A   1      42.146  30.785  31.895  1.00  0.00     0.074 A 
ATOM     71  C   UNL A   1      42.061  31.597  30.683  1.00  0.00     0.031 C 
ATOM     72  C   UNL A   1      43.106  29.937  32.367  1.00  0.00     0.037 A 
BRANCH  59  73
ATOM     73  C   UNL A   1      45.335  30.481  27.464  1.00  0.00     0.064 A 
ATOM     74  C   UNL A   1      46.654  30.855  27.140  1.00  0.00     0.173 A 
ATOM     75  C   UNL A   1      44.354  31.476  27.231  1.00  0.00     0.173 A 
ATOM     76  F   UNL A   1      47.671  30.005  27.340  1.00  0.00    -0.203 F 
ATOM     77  C   UNL A   1      46.969  32.143  26.701  1.00  0.00     0.198 A 
ATOM     78  C   UNL A   1      44.667  32.739  26.737  1.00  0.00     0.198 A 
ATOM     79  F   UNL A   1      43.071  31.330  27.569  1.00  0.00    -0.203 F 
ATOM     80  F   UNL A   1      48.252  32.492  26.537  1.00  0.00    -0.200 F 
ATOM     81  C   UNL A   1      45.977  33.086  26.506  1.00  0.00     0.200 A 
ATOM     82  F   UNL A   1      43.688  33.641  26.574  1.00  0.00    -0.200 F 
ATOM     83  F   UNL A   1      46.283  34.339  26.147  1.00  0.00    -0.200 F 
ENDBRANCH  59  73
BRANCH  60  84
ATOM     84  C   UNL A   1      37.515  31.174  30.860  1.00  0.00     0.064 A 
ATOM     85  C   UNL A   1      36.709  31.453  31.969  1.00  0.00     0.173 A 
ATOM     86  C   UNL A   1      37.099  31.744  29.631  1.00  0.00     0.173 A 
ATOM     87  F   UNL A   1      37.047  30.985  33.180  1.00  0.00    -0.203 F 
ATOM     88  C   UNL A   1      35.570  32.263  31.862  1.00  0.00     0.198 A 
ATOM     89  C   UNL A   1      35.953  32.529  29.521  1.00  0.00     0.198 A 
ATOM     90  F   UNL A   1      37.839  31.620  28.520  1.00  0.00    -0.203 F 
ATOM     91  F   UNL A   1      34.857  32.558  32.958  1.00  0.00    -0.200 F 
ATOM     92  C   UNL A   1      35.197  32.804  30.641  1.00  0.00     0.200 A 
ATOM     93  F   UNL A   1      35.623  33.064  28.336  1.00  0.00    -0.200 F 
ATOM     94  F   UNL A   1      34.138  33.620  30.552  1.00  0.00    -0.200 F 
ENDBRANCH  60  84
BRANCH  72  95
ATOM     95  C   UNL A   1      42.834  29.213  33.657  1.00  0.00     0.064 A 
ATOM     96  C   UNL A   1      42.090  28.025  33.762  1.00  0.00     0.173 A 
ATOM     97  C   UNL A   1      43.491  29.670  34.809  1.00  0.00     0.173 A 
ATOM     98  F   UNL A   1      41.499  27.487  32.687  1.00  0.00    -0.203 F 
ATOM     99  C   UNL A   1      41.996  27.343  34.978  1.00  0.00     0.198 A 
ATOM    100  C   UNL A   1      43.420  28.972  36.010  1.00  0.00     0.198 A 
ATOM    101  F   UNL A   1      44.255  30.772  34.751  1.00  0.00    -0.203 F 
ATOM    102  F   UNL A   1      41.283  26.210  35.063  1.00  0.00    -0.200 F 
ATOM    103  C   UNL A   1      42.667  27.813  36.097  1.00  0.00     0.200 A 
ATOM    104  F   UNL A   1      44.108  29.407  37.075  1.00  0.00    -0.200 F 
ATOM    105  F   UNL A   1      42.613  27.135  37.252  1.00  0.00    -0.200 F 
ENDBRANCH  72  95
ENDBRANCH  46  47
ENDBRANCH  39  41
ENDBRANCH  38  39
ENDBRANCH  37  38
ENDBRANCH  36  37
ENDBRANCH  35  36
ENDBRANCH   1  35
TORSDOF 19
ENDMDL
MODEL 2
REMARK VINA RESULT:     -12.4      3.114      8.762
REMARK SMILES NS(=O)(=O)c1ccc(-n2nc(NC(=O)NCCCC(=O)OCCOC(=O)c3ccc(-c4c5nc(c(-c6c(F)c(F)c(F)c(F)c6F)c6ccc([nH]6)c(-c6c(F)c(F)c(F)c(F)c6F)c6nc(c(-c7c(F)c(F)c(F)c(F)c7F)c7ccc4[nH]7)C=C6)C=C5)cc3)cc2-c2ccccc2)cc1
REMARK SMILES IDX 19 1 20 2 18 3 17 4 16 5 15 6 12 7 13 8 14 10 11 12 9 13
REMARK SMILES IDX 10 14 91 15 90 16 8 17 5 18 6 19 99 20 7 21 98 22 2 23 3 24
REMARK SMILES IDX 4 25 1 26 92 29 93 30 97 31 94 32 96 33 95 34 21 35 22 36
REMARK SMILES IDX 23 37 24 38 25 39 26 40 27 41 28 42 89 43 29 44 88 45 30 46
REMARK SMILES IDX 31 47 32 48 82 49 33 50 87 51 81 52 83 53 34 54 86 55 80 56
REMARK SMILES IDX 79 57 35 59 67 60 47 61 66 62 48 63 51 64 65 65 84 66 49 67
REMARK SMILES IDX 50 68 64 70 85 71 52 72 36 73 37 74 45 75 38 76 39 77 43 78
REMARK SMILES IDX 46 79 40 80 41 81 44 82 42 83 68 84 69 85 77 86 70 87 71 88
REMARK SMILES IDX 75 89 78 90 72 91 73 92 76 93 74 94 53 95 54 96 62 97 55 98
REMARK SMILES IDX 56 99 60 100 63 101 57 102 58 103 61 104 59 105
REMARK H PARENT 12 9 15 11 1 27 1 28 83 58 51 69
REMARK Flexibility Score: inf
ROOT
ATOM      1  C   UNL A   1      31.843  29.017  26.429  1.00  0.00     0.305 C 
ATOM      2  O   UNL A   1      31.959  29.032  25.208  1.00  0.00    -0.252 OA
ENDROOT
BRANCH   1   3
ATOM      3  C   UNL A   1      31.417  27.791  27.202  1.00  0.00     0.124 C 
BRANCH   3   4
ATOM      4  C   UNL A   1      31.800  26.419  26.646  1.00  0.00     0.033 C 
BRANCH   4   5
ATOM      5  C   UNL A   1      30.689  25.535  26.073  1.00  0.00     0.118 C 
BRANCH   5   6
ATOM      6  N   UNL A   1      29.795  26.224  25.151  1.00  0.00    -0.338 N 
ATOM      7  N   UNL A   1      31.155  26.725  23.252  1.00  0.00    -0.291 N 
ATOM      8  C   UNL A   1      29.991  26.792  23.938  1.00  0.00     0.320 C 
ATOM      9  H   UNL A   1      31.343  27.494  22.666  1.00  0.00     0.173 HD
ATOM     10  O   UNL A   1      29.082  27.499  23.490  1.00  0.00    -0.248 OA
ATOM     11  H   UNL A   1      28.867  26.290  25.475  1.00  0.00     0.165 HD
BRANCH   7  12
ATOM     12  C   UNL A   1      32.110  25.743  23.254  1.00  0.00     0.157 A 
ATOM     13  N   UNL A   1      32.849  23.802  23.325  1.00  0.00    -0.231 N 
ATOM     14  N   UNL A   1      31.918  24.544  22.720  1.00  0.00    -0.149 NA
ATOM     15  C   UNL A   1      33.929  24.547  23.773  1.00  0.00     0.076 A 
ATOM     16  C   UNL A   1      33.434  25.845  23.760  1.00  0.00     0.078 A 
BRANCH  13  17
ATOM     17  C   UNL A   1      32.561  22.460  23.582  1.00  0.00     0.065 A 
ATOM     18  C   UNL A   1      32.453  19.811  23.985  1.00  0.00     0.082 A 
ATOM     19  C   UNL A   1      32.658  20.632  25.093  1.00  0.00     0.024 A 
ATOM     20  C   UNL A   1      32.149  20.287  22.711  1.00  0.00     0.024 A 
ATOM     21  C   UNL A   1      32.729  21.982  24.886  1.00  0.00     0.030 A 
ATOM     22  C   UNL A   1      32.169  21.649  22.513  1.00  0.00     0.030 A 
BRANCH  18  23
ATOM     23  S   UNL A   1      32.777  18.122  24.170  1.00  0.00     0.238 S 
ATOM     24  O   UNL A   1      31.786  17.637  25.105  1.00  0.00    -0.207 OA
ATOM     25  O   UNL A   1      34.189  17.934  24.383  1.00  0.00    -0.207 OA
BRANCH  23  26
ATOM     26  N   UNL A   1      32.399  17.494  22.646  1.00  0.00    -0.225 NA
ATOM     27  H   UNL A   1      33.260  17.279  22.144  1.00  0.00     0.137 HD
ATOM     28  H   UNL A   1      31.859  18.181  22.120  1.00  0.00     0.137 HD
ENDBRANCH  23  26
ENDBRANCH  18  23
ENDBRANCH  13  17
BRANCH  15  29
ATOM     29  C   UNL A   1      35.207  23.955  24.215  1.00  0.00     0.000 A 
ATOM     30  C   UNL A   1      35.850  22.969  23.439  1.00  0.00     0.010 A 
ATOM     31  C   UNL A   1      35.785  24.304  25.440  1.00  0.00     0.010 A 
ATOM     32  C   UNL A   1      37.017  22.338  23.883  1.00  0.00     0.001 A 
ATOM     33  C   UNL A   1      36.963  23.683  25.878  1.00  0.00     0.001 A 
ATOM     34  C   UNL A   1      37.576  22.700  25.102  1.00  0.00     0.000 A 
ENDBRANCH  15  29
ENDBRANCH   7  12
ENDBRANCH   5   6
ENDBRANCH   4   5
ENDBRANCH   3   4
ENDBRANCH   1   3
BRANCH   1  35
ATOM     35  O   UNL A   1      32.001  30.101  27.232  1.00  0.00    -0.462 OA
BRANCH  35  36
ATOM     36  C   UNL A   1      33.170  30.904  26.987  1.00  0.00     0.274 C 
BRANCH  36  37
ATOM     37  C   UNL A   1      34.417  30.325  27.646  1.00  0.00     0.275 C 
BRANCH  37  38
ATOM     38  O   UNL A   1      35.342  31.324  28.098  1.00  0.00    -0.458 OA
BRANCH  38  39
ATOM     39  C   UNL A   1      35.358  31.553  29.435  1.00  0.00     0.338 C 
ATOM     40  O   UNL A   1      34.669  32.358  30.036  1.00  0.00    -0.246 OA
BRANCH  39  41
ATOM     41  C   UNL A   1      36.564  30.951  30.035  1.00  0.00     0.060 A 
ATOM     42  C   UNL A   1      37.754  31.685  29.945  1.00  0.00     0.016 A 
ATOM     43  C   UNL A   1      36.589  29.588  30.341  1.00  0.00     0.016 A 
ATOM     44  C   UNL A   1      38.967  31.010  29.951  1.00  0.00     0.010 A 
ATOM     45  C   UNL A   1      37.798  28.914  30.297  1.00  0.00     0.010 A 
ATOM     46  C   UNL A   1      38.979  29.610  30.014  1.00  0.00    -0.014 A 
BRANCH  46  47
ATOM     47  C   UNL A   1      40.260  28.895  30.023  1.00  0.00     0.031 A 
ATOM     48  C   UNL A   1      40.811  28.879  31.396  1.00  0.00     0.074 A 
ATOM     49  C   UNL A   1      40.847  28.192  29.027  1.00  0.00     0.049 A 
ATOM     50  N   UNL A   1      41.787  29.587  31.861  1.00  0.00    -0.248 NA
ATOM     51  C   UNL A   1      40.040  28.161  32.423  1.00  0.00     0.031 C 
ATOM     52  C   UNL A   1      40.356  27.889  27.694  1.00  0.00     0.029 A 
ATOM     53  N   UNL A   1      42.051  27.530  29.020  1.00  0.00    -0.354 N 
ATOM     54  C   UNL A   1      41.885  29.209  33.194  1.00  0.00     0.074 A 
ATOM     55  C   UNL A   1      40.639  28.583  33.534  1.00  0.00     0.031 C 
ATOM     56  C   UNL A   1      41.128  27.005  27.055  1.00  0.00     0.029 A 
ATOM     57  C   UNL A   1      42.232  26.702  27.911  1.00  0.00     0.049 A 
ATOM     58  H   UNL A   1      42.724  27.630  29.732  1.00  0.00     0.167 HD
ATOM     59  C   UNL A   1      43.103  29.083  33.783  1.00  0.00     0.037 A 
ATOM     60  C   UNL A   1      43.209  25.818  27.624  1.00  0.00     0.037 A 
ATOM     61  C   UNL A   1      44.109  29.811  33.048  1.00  0.00     0.049 A 
ATOM     62  C   UNL A   1      44.366  26.196  28.453  1.00  0.00     0.074 A 
ATOM     63  C   UNL A   1      44.315  31.130  32.699  1.00  0.00     0.029 A 
ATOM     64  N   UNL A   1      44.930  29.073  32.237  1.00  0.00    -0.354 N 
ATOM     65  N   UNL A   1      45.045  27.299  28.280  1.00  0.00    -0.248 NA
ATOM     66  C   UNL A   1      44.452  25.606  29.777  1.00  0.00     0.031 C 
ATOM     67  C   UNL A   1      44.957  31.092  31.426  1.00  0.00     0.029 A 
ATOM     68  C   UNL A   1      45.157  29.756  31.075  1.00  0.00     0.049 A 
ATOM     69  H   UNL A   1      45.300  28.187  32.458  1.00  0.00     0.167 HD
ATOM     70  C   UNL A   1      45.282  27.769  29.564  1.00  0.00     0.074 A 
ATOM     71  C   UNL A   1      44.984  26.636  30.438  1.00  0.00     0.031 C 
ATOM     72  C   UNL A   1      45.420  29.105  29.808  1.00  0.00     0.037 A 
BRANCH  59  73
ATOM     73  C   UNL A   1      43.453  27.940  34.715  1.00  0.00     0.064 A 
ATOM     74  C   UNL A   1      43.299  26.623  34.241  1.00  0.00     0.173 A 
ATOM     75  C   UNL A   1      43.637  28.057  36.115  1.00  0.00     0.173 A 
ATOM     76  F   UNL A   1      43.095  26.389  32.937  1.00  0.00    -0.203 F 
ATOM     77  C   UNL A   1      43.249  25.527  35.107  1.00  0.00     0.198 A 
ATOM     78  C   UNL A   1      43.645  26.956  36.967  1.00  0.00     0.198 A 
ATOM     79  F   UNL A   1      43.703  29.231  36.747  1.00  0.00    -0.203 F 
ATOM     80  F   UNL A   1      42.964  24.312  34.621  1.00  0.00    -0.200 F 
ATOM     81  C   UNL A   1      43.416  25.695  36.469  1.00  0.00     0.200 A 
ATOM     82  F   UNL A   1      43.791  27.148  38.286  1.00  0.00    -0.200 F 
ATOM     83  F   UNL A   1      43.305  24.656  37.306  1.00  0.00    -0.200 F 
ENDBRANCH  59  73
BRANCH  60  84
ATOM     84  C   UNL A   1      43.032  24.551  26.872  1.00  0.00     0.064 A 
ATOM     85  C   UNL A   1      43.581  24.371  25.597  1.00  0.00     0.173 A 
ATOM     86  C   UNL A   1      42.477  23.396  27.478  1.00  0.00     0.173 A 
ATOM     87  F   UNL A   1      44.161  25.401  24.965  1.00  0.00    -0.203 F 
ATOM     88  C   UNL A   1      43.590  23.115  24.974  1.00  0.00     0.198 A 
ATOM     89  C   UNL A   1      42.465  22.153  26.847  1.00  0.00     0.198 A 
ATOM     90  F   UNL A   1      42.004  23.426  28.731  1.00  0.00    -0.203 F 
ATOM     91  F   UNL A   1      44.181  22.969  23.780  1.00  0.00    -0.200 F 
ATOM     92  C   UNL A   1      43.039  22.009  25.601  1.00  0.00     0.200 A 
ATOM     93  F   UNL A   1      41.949  21.090  27.481  1.00  0.00    -0.200 F 
ATOM     94  F   UNL A   1      43.096  20.800  25.025  1.00  0.00    -0.200 F 
ENDBRANCH  60  84
BRANCH  72  95
ATOM     95  C   UNL A   1      45.685  30.011  28.636  1.00  0.00     0.064 A 
ATOM     96  C   UNL A   1      44.687  30.634  27.869  1.00  0.00     0.173 A 
ATOM     97  C   UNL A   1      47.016  30.376  28.387  1.00  0.00     0.173 A 
ATOM     98  F   UNL A   1      43.389  30.394  28.104  1.00  0.00    -0.203 F 
ATOM     99  C   UNL A   1      45.017  31.566  26.882  1.00  0.00     0.198 A 
ATOM    100  C   UNL A   1      47.340  31.326  27.424  1.00  0.00     0.198 A 
ATOM    101  F   UNL A   1      48.005  29.846  29.124  1.00  0.00    -0.203 F 
ATOM    102  F   UNL A   1      44.052  32.155  26.158  1.00  0.00    -0.200 F 
ATOM    103  C   UNL A   1      46.342  31.916  26.667  1.00  0.00     0.200 A 
ATOM    104  F   UNL A   1      48.617  31.692  27.253  1.00  0.00    -0.200 F 
ATOM    105  F   UNL A   1      46.656  32.842  25.750  1.00  0.00    -0.200 F 
ENDBRANCH  72  95
ENDBRANCH  46  47
ENDBRANCH  39  41
ENDBRANCH  38  39
ENDBRANCH  37  38
ENDBRANCH  36  37
ENDBRANCH  35  36
ENDBRANCH   1  35
TORSDOF 19
ENDMDL
MODEL 3
REMARK VINA RESULT:     -12.3      3.587      7.905
REMARK SMILES NS(=O)(=O)c1ccc(-n2nc(NC(=O)NCCCC(=O)OCCOC(=O)c3ccc(-c4c5nc(c(-c6c(F)c(F)c(F)c(F)c6F)c6ccc([nH]6)c(-c6c(F)c(F)c(F)c(F)c6F)c6nc(c(-c7c(F)c(F)c(F)c(F)c7F)c7ccc4[nH]7)C=C6)C=C5)cc3)cc2-c2ccccc2)cc1
REMARK SMILES IDX 19 1 20 2 18 3 17 4 16 5 15 6 12 7 13 8 14 10 11 12 9 13
REMARK SMILES IDX 10 14 91 15 90 16 8 17 5 18 6 19 99 20 7 21 98 22 2 23 3 24
REMARK SMILES IDX 4 25 1 26 92 29 93 30 97 31 94 32 96 33 95 34 21 35 22 36
REMARK SMILES IDX 23 37 24 38 25 39 26 40 27 41 28 42 89 43 29 44 88 45 30 46
REMARK SMILES IDX 31 47 32 48 82 49 33 50 87 51 81 52 83 53 34 54 86 55 80 56
REMARK SMILES IDX 79 57 35 59 67 60 47 61 66 62 48 63 51 64 65 65 84 66 49 67
REMARK SMILES IDX 50 68 64 70 85 71 52 72 36 73 37 74 45 75 38 76 39 77 43 78
REMARK SMILES IDX 46 79 40 80 41 81 44 82 42 83 68 84 69 85 77 86 70 87 71 88
REMARK SMILES IDX 75 89 78 90 72 91 73 92 76 93 74 94 53 95 54 96 62 97 55 98
REMARK SMILES IDX 56 99 60 100 63 101 57 102 58 103 61 104 59 105
REMARK H PARENT 12 9 15 11 1 27 1 28 83 58 51 69
REMARK Flexibility Score: inf
ROOT
ATOM      1  C   UNL A   1      31.746  29.004  26.347  1.00  0.00     0.305 C 
ATOM      2  O   UNL A   1      31.706  29.123  25.127  1.00  0.00    -0.252 OA
ENDROOT
BRANCH   1   3
ATOM      3  C   UNL A   1      31.226  27.786  27.075  1.00  0.00     0.124 C 
BRANCH   3   4
ATOM      4  C   UNL A   1      31.612  26.407  26.541  1.00  0.00     0.033 C 
BRANCH   4   5
ATOM      5  C   UNL A   1      30.498  25.492  26.027  1.00  0.00     0.118 C 
BRANCH   5   6
ATOM      6  N   UNL A   1      29.559  26.145  25.123  1.00  0.00    -0.338 N 
ATOM      7  N   UNL A   1      30.858  26.686  23.192  1.00  0.00    -0.291 N 
ATOM      8  C   UNL A   1      29.708  26.715  23.904  1.00  0.00     0.320 C 
ATOM      9  H   UNL A   1      31.005  27.459  22.599  1.00  0.00     0.173 HD
ATOM     10  O   UNL A   1      28.765  27.387  23.474  1.00  0.00    -0.248 OA
ATOM     11  H   UNL A   1      28.637  26.179  25.467  1.00  0.00     0.165 HD
BRANCH   7  12
ATOM     12  C   UNL A   1      31.847  25.738  23.177  1.00  0.00     0.157 A 
ATOM     13  N   UNL A   1      32.655  23.824  23.224  1.00  0.00    -0.231 N 
ATOM     14  N   UNL A   1      31.691  24.538  22.634  1.00  0.00    -0.149 NA
ATOM     15  C   UNL A   1      33.713  24.604  23.666  1.00  0.00     0.076 A 
ATOM     16  C   UNL A   1      33.173  25.883  23.669  1.00  0.00     0.078 A 
BRANCH  13  17
ATOM     17  C   UNL A   1      32.417  22.471  23.473  1.00  0.00     0.065 A 
ATOM     18  C   UNL A   1      32.416  19.824  23.904  1.00  0.00     0.082 A 
ATOM     19  C   UNL A   1      32.469  20.666  25.014  1.00  0.00     0.024 A 
ATOM     20  C   UNL A   1      32.210  20.269  22.600  1.00  0.00     0.024 A 
ATOM     21  C   UNL A   1      32.485  22.017  24.794  1.00  0.00     0.030 A 
ATOM     22  C   UNL A   1      32.174  21.628  22.384  1.00  0.00     0.030 A 
BRANCH  18  23
ATOM     23  S   UNL A   1      32.813  18.158  24.146  1.00  0.00     0.238 S 
ATOM     24  O   UNL A   1      31.844  17.662  25.098  1.00  0.00    -0.207 OA
ATOM     25  O   UNL A   1      34.231  18.038  24.362  1.00  0.00    -0.207 OA
BRANCH  23  26
ATOM     26  N   UNL A   1      32.462  17.464  22.644  1.00  0.00    -0.225 NA
ATOM     27  H   UNL A   1      31.799  18.055  22.143  1.00  0.00     0.137 HD
ATOM     28  H   UNL A   1      32.055  16.539  22.784  1.00  0.00     0.137 HD
ENDBRANCH  23  26
ENDBRANCH  18  23
ENDBRANCH  13  17
BRANCH  15  29
ATOM     29  C   UNL A   1      35.016  24.054  24.089  1.00  0.00     0.000 A 
ATOM     30  C   UNL A   1      35.773  23.245  23.218  1.00  0.00     0.010 A 
ATOM     31  C   UNL A   1      35.508  24.263  25.382  1.00  0.00     0.010 A 
ATOM     32  C   UNL A   1      36.968  22.648  23.631  1.00  0.00     0.001 A 
ATOM     33  C   UNL A   1      36.714  23.677  25.792  1.00  0.00     0.001 A 
ATOM     34  C   UNL A   1      37.441  22.869  24.919  1.00  0.00     0.000 A 
ENDBRANCH  15  29
ENDBRANCH   7  12
ENDBRANCH   5   6
ENDBRANCH   4   5
ENDBRANCH   3   4
ENDBRANCH   1   3
BRANCH   1  35
ATOM     35  O   UNL A   1      32.184  29.965  27.201  1.00  0.00    -0.462 OA
BRANCH  35  36
ATOM     36  C   UNL A   1      33.497  30.493  26.939  1.00  0.00     0.274 C 
BRANCH  36  37
ATOM     37  C   UNL A   1      34.600  29.497  27.278  1.00  0.00     0.275 C 
BRANCH  37  38
ATOM     38  O   UNL A   1      35.883  30.107  27.478  1.00  0.00    -0.458 OA
BRANCH  38  39
ATOM     39  C   UNL A   1      36.499  29.819  28.650  1.00  0.00     0.338 C 
ATOM     40  O   UNL A   1      36.291  30.355  29.725  1.00  0.00    -0.246 OA
BRANCH  39  41
ATOM     41  C   UNL A   1      37.707  29.009  28.399  1.00  0.00     0.060 A 
ATOM     42  C   UNL A   1      38.162  28.202  29.449  1.00  0.00     0.016 A 
ATOM     43  C   UNL A   1      38.540  29.310  27.318  1.00  0.00     0.016 A 
ATOM     44  C   UNL A   1      39.511  27.879  29.517  1.00  0.00     0.010 A 
ATOM     45  C   UNL A   1      39.892  29.027  27.416  1.00  0.00     0.010 A 
ATOM     46  C   UNL A   1      40.394  28.389  28.556  1.00  0.00    -0.014 A 
BRANCH  46  47
ATOM     47  C   UNL A   1      41.819  28.046  28.625  1.00  0.00     0.031 A 
ATOM     48  C   UNL A   1      42.048  26.740  27.970  1.00  0.00     0.074 A 
ATOM     49  C   UNL A   1      42.855  28.805  29.052  1.00  0.00     0.049 A 
ATOM     50  N   UNL A   1      42.272  25.602  28.540  1.00  0.00    -0.248 NA
ATOM     51  C   UNL A   1      41.770  26.652  26.528  1.00  0.00     0.031 C 
ATOM     52  C   UNL A   1      42.868  30.187  29.500  1.00  0.00     0.029 A 
ATOM     53  N   UNL A   1      44.190  28.491  29.133  1.00  0.00    -0.354 N 
ATOM     54  C   UNL A   1      42.393  24.705  27.487  1.00  0.00     0.074 A 
ATOM     55  C   UNL A   1      41.796  25.333  26.343  1.00  0.00     0.031 C 
ATOM     56  C   UNL A   1      44.107  30.660  29.660  1.00  0.00     0.029 A 
ATOM     57  C   UNL A   1      45.013  29.590  29.381  1.00  0.00     0.049 A 
ATOM     58  H   UNL A   1      44.534  27.574  29.026  1.00  0.00     0.167 HD
ATOM     59  C   UNL A   1      43.312  23.705  27.540  1.00  0.00     0.037 A 
ATOM     60  C   UNL A   1      46.358  29.694  29.401  1.00  0.00     0.037 A 
ATOM     61  C   UNL A   1      43.720  23.452  28.901  1.00  0.00     0.049 A 
ATOM     62  C   UNL A   1      46.876  28.330  29.602  1.00  0.00     0.074 A 
ATOM     63  C   UNL A   1      43.090  23.054  30.062  1.00  0.00     0.029 A 
ATOM     64  N   UNL A   1      44.930  23.968  29.285  1.00  0.00    -0.354 N 
ATOM     65  N   UNL A   1      46.717  27.656  30.709  1.00  0.00    -0.248 NA
ATOM     66  C   UNL A   1      47.124  27.536  28.413  1.00  0.00     0.031 C 
ATOM     67  C   UNL A   1      43.786  23.714  31.119  1.00  0.00     0.029 A 
ATOM     68  C   UNL A   1      44.837  24.446  30.562  1.00  0.00     0.049 A 
ATOM     69  H   UNL A   1      45.741  23.992  28.727  1.00  0.00     0.167 HD
ATOM     70  C   UNL A   1      46.412  26.367  30.294  1.00  0.00     0.074 A 
ATOM     71  C   UNL A   1      46.778  26.334  28.879  1.00  0.00     0.031 C 
ATOM     72  C   UNL A   1      45.633  25.549  31.060  1.00  0.00     0.037 A 
BRANCH  59  73
ATOM     73  C   UNL A   1      44.169  23.310  26.353  1.00  0.00     0.064 A 
ATOM     74  C   UNL A   1      44.148  21.966  25.935  1.00  0.00     0.173 A 
ATOM     75  C   UNL A   1      45.216  24.093  25.808  1.00  0.00     0.173 A 
ATOM     76  F   UNL A   1      43.217  21.122  26.402  1.00  0.00    -0.203 F 
ATOM     77  C   UNL A   1      45.141  21.434  25.108  1.00  0.00     0.198 A 
ATOM     78  C   UNL A   1      46.169  23.573  24.937  1.00  0.00     0.198 A 
ATOM     79  F   UNL A   1      45.446  25.358  26.168  1.00  0.00    -0.203 F 
ATOM     80  F   UNL A   1      45.154  20.120  24.848  1.00  0.00    -0.200 F 
ATOM     81  C   UNL A   1      46.154  22.236  24.614  1.00  0.00     0.200 A 
ATOM     82  F   UNL A   1      47.152  24.367  24.488  1.00  0.00    -0.200 F 
ATOM     83  F   UNL A   1      47.141  21.716  23.874  1.00  0.00    -0.200 F 
ENDBRANCH  59  73
BRANCH  60  84
ATOM     84  C   UNL A   1      47.137  30.888  28.988  1.00  0.00     0.064 A 
ATOM     85  C   UNL A   1      47.121  31.354  27.668  1.00  0.00     0.173 A 
ATOM     86  C   UNL A   1      47.771  31.729  29.936  1.00  0.00     0.173 A 
ATOM     87  F   UNL A   1      46.511  30.640  26.711  1.00  0.00    -0.203 F 
ATOM     88  C   UNL A   1      47.687  32.588  27.321  1.00  0.00     0.198 A 
ATOM     89  C   UNL A   1      48.354  32.945  29.584  1.00  0.00     0.198 A 
ATOM     90  F   UNL A   1      47.769  31.431  31.243  1.00  0.00    -0.203 F 
ATOM     91  F   UNL A   1      47.598  33.030  26.058  1.00  0.00    -0.200 F 
ATOM     92  C   UNL A   1      48.297  33.384  28.278  1.00  0.00     0.200 A 
ATOM     93  F   UNL A   1      48.917  33.712  30.531  1.00  0.00    -0.200 F 
ATOM     94  F   UNL A   1      48.790  34.587  27.952  1.00  0.00    -0.200 F 
ENDBRANCH  60  84
BRANCH  72  95
ATOM     95  C   UNL A   1      45.429  25.920  32.503  1.00  0.00     0.064 A 
ATOM     96  C   UNL A   1      44.323  26.634  32.994  1.00  0.00     0.173 A 
ATOM     97  C   UNL A   1      46.325  25.388  33.443  1.00  0.00     0.173 A 
ATOM     98  F   UNL A   1      43.385  27.105  32.161  1.00  0.00    -0.203 F 
ATOM     99  C   UNL A   1      44.142  26.823  34.366  1.00  0.00     0.198 A 
ATOM    100  C   UNL A   1      46.125  25.551  34.809  1.00  0.00     0.198 A 
ATOM    101  F   UNL A   1      47.371  24.655  33.029  1.00  0.00    -0.203 F 
ATOM    102  F   UNL A   1      43.080  27.506  34.820  1.00  0.00    -0.200 F 
ATOM    103  C   UNL A   1      45.038  26.274  35.271  1.00  0.00     0.200 A 
ATOM    104  F   UNL A   1      46.970  24.980  35.679  1.00  0.00    -0.200 F 
ATOM    105  F   UNL A   1      44.841  26.417  36.590  1.00  0.00    -0.200 F 
ENDBRANCH  72  95
ENDBRANCH  46  47
ENDBRANCH  39  41
ENDBRANCH  38  39
ENDBRANCH  37  38
ENDBRANCH  36  37
ENDBRANCH  35  36
ENDBRANCH   1  35
TORSDOF 19
ENDMDL
