MODEL 1
REMARK VINA RESULT:     -11.9      0.000      0.000
REMARK SMILES C[C@H]1[C@@H](C(=O)OCCOC(=O)c2ccc(-c3c4nc(c(-c5c(F)c(F)c(F)c(F)c5F)c5ccc([nH]5)c(-c5c(F)c(F)c(F)c(F)c5F)c5nc(c(-c6c(F)c(F)c(F)c(F)c6F)c6ccc3[nH]6)C=C5)C=C4)cc2)CC[N@@H+]1CC1(O)CCCC1
REMARK SMILES IDX 7 1 6 2 4 3 5 4 3 5 1 6 2 7 77 8 75 9 76 10 78 12 79 13
REMARK SMILES IDX 81 14 84 15 82 16 83 17 80 18 8 20 9 21 10 22 11 23 12 24
REMARK SMILES IDX 13 25 74 26 14 27 73 28 15 29 16 30 17 31 67 32 18 33 72 34
REMARK SMILES IDX 66 35 68 36 19 37 71 38 65 39 64 40 20 42 52 43 32 44 51 45
REMARK SMILES IDX 33 46 36 47 50 48 69 49 34 50 35 51 49 53 70 54 37 55 21 56
REMARK SMILES IDX 22 57 30 58 23 59 24 60 28 61 31 62 25 63 26 64 29 65 27 66
REMARK SMILES IDX 53 67 54 68 62 69 55 70 56 71 60 72 63 73 57 74 58 75 61 76
REMARK SMILES IDX 59 77 38 78 39 79 47 80 40 81 41 82 45 83 48 84 42 85 43 86
REMARK SMILES IDX 46 87 44 88
REMARK H PARENT 77 11 80 19 68 41 36 52
REMARK Flexibility Score: inf
ROOT
ATOM      1  C   UNL A   1      32.400  28.968  23.586  1.00  0.00     0.274 C 
ENDROOT
BRANCH   1   2
ATOM      2  O   UNL A   1      33.585  28.159  23.719  1.00  0.00    -0.462 OA
BRANCH   2   3
ATOM      3  C   UNL A   1      33.602  26.997  23.024  1.00  0.00     0.315 C 
ATOM      4  O   UNL A   1      33.645  26.923  21.799  1.00  0.00    -0.252 OA
BRANCH   3   5
ATOM      5  C   UNL A   1      33.687  25.763  23.894  1.00  0.00     0.162 C 
ATOM      6  C   UNL A   1      31.232  25.057  23.410  1.00  0.00     0.076 C 
ATOM      7  C   UNL A   1      32.658  24.640  23.777  1.00  0.00     0.195 C 
ATOM      8  N   UNL A   1      32.600  24.047  25.120  1.00  0.00    -0.330 N 
ATOM      9  C   UNL A   1      33.786  26.092  25.377  1.00  0.00     0.083 C 
ATOM     10  C   UNL A   1      32.888  25.100  26.087  1.00  0.00     0.263 C 
ATOM     11  H   UNL A   1      31.649  23.700  25.245  1.00  0.00     0.348 HD
BRANCH   8  12
ATOM     12  C   UNL A   1      33.294  22.775  25.352  1.00  0.00     0.297 C 
BRANCH  12  13
ATOM     13  C   UNL A   1      32.624  21.373  25.203  1.00  0.00     0.113 C 
ATOM     14  C   UNL A   1      33.408  20.190  25.775  1.00  0.00     0.041 C 
ATOM     15  C   UNL A   1      32.531  21.007  23.711  1.00  0.00     0.041 C 
ATOM     16  C   UNL A   1      33.013  18.971  24.938  1.00  0.00     0.003 C 
ATOM     17  C   UNL A   1      32.319  19.500  23.689  1.00  0.00     0.003 C 
BRANCH  13  18
ATOM     18  O   UNL A   1      31.301  21.391  25.751  1.00  0.00    -0.384 OA
ATOM     19  H   UNL A   1      31.216  20.687  26.412  1.00  0.00     0.211 HD
ENDBRANCH  13  18
ENDBRANCH  12  13
ENDBRANCH   8  12
ENDBRANCH   3   5
ENDBRANCH   2   3
ENDBRANCH   1   2
BRANCH   1  20
ATOM     20  C   UNL A   1      32.007  29.526  24.948  1.00  0.00     0.275 C 
BRANCH  20  21
ATOM     21  O   UNL A   1      33.181  29.646  25.772  1.00  0.00    -0.458 OA
BRANCH  21  22
ATOM     22  C   UNL A   1      33.161  30.661  26.664  1.00  0.00     0.338 C 
ATOM     23  O   UNL A   1      32.306  31.520  26.795  1.00  0.00    -0.246 OA
BRANCH  22  24
ATOM     24  C   UNL A   1      34.379  30.628  27.493  1.00  0.00     0.060 A 
ATOM     25  C   UNL A   1      35.168  31.767  27.678  1.00  0.00     0.016 A 
ATOM     26  C   UNL A   1      34.790  29.396  28.002  1.00  0.00     0.016 A 
ATOM     27  C   UNL A   1      36.409  31.656  28.310  1.00  0.00     0.010 A 
ATOM     28  C   UNL A   1      35.984  29.309  28.715  1.00  0.00     0.010 A 
ATOM     29  C   UNL A   1      36.819  30.431  28.858  1.00  0.00    -0.014 A 
BRANCH  29  30
ATOM     30  C   UNL A   1      38.101  30.280  29.598  1.00  0.00     0.031 A 
ATOM     31  C   UNL A   1      39.186  29.402  29.040  1.00  0.00     0.074 A 
ATOM     32  C   UNL A   1      38.259  30.842  30.811  1.00  0.00     0.049 A 
ATOM     33  N   UNL A   1      40.199  28.843  29.650  1.00  0.00    -0.248 NA
ATOM     34  C   UNL A   1      39.106  29.097  27.602  1.00  0.00     0.031 C 
ATOM     35  C   UNL A   1      37.318  31.759  31.454  1.00  0.00     0.029 A 
ATOM     36  N   UNL A   1      39.264  30.693  31.737  1.00  0.00    -0.354 N 
ATOM     37  C   UNL A   1      40.837  28.067  28.691  1.00  0.00     0.074 A 
ATOM     38  C   UNL A   1      40.110  28.243  27.451  1.00  0.00     0.031 C 
ATOM     39  C   UNL A   1      37.785  32.088  32.668  1.00  0.00     0.029 A 
ATOM     40  C   UNL A   1      39.005  31.332  32.925  1.00  0.00     0.049 A 
ATOM     41  H   UNL A   1      40.085  30.179  31.566  1.00  0.00     0.167 HD
ATOM     42  C   UNL A   1      41.922  27.271  28.843  1.00  0.00     0.037 A 
ATOM     43  C   UNL A   1      39.634  31.265  34.113  1.00  0.00     0.037 A 
ATOM     44  C   UNL A   1      42.669  27.144  30.068  1.00  0.00     0.049 A 
ATOM     45  C   UNL A   1      40.816  30.353  34.271  1.00  0.00     0.074 A 
ATOM     46  C   UNL A   1      43.791  26.376  30.322  1.00  0.00     0.029 A 
ATOM     47  N   UNL A   1      42.375  27.824  31.241  1.00  0.00    -0.354 N 
ATOM     48  N   UNL A   1      41.371  29.561  33.386  1.00  0.00    -0.248 NA
ATOM     49  C   UNL A   1      41.444  30.304  35.598  1.00  0.00     0.031 C 
ATOM     50  C   UNL A   1      44.162  26.571  31.657  1.00  0.00     0.029 A 
ATOM     51  C   UNL A   1      43.291  27.488  32.223  1.00  0.00     0.049 A 
ATOM     52  H   UNL A   1      41.625  28.451  31.358  1.00  0.00     0.167 HD
ATOM     53  C   UNL A   1      42.419  28.932  34.042  1.00  0.00     0.074 A 
ATOM     54  C   UNL A   1      42.429  29.439  35.399  1.00  0.00     0.031 C 
ATOM     55  C   UNL A   1      43.291  28.015  33.562  1.00  0.00     0.037 A 
BRANCH  42  56
ATOM     56  C   UNL A   1      42.352  26.442  27.670  1.00  0.00     0.064 A 
ATOM     57  C   UNL A   1      43.360  26.864  26.792  1.00  0.00     0.173 A 
ATOM     58  C   UNL A   1      41.781  25.177  27.457  1.00  0.00     0.173 A 
ATOM     59  F   UNL A   1      43.928  28.068  26.947  1.00  0.00    -0.203 F 
ATOM     60  C   UNL A   1      43.769  26.056  25.734  1.00  0.00     0.198 A 
ATOM     61  C   UNL A   1      42.209  24.362  26.412  1.00  0.00     0.198 A 
ATOM     62  F   UNL A   1      40.817  24.725  28.273  1.00  0.00    -0.203 F 
ATOM     63  F   UNL A   1      44.714  26.490  24.888  1.00  0.00    -0.200 F 
ATOM     64  C   UNL A   1      43.199  24.804  25.549  1.00  0.00     0.200 A 
ATOM     65  F   UNL A   1      41.665  23.150  26.243  1.00  0.00    -0.200 F 
ATOM     66  F   UNL A   1      43.604  24.024  24.538  1.00  0.00    -0.200 F 
ENDBRANCH  42  56
BRANCH  43  67
ATOM     67  C   UNL A   1      39.112  32.049  35.260  1.00  0.00     0.064 A 
ATOM     68  C   UNL A   1      38.342  31.438  36.257  1.00  0.00     0.173 A 
ATOM     69  C   UNL A   1      39.403  33.415  35.400  1.00  0.00     0.173 A 
ATOM     70  F   UNL A   1      38.019  30.141  36.151  1.00  0.00    -0.203 F 
ATOM     71  C   UNL A   1      37.884  32.162  37.355  1.00  0.00     0.198 A 
ATOM     72  C   UNL A   1      38.967  34.132  36.511  1.00  0.00     0.198 A 
ATOM     73  F   UNL A   1      40.137  34.045  34.472  1.00  0.00    -0.203 F 
ATOM     74  F   UNL A   1      37.128  31.560  38.284  1.00  0.00    -0.200 F 
ATOM     75  C   UNL A   1      38.205  33.506  37.486  1.00  0.00     0.200 A 
ATOM     76  F   UNL A   1      39.290  35.426  36.642  1.00  0.00    -0.200 F 
ATOM     77  F   UNL A   1      37.777  34.198  38.551  1.00  0.00    -0.200 F 
ENDBRANCH  43  67
BRANCH  55  78
ATOM     78  C   UNL A   1      44.357  27.530  34.496  1.00  0.00     0.064 A 
ATOM     79  C   UNL A   1      45.557  28.232  34.663  1.00  0.00     0.173 A 
ATOM     80  C   UNL A   1      44.148  26.380  35.270  1.00  0.00     0.173 A 
ATOM     81  F   UNL A   1      45.806  29.329  33.932  1.00  0.00    -0.203 F 
ATOM     82  C   UNL A   1      46.520  27.791  35.567  1.00  0.00     0.198 A 
ATOM     83  C   UNL A   1      45.105  25.952  36.186  1.00  0.00     0.198 A 
ATOM     84  F   UNL A   1      43.012  25.677  35.144  1.00  0.00    -0.203 F 
ATOM     85  F   UNL A   1      47.675  28.460  35.694  1.00  0.00    -0.200 F 
ATOM     86  C   UNL A   1      46.290  26.657  36.332  1.00  0.00     0.200 A 
ATOM     87  F   UNL A   1      44.879  24.860  36.928  1.00  0.00    -0.200 F 
ATOM     88  F   UNL A   1      47.214  26.239  37.207  1.00  0.00    -0.200 F 
ENDBRANCH  55  78
ENDBRANCH  29  30
ENDBRANCH  22  24
ENDBRANCH  21  22
ENDBRANCH  20  21
ENDBRANCH   1  20
TORSDOF 14
ENDMDL
MODEL 2
REMARK VINA RESULT:     -11.7      1.091      1.937
REMARK SMILES C[C@H]1[C@@H](C(=O)OCCOC(=O)c2ccc(-c3c4nc(c(-c5c(F)c(F)c(F)c(F)c5F)c5ccc([nH]5)c(-c5c(F)c(F)c(F)c(F)c5F)c5nc(c(-c6c(F)c(F)c(F)c(F)c6F)c6ccc3[nH]6)C=C5)C=C4)cc2)CC[N@@H+]1CC1(O)CCCC1
REMARK SMILES IDX 7 1 6 2 4 3 5 4 3 5 1 6 2 7 77 8 75 9 76 10 78 12 79 13
REMARK SMILES IDX 81 14 84 15 82 16 83 17 80 18 8 20 9 21 10 22 11 23 12 24
REMARK SMILES IDX 13 25 74 26 14 27 73 28 15 29 16 30 17 31 67 32 18 33 72 34
REMARK SMILES IDX 66 35 68 36 19 37 71 38 65 39 64 40 20 42 52 43 32 44 51 45
REMARK SMILES IDX 33 46 36 47 50 48 69 49 34 50 35 51 49 53 70 54 37 55 21 56
REMARK SMILES IDX 22 57 30 58 23 59 24 60 28 61 31 62 25 63 26 64 29 65 27 66
REMARK SMILES IDX 53 67 54 68 62 69 55 70 56 71 60 72 63 73 57 74 58 75 61 76
REMARK SMILES IDX 59 77 38 78 39 79 47 80 40 81 41 82 45 83 48 84 42 85 43 86
REMARK SMILES IDX 46 87 44 88
REMARK H PARENT 77 11 80 19 68 41 36 52
REMARK Flexibility Score: inf
ROOT
ATOM      1  C   UNL A   1      31.900  28.259  24.440  1.00  0.00     0.274 C 
ENDROOT
BRANCH   1   2
ATOM      2  O   UNL A   1      30.896  27.362  24.955  1.00  0.00    -0.462 OA
BRANCH   2   3
ATOM      3  C   UNL A   1      31.216  26.682  26.081  1.00  0.00     0.315 C 
ATOM      4  O   UNL A   1      30.999  27.085  27.220  1.00  0.00    -0.252 OA
BRANCH   3   5
ATOM      5  C   UNL A   1      31.769  25.298  25.824  1.00  0.00     0.162 C 
ATOM      6  C   UNL A   1      34.222  26.138  25.639  1.00  0.00     0.076 C 
ATOM      7  C   UNL A   1      33.259  24.999  25.981  1.00  0.00     0.195 C 
ATOM      8  N   UNL A   1      33.523  23.911  25.029  1.00  0.00    -0.330 N 
ATOM      9  C   UNL A   1      31.369  24.745  24.463  1.00  0.00     0.083 C 
ATOM     10  C   UNL A   1      32.604  24.065  23.908  1.00  0.00     0.263 C 
ATOM     11  H   UNL A   1      34.487  24.025  24.716  1.00  0.00     0.348 HD
BRANCH   8  12
ATOM     12  C   UNL A   1      33.656  22.545  25.549  1.00  0.00     0.297 C 
BRANCH  12  13
ATOM     13  C   UNL A   1      35.022  21.853  25.851  1.00  0.00     0.113 C 
ATOM     14  C   UNL A   1      36.275  22.662  25.508  1.00  0.00     0.041 C 
ATOM     15  C   UNL A   1      35.178  20.616  24.949  1.00  0.00     0.041 C 
ATOM     16  C   UNL A   1      37.366  21.639  25.178  1.00  0.00     0.003 C 
ATOM     17  C   UNL A   1      36.667  20.302  24.969  1.00  0.00     0.003 C 
BRANCH  13  18
ATOM     18  O   UNL A   1      35.075  21.429  27.217  1.00  0.00    -0.384 OA
ATOM     19  H   UNL A   1      35.957  21.611  27.578  1.00  0.00     0.211 HD
ENDBRANCH  13  18
ENDBRANCH  12  13
ENDBRANCH   8  12
ENDBRANCH   3   5
ENDBRANCH   2   3
ENDBRANCH   1   2
BRANCH   1  20
ATOM     20  C   UNL A   1      31.844  29.577  25.202  1.00  0.00     0.275 C 
BRANCH  20  21
ATOM     21  O   UNL A   1      33.100  29.796  25.871  1.00  0.00    -0.458 OA
BRANCH  21  22
ATOM     22  C   UNL A   1      33.117  30.825  26.748  1.00  0.00     0.338 C 
ATOM     23  O   UNL A   1      32.284  31.704  26.879  1.00  0.00    -0.246 OA
BRANCH  22  24
ATOM     24  C   UNL A   1      34.348  30.777  27.557  1.00  0.00     0.060 A 
ATOM     25  C   UNL A   1      35.114  31.923  27.790  1.00  0.00     0.016 A 
ATOM     26  C   UNL A   1      34.794  29.530  27.995  1.00  0.00     0.016 A 
ATOM     27  C   UNL A   1      36.367  31.808  28.397  1.00  0.00     0.010 A 
ATOM     28  C   UNL A   1      36.001  29.434  28.686  1.00  0.00     0.010 A 
ATOM     29  C   UNL A   1      36.813  30.566  28.875  1.00  0.00    -0.014 A 
BRANCH  29  30
ATOM     30  C   UNL A   1      38.108  30.406  29.589  1.00  0.00     0.031 A 
ATOM     31  C   UNL A   1      39.169  29.507  29.017  1.00  0.00     0.074 A 
ATOM     32  C   UNL A   1      38.301  30.980  30.791  1.00  0.00     0.049 A 
ATOM     33  N   UNL A   1      40.188  28.942  29.611  1.00  0.00    -0.248 NA
ATOM     34  C   UNL A   1      39.053  29.187  27.585  1.00  0.00     0.031 C 
ATOM     35  C   UNL A   1      37.387  31.917  31.444  1.00  0.00     0.029 A 
ATOM     36  N   UNL A   1      39.324  30.828  31.696  1.00  0.00    -0.354 N 
ATOM     37  C   UNL A   1      40.794  28.147  28.647  1.00  0.00     0.074 A 
ATOM     38  C   UNL A   1      40.042  28.318  27.422  1.00  0.00     0.031 C 
ATOM     39  C   UNL A   1      37.885  32.254  32.643  1.00  0.00     0.029 A 
ATOM     40  C   UNL A   1      39.100  31.485  32.882  1.00  0.00     0.049 A 
ATOM     41  H   UNL A   1      40.135  30.301  31.513  1.00  0.00     0.167 HD
ATOM     42  C   UNL A   1      41.873  27.338  28.784  1.00  0.00     0.037 A 
ATOM     43  C   UNL A   1      39.755  31.423  34.057  1.00  0.00     0.037 A 
ATOM     44  C   UNL A   1      42.645  27.216  29.993  1.00  0.00     0.049 A 
ATOM     45  C   UNL A   1      40.928  30.497  34.198  1.00  0.00     0.074 A 
ATOM     46  C   UNL A   1      43.762  26.435  30.232  1.00  0.00     0.029 A 
ATOM     47  N   UNL A   1      42.386  27.912  31.165  1.00  0.00    -0.354 N 
ATOM     48  N   UNL A   1      41.452  29.688  33.311  1.00  0.00    -0.248 NA
ATOM     49  C   UNL A   1      41.585  30.455  35.512  1.00  0.00     0.031 C 
ATOM     50  C   UNL A   1      44.165  26.641  31.556  1.00  0.00     0.029 A 
ATOM     51  C   UNL A   1      43.319  27.576  32.130  1.00  0.00     0.049 A 
ATOM     52  H   UNL A   1      41.646  28.551  31.291  1.00  0.00     0.167 HD
ATOM     53  C   UNL A   1      42.507  29.052  33.951  1.00  0.00     0.074 A 
ATOM     54  C   UNL A   1      42.554  29.574  35.301  1.00  0.00     0.031 C 
ATOM     55  C   UNL A   1      43.356  28.118  33.463  1.00  0.00     0.037 A 
BRANCH  42  56
ATOM     56  C   UNL A   1      42.265  26.490  27.612  1.00  0.00     0.064 A 
ATOM     57  C   UNL A   1      43.262  26.886  26.710  1.00  0.00     0.173 A 
ATOM     58  C   UNL A   1      41.669  25.233  27.424  1.00  0.00     0.173 A 
ATOM     59  F   UNL A   1      43.853  28.082  26.840  1.00  0.00    -0.203 F 
ATOM     60  C   UNL A   1      43.637  26.060  25.652  1.00  0.00     0.198 A 
ATOM     61  C   UNL A   1      42.063  24.400  26.379  1.00  0.00     0.198 A 
ATOM     62  F   UNL A   1      40.715  24.805  28.264  1.00  0.00    -0.203 F 
ATOM     63  F   UNL A   1      44.571  26.471  24.783  1.00  0.00    -0.200 F 
ATOM     64  C   UNL A   1      43.043  24.816  25.492  1.00  0.00     0.200 A 
ATOM     65  F   UNL A   1      41.496  23.195  26.234  1.00  0.00    -0.200 F 
ATOM     66  F   UNL A   1      43.415  24.019  24.481  1.00  0.00    -0.200 F 
ENDBRANCH  42  56
BRANCH  43  67
ATOM     67  C   UNL A   1      39.269  32.227  35.205  1.00  0.00     0.064 A 
ATOM     68  C   UNL A   1      38.473  31.648  36.201  1.00  0.00     0.173 A 
ATOM     69  C   UNL A   1      39.621  33.578  35.348  1.00  0.00     0.173 A 
ATOM     70  F   UNL A   1      38.092  30.367  36.092  1.00  0.00    -0.203 F 
ATOM     71  C   UNL A   1      38.047  32.390  37.300  1.00  0.00     0.198 A 
ATOM     72  C   UNL A   1      39.218  34.311  36.462  1.00  0.00     0.198 A 
ATOM     73  F   UNL A   1      40.382  34.176  34.422  1.00  0.00    -0.203 F 
ATOM     74  F   UNL A   1      37.265  31.821  38.228  1.00  0.00    -0.200 F 
ATOM     75  C   UNL A   1      38.428  33.718  37.435  1.00  0.00     0.200 A 
ATOM     76  F   UNL A   1      39.599  35.589  36.595  1.00  0.00    -0.200 F 
ATOM     77  F   UNL A   1      38.033  34.425  38.501  1.00  0.00    -0.200 F 
ENDBRANCH  43  67
BRANCH  55  78
ATOM     78  C   UNL A   1      44.436  27.630  34.379  1.00  0.00     0.064 A 
ATOM     79  C   UNL A   1      44.268  26.480  35.160  1.00  0.00     0.173 A 
ATOM     80  C   UNL A   1      45.670  28.294  34.432  1.00  0.00     0.173 A 
ATOM     81  F   UNL A   1      43.099  25.822  35.152  1.00  0.00    -0.203 F 
ATOM     82  C   UNL A   1      45.298  26.016  35.974  1.00  0.00     0.198 A 
ATOM     83  C   UNL A   1      46.703  27.818  35.233  1.00  0.00     0.198 A 
ATOM     84  F   UNL A   1      45.875  29.399  33.699  1.00  0.00    -0.203 F 
ATOM     85  F   UNL A   1      45.110  24.929  36.736  1.00  0.00    -0.200 F 
ATOM     86  C   UNL A   1      46.516  26.681  36.004  1.00  0.00     0.200 A 
ATOM     87  F   UNL A   1      47.880  28.457  35.258  1.00  0.00    -0.200 F 
ATOM     88  F   UNL A   1      47.507  26.228  36.783  1.00  0.00    -0.200 F 
ENDBRANCH  55  78
ENDBRANCH  29  30
ENDBRANCH  22  24
ENDBRANCH  21  22
ENDBRANCH  20  21
ENDBRANCH   1  20
TORSDOF 14
ENDMDL
MODEL 3
REMARK VINA RESULT:     -11.6      1.212      2.259
REMARK SMILES C[C@H]1[C@@H](C(=O)OCCOC(=O)c2ccc(-c3c4nc(c(-c5c(F)c(F)c(F)c(F)c5F)c5ccc([nH]5)c(-c5c(F)c(F)c(F)c(F)c5F)c5nc(c(-c6c(F)c(F)c(F)c(F)c6F)c6ccc3[nH]6)C=C5)C=C4)cc2)CC[N@@H+]1CC1(O)CCCC1
REMARK SMILES IDX 7 1 6 2 4 3 5 4 3 5 1 6 2 7 77 8 75 9 76 10 78 12 79 13
REMARK SMILES IDX 81 14 84 15 82 16 83 17 80 18 8 20 9 21 10 22 11 23 12 24
REMARK SMILES IDX 13 25 74 26 14 27 73 28 15 29 16 30 17 31 67 32 18 33 72 34
REMARK SMILES IDX 66 35 68 36 19 37 71 38 65 39 64 40 20 42 52 43 32 44 51 45
REMARK SMILES IDX 33 46 36 47 50 48 69 49 34 50 35 51 49 53 70 54 37 55 21 56
REMARK SMILES IDX 22 57 30 58 23 59 24 60 28 61 31 62 25 63 26 64 29 65 27 66
REMARK SMILES IDX 53 67 54 68 62 69 55 70 56 71 60 72 63 73 57 74 58 75 61 76
REMARK SMILES IDX 59 77 38 78 39 79 47 80 40 81 41 82 45 83 48 84 42 85 43 86
REMARK SMILES IDX 46 87 44 88
REMARK H PARENT 77 11 80 19 68 41 36 52
REMARK Flexibility Score: inf
ROOT
ATOM      1  C   UNL A   1      31.280  29.666  24.898  1.00  0.00     0.274 C 
ENDROOT
BRANCH   1   2
ATOM      2  O   UNL A   1      31.597  28.306  24.541  1.00  0.00    -0.462 OA
BRANCH   2   3
ATOM      3  C   UNL A   1      32.700  28.125  23.777  1.00  0.00     0.315 C 
ATOM      4  O   UNL A   1      32.993  28.817  22.805  1.00  0.00    -0.252 OA
BRANCH   3   5
ATOM      5  C   UNL A   1      33.633  27.053  24.293  1.00  0.00     0.162 C 
ATOM      6  C   UNL A   1      32.529  25.181  22.866  1.00  0.00     0.076 C 
ATOM      7  C   UNL A   1      33.779  25.715  23.568  1.00  0.00     0.195 C 
ATOM      8  N   UNL A   1      34.122  24.755  24.627  1.00  0.00    -0.330 N 
ATOM      9  C   UNL A   1      33.393  26.715  25.758  1.00  0.00     0.083 C 
ATOM     10  C   UNL A   1      33.494  25.208  25.862  1.00  0.00     0.263 C 
ATOM     11  H   UNL A   1      33.735  23.855  24.340  1.00  0.00     0.348 HD
BRANCH   8  12
ATOM     12  C   UNL A   1      35.519  24.325  24.753  1.00  0.00     0.297 C 
BRANCH  12  13
ATOM     13  C   UNL A   1      36.041  22.914  24.339  1.00  0.00     0.113 C 
ATOM     14  C   UNL A   1      35.158  21.729  24.734  1.00  0.00     0.041 C 
ATOM     15  C   UNL A   1      37.347  22.610  25.096  1.00  0.00     0.041 C 
ATOM     16  C   UNL A   1      36.100  20.536  24.919  1.00  0.00     0.003 C 
ATOM     17  C   UNL A   1      37.513  21.100  25.000  1.00  0.00     0.003 C 
BRANCH  13  18
ATOM     18  O   UNL A   1      36.311  22.873  22.934  1.00  0.00    -0.384 OA
ATOM     19  H   UNL A   1      36.735  22.030  22.710  1.00  0.00     0.211 HD
ENDBRANCH  13  18
ENDBRANCH  12  13
ENDBRANCH   8  12
ENDBRANCH   3   5
ENDBRANCH   2   3
ENDBRANCH   1   2
BRANCH   1  20
ATOM     20  C   UNL A   1      31.803  29.961  26.298  1.00  0.00     0.275 C 
BRANCH  20  21
ATOM     21  O   UNL A   1      33.167  30.415  26.213  1.00  0.00    -0.458 OA
BRANCH  21  22
ATOM     22  C   UNL A   1      33.517  31.365  27.108  1.00  0.00     0.338 C 
ATOM     23  O   UNL A   1      32.902  32.376  27.400  1.00  0.00    -0.246 OA
BRANCH  22  24
ATOM     24  C   UNL A   1      34.824  31.037  27.706  1.00  0.00     0.060 A 
ATOM     25  C   UNL A   1      35.123  29.744  28.143  1.00  0.00     0.016 A 
ATOM     26  C   UNL A   1      35.721  32.082  27.930  1.00  0.00     0.016 A 
ATOM     27  C   UNL A   1      36.291  29.511  28.873  1.00  0.00     0.010 A 
ATOM     28  C   UNL A   1      36.930  31.825  28.575  1.00  0.00     0.010 A 
ATOM     29  C   UNL A   1      37.220  30.543  29.074  1.00  0.00    -0.014 A 
BRANCH  29  30
ATOM     30  C   UNL A   1      38.508  30.328  29.786  1.00  0.00     0.031 A 
ATOM     31  C   UNL A   1      39.534  29.394  29.206  1.00  0.00     0.074 A 
ATOM     32  C   UNL A   1      38.722  30.883  30.994  1.00  0.00     0.049 A 
ATOM     33  N   UNL A   1      40.530  28.784  29.795  1.00  0.00    -0.248 NA
ATOM     34  C   UNL A   1      39.406  29.092  27.771  1.00  0.00     0.031 C 
ATOM     35  C   UNL A   1      37.844  31.847  31.655  1.00  0.00     0.029 A 
ATOM     36  N   UNL A   1      39.739  30.683  31.897  1.00  0.00    -0.354 N 
ATOM     37  C   UNL A   1      41.106  27.976  28.824  1.00  0.00     0.074 A 
ATOM     38  C   UNL A   1      40.362  28.187  27.600  1.00  0.00     0.031 C 
ATOM     39  C   UNL A   1      38.354  32.154  32.857  1.00  0.00     0.029 A 
ATOM     40  C   UNL A   1      39.539  31.337  33.089  1.00  0.00     0.049 A 
ATOM     41  H   UNL A   1      40.529  30.127  31.710  1.00  0.00     0.167 HD
ATOM     42  C   UNL A   1      42.152  27.125  28.954  1.00  0.00     0.037 A 
ATOM     43  C   UNL A   1      40.191  31.239  34.263  1.00  0.00     0.037 A 
ATOM     44  C   UNL A   1      42.919  26.962  30.162  1.00  0.00     0.049 A 
ATOM     45  C   UNL A   1      41.327  30.268  34.397  1.00  0.00     0.074 A 
ATOM     46  C   UNL A   1      44.005  26.137  30.394  1.00  0.00     0.029 A 
ATOM     47  N   UNL A   1      42.686  27.657  31.340  1.00  0.00    -0.354 N 
ATOM     48  N   UNL A   1      41.821  29.447  33.502  1.00  0.00    -0.248 NA
ATOM     49  C   UNL A   1      41.981  30.188  35.711  1.00  0.00     0.031 C 
ATOM     50  C   UNL A   1      44.415  26.314  31.719  1.00  0.00     0.029 A 
ATOM     51  C   UNL A   1      43.605  27.276  32.302  1.00  0.00     0.049 A 
ATOM     52  H   UNL A   1      41.972  28.323  31.472  1.00  0.00     0.167 HD
ATOM     53  C   UNL A   1      42.850  28.766  34.136  1.00  0.00     0.074 A 
ATOM     54  C   UNL A   1      42.916  29.273  35.491  1.00  0.00     0.031 C 
ATOM     55  C   UNL A   1      43.663  27.804  33.640  1.00  0.00     0.037 A 
BRANCH  42  56
ATOM     56  C   UNL A   1      42.513  26.273  27.774  1.00  0.00     0.064 A 
ATOM     57  C   UNL A   1      41.857  25.064  27.504  1.00  0.00     0.173 A 
ATOM     58  C   UNL A   1      43.495  26.705  26.869  1.00  0.00     0.173 A 
ATOM     59  F   UNL A   1      40.920  24.602  28.344  1.00  0.00    -0.203 F 
ATOM     60  C   UNL A   1      42.183  24.312  26.377  1.00  0.00     0.198 A 
ATOM     61  C   UNL A   1      43.801  25.962  25.732  1.00  0.00     0.198 A 
ATOM     62  F   UNL A   1      44.147  27.859  27.080  1.00  0.00    -0.203 F 
ATOM     63  F   UNL A   1      41.564  23.144  26.152  1.00  0.00    -0.200 F 
ATOM     64  C   UNL A   1      43.149  24.764  25.489  1.00  0.00     0.200 A 
ATOM     65  F   UNL A   1      44.726  26.408  24.871  1.00  0.00    -0.200 F 
ATOM     66  F   UNL A   1      43.451  24.044  24.401  1.00  0.00    -0.200 F 
ENDBRANCH  42  56
BRANCH  43  67
ATOM     67  C   UNL A   1      39.735  32.051  35.419  1.00  0.00     0.064 A 
ATOM     68  C   UNL A   1      40.233  33.343  35.629  1.00  0.00     0.173 A 
ATOM     69  C   UNL A   1      38.768  31.566  36.313  1.00  0.00     0.173 A 
ATOM     70  F   UNL A   1      41.176  33.837  34.814  1.00  0.00    -0.203 F 
ATOM     71  C   UNL A   1      39.778  34.122  36.690  1.00  0.00     0.198 A 
ATOM     72  C   UNL A   1      38.295  32.357  37.357  1.00  0.00     0.198 A 
ATOM     73  F   UNL A   1      38.261  30.335  36.153  1.00  0.00    -0.203 F 
ATOM     74  F   UNL A   1      40.287  35.347  36.885  1.00  0.00    -0.200 F 
ATOM     75  C   UNL A   1      38.803  33.633  37.548  1.00  0.00     0.200 A 
ATOM     76  F   UNL A   1      37.343  31.886  38.175  1.00  0.00    -0.200 F 
ATOM     77  F   UNL A   1      38.355  34.390  38.557  1.00  0.00    -0.200 F 
ENDBRANCH  43  67
BRANCH  55  78
ATOM     78  C   UNL A   1      44.723  27.267  34.551  1.00  0.00     0.064 A 
ATOM     79  C   UNL A   1      45.953  27.918  34.706  1.00  0.00     0.173 A 
ATOM     80  C   UNL A   1      44.480  26.116  35.315  1.00  0.00     0.173 A 
ATOM     81  F   UNL A   1      46.233  29.013  33.984  1.00  0.00    -0.203 F 
ATOM     82  C   UNL A   1      46.911  27.429  35.590  1.00  0.00     0.198 A 
ATOM     83  C   UNL A   1      45.433  25.640  36.211  1.00  0.00     0.198 A 
ATOM     84  F   UNL A   1      43.315  25.461  35.200  1.00  0.00    -0.203 F 
ATOM     85  F   UNL A   1      48.093  28.050  35.706  1.00  0.00    -0.200 F 
ATOM     86  C   UNL A   1      46.647  26.295  36.346  1.00  0.00     0.200 A 
ATOM     87  F   UNL A   1      45.175  24.549  36.944  1.00  0.00    -0.200 F 
ATOM     88  F   UNL A   1      47.568  25.831  37.201  1.00  0.00    -0.200 F 
ENDBRANCH  55  78
ENDBRANCH  29  30
ENDBRANCH  22  24
ENDBRANCH  21  22
ENDBRANCH  20  21
ENDBRANCH   1  20
TORSDOF 14
ENDMDL
