MODEL 1
REMARK VINA RESULT:     -11.8      0.000      0.000
REMARK SMILES O=C(CSc1nc2cccnc2n1CC(F)(F)F)OCCOC(=O)c1ccc(-c2c3nc(c(-c4c(F)c(F)c(F)c(F)c4F)c4ccc([nH]4)c(-c4c(F)c(F)c(F)c(F)c4F)c4nc(c(-c5c(F)c(F)c(F)c(F)c5F)c5ccc2[nH]5)C=C4)C=C3)cc1
REMARK SMILES IDX 20 1 19 2 2 3 1 4 3 5 4 6 5 7 6 8 13 9 7 10 12 11 8 12 11 13
REMARK SMILES IDX 9 14 10 15 14 16 15 17 16 18 17 19 18 20 21 21 22 22 23 23
REMARK SMILES IDX 24 24 25 25 26 26 87 27 27 28 86 29 28 30 29 31 30 32 80 33
REMARK SMILES IDX 31 34 85 35 79 36 81 37 32 38 84 39 78 40 77 41 33 43 65 44
REMARK SMILES IDX 45 45 64 46 46 47 49 48 63 49 82 50 47 51 48 52 62 54 83 55
REMARK SMILES IDX 50 56 34 57 35 58 43 59 36 60 37 61 41 62 44 63 38 64 39 65
REMARK SMILES IDX 42 66 40 67 66 68 67 69 75 70 68 71 69 72 73 73 76 74 70 75
REMARK SMILES IDX 71 76 74 77 72 78 51 79 52 80 60 81 53 82 54 83 58 84 61 85
REMARK SMILES IDX 55 86 56 87 59 88 57 89
REMARK H PARENT 81 42 49 53
REMARK Flexibility Score: inf
ROOT
ATOM      1  C   UNL A   1      40.805  19.930  26.282  1.00  0.00     0.274 C 
ENDROOT
BRANCH   1   2
ATOM      2  O   UNL A   1      40.067  21.084  26.741  1.00  0.00    -0.461 OA
BRANCH   2   3
ATOM      3  C   UNL A   1      39.120  21.826  26.123  1.00  0.00     0.316 C 
ATOM      4  O   UNL A   1      39.067  23.035  26.371  1.00  0.00    -0.251 OA
BRANCH   3   5
ATOM      5  C   UNL A   1      38.049  21.217  25.243  1.00  0.00     0.200 C 
BRANCH   5   6
ATOM      6  S   UNL A   1      36.438  22.010  25.206  1.00  0.00    -0.076 SA
BRANCH   6   7
ATOM      7  C   UNL A   1      35.443  20.614  25.082  1.00  0.00     0.171 A 
ATOM      8  N   UNL A   1      35.899  19.433  24.747  1.00  0.00    -0.221 NA
ATOM      9  N   UNL A   1      34.084  20.642  25.217  1.00  0.00    -0.294 N 
ATOM     10  C   UNL A   1      34.785  18.665  24.579  1.00  0.00     0.109 A 
ATOM     11  C   UNL A   1      33.637  19.391  24.872  1.00  0.00     0.160 A 
ATOM     12  C   UNL A   1      34.646  17.344  24.147  1.00  0.00     0.034 A 
ATOM     13  N   UNL A   1      32.360  18.969  24.793  1.00  0.00    -0.237 NA
ATOM     14  C   UNL A   1      33.346  16.852  24.041  1.00  0.00     0.022 A 
ATOM     15  C   UNL A   1      32.275  17.681  24.370  1.00  0.00     0.113 A 
BRANCH   9  16
ATOM     16  C   UNL A   1      33.234  21.778  25.499  1.00  0.00     0.241 C 
BRANCH  16  17
ATOM     17  C   UNL A   1      32.799  22.546  24.271  1.00  0.00     0.406 C 
ATOM     18  F   UNL A   1      31.460  22.706  24.206  1.00  0.00    -0.169 F 
ATOM     19  F   UNL A   1      33.331  23.793  24.297  1.00  0.00    -0.169 F 
ATOM     20  F   UNL A   1      33.202  21.962  23.125  1.00  0.00    -0.169 F 
ENDBRANCH  16  17
ENDBRANCH   9  16
ENDBRANCH   6   7
ENDBRANCH   5   6
ENDBRANCH   3   5
ENDBRANCH   2   3
ENDBRANCH   1   2
BRANCH   1  21
ATOM     21  C   UNL A   1      42.308  20.081  26.434  1.00  0.00     0.275 C 
BRANCH  21  22
ATOM     22  O   UNL A   1      42.925  20.193  25.159  1.00  0.00    -0.458 OA
BRANCH  22  23
ATOM     23  C   UNL A   1      44.253  20.453  25.195  1.00  0.00     0.338 C 
ATOM     24  O   UNL A   1      45.162  19.656  25.230  1.00  0.00    -0.246 OA
BRANCH  23  25
ATOM     25  C   UNL A   1      44.427  21.907  25.286  1.00  0.00     0.060 A 
ATOM     26  C   UNL A   1      45.266  22.372  26.297  1.00  0.00     0.016 A 
ATOM     27  C   UNL A   1      43.541  22.748  24.597  1.00  0.00     0.016 A 
ATOM     28  C   UNL A   1      45.014  23.623  26.805  1.00  0.00     0.010 A 
ATOM     29  C   UNL A   1      43.268  23.981  25.125  1.00  0.00     0.010 A 
ATOM     30  C   UNL A   1      43.940  24.355  26.281  1.00  0.00    -0.014 A 
BRANCH  30  31
ATOM     31  C   UNL A   1      43.601  25.601  26.919  1.00  0.00     0.031 A 
ATOM     32  C   UNL A   1      44.593  26.650  26.629  1.00  0.00     0.074 A 
ATOM     33  C   UNL A   1      42.509  25.761  27.687  1.00  0.00     0.049 A 
ATOM     34  N   UNL A   1      45.510  27.073  27.429  1.00  0.00    -0.248 NA
ATOM     35  C   UNL A   1      44.730  27.119  25.244  1.00  0.00     0.031 C 
ATOM     36  C   UNL A   1      41.357  24.873  27.853  1.00  0.00     0.029 A 
ATOM     37  N   UNL A   1      42.191  26.824  28.472  1.00  0.00    -0.354 N 
ATOM     38  C   UNL A   1      46.223  28.020  26.710  1.00  0.00     0.074 A 
ATOM     39  C   UNL A   1      45.832  27.864  25.335  1.00  0.00     0.031 C 
ATOM     40  C   UNL A   1      40.380  25.529  28.526  1.00  0.00     0.029 A 
ATOM     41  C   UNL A   1      40.892  26.816  28.964  1.00  0.00     0.049 A 
ATOM     42  H   UNL A   1      42.832  27.544  28.676  1.00  0.00     0.167 HD
ATOM     43  C   UNL A   1      46.864  29.022  27.366  1.00  0.00     0.037 A 
ATOM     44  C   UNL A   1      40.300  27.827  29.650  1.00  0.00     0.037 A 
ATOM     45  C   UNL A   1      47.069  28.672  28.752  1.00  0.00     0.049 A 
ATOM     46  C   UNL A   1      41.394  28.644  30.235  1.00  0.00     0.074 A 
ATOM     47  C   UNL A   1      47.779  27.687  29.410  1.00  0.00     0.029 A 
ATOM     48  N   UNL A   1      46.162  29.157  29.661  1.00  0.00    -0.354 N 
ATOM     49  N   UNL A   1      42.185  28.222  31.182  1.00  0.00    -0.248 NA
ATOM     50  C   UNL A   1      41.896  29.764  29.453  1.00  0.00     0.031 C 
ATOM     51  C   UNL A   1      46.976  27.332  30.535  1.00  0.00     0.029 A 
ATOM     52  C   UNL A   1      45.851  28.158  30.544  1.00  0.00     0.049 A 
ATOM     53  H   UNL A   1      45.797  30.071  29.676  1.00  0.00     0.167 HD
ATOM     54  C   UNL A   1      43.436  28.712  30.839  1.00  0.00     0.074 A 
ATOM     55  C   UNL A   1      43.179  29.729  29.822  1.00  0.00     0.031 C 
ATOM     56  C   UNL A   1      44.568  28.042  31.202  1.00  0.00     0.037 A 
BRANCH  43  57
ATOM     57  C   UNL A   1      46.900  30.451  26.876  1.00  0.00     0.064 A 
ATOM     58  C   UNL A   1      48.122  31.151  26.935  1.00  0.00     0.173 A 
ATOM     59  C   UNL A   1      45.757  31.248  26.643  1.00  0.00     0.173 A 
ATOM     60  F   UNL A   1      49.272  30.502  27.166  1.00  0.00    -0.203 F 
ATOM     61  C   UNL A   1      48.178  32.545  26.860  1.00  0.00     0.198 A 
ATOM     62  C   UNL A   1      45.825  32.634  26.518  1.00  0.00     0.198 A 
ATOM     63  F   UNL A   1      44.516  30.753  26.638  1.00  0.00    -0.203 F 
ATOM     64  F   UNL A   1      49.345  33.171  27.057  1.00  0.00    -0.200 F 
ATOM     65  C   UNL A   1      47.030  33.286  26.659  1.00  0.00     0.200 A 
ATOM     66  F   UNL A   1      44.694  33.334  26.343  1.00  0.00    -0.200 F 
ATOM     67  F   UNL A   1      47.072  34.624  26.650  1.00  0.00    -0.200 F 
ENDBRANCH  43  57
BRANCH  44  68
ATOM     68  C   UNL A   1      38.914  28.348  29.539  1.00  0.00     0.064 A 
ATOM     69  C   UNL A   1      38.128  28.545  30.689  1.00  0.00     0.173 A 
ATOM     70  C   UNL A   1      38.452  28.963  28.358  1.00  0.00     0.173 A 
ATOM     71  F   UNL A   1      38.513  28.027  31.866  1.00  0.00    -0.203 F 
ATOM     72  C   UNL A   1      36.983  29.348  30.673  1.00  0.00     0.198 A 
ATOM     73  C   UNL A   1      37.305  29.760  28.342  1.00  0.00     0.198 A 
ATOM     74  F   UNL A   1      39.159  28.887  27.223  1.00  0.00    -0.203 F 
ATOM     75  F   UNL A   1      36.308  29.575  31.809  1.00  0.00    -0.200 F 
ATOM     76  C   UNL A   1      36.582  29.969  29.503  1.00  0.00     0.200 A 
ATOM     77  F   UNL A   1      36.947  30.385  27.212  1.00  0.00    -0.200 F 
ATOM     78  F   UNL A   1      35.530  30.799  29.500  1.00  0.00    -0.200 F 
ENDBRANCH  44  68
BRANCH  56  79
ATOM     79  C   UNL A   1      44.434  26.942  32.220  1.00  0.00     0.064 A 
ATOM     80  C   UNL A   1      44.244  25.585  31.902  1.00  0.00     0.173 A 
ATOM     81  C   UNL A   1      44.673  27.260  33.564  1.00  0.00     0.173 A 
ATOM     82  F   UNL A   1      44.092  25.188  30.632  1.00  0.00    -0.203 F 
ATOM     83  C   UNL A   1      44.272  24.601  32.890  1.00  0.00     0.198 A 
ATOM     84  C   UNL A   1      44.739  26.272  34.542  1.00  0.00     0.198 A 
ATOM     85  F   UNL A   1      44.904  28.534  33.919  1.00  0.00    -0.203 F 
ATOM     86  F   UNL A   1      44.088  23.313  32.564  1.00  0.00    -0.200 F 
ATOM     87  C   UNL A   1      44.534  24.945  34.207  1.00  0.00     0.200 A 
ATOM     88  F   UNL A   1      45.038  26.607  35.805  1.00  0.00    -0.200 F 
ATOM     89  F   UNL A   1      44.617  23.994  35.149  1.00  0.00    -0.200 F 
ENDBRANCH  56  79
ENDBRANCH  30  31
ENDBRANCH  23  25
ENDBRANCH  22  23
ENDBRANCH  21  22
ENDBRANCH   1  21
TORSDOF 15
ENDMDL
MODEL 2
REMARK VINA RESULT:     -11.6      3.266      4.705
REMARK SMILES O=C(CSc1nc2cccnc2n1CC(F)(F)F)OCCOC(=O)c1ccc(-c2c3nc(c(-c4c(F)c(F)c(F)c(F)c4F)c4ccc([nH]4)c(-c4c(F)c(F)c(F)c(F)c4F)c4nc(c(-c5c(F)c(F)c(F)c(F)c5F)c5ccc2[nH]5)C=C4)C=C3)cc1
REMARK SMILES IDX 20 1 19 2 2 3 1 4 3 5 4 6 5 7 6 8 13 9 7 10 12 11 8 12 11 13
REMARK SMILES IDX 9 14 10 15 14 16 15 17 16 18 17 19 18 20 21 21 22 22 23 23
REMARK SMILES IDX 24 24 25 25 26 26 87 27 27 28 86 29 28 30 29 31 30 32 80 33
REMARK SMILES IDX 31 34 85 35 79 36 81 37 32 38 84 39 78 40 77 41 33 43 65 44
REMARK SMILES IDX 45 45 64 46 46 47 49 48 63 49 82 50 47 51 48 52 62 54 83 55
REMARK SMILES IDX 50 56 34 57 35 58 43 59 36 60 37 61 41 62 44 63 38 64 39 65
REMARK SMILES IDX 42 66 40 67 66 68 67 69 75 70 68 71 69 72 73 73 76 74 70 75
REMARK SMILES IDX 71 76 74 77 72 78 51 79 52 80 60 81 53 82 54 83 58 84 61 85
REMARK SMILES IDX 55 86 56 87 59 88 57 89
REMARK H PARENT 81 42 49 53
REMARK Flexibility Score: inf
ROOT
ATOM      1  C   UNL A   1      38.120  21.285  25.092  1.00  0.00     0.274 C 
ENDROOT
BRANCH   1   2
ATOM      2  O   UNL A   1      36.840  21.778  25.548  1.00  0.00    -0.461 OA
BRANCH   2   3
ATOM      3  C   UNL A   1      36.047  22.754  25.053  1.00  0.00     0.316 C 
ATOM      4  O   UNL A   1      36.578  23.692  24.448  1.00  0.00    -0.251 OA
BRANCH   3   5
ATOM      5  C   UNL A   1      34.558  22.812  25.319  1.00  0.00     0.200 C 
BRANCH   5   6
ATOM      6  S   UNL A   1      33.508  23.572  24.077  1.00  0.00    -0.076 SA
BRANCH   6   7
ATOM      7  C   UNL A   1      33.125  25.036  24.892  1.00  0.00     0.171 A 
ATOM      8  N   UNL A   1      34.005  25.976  25.135  1.00  0.00    -0.221 NA
ATOM      9  N   UNL A   1      31.903  25.294  25.446  1.00  0.00    -0.294 N 
ATOM     10  C   UNL A   1      33.357  26.856  25.950  1.00  0.00     0.109 A 
ATOM     11  C   UNL A   1      32.040  26.460  26.156  1.00  0.00     0.160 A 
ATOM     12  C   UNL A   1      33.814  28.009  26.593  1.00  0.00     0.034 A 
ATOM     13  N   UNL A   1      31.114  27.068  26.922  1.00  0.00    -0.237 NA
ATOM     14  C   UNL A   1      32.900  28.680  27.404  1.00  0.00     0.022 A 
ATOM     15  C   UNL A   1      31.604  28.182  27.525  1.00  0.00     0.113 A 
BRANCH   9  16
ATOM     16  C   UNL A   1      30.726  24.453  25.451  1.00  0.00     0.241 C 
BRANCH  16  17
ATOM     17  C   UNL A   1      30.742  23.370  26.506  1.00  0.00     0.406 C 
ATOM     18  F   UNL A   1      30.892  22.136  25.981  1.00  0.00    -0.169 F 
ATOM     19  F   UNL A   1      31.793  23.559  27.342  1.00  0.00    -0.169 F 
ATOM     20  F   UNL A   1      29.625  23.365  27.261  1.00  0.00    -0.169 F 
ENDBRANCH  16  17
ENDBRANCH   9  16
ENDBRANCH   6   7
ENDBRANCH   5   6
ENDBRANCH   3   5
ENDBRANCH   2   3
ENDBRANCH   1   2
BRANCH   1  21
ATOM     21  C   UNL A   1      39.198  21.338  26.159  1.00  0.00     0.275 C 
BRANCH  21  22
ATOM     22  O   UNL A   1      39.545  22.686  26.445  1.00  0.00    -0.458 OA
BRANCH  22  23
ATOM     23  C   UNL A   1      40.507  22.834  27.386  1.00  0.00     0.338 C 
ATOM     24  O   UNL A   1      40.886  22.015  28.191  1.00  0.00    -0.246 OA
BRANCH  23  25
ATOM     25  C   UNL A   1      40.973  24.224  27.342  1.00  0.00     0.060 A 
ATOM     26  C   UNL A   1      41.794  24.640  28.388  1.00  0.00     0.016 A 
ATOM     27  C   UNL A   1      40.349  25.129  26.470  1.00  0.00     0.016 A 
ATOM     28  C   UNL A   1      41.764  25.970  28.729  1.00  0.00     0.010 A 
ATOM     29  C   UNL A   1      40.293  26.449  26.830  1.00  0.00     0.010 A 
ATOM     30  C   UNL A   1      40.919  26.827  28.009  1.00  0.00    -0.014 A 
BRANCH  30  31
ATOM     31  C   UNL A   1      40.791  28.186  28.469  1.00  0.00     0.031 A 
ATOM     32  C   UNL A   1      41.913  29.023  28.011  1.00  0.00     0.074 A 
ATOM     33  C   UNL A   1      39.766  28.612  29.228  1.00  0.00     0.049 A 
ATOM     34  N   UNL A   1      42.914  29.412  28.725  1.00  0.00    -0.248 NA
ATOM     35  C   UNL A   1      42.060  29.270  26.571  1.00  0.00     0.031 C 
ATOM     36  C   UNL A   1      38.505  27.938  29.543  1.00  0.00     0.029 A 
ATOM     37  N   UNL A   1      39.639  29.809  29.858  1.00  0.00    -0.354 N 
ATOM     38  C   UNL A   1      43.727  30.132  27.863  1.00  0.00     0.074 A 
ATOM     39  C   UNL A   1      43.261  29.847  26.532  1.00  0.00     0.031 C 
ATOM     40  C   UNL A   1      37.662  28.820  30.134  1.00  0.00     0.029 A 
ATOM     41  C   UNL A   1      38.374  30.064  30.373  1.00  0.00     0.049 A 
ATOM     42  H   UNL A   1      40.385  30.447  29.944  1.00  0.00     0.167 HD
ATOM     43  C   UNL A   1      44.532  31.109  28.355  1.00  0.00     0.037 A 
ATOM     44  C   UNL A   1      37.964  31.238  30.918  1.00  0.00     0.037 A 
ATOM     45  C   UNL A   1      44.741  30.928  29.773  1.00  0.00     0.049 A 
ATOM     46  C   UNL A   1      39.188  31.956  31.358  1.00  0.00     0.074 A 
ATOM     47  C   UNL A   1      45.327  29.948  30.551  1.00  0.00     0.029 A 
ATOM     48  N   UNL A   1      43.952  31.664  30.621  1.00  0.00    -0.354 N 
ATOM     49  N   UNL A   1      39.948  31.555  32.340  1.00  0.00    -0.248 NA
ATOM     50  C   UNL A   1      39.815  32.867  30.413  1.00  0.00     0.031 C 
ATOM     51  C   UNL A   1      44.528  29.878  31.731  1.00  0.00     0.029 A 
ATOM     52  C   UNL A   1      43.536  30.855  31.645  1.00  0.00     0.049 A 
ATOM     53  H   UNL A   1      43.725  32.615  30.512  1.00  0.00     0.167 HD
ATOM     54  C   UNL A   1      41.241  31.800  31.905  1.00  0.00     0.074 A 
ATOM     55  C   UNL A   1      41.093  32.693  30.758  1.00  0.00     0.031 C 
ATOM     56  C   UNL A   1      42.277  31.025  32.337  1.00  0.00     0.037 A 
BRANCH  43  57
ATOM     57  C   UNL A   1      44.755  32.433  27.665  1.00  0.00     0.064 A 
ATOM     58  C   UNL A   1      45.967  32.636  26.973  1.00  0.00     0.173 A 
ATOM     59  C   UNL A   1      43.992  33.599  27.899  1.00  0.00     0.173 A 
ATOM     60  F   UNL A   1      46.783  31.605  26.707  1.00  0.00    -0.203 F 
ATOM     61  C   UNL A   1      46.417  33.913  26.630  1.00  0.00     0.198 A 
ATOM     62  C   UNL A   1      44.421  34.865  27.508  1.00  0.00     0.198 A 
ATOM     63  F   UNL A   1      42.860  33.593  28.608  1.00  0.00    -0.203 F 
ATOM     64  F   UNL A   1      47.636  34.063  26.095  1.00  0.00    -0.200 F 
ATOM     65  C   UNL A   1      45.648  35.027  26.903  1.00  0.00     0.200 A 
ATOM     66  F   UNL A   1      43.666  35.934  27.802  1.00  0.00    -0.200 F 
ATOM     67  F   UNL A   1      46.104  36.256  26.632  1.00  0.00    -0.200 F 
ENDBRANCH  43  57
BRANCH  44  68
ATOM     68  C   UNL A   1      36.664  31.940  30.761  1.00  0.00     0.064 A 
ATOM     69  C   UNL A   1      35.805  32.110  31.862  1.00  0.00     0.173 A 
ATOM     70  C   UNL A   1      36.389  32.731  29.628  1.00  0.00     0.173 A 
ATOM     71  F   UNL A   1      36.016  31.425  32.996  1.00  0.00    -0.203 F 
ATOM     72  C   UNL A   1      34.768  33.050  31.851  1.00  0.00     0.198 A 
ATOM     73  C   UNL A   1      35.350  33.665  29.616  1.00  0.00     0.198 A 
ATOM     74  F   UNL A   1      37.183  32.688  28.551  1.00  0.00    -0.203 F 
ATOM     75  F   UNL A   1      34.023  33.238  32.949  1.00  0.00    -0.200 F 
ATOM     76  C   UNL A   1      34.553  33.838  30.734  1.00  0.00     0.200 A 
ATOM     77  F   UNL A   1      35.173  34.447  28.543  1.00  0.00    -0.200 F 
ATOM     78  F   UNL A   1      33.610  34.790  30.746  1.00  0.00    -0.200 F 
ENDBRANCH  44  68
BRANCH  56  79
ATOM     79  C   UNL A   1      42.027  30.110  33.505  1.00  0.00     0.064 A 
ATOM     80  C   UNL A   1      41.606  28.772  33.390  1.00  0.00     0.173 A 
ATOM     81  C   UNL A   1      42.389  30.562  34.782  1.00  0.00     0.173 A 
ATOM     82  F   UNL A   1      41.321  28.239  32.195  1.00  0.00    -0.203 F 
ATOM     83  C   UNL A   1      41.532  27.939  34.506  1.00  0.00     0.198 A 
ATOM     84  C   UNL A   1      42.352  29.718  35.887  1.00  0.00     0.198 A 
ATOM     85  F   UNL A   1      42.840  31.816  34.945  1.00  0.00    -0.203 F 
ATOM     86  F   UNL A   1      41.127  26.668  34.372  1.00  0.00    -0.200 F 
ATOM     87  C   UNL A   1      41.918  28.409  35.752  1.00  0.00     0.200 A 
ATOM     88  F   UNL A   1      42.770  30.165  37.080  1.00  0.00    -0.200 F 
ATOM     89  F   UNL A   1      41.901  27.594  36.815  1.00  0.00    -0.200 F 
ENDBRANCH  56  79
ENDBRANCH  30  31
ENDBRANCH  23  25
ENDBRANCH  22  23
ENDBRANCH  21  22
ENDBRANCH   1  21
TORSDOF 15
ENDMDL
MODEL 3
REMARK VINA RESULT:     -11.4      5.453     11.118
REMARK SMILES O=C(CSc1nc2cccnc2n1CC(F)(F)F)OCCOC(=O)c1ccc(-c2c3nc(c(-c4c(F)c(F)c(F)c(F)c4F)c4ccc([nH]4)c(-c4c(F)c(F)c(F)c(F)c4F)c4nc(c(-c5c(F)c(F)c(F)c(F)c5F)c5ccc2[nH]5)C=C4)C=C3)cc1
REMARK SMILES IDX 20 1 19 2 2 3 1 4 3 5 4 6 5 7 6 8 13 9 7 10 12 11 8 12 11 13
REMARK SMILES IDX 9 14 10 15 14 16 15 17 16 18 17 19 18 20 21 21 22 22 23 23
REMARK SMILES IDX 24 24 25 25 26 26 87 27 27 28 86 29 28 30 29 31 30 32 80 33
REMARK SMILES IDX 31 34 85 35 79 36 81 37 32 38 84 39 78 40 77 41 33 43 65 44
REMARK SMILES IDX 45 45 64 46 46 47 49 48 63 49 82 50 47 51 48 52 62 54 83 55
REMARK SMILES IDX 50 56 34 57 35 58 43 59 36 60 37 61 41 62 44 63 38 64 39 65
REMARK SMILES IDX 42 66 40 67 66 68 67 69 75 70 68 71 69 72 73 73 76 74 70 75
REMARK SMILES IDX 71 76 74 77 72 78 51 79 52 80 60 81 53 82 54 83 58 84 61 85
REMARK SMILES IDX 55 86 56 87 59 88 57 89
REMARK H PARENT 81 42 49 53
REMARK Flexibility Score: inf
ROOT
ATOM      1  C   UNL A   1      34.111  34.683  28.910  1.00  0.00     0.274 C 
ENDROOT
BRANCH   1   2
ATOM      2  O   UNL A   1      33.495  34.413  30.189  1.00  0.00    -0.461 OA
BRANCH   2   3
ATOM      3  C   UNL A   1      33.576  35.080  31.363  1.00  0.00     0.316 C 
ATOM      4  O   UNL A   1      32.912  36.112  31.498  1.00  0.00    -0.251 OA
BRANCH   3   5
ATOM      5  C   UNL A   1      34.540  34.687  32.462  1.00  0.00     0.200 C 
BRANCH   5   6
ATOM      6  S   UNL A   1      35.126  32.990  32.502  1.00  0.00    -0.076 SA
BRANCH   6   7
ATOM      7  C   UNL A   1      36.768  33.252  32.068  1.00  0.00     0.171 A 
ATOM      8  N   UNL A   1      37.150  34.175  31.220  1.00  0.00    -0.221 NA
ATOM      9  N   UNL A   1      37.796  32.454  32.485  1.00  0.00    -0.294 N 
ATOM     10  C   UNL A   1      38.474  33.928  31.009  1.00  0.00     0.109 A 
ATOM     11  C   UNL A   1      38.907  32.863  31.792  1.00  0.00     0.160 A 
ATOM     12  C   UNL A   1      39.389  34.535  30.146  1.00  0.00     0.034 A 
ATOM     13  N   UNL A   1      40.141  32.323  31.827  1.00  0.00    -0.237 NA
ATOM     14  C   UNL A   1      40.683  34.017  30.136  1.00  0.00     0.022 A 
ATOM     15  C   UNL A   1      40.993  32.946  30.973  1.00  0.00     0.113 A 
BRANCH   9  16
ATOM     16  C   UNL A   1      37.738  31.296  33.350  1.00  0.00     0.241 C 
BRANCH  16  17
ATOM     17  C   UNL A   1      38.372  31.503  34.707  1.00  0.00     0.406 C 
ATOM     18  F   UNL A   1      37.781  30.768  35.673  1.00  0.00    -0.169 F 
ATOM     19  F   UNL A   1      39.670  31.112  34.671  1.00  0.00    -0.169 F 
ATOM     20  F   UNL A   1      38.352  32.793  35.097  1.00  0.00    -0.169 F 
ENDBRANCH  16  17
ENDBRANCH   9  16
ENDBRANCH   6   7
ENDBRANCH   5   6
ENDBRANCH   3   5
ENDBRANCH   2   3
ENDBRANCH   1   2
BRANCH   1  21
ATOM     21  C   UNL A   1      34.464  33.425  28.138  1.00  0.00     0.275 C 
BRANCH  21  22
ATOM     22  O   UNL A   1      34.880  32.398  29.028  1.00  0.00    -0.458 OA
BRANCH  22  23
ATOM     23  C   UNL A   1      35.384  31.297  28.424  1.00  0.00     0.338 C 
ATOM     24  O   UNL A   1      34.929  30.700  27.475  1.00  0.00    -0.246 OA
BRANCH  23  25
ATOM     25  C   UNL A   1      36.561  30.863  29.184  1.00  0.00     0.060 A 
ATOM     26  C   UNL A   1      37.795  31.343  28.750  1.00  0.00     0.016 A 
ATOM     27  C   UNL A   1      36.443  29.784  30.073  1.00  0.00     0.016 A 
ATOM     28  C   UNL A   1      38.900  30.562  28.990  1.00  0.00     0.010 A 
ATOM     29  C   UNL A   1      37.538  28.989  30.283  1.00  0.00     0.010 A 
ATOM     30  C   UNL A   1      38.725  29.340  29.654  1.00  0.00    -0.014 A 
BRANCH  30  31
ATOM     31  C   UNL A   1      39.867  28.469  29.770  1.00  0.00     0.031 A 
ATOM     32  C   UNL A   1      40.341  28.377  31.161  1.00  0.00     0.074 A 
ATOM     33  C   UNL A   1      40.417  27.834  28.720  1.00  0.00     0.049 A 
ATOM     34  N   UNL A   1      41.377  28.965  31.653  1.00  0.00    -0.248 NA
ATOM     35  C   UNL A   1      39.462  27.755  32.160  1.00  0.00     0.031 C 
ATOM     36  C   UNL A   1      39.900  27.674  27.360  1.00  0.00     0.029 A 
ATOM     37  N   UNL A   1      41.586  27.142  28.686  1.00  0.00    -0.354 N 
ATOM     38  C   UNL A   1      41.397  28.621  32.995  1.00  0.00     0.074 A 
ATOM     39  C   UNL A   1      40.109  28.050  33.288  1.00  0.00     0.031 C 
ATOM     40  C   UNL A   1      40.654  26.763  26.699  1.00  0.00     0.029 A 
ATOM     41  C   UNL A   1      41.786  26.394  27.532  1.00  0.00     0.049 A 
ATOM     42  H   UNL A   1      42.241  27.168  29.422  1.00  0.00     0.167 HD
ATOM     43  C   UNL A   1      42.578  28.593  33.667  1.00  0.00     0.037 A 
ATOM     44  C   UNL A   1      42.802  25.518  27.324  1.00  0.00     0.037 A 
ATOM     45  C   UNL A   1      43.575  29.372  32.971  1.00  0.00     0.049 A 
ATOM     46  C   UNL A   1      43.897  25.905  28.251  1.00  0.00     0.074 A 
ATOM     47  C   UNL A   1      43.709  30.707  32.641  1.00  0.00     0.029 A 
ATOM     48  N   UNL A   1      44.446  28.692  32.157  1.00  0.00    -0.354 N 
ATOM     49  N   UNL A   1      44.583  27.008  28.138  1.00  0.00    -0.248 NA
ATOM     50  C   UNL A   1      43.923  25.283  29.566  1.00  0.00     0.031 C 
ATOM     51  C   UNL A   1      44.328  30.716  31.356  1.00  0.00     0.029 A 
ATOM     52  C   UNL A   1      44.598  29.396  30.993  1.00  0.00     0.049 A 
ATOM     53  H   UNL A   1      44.888  27.840  32.375  1.00  0.00     0.167 HD
ATOM     54  C   UNL A   1      44.757  27.447  29.441  1.00  0.00     0.074 A 
ATOM     55  C   UNL A   1      44.414  26.300  30.278  1.00  0.00     0.031 C 
ATOM     56  C   UNL A   1      44.880  28.779  29.715  1.00  0.00     0.037 A 
BRANCH  43  57
ATOM     57  C   UNL A   1      42.938  27.529  34.678  1.00  0.00     0.064 A 
ATOM     58  C   UNL A   1      43.192  27.924  36.007  1.00  0.00     0.173 A 
ATOM     59  C   UNL A   1      43.339  26.215  34.351  1.00  0.00     0.173 A 
ATOM     60  F   UNL A   1      42.869  29.156  36.428  1.00  0.00    -0.203 F 
ATOM     61  C   UNL A   1      43.875  27.100  36.904  1.00  0.00     0.198 A 
ATOM     62  C   UNL A   1      43.973  25.378  35.265  1.00  0.00     0.198 A 
ATOM     63  F   UNL A   1      43.243  25.713  33.116  1.00  0.00    -0.203 F 
ATOM     64  F   UNL A   1      44.211  27.572  38.112  1.00  0.00    -0.200 F 
ATOM     65  C   UNL A   1      44.272  25.830  36.532  1.00  0.00     0.200 A 
ATOM     66  F   UNL A   1      44.367  24.156  34.875  1.00  0.00    -0.200 F 
ATOM     67  F   UNL A   1      44.981  25.063  37.368  1.00  0.00    -0.200 F 
ENDBRANCH  43  57
BRANCH  44  68
ATOM     68  C   UNL A   1      42.768  24.183  26.674  1.00  0.00     0.064 A 
ATOM     69  C   UNL A   1      43.463  23.955  25.472  1.00  0.00     0.173 A 
ATOM     70  C   UNL A   1      42.336  23.037  27.369  1.00  0.00     0.173 A 
ATOM     71  F   UNL A   1      43.945  24.988  24.763  1.00  0.00    -0.203 F 
ATOM     72  C   UNL A   1      43.754  22.663  25.021  1.00  0.00     0.198 A 
ATOM     73  C   UNL A   1      42.622  21.748  26.915  1.00  0.00     0.198 A 
ATOM     74  F   UNL A   1      41.719  23.144  28.553  1.00  0.00    -0.203 F 
ATOM     75  F   UNL A   1      44.488  22.489  23.913  1.00  0.00    -0.200 F 
ATOM     76  C   UNL A   1      43.347  21.561  25.752  1.00  0.00     0.200 A 
ATOM     77  F   UNL A   1      42.254  20.689  27.650  1.00  0.00    -0.200 F 
ATOM     78  F   UNL A   1      43.688  20.325  25.364  1.00  0.00    -0.200 F 
ENDBRANCH  44  68
BRANCH  56  79
ATOM     79  C   UNL A   1      45.118  29.712  28.559  1.00  0.00     0.064 A 
ATOM     80  C   UNL A   1      44.097  30.327  27.812  1.00  0.00     0.173 A 
ATOM     81  C   UNL A   1      46.435  30.123  28.309  1.00  0.00     0.173 A 
ATOM     82  F   UNL A   1      42.808  30.051  28.046  1.00  0.00    -0.203 F 
ATOM     83  C   UNL A   1      44.389  31.291  26.847  1.00  0.00     0.198 A 
ATOM     84  C   UNL A   1      46.720  31.113  27.373  1.00  0.00     0.198 A 
ATOM     85  F   UNL A   1      47.445  29.602  29.022  1.00  0.00    -0.203 F 
ATOM     86  F   UNL A   1      43.399  31.864  26.146  1.00  0.00    -0.200 F 
ATOM     87  C   UNL A   1      45.699  31.693  26.639  1.00  0.00     0.200 A 
ATOM     88  F   UNL A   1      47.983  31.530  27.210  1.00  0.00    -0.200 F 
ATOM     89  F   UNL A   1      45.975  32.660  25.752  1.00  0.00    -0.200 F 
ENDBRANCH  56  79
ENDBRANCH  30  31
ENDBRANCH  23  25
ENDBRANCH  22  23
ENDBRANCH  21  22
ENDBRANCH   1  21
TORSDOF 15
ENDMDL
