MODEL 1
REMARK VINA RESULT:     -12.0      0.000      0.000
REMARK SMILES CCSc1cccc(-c2ccc([C@@H](C)C(=O)OCCOC(=O)c3ccc(-c4c5nc(c(-c6c(F)c(F)c(F)c(F)c6F)c6ccc([nH]6)c(-c6c(F)c(F)c(F)c(F)c6F)c6nc(c(-c7c(F)c(F)c(F)c(F)c7F)c7ccc4[nH]7)C=C6)C=C5)cc3)cc2)c1
REMARK SMILES IDX 18 1 17 2 15 3 16 4 13 5 14 6 12 7 9 8 10 9 87 10 11 11
REMARK SMILES IDX 86 12 8 13 4 14 5 15 88 16 6 17 7 18 3 19 2 20 1 21 19 22
REMARK SMILES IDX 20 23 21 24 22 25 23 26 24 27 85 28 25 29 84 30 26 31 27 32
REMARK SMILES IDX 28 33 78 34 29 35 83 36 77 37 79 38 30 39 82 40 76 41 75 42
REMARK SMILES IDX 31 44 63 45 43 46 62 47 44 48 47 49 61 50 80 51 45 52 46 53
REMARK SMILES IDX 60 55 81 56 48 57 32 58 33 59 41 60 34 61 35 62 39 63 42 64
REMARK SMILES IDX 36 65 37 66 40 67 38 68 64 69 65 70 73 71 66 72 67 73 71 74
REMARK SMILES IDX 74 75 68 76 69 77 72 78 70 79 49 80 50 81 58 82 51 83 52 84
REMARK SMILES IDX 56 85 59 86 53 87 54 88 57 89 55 90
REMARK H PARENT 79 43 47 54
REMARK Flexibility Score: inf
ROOT
ATOM      1  C   UNL A   1      31.036  30.684  25.288  1.00  0.00     0.274 C 
ENDROOT
BRANCH   1   2
ATOM      2  O   UNL A   1      31.369  29.298  25.502  1.00  0.00    -0.462 OA
BRANCH   2   3
ATOM      3  C   UNL A   1      31.637  28.555  24.397  1.00  0.00     0.313 C 
ATOM      4  O   UNL A   1      30.779  28.080  23.659  1.00  0.00    -0.252 OA
BRANCH   3   5
ATOM      5  C   UNL A   1      33.124  28.299  24.176  1.00  0.00     0.126 C 
ATOM      6  C   UNL A   1      33.573  28.952  22.869  1.00  0.00     0.025 C 
BRANCH   5   7
ATOM      7  C   UNL A   1      33.574  26.852  24.293  1.00  0.00    -0.034 A 
ATOM      8  C   UNL A   1      34.467  24.163  24.563  1.00  0.00    -0.018 A 
ATOM      9  C   UNL A   1      34.043  24.668  23.326  1.00  0.00     0.009 A 
ATOM     10  C   UNL A   1      34.425  25.025  25.668  1.00  0.00     0.009 A 
ATOM     11  C   UNL A   1      33.605  25.990  23.191  1.00  0.00     0.005 A 
ATOM     12  C   UNL A   1      33.994  26.349  25.534  1.00  0.00     0.005 A 
BRANCH   8  13
ATOM     13  C   UNL A   1      34.968  22.785  24.696  1.00  0.00    -0.017 A 
ATOM     14  C   UNL A   1      34.583  20.372  24.731  1.00  0.00     0.008 A 
ATOM     15  C   UNL A   1      35.937  20.157  24.998  1.00  0.00     0.015 A 
ATOM     16  C   UNL A   1      34.105  21.680  24.590  1.00  0.00     0.023 A 
ATOM     17  C   UNL A   1      36.809  21.238  25.106  1.00  0.00     0.002 A 
ATOM     18  C   UNL A   1      36.326  22.540  24.954  1.00  0.00     0.009 A 
BRANCH  14  19
ATOM     19  S   UNL A   1      33.451  18.999  24.610  1.00  0.00    -0.126 SA
BRANCH  19  20
ATOM     20  C   UNL A   1      34.628  17.645  24.282  1.00  0.00     0.071 C 
ATOM     21  C   UNL A   1      34.026  16.586  23.374  1.00  0.00     0.016 C 
ENDBRANCH  19  20
ENDBRANCH  14  19
ENDBRANCH   8  13
ENDBRANCH   5   7
ENDBRANCH   3   5
ENDBRANCH   2   3
ENDBRANCH   1   2
BRANCH   1  22
ATOM     22  C   UNL A   1      31.424  31.546  26.491  1.00  0.00     0.275 C 
BRANCH  22  23
ATOM     23  O   UNL A   1      32.754  31.231  26.942  1.00  0.00    -0.458 OA
BRANCH  23  24
ATOM     24  C   UNL A   1      33.438  32.268  27.475  1.00  0.00     0.338 C 
ATOM     25  O   UNL A   1      33.057  33.414  27.630  1.00  0.00    -0.246 OA
BRANCH  24  26
ATOM     26  C   UNL A   1      34.732  31.791  27.983  1.00  0.00     0.060 A 
ATOM     27  C   UNL A   1      34.827  30.450  28.355  1.00  0.00     0.016 A 
ATOM     28  C   UNL A   1      35.801  32.662  28.189  1.00  0.00     0.016 A 
ATOM     29  C   UNL A   1      35.982  29.973  28.964  1.00  0.00     0.010 A 
ATOM     30  C   UNL A   1      36.970  32.180  28.792  1.00  0.00     0.010 A 
ATOM     31  C   UNL A   1      37.058  30.838  29.201  1.00  0.00    -0.014 A 
BRANCH  31  32
ATOM     32  C   UNL A   1      38.240  30.328  29.935  1.00  0.00     0.031 A 
ATOM     33  C   UNL A   1      38.471  30.736  31.361  1.00  0.00     0.074 A 
ATOM     34  C   UNL A   1      39.067  29.448  29.340  1.00  0.00     0.049 A 
ATOM     35  N   UNL A   1      39.435  30.389  32.177  1.00  0.00    -0.248 NA
ATOM     36  C   UNL A   1      37.486  31.656  31.951  1.00  0.00     0.031 C 
ATOM     37  C   UNL A   1      38.924  28.951  27.973  1.00  0.00     0.029 A 
ATOM     38  N   UNL A   1      40.182  28.808  29.819  1.00  0.00    -0.354 N 
ATOM     39  C   UNL A   1      39.181  31.054  33.368  1.00  0.00     0.074 A 
ATOM     40  C   UNL A   1      37.984  31.842  33.165  1.00  0.00     0.031 C 
ATOM     41  C   UNL A   1      39.907  28.070  27.725  1.00  0.00     0.029 A 
ATOM     42  C   UNL A   1      40.764  27.966  28.903  1.00  0.00     0.049 A 
ATOM     43  H   UNL A   1      40.532  28.940  30.729  1.00  0.00     0.167 HD
ATOM     44  C   UNL A   1      39.881  31.005  34.527  1.00  0.00     0.037 A 
ATOM     45  C   UNL A   1      41.868  27.203  29.005  1.00  0.00     0.037 A 
ATOM     46  C   UNL A   1      41.062  30.211  34.735  1.00  0.00     0.049 A 
ATOM     47  C   UNL A   1      42.640  27.189  30.296  1.00  0.00     0.074 A 
ATOM     48  C   UNL A   1      41.837  30.093  35.876  1.00  0.00     0.029 A 
ATOM     49  N   UNL A   1      41.638  29.391  33.775  1.00  0.00    -0.354 N 
ATOM     50  N   UNL A   1      42.393  27.823  31.415  1.00  0.00    -0.248 NA
ATOM     51  C   UNL A   1      43.847  26.351  30.334  1.00  0.00     0.031 C 
ATOM     52  C   UNL A   1      42.900  29.227  35.597  1.00  0.00     0.029 A 
ATOM     53  C   UNL A   1      42.767  28.776  34.294  1.00  0.00     0.049 A 
ATOM     54  H   UNL A   1      41.296  29.265  32.861  1.00  0.00     0.167 HD
ATOM     55  C   UNL A   1      43.399  27.453  32.294  1.00  0.00     0.074 A 
ATOM     56  C   UNL A   1      44.252  26.521  31.585  1.00  0.00     0.031 C 
ATOM     57  C   UNL A   1      43.603  27.852  33.574  1.00  0.00     0.037 A 
BRANCH  44  58
ATOM     58  C   UNL A   1      39.395  31.860  35.659  1.00  0.00     0.064 A 
ATOM     59  C   UNL A   1      38.469  31.381  36.596  1.00  0.00     0.173 A 
ATOM     60  C   UNL A   1      39.886  33.163  35.824  1.00  0.00     0.173 A 
ATOM     61  F   UNL A   1      37.959  30.146  36.471  1.00  0.00    -0.203 F 
ATOM     62  C   UNL A   1      38.036  32.184  37.648  1.00  0.00     0.198 A 
ATOM     63  C   UNL A   1      39.469  33.955  36.890  1.00  0.00     0.198 A 
ATOM     64  F   UNL A   1      40.776  33.666  34.956  1.00  0.00    -0.203 F 
ATOM     65  F   UNL A   1      37.123  31.721  38.512  1.00  0.00    -0.200 F 
ATOM     66  C   UNL A   1      38.541  33.468  37.798  1.00  0.00     0.200 A 
ATOM     67  F   UNL A   1      39.964  35.193  37.038  1.00  0.00    -0.200 F 
ATOM     68  F   UNL A   1      38.127  34.237  38.814  1.00  0.00    -0.200 F 
ENDBRANCH  44  58
BRANCH  45  69
ATOM     69  C   UNL A   1      42.307  26.385  27.846  1.00  0.00     0.064 A 
ATOM     70  C   UNL A   1      41.775  25.109  27.620  1.00  0.00     0.173 A 
ATOM     71  C   UNL A   1      43.270  26.863  26.947  1.00  0.00     0.173 A 
ATOM     72  F   UNL A   1      40.871  24.601  28.470  1.00  0.00    -0.203 F 
ATOM     73  C   UNL A   1      42.200  24.335  26.543  1.00  0.00     0.198 A 
ATOM     74  C   UNL A   1      43.676  26.098  25.855  1.00  0.00     0.198 A 
ATOM     75  F   UNL A   1      43.811  28.077  27.124  1.00  0.00    -0.203 F 
ATOM     76  F   UNL A   1      41.705  23.102  26.370  1.00  0.00    -0.200 F 
ATOM     77  C   UNL A   1      43.145  24.832  25.658  1.00  0.00     0.200 A 
ATOM     78  F   UNL A   1      44.584  26.586  24.999  1.00  0.00    -0.200 F 
ATOM     79  F   UNL A   1      43.550  24.089  24.620  1.00  0.00    -0.200 F 
ENDBRANCH  45  69
BRANCH  57  80
ATOM     80  C   UNL A   1      44.785  27.268  34.289  1.00  0.00     0.064 A 
ATOM     81  C   UNL A   1      46.032  27.910  34.287  1.00  0.00     0.173 A 
ATOM     82  C   UNL A   1      44.664  26.064  34.998  1.00  0.00     0.173 A 
ATOM     83  F   UNL A   1      46.200  29.055  33.609  1.00  0.00    -0.203 F 
ATOM     84  C   UNL A   1      47.122  27.354  34.950  1.00  0.00     0.198 A 
ATOM     85  C   UNL A   1      45.750  25.523  35.679  1.00  0.00     0.198 A 
ATOM     86  F   UNL A   1      43.490  25.414  35.033  1.00  0.00    -0.203 F 
ATOM     87  F   UNL A   1      48.317  27.961  34.898  1.00  0.00    -0.200 F 
ATOM     88  C   UNL A   1      46.980  26.164  35.649  1.00  0.00     0.200 A 
ATOM     89  F   UNL A   1      45.611  24.377  36.360  1.00  0.00    -0.200 F 
ATOM     90  F   UNL A   1      48.031  25.630  36.285  1.00  0.00    -0.200 F 
ENDBRANCH  57  80
ENDBRANCH  31  32
ENDBRANCH  24  26
ENDBRANCH  23  24
ENDBRANCH  22  23
ENDBRANCH   1  22
TORSDOF 15
ENDMDL
MODEL 2
REMARK VINA RESULT:     -11.9      4.809     10.296
REMARK SMILES CCSc1cccc(-c2ccc([C@@H](C)C(=O)OCCOC(=O)c3ccc(-c4c5nc(c(-c6c(F)c(F)c(F)c(F)c6F)c6ccc([nH]6)c(-c6c(F)c(F)c(F)c(F)c6F)c6nc(c(-c7c(F)c(F)c(F)c(F)c7F)c7ccc4[nH]7)C=C6)C=C5)cc3)cc2)c1
REMARK SMILES IDX 18 1 17 2 15 3 16 4 13 5 14 6 12 7 9 8 10 9 87 10 11 11
REMARK SMILES IDX 86 12 8 13 4 14 5 15 88 16 6 17 7 18 3 19 2 20 1 21 19 22
REMARK SMILES IDX 20 23 21 24 22 25 23 26 24 27 85 28 25 29 84 30 26 31 27 32
REMARK SMILES IDX 28 33 78 34 29 35 83 36 77 37 79 38 30 39 82 40 76 41 75 42
REMARK SMILES IDX 31 44 63 45 43 46 62 47 44 48 47 49 61 50 80 51 45 52 46 53
REMARK SMILES IDX 60 55 81 56 48 57 32 58 33 59 41 60 34 61 35 62 39 63 42 64
REMARK SMILES IDX 36 65 37 66 40 67 38 68 64 69 65 70 73 71 66 72 67 73 71 74
REMARK SMILES IDX 74 75 68 76 69 77 72 78 70 79 49 80 50 81 58 82 51 83 52 84
REMARK SMILES IDX 56 85 59 86 53 87 54 88 57 89 55 90
REMARK H PARENT 79 43 47 54
REMARK Flexibility Score: inf
ROOT
ATOM      1  C   UNL A   1      36.495  20.090  24.991  1.00  0.00     0.274 C 
ENDROOT
BRANCH   1   2
ATOM      2  O   UNL A   1      35.972  21.416  25.205  1.00  0.00    -0.462 OA
BRANCH   2   3
ATOM      3  C   UNL A   1      34.874  21.765  24.485  1.00  0.00     0.313 C 
ATOM      4  O   UNL A   1      33.785  21.205  24.570  1.00  0.00    -0.252 OA
BRANCH   3   5
ATOM      5  C   UNL A   1      35.125  22.896  23.493  1.00  0.00     0.126 C 
ATOM      6  C   UNL A   1      36.605  22.938  23.118  1.00  0.00     0.025 C 
BRANCH   5   7
ATOM      7  C   UNL A   1      34.581  24.259  23.889  1.00  0.00    -0.034 A 
ATOM      8  C   UNL A   1      33.539  26.782  24.694  1.00  0.00    -0.018 A 
ATOM      9  C   UNL A   1      33.492  26.370  23.355  1.00  0.00     0.009 A 
ATOM     10  C   UNL A   1      34.128  25.914  25.624  1.00  0.00     0.009 A 
ATOM     11  C   UNL A   1      34.003  25.129  22.957  1.00  0.00     0.005 A 
ATOM     12  C   UNL A   1      34.632  24.671  25.230  1.00  0.00     0.005 A 
BRANCH   8  13
ATOM     13  C   UNL A   1      32.964  28.070  25.118  1.00  0.00    -0.017 A 
ATOM     14  C   UNL A   1      33.073  30.119  26.444  1.00  0.00     0.008 A 
ATOM     15  C   UNL A   1      31.826  30.509  25.951  1.00  0.00     0.015 A 
ATOM     16  C   UNL A   1      33.630  28.902  26.034  1.00  0.00     0.023 A 
ATOM     17  C   UNL A   1      31.149  29.698  25.042  1.00  0.00     0.002 A 
ATOM     18  C   UNL A   1      31.716  28.491  24.630  1.00  0.00     0.009 A 
BRANCH  14  19
ATOM     19  S   UNL A   1      33.942  31.136  27.624  1.00  0.00    -0.126 SA
BRANCH  19  20
ATOM     20  C   UNL A   1      35.618  30.429  27.479  1.00  0.00     0.071 C 
ATOM     21  C   UNL A   1      35.906  29.438  28.593  1.00  0.00     0.016 C 
ENDBRANCH  19  20
ENDBRANCH  14  19
ENDBRANCH   8  13
ENDBRANCH   5   7
ENDBRANCH   3   5
ENDBRANCH   2   3
ENDBRANCH   1   2
BRANCH   1  22
ATOM     22  C   UNL A   1      38.022  20.071  25.069  1.00  0.00     0.275 C 
BRANCH  22  23
ATOM     23  O   UNL A   1      38.518  21.250  25.730  1.00  0.00    -0.458 OA
BRANCH  23  24
ATOM     24  C   UNL A   1      39.646  21.069  26.453  1.00  0.00     0.338 C 
ATOM     25  O   UNL A   1      40.267  20.035  26.624  1.00  0.00    -0.246 OA
BRANCH  24  26
ATOM     26  C   UNL A   1      40.129  22.369  26.940  1.00  0.00     0.060 A 
ATOM     27  C   UNL A   1      39.659  23.515  26.299  1.00  0.00     0.016 A 
ATOM     28  C   UNL A   1      41.101  22.460  27.936  1.00  0.00     0.016 A 
ATOM     29  C   UNL A   1      40.179  24.762  26.626  1.00  0.00     0.010 A 
ATOM     30  C   UNL A   1      41.616  23.718  28.276  1.00  0.00     0.010 A 
ATOM     31  C   UNL A   1      41.173  24.872  27.607  1.00  0.00    -0.014 A 
BRANCH  31  32
ATOM     32  C   UNL A   1      41.776  26.200  27.872  1.00  0.00     0.031 A 
ATOM     33  C   UNL A   1      43.131  26.532  27.318  1.00  0.00     0.074 A 
ATOM     34  C   UNL A   1      41.077  27.127  28.553  1.00  0.00     0.049 A 
ATOM     35  N   UNL A   1      43.821  27.640  27.426  1.00  0.00    -0.248 NA
ATOM     36  C   UNL A   1      43.799  25.480  26.537  1.00  0.00     0.031 C 
ATOM     37  C   UNL A   1      39.739  26.932  29.108  1.00  0.00     0.029 A 
ATOM     38  N   UNL A   1      41.394  28.420  28.880  1.00  0.00    -0.354 N 
ATOM     39  C   UNL A   1      45.006  27.415  26.739  1.00  0.00     0.074 A 
ATOM     40  C   UNL A   1      44.952  26.059  26.234  1.00  0.00     0.031 C 
ATOM     41  C   UNL A   1      39.341  28.072  29.696  1.00  0.00     0.029 A 
ATOM     42  C   UNL A   1      40.407  29.064  29.585  1.00  0.00     0.049 A 
ATOM     43  H   UNL A   1      42.246  28.847  28.634  1.00  0.00     0.167 HD
ATOM     44  C   UNL A   1      46.042  28.266  26.543  1.00  0.00     0.037 A 
ATOM     45  C   UNL A   1      40.373  30.311  30.090  1.00  0.00     0.037 A 
ATOM     46  C   UNL A   1      46.090  29.619  27.032  1.00  0.00     0.049 A 
ATOM     47  C   UNL A   1      41.549  31.225  29.880  1.00  0.00     0.074 A 
ATOM     48  C   UNL A   1      47.095  30.559  26.879  1.00  0.00     0.029 A 
ATOM     49  N   UNL A   1      45.083  30.228  27.766  1.00  0.00    -0.354 N 
ATOM     50  N   UNL A   1      42.664  31.003  29.232  1.00  0.00    -0.248 NA
ATOM     51  C   UNL A   1      41.457  32.567  30.474  1.00  0.00     0.031 C 
ATOM     52  C   UNL A   1      46.710  31.726  27.549  1.00  0.00     0.029 A 
ATOM     53  C   UNL A   1      45.450  31.525  28.086  1.00  0.00     0.049 A 
ATOM     54  H   UNL A   1      44.234  29.800  28.023  1.00  0.00     0.167 HD
ATOM     55  C   UNL A   1      43.401  32.174  29.325  1.00  0.00     0.074 A 
ATOM     56  C   UNL A   1      42.596  33.115  30.077  1.00  0.00     0.031 C 
ATOM     57  C   UNL A   1      44.636  32.447  28.836  1.00  0.00     0.037 A 
BRANCH  44  58
ATOM     58  C   UNL A   1      47.224  27.745  25.782  1.00  0.00     0.064 A 
ATOM     59  C   UNL A   1      47.261  27.761  24.381  1.00  0.00     0.173 A 
ATOM     60  C   UNL A   1      48.346  27.254  26.466  1.00  0.00     0.173 A 
ATOM     61  F   UNL A   1      46.206  28.208  23.683  1.00  0.00    -0.203 F 
ATOM     62  C   UNL A   1      48.372  27.284  23.690  1.00  0.00     0.198 A 
ATOM     63  C   UNL A   1      49.464  26.800  25.773  1.00  0.00     0.198 A 
ATOM     64  F   UNL A   1      48.360  27.222  27.807  1.00  0.00    -0.203 F 
ATOM     65  F   UNL A   1      48.372  27.274  22.350  1.00  0.00    -0.200 F 
ATOM     66  C   UNL A   1      49.474  26.809  24.386  1.00  0.00     0.200 A 
ATOM     67  F   UNL A   1      50.532  26.349  26.446  1.00  0.00    -0.200 F 
ATOM     68  F   UNL A   1      50.544  26.356  23.719  1.00  0.00    -0.200 F 
ENDBRANCH  44  58
BRANCH  45  69
ATOM     69  C   UNL A   1      39.179  30.768  30.845  1.00  0.00     0.064 A 
ATOM     70  C   UNL A   1      38.169  31.510  30.218  1.00  0.00     0.173 A 
ATOM     71  C   UNL A   1      39.027  30.474  32.207  1.00  0.00     0.173 A 
ATOM     72  F   UNL A   1      38.286  31.838  28.923  1.00  0.00    -0.203 F 
ATOM     73  C   UNL A   1      37.057  31.953  30.930  1.00  0.00     0.198 A 
ATOM     74  C   UNL A   1      37.903  30.896  32.913  1.00  0.00     0.198 A 
ATOM     75  F   UNL A   1      39.969  29.769  32.851  1.00  0.00    -0.203 F 
ATOM     76  F   UNL A   1      36.125  32.695  30.318  1.00  0.00    -0.200 F 
ATOM     77  C   UNL A   1      36.921  31.641  32.274  1.00  0.00     0.200 A 
ATOM     78  F   UNL A   1      37.772  30.586  34.209  1.00  0.00    -0.200 F 
ATOM     79  F   UNL A   1      35.849  32.065  32.958  1.00  0.00    -0.200 F 
ENDBRANCH  45  69
BRANCH  57  80
ATOM     80  C   UNL A   1      45.180  33.822  29.088  1.00  0.00     0.064 A 
ATOM     81  C   UNL A   1      44.946  34.876  28.194  1.00  0.00     0.173 A 
ATOM     82  C   UNL A   1      45.928  34.090  30.244  1.00  0.00     0.173 A 
ATOM     83  F   UNL A   1      44.251  34.663  27.067  1.00  0.00    -0.203 F 
ATOM     84  C   UNL A   1      45.462  36.146  28.436  1.00  0.00     0.198 A 
ATOM     85  C   UNL A   1      46.422  35.367  30.495  1.00  0.00     0.198 A 
ATOM     86  F   UNL A   1      46.175  33.114  31.132  1.00  0.00    -0.203 F 
ATOM     87  F   UNL A   1      45.265  37.129  27.547  1.00  0.00    -0.200 F 
ATOM     88  C   UNL A   1      46.196  36.391  29.588  1.00  0.00     0.200 A 
ATOM     89  F   UNL A   1      47.125  35.605  31.611  1.00  0.00    -0.200 F 
ATOM     90  F   UNL A   1      46.692  37.614  29.819  1.00  0.00    -0.200 F 
ENDBRANCH  57  80
ENDBRANCH  31  32
ENDBRANCH  24  26
ENDBRANCH  23  24
ENDBRANCH  22  23
ENDBRANCH   1  22
TORSDOF 15
ENDMDL
MODEL 3
REMARK VINA RESULT:     -11.9      4.733     10.257
REMARK SMILES CCSc1cccc(-c2ccc([C@@H](C)C(=O)OCCOC(=O)c3ccc(-c4c5nc(c(-c6c(F)c(F)c(F)c(F)c6F)c6ccc([nH]6)c(-c6c(F)c(F)c(F)c(F)c6F)c6nc(c(-c7c(F)c(F)c(F)c(F)c7F)c7ccc4[nH]7)C=C6)C=C5)cc3)cc2)c1
REMARK SMILES IDX 18 1 17 2 15 3 16 4 13 5 14 6 12 7 9 8 10 9 87 10 11 11
REMARK SMILES IDX 86 12 8 13 4 14 5 15 88 16 6 17 7 18 3 19 2 20 1 21 19 22
REMARK SMILES IDX 20 23 21 24 22 25 23 26 24 27 85 28 25 29 84 30 26 31 27 32
REMARK SMILES IDX 28 33 78 34 29 35 83 36 77 37 79 38 30 39 82 40 76 41 75 42
REMARK SMILES IDX 31 44 63 45 43 46 62 47 44 48 47 49 61 50 80 51 45 52 46 53
REMARK SMILES IDX 60 55 81 56 48 57 32 58 33 59 41 60 34 61 35 62 39 63 42 64
REMARK SMILES IDX 36 65 37 66 40 67 38 68 64 69 65 70 73 71 66 72 67 73 71 74
REMARK SMILES IDX 74 75 68 76 69 77 72 78 70 79 49 80 50 81 58 82 51 83 52 84
REMARK SMILES IDX 56 85 59 86 53 87 54 88 57 89 55 90
REMARK H PARENT 79 43 47 54
REMARK Flexibility Score: inf
ROOT
ATOM      1  C   UNL A   1      36.440  19.980  24.923  1.00  0.00     0.274 C 
ENDROOT
BRANCH   1   2
ATOM      2  O   UNL A   1      35.976  21.304  25.254  1.00  0.00    -0.462 OA
BRANCH   2   3
ATOM      3  C   UNL A   1      34.892  21.762  24.574  1.00  0.00     0.313 C 
ATOM      4  O   UNL A   1      33.761  21.299  24.685  1.00  0.00    -0.252 OA
BRANCH   3   5
ATOM      5  C   UNL A   1      35.213  22.884  23.593  1.00  0.00     0.126 C 
ATOM      6  C   UNL A   1      36.727  23.033  23.452  1.00  0.00     0.025 C 
BRANCH   5   7
ATOM      7  C   UNL A   1      34.514  24.210  23.849  1.00  0.00    -0.034 A 
ATOM      8  C   UNL A   1      33.193  26.670  24.397  1.00  0.00    -0.018 A 
ATOM      9  C   UNL A   1      33.076  26.045  23.148  1.00  0.00     0.009 A 
ATOM     10  C   UNL A   1      33.993  26.048  25.366  1.00  0.00     0.009 A 
ATOM     11  C   UNL A   1      33.724  24.834  22.877  1.00  0.00     0.005 A 
ATOM     12  C   UNL A   1      34.635  24.835  25.099  1.00  0.00     0.005 A 
BRANCH   8  13
ATOM     13  C   UNL A   1      32.478  27.922  24.695  1.00  0.00    -0.017 A 
ATOM     14  C   UNL A   1      30.743  29.562  24.173  1.00  0.00     0.008 A 
ATOM     15  C   UNL A   1      31.151  30.344  25.256  1.00  0.00     0.015 A 
ATOM     16  C   UNL A   1      31.411  28.364  23.894  1.00  0.00     0.023 A 
ATOM     17  C   UNL A   1      32.207  29.924  26.063  1.00  0.00     0.002 A 
ATOM     18  C   UNL A   1      32.861  28.722  25.784  1.00  0.00     0.009 A 
BRANCH  14  19
ATOM     19  S   UNL A   1      29.408  30.096  23.118  1.00  0.00    -0.126 SA
BRANCH  19  20
ATOM     20  C   UNL A   1      29.022  31.706  23.885  1.00  0.00     0.071 C 
ATOM     21  C   UNL A   1      28.720  32.767  22.841  1.00  0.00     0.016 C 
ENDBRANCH  19  20
ENDBRANCH  14  19
ENDBRANCH   8  13
ENDBRANCH   5   7
ENDBRANCH   3   5
ENDBRANCH   2   3
ENDBRANCH   1   2
BRANCH   1  22
ATOM     22  C   UNL A   1      37.960  19.870  25.054  1.00  0.00     0.275 C 
BRANCH  22  23
ATOM     23  O   UNL A   1      38.517  21.075  25.611  1.00  0.00    -0.458 OA
BRANCH  23  24
ATOM     24  C   UNL A   1      39.652  20.904  26.325  1.00  0.00     0.338 C 
ATOM     25  O   UNL A   1      40.299  19.882  26.467  1.00  0.00    -0.246 OA
BRANCH  24  26
ATOM     26  C   UNL A   1      40.103  22.203  26.846  1.00  0.00     0.060 A 
ATOM     27  C   UNL A   1      39.616  23.353  26.226  1.00  0.00     0.016 A 
ATOM     28  C   UNL A   1      41.063  22.291  27.853  1.00  0.00     0.016 A 
ATOM     29  C   UNL A   1      40.107  24.603  26.585  1.00  0.00     0.010 A 
ATOM     30  C   UNL A   1      41.549  23.551  28.226  1.00  0.00     0.010 A 
ATOM     31  C   UNL A   1      41.088  24.710  27.579  1.00  0.00    -0.014 A 
BRANCH  31  32
ATOM     32  C   UNL A   1      41.661  26.044  27.879  1.00  0.00     0.031 A 
ATOM     33  C   UNL A   1      43.036  26.398  27.390  1.00  0.00     0.074 A 
ATOM     34  C   UNL A   1      40.920  26.957  28.534  1.00  0.00     0.049 A 
ATOM     35  N   UNL A   1      43.706  27.513  27.536  1.00  0.00    -0.248 NA
ATOM     36  C   UNL A   1      43.752  25.359  26.633  1.00  0.00     0.031 C 
ATOM     37  C   UNL A   1      39.561  26.742  29.026  1.00  0.00     0.029 A 
ATOM     38  N   UNL A   1      41.205  28.253  28.883  1.00  0.00    -0.354 N 
ATOM     39  C   UNL A   1      44.924  27.309  26.902  1.00  0.00     0.074 A 
ATOM     40  C   UNL A   1      44.910  25.956  26.387  1.00  0.00     0.031 C 
ATOM     41  C   UNL A   1      39.121  27.872  29.602  1.00  0.00     0.029 A 
ATOM     42  C   UNL A   1      40.178  28.879  29.547  1.00  0.00     0.049 A 
ATOM     43  H   UNL A   1      42.061  28.692  28.678  1.00  0.00     0.167 HD
ATOM     44  C   UNL A   1      45.955  28.174  26.759  1.00  0.00     0.037 A 
ATOM     45  C   UNL A   1      40.105  30.122  30.058  1.00  0.00     0.037 A 
ATOM     46  C   UNL A   1      45.964  29.524  27.258  1.00  0.00     0.049 A 
ATOM     47  C   UNL A   1      41.277  31.053  29.907  1.00  0.00     0.074 A 
ATOM     48  C   UNL A   1      46.963  30.478  27.157  1.00  0.00     0.029 A 
ATOM     49  N   UNL A   1      44.917  30.115  27.950  1.00  0.00    -0.354 N 
ATOM     50  N   UNL A   1      42.424  30.849  29.308  1.00  0.00    -0.248 NA
ATOM     51  C   UNL A   1      41.141  32.388  30.504  1.00  0.00     0.031 C 
ATOM     52  C   UNL A   1      46.532  31.635  27.816  1.00  0.00     0.029 A 
ATOM     53  C   UNL A   1      45.251  31.415  28.294  1.00  0.00     0.049 A 
ATOM     54  H   UNL A   1      44.063  29.675  28.165  1.00  0.00     0.167 HD
ATOM     55  C   UNL A   1      43.140  32.029  29.442  1.00  0.00     0.074 A 
ATOM     56  C   UNL A   1      42.289  32.954  30.163  1.00  0.00     0.031 C 
ATOM     57  C   UNL A   1      44.392  32.320  29.012  1.00  0.00     0.037 A 
BRANCH  44  58
ATOM     58  C   UNL A   1      47.178  27.674  26.049  1.00  0.00     0.064 A 
ATOM     59  C   UNL A   1      48.250  27.101  26.748  1.00  0.00     0.173 A 
ATOM     60  C   UNL A   1      47.263  27.742  24.651  1.00  0.00     0.173 A 
ATOM     61  F   UNL A   1      48.221  27.027  28.087  1.00  0.00    -0.203 F 
ATOM     62  C   UNL A   1      49.373  26.631  26.072  1.00  0.00     0.198 A 
ATOM     63  C   UNL A   1      48.377  27.250  23.977  1.00  0.00     0.198 A 
ATOM     64  F   UNL A   1      46.261  28.279  23.938  1.00  0.00    -0.203 F 
ATOM     65  F   UNL A   1      50.403  26.120  26.761  1.00  0.00    -0.200 F 
ATOM     66  C   UNL A   1      49.434  26.701  24.688  1.00  0.00     0.200 A 
ATOM     67  F   UNL A   1      48.431  27.311  22.639  1.00  0.00    -0.200 F 
ATOM     68  F   UNL A   1      50.513  26.243  24.039  1.00  0.00    -0.200 F 
ENDBRANCH  44  58
BRANCH  45  69
ATOM     69  C   UNL A   1      38.872  30.558  30.760  1.00  0.00     0.064 A 
ATOM     70  C   UNL A   1      38.757  30.446  32.152  1.00  0.00     0.173 A 
ATOM     71  C   UNL A   1      37.786  31.090  30.053  1.00  0.00     0.173 A 
ATOM     72  F   UNL A   1      39.762  29.917  32.866  1.00  0.00    -0.203 F 
ATOM     73  C   UNL A   1      37.594  30.839  32.810  1.00  0.00     0.198 A 
ATOM     74  C   UNL A   1      36.632  31.506  30.714  1.00  0.00     0.198 A 
ATOM     75  F   UNL A   1      37.848  31.215  28.719  1.00  0.00    -0.203 F 
ATOM     76  F   UNL A   1      37.493  30.685  34.137  1.00  0.00    -0.200 F 
ATOM     77  C   UNL A   1      36.535  31.374  32.092  1.00  0.00     0.200 A 
ATOM     78  F   UNL A   1      35.615  32.030  30.018  1.00  0.00    -0.200 F 
ATOM     79  F   UNL A   1      35.418  31.756  32.726  1.00  0.00    -0.200 F 
ENDBRANCH  45  69
BRANCH  57  80
ATOM     80  C   UNL A   1      44.907  33.700  29.297  1.00  0.00     0.064 A 
ATOM     81  C   UNL A   1      44.676  34.764  28.413  1.00  0.00     0.173 A 
ATOM     82  C   UNL A   1      45.621  33.964  30.475  1.00  0.00     0.173 A 
ATOM     83  F   UNL A   1      44.012  34.556  27.266  1.00  0.00    -0.203 F 
ATOM     84  C   UNL A   1      45.164  36.039  28.686  1.00  0.00     0.198 A 
ATOM     85  C   UNL A   1      46.087  35.245  30.756  1.00  0.00     0.198 A 
ATOM     86  F   UNL A   1      45.864  32.980  31.354  1.00  0.00    -0.203 F 
ATOM     87  F   UNL A   1      44.971  37.031  27.806  1.00  0.00    -0.200 F 
ATOM     88  C   UNL A   1      45.865  36.279  29.859  1.00  0.00     0.200 A 
ATOM     89  F   UNL A   1      46.758  35.479  31.892  1.00  0.00    -0.200 F 
ATOM     90  F   UNL A   1      46.335  37.507  30.120  1.00  0.00    -0.200 F 
ENDBRANCH  57  80
ENDBRANCH  31  32
ENDBRANCH  24  26
ENDBRANCH  23  24
ENDBRANCH  22  23
ENDBRANCH   1  22
TORSDOF 15
ENDMDL
