MODEL 1
REMARK VINA RESULT:     -11.5      0.000      0.000
REMARK SMILES Cc1cc(C(=O)N[C@H](CC(C)C)C(=O)OCCOC(=O)c2ccc(-c3c4nc(c(-c5c(F)c(F)c(F)c(F)c5F)c5ccc([nH]5)c(-c5c(F)c(F)c(F)c(F)c5F)c5nc(c(-c6c(F)c(F)c(F)c(F)c6F)c6ccc3[nH]6)C=C5)C=C4)cc2)sc1Br
REMARK SMILES IDX 16 1 15 2 13 3 14 4 8 5 7 6 5 7 6 8 4 10 1 11 2 12 3 13
REMARK SMILES IDX 85 14 84 15 86 16 9 17 10 18 11 19 12 20 17 21 18 22 19 23
REMARK SMILES IDX 20 24 21 25 22 26 83 27 23 28 82 29 24 30 25 31 26 32 76 33
REMARK SMILES IDX 27 34 81 35 75 36 77 37 28 38 80 39 74 40 73 41 29 43 61 44
REMARK SMILES IDX 41 45 60 46 42 47 45 48 59 49 78 50 43 51 44 52 58 54 79 55
REMARK SMILES IDX 46 56 30 57 31 58 39 59 32 60 33 61 37 62 40 63 34 64 35 65
REMARK SMILES IDX 38 66 36 67 62 68 63 69 71 70 64 71 65 72 69 73 72 74 66 75
REMARK SMILES IDX 67 76 70 77 68 78 47 79 48 80 56 81 49 82 50 83 54 84 57 85
REMARK SMILES IDX 51 86 52 87 55 88 53 89
REMARK H PARENT 7 9 77 42 45 53
REMARK Flexibility Score: inf
ROOT
ATOM      1  C   UNL A   1      36.411  21.547  25.726  1.00  0.00     0.274 C 
ENDROOT
BRANCH   1   2
ATOM      2  O   UNL A   1      35.693  22.764  26.005  1.00  0.00    -0.461 OA
BRANCH   2   3
ATOM      3  C   UNL A   1      34.524  22.752  26.696  1.00  0.00     0.328 C 
ATOM      4  O   UNL A   1      34.400  22.369  27.853  1.00  0.00    -0.250 OA
BRANCH   3   5
ATOM      5  C   UNL A   1      33.360  23.323  25.840  1.00  0.00     0.192 C 
BRANCH   5   6
ATOM      6  N   UNL A   1      32.065  23.376  26.527  1.00  0.00    -0.338 N 
ATOM      7  C   UNL A   1      30.940  24.164  26.507  1.00  0.00     0.262 C 
ATOM      8  O   UNL A   1      30.005  23.681  27.157  1.00  0.00    -0.268 OA
ATOM      9  H   UNL A   1      31.979  22.647  27.183  1.00  0.00     0.164 HD
BRANCH   7  10
ATOM     10  C   UNL A   1      30.839  25.445  25.816  1.00  0.00     0.093 A 
ATOM     11  C   UNL A   1      29.936  27.774  22.978  1.00  0.00     0.046 C 
ATOM     12  C   UNL A   1      30.451  27.193  24.254  1.00  0.00    -0.025 A 
ATOM     13  C   UNL A   1      30.214  25.838  24.652  1.00  0.00     0.030 A 
ATOM     14  C   UNL A   1      31.216  27.814  25.212  1.00  0.00     0.074 A 
ATOM     15  S   UNL A   1      31.649  26.805  26.502  1.00  0.00    -0.123 S 
ATOM     16  Br  UNL A   1      31.760  29.609  25.134  1.00  0.00    -0.039 Br
ENDBRANCH   7  10
ENDBRANCH   5   6
BRANCH   5  17
ATOM     17  C   UNL A   1      33.378  23.137  24.289  1.00  0.00     0.040 C 
BRANCH  17  18
ATOM     18  C   UNL A   1      33.730  24.262  23.282  1.00  0.00    -0.015 C 
ATOM     19  C   UNL A   1      32.647  24.560  22.245  1.00  0.00     0.007 C 
ATOM     20  C   UNL A   1      34.030  25.580  24.018  1.00  0.00     0.007 C 
ENDBRANCH  17  18
ENDBRANCH   5  17
ENDBRANCH   3   5
ENDBRANCH   2   3
ENDBRANCH   1   2
BRANCH   1  21
ATOM     21  C   UNL A   1      37.866  21.806  25.362  1.00  0.00     0.275 C 
BRANCH  21  22
ATOM     22  O   UNL A   1      38.371  22.856  26.174  1.00  0.00    -0.458 OA
BRANCH  22  23
ATOM     23  C   UNL A   1      39.561  22.632  26.771  1.00  0.00     0.338 C 
ATOM     24  O   UNL A   1      40.062  21.567  27.072  1.00  0.00    -0.246 OA
BRANCH  23  25
ATOM     25  C   UNL A   1      40.135  23.935  27.093  1.00  0.00     0.060 A 
ATOM     26  C   UNL A   1      41.218  24.004  27.976  1.00  0.00     0.016 A 
ATOM     27  C   UNL A   1      39.444  25.072  26.656  1.00  0.00     0.016 A 
ATOM     28  C   UNL A   1      41.520  25.226  28.539  1.00  0.00     0.010 A 
ATOM     29  C   UNL A   1      39.731  26.277  27.227  1.00  0.00     0.010 A 
ATOM     30  C   UNL A   1      40.717  26.322  28.210  1.00  0.00    -0.014 A 
BRANCH  30  31
ATOM     31  C   UNL A   1      40.918  27.577  28.891  1.00  0.00     0.031 A 
ATOM     32  C   UNL A   1      42.068  28.365  28.395  1.00  0.00     0.074 A 
ATOM     33  C   UNL A   1      39.977  28.047  29.727  1.00  0.00     0.049 A 
ATOM     34  N   UNL A   1      43.077  28.816  29.064  1.00  0.00    -0.248 NA
ATOM     35  C   UNL A   1      42.156  28.595  26.942  1.00  0.00     0.031 C 
ATOM     36  C   UNL A   1      38.644  27.494  29.995  1.00  0.00     0.029 A 
ATOM     37  N   UNL A   1      39.972  29.209  30.422  1.00  0.00    -0.354 N 
ATOM     38  C   UNL A   1      43.847  29.523  28.145  1.00  0.00     0.074 A 
ATOM     39  C   UNL A   1      43.324  29.224  26.840  1.00  0.00     0.031 C 
ATOM     40  C   UNL A   1      37.894  28.431  30.617  1.00  0.00     0.029 A 
ATOM     41  C   UNL A   1      38.727  29.588  30.894  1.00  0.00     0.049 A 
ATOM     42  H   UNL A   1      40.786  29.741  30.577  1.00  0.00     0.167 HD
ATOM     43  C   UNL A   1      44.720  30.486  28.540  1.00  0.00     0.037 A 
ATOM     44  C   UNL A   1      38.409  30.807  31.391  1.00  0.00     0.037 A 
ATOM     45  C   UNL A   1      45.071  30.348  29.927  1.00  0.00     0.049 A 
ATOM     46  C   UNL A   1      39.685  31.494  31.734  1.00  0.00     0.074 A 
ATOM     47  C   UNL A   1      45.680  29.350  30.664  1.00  0.00     0.029 A 
ATOM     48  N   UNL A   1      44.445  31.156  30.845  1.00  0.00    -0.354 N 
ATOM     49  N   UNL A   1      40.482  31.119  32.697  1.00  0.00    -0.248 NA
ATOM     50  C   UNL A   1      40.297  32.330  30.711  1.00  0.00     0.031 C 
ATOM     51  C   UNL A   1      44.988  29.333  31.910  1.00  0.00     0.029 A 
ATOM     52  C   UNL A   1      44.035  30.352  31.880  1.00  0.00     0.049 A 
ATOM     53  H   UNL A   1      44.315  32.129  30.773  1.00  0.00     0.167 HD
ATOM     54  C   UNL A   1      41.762  31.317  32.199  1.00  0.00     0.074 A 
ATOM     55  C   UNL A   1      41.585  32.153  31.015  1.00  0.00     0.031 C 
ATOM     56  C   UNL A   1      42.812  30.554  32.624  1.00  0.00     0.037 A 
BRANCH  43  57
ATOM     57  C   UNL A   1      44.995  31.723  27.732  1.00  0.00     0.064 A 
ATOM     58  C   UNL A   1      46.250  31.895  27.124  1.00  0.00     0.173 A 
ATOM     59  C   UNL A   1      44.160  32.863  27.749  1.00  0.00     0.173 A 
ATOM     60  F   UNL A   1      47.138  30.890  27.096  1.00  0.00    -0.203 F 
ATOM     61  C   UNL A   1      46.649  33.129  26.602  1.00  0.00     0.198 A 
ATOM     62  C   UNL A   1      44.535  34.073  27.172  1.00  0.00     0.198 A 
ATOM     63  F   UNL A   1      42.998  32.881  28.417  1.00  0.00    -0.203 F 
ATOM     64  F   UNL A   1      47.893  33.279  26.128  1.00  0.00    -0.200 F 
ATOM     65  C   UNL A   1      45.790  34.214  26.622  1.00  0.00     0.200 A 
ATOM     66  F   UNL A   1      43.696  35.117  27.226  1.00  0.00    -0.200 F 
ATOM     67  F   UNL A   1      46.187  35.407  26.161  1.00  0.00    -0.200 F 
ENDBRANCH  43  57
BRANCH  44  68
ATOM     68  C   UNL A   1      37.117  31.521  31.280  1.00  0.00     0.064 A 
ATOM     69  C   UNL A   1      36.357  31.818  32.421  1.00  0.00     0.173 A 
ATOM     70  C   UNL A   1      36.723  32.154  30.083  1.00  0.00     0.173 A 
ATOM     71  F   UNL A   1      36.693  31.293  33.608  1.00  0.00    -0.203 F 
ATOM     72  C   UNL A   1      35.280  32.709  32.372  1.00  0.00     0.198 A 
ATOM     73  C   UNL A   1      35.643  33.033  30.032  1.00  0.00     0.198 A 
ATOM     74  F   UNL A   1      37.436  32.004  28.957  1.00  0.00    -0.203 F 
ATOM     75  F   UNL A   1      34.615  33.015  33.495  1.00  0.00    -0.200 F 
ATOM     76  C   UNL A   1      34.929  33.322  31.180  1.00  0.00     0.200 A 
ATOM     77  F   UNL A   1      35.337  33.644  28.879  1.00  0.00    -0.200 F 
ATOM     78  F   UNL A   1      33.934  34.219  31.145  1.00  0.00    -0.200 F 
ENDBRANCH  44  68
BRANCH  56  79
ATOM     79  C   UNL A   1      42.587  29.662  33.817  1.00  0.00     0.064 A 
ATOM     80  C   UNL A   1      42.021  28.378  33.736  1.00  0.00     0.173 A 
ATOM     81  C   UNL A   1      43.092  30.061  35.060  1.00  0.00     0.173 A 
ATOM     82  F   UNL A   1      41.618  27.874  32.565  1.00  0.00    -0.203 F 
ATOM     83  C   UNL A   1      41.915  27.557  34.857  1.00  0.00     0.198 A 
ATOM     84  C   UNL A   1      43.022  29.223  36.172  1.00  0.00     0.198 A 
ATOM     85  F   UNL A   1      43.703  31.249  35.189  1.00  0.00    -0.203 F 
ATOM     86  F   UNL A   1      41.354  26.343  34.751  1.00  0.00    -0.200 F 
ATOM     87  C   UNL A   1      42.422  27.978  36.073  1.00  0.00     0.200 A 
ATOM     88  F   UNL A   1      43.564  29.612  37.334  1.00  0.00    -0.200 F 
ATOM     89  F   UNL A   1      42.360  27.172  37.143  1.00  0.00    -0.200 F 
ENDBRANCH  56  79
ENDBRANCH  30  31
ENDBRANCH  23  25
ENDBRANCH  22  23
ENDBRANCH  21  22
ENDBRANCH   1  21
TORSDOF 15
ENDMDL
MODEL 2
REMARK VINA RESULT:     -11.5      5.050     10.402
REMARK SMILES Cc1cc(C(=O)N[C@H](CC(C)C)C(=O)OCCOC(=O)c2ccc(-c3c4nc(c(-c5c(F)c(F)c(F)c(F)c5F)c5ccc([nH]5)c(-c5c(F)c(F)c(F)c(F)c5F)c5nc(c(-c6c(F)c(F)c(F)c(F)c6F)c6ccc3[nH]6)C=C5)C=C4)cc2)sc1Br
REMARK SMILES IDX 16 1 15 2 13 3 14 4 8 5 7 6 5 7 6 8 4 10 1 11 2 12 3 13
REMARK SMILES IDX 85 14 84 15 86 16 9 17 10 18 11 19 12 20 17 21 18 22 19 23
REMARK SMILES IDX 20 24 21 25 22 26 83 27 23 28 82 29 24 30 25 31 26 32 76 33
REMARK SMILES IDX 27 34 81 35 75 36 77 37 28 38 80 39 74 40 73 41 29 43 61 44
REMARK SMILES IDX 41 45 60 46 42 47 45 48 59 49 78 50 43 51 44 52 58 54 79 55
REMARK SMILES IDX 46 56 30 57 31 58 39 59 32 60 33 61 37 62 40 63 34 64 35 65
REMARK SMILES IDX 38 66 36 67 62 68 63 69 71 70 64 71 65 72 69 73 72 74 66 75
REMARK SMILES IDX 67 76 70 77 68 78 47 79 48 80 56 81 49 82 50 83 54 84 57 85
REMARK SMILES IDX 51 86 52 87 55 88 53 89
REMARK H PARENT 7 9 77 42 45 53
REMARK Flexibility Score: inf
ROOT
ATOM      1  C   UNL A   1      33.860  33.888  29.405  1.00  0.00     0.274 C 
ENDROOT
BRANCH   1   2
ATOM      2  O   UNL A   1      34.183  32.788  30.278  1.00  0.00    -0.461 OA
BRANCH   2   3
ATOM      3  C   UNL A   1      34.878  32.980  31.428  1.00  0.00     0.328 C 
ATOM      4  O   UNL A   1      35.097  32.114  32.267  1.00  0.00    -0.250 OA
BRANCH   3   5
ATOM      5  C   UNL A   1      35.398  34.441  31.532  1.00  0.00     0.192 C 
BRANCH   5   6
ATOM      6  N   UNL A   1      36.828  34.603  31.252  1.00  0.00    -0.338 N 
ATOM      7  C   UNL A   1      38.019  34.163  31.776  1.00  0.00     0.262 C 
ATOM      8  O   UNL A   1      38.988  34.427  31.055  1.00  0.00    -0.268 OA
ATOM      9  H   UNL A   1      36.976  35.188  30.474  1.00  0.00     0.164 HD
BRANCH   7  10
ATOM     10  C   UNL A   1      38.155  33.471  33.053  1.00  0.00     0.093 A 
ATOM     11  C   UNL A   1      38.663  30.495  35.329  1.00  0.00     0.046 C 
ATOM     12  C   UNL A   1      38.413  31.862  34.784  1.00  0.00    -0.025 A 
ATOM     13  C   UNL A   1      38.507  32.181  33.391  1.00  0.00     0.030 A 
ATOM     14  C   UNL A   1      38.051  32.991  35.478  1.00  0.00     0.074 A 
ATOM     15  S   UNL A   1      37.807  34.350  34.497  1.00  0.00    -0.123 S 
ATOM     16  Br  UNL A   1      37.828  33.064  37.341  1.00  0.00    -0.039 Br
ENDBRANCH   7  10
ENDBRANCH   5   6
BRANCH   5  17
ATOM     17  C   UNL A   1      34.710  35.438  32.520  1.00  0.00     0.040 C 
BRANCH  17  18
ATOM     18  C   UNL A   1      33.653  36.490  32.098  1.00  0.00    -0.015 C 
ATOM     19  C   UNL A   1      32.207  36.117  32.429  1.00  0.00     0.007 C 
ATOM     20  C   UNL A   1      33.935  37.848  32.765  1.00  0.00     0.007 C 
ENDBRANCH  17  18
ENDBRANCH   5  17
ENDBRANCH   3   5
ENDBRANCH   2   3
ENDBRANCH   1   2
BRANCH   1  21
ATOM     21  C   UNL A   1      34.165  33.575  27.947  1.00  0.00     0.275 C 
BRANCH  21  22
ATOM     22  O   UNL A   1      35.395  32.871  27.866  1.00  0.00    -0.458 OA
BRANCH  22  23
ATOM     23  C   UNL A   1      35.310  31.538  27.674  1.00  0.00     0.338 C 
ATOM     24  O   UNL A   1      34.440  30.914  27.099  1.00  0.00    -0.246 OA
BRANCH  23  25
ATOM     25  C   UNL A   1      36.435  30.927  28.378  1.00  0.00     0.060 A 
ATOM     26  C   UNL A   1      37.376  31.751  29.003  1.00  0.00     0.016 A 
ATOM     27  C   UNL A   1      36.624  29.549  28.220  1.00  0.00     0.016 A 
ATOM     28  C   UNL A   1      38.593  31.201  29.349  1.00  0.00     0.010 A 
ATOM     29  C   UNL A   1      37.834  29.010  28.546  1.00  0.00     0.010 A 
ATOM     30  C   UNL A   1      38.822  29.857  29.041  1.00  0.00    -0.014 A 
BRANCH  30  31
ATOM     31  C   UNL A   1      40.131  29.295  29.260  1.00  0.00     0.031 A 
ATOM     32  C   UNL A   1      40.458  29.040  30.681  1.00  0.00     0.074 A 
ATOM     33  C   UNL A   1      40.851  28.841  28.219  1.00  0.00     0.049 A 
ATOM     34  N   UNL A   1      41.467  29.476  31.360  1.00  0.00    -0.248 NA
ATOM     35  C   UNL A   1      39.477  28.281  31.476  1.00  0.00     0.031 C 
ATOM     36  C   UNL A   1      40.443  28.729  26.814  1.00  0.00     0.029 A 
ATOM     37  N   UNL A   1      42.071  28.254  28.232  1.00  0.00    -0.354 N 
ATOM     38  C   UNL A   1      41.332  28.916  32.626  1.00  0.00     0.074 A 
ATOM     39  C   UNL A   1      40.022  28.327  32.689  1.00  0.00     0.031 C 
ATOM     40  C   UNL A   1      41.310  27.920  26.165  1.00  0.00     0.029 A 
ATOM     41  C   UNL A   1      42.386  27.565  27.073  1.00  0.00     0.049 A 
ATOM     42  H   UNL A   1      42.683  28.312  29.001  1.00  0.00     0.167 HD
ATOM     43  C   UNL A   1      42.396  28.778  33.460  1.00  0.00     0.037 A 
ATOM     44  C   UNL A   1      43.416  26.697  26.926  1.00  0.00     0.037 A 
ATOM     45  C   UNL A   1      43.477  29.651  33.091  1.00  0.00     0.049 A 
ATOM     46  C   UNL A   1      44.366  26.942  28.045  1.00  0.00     0.074 A 
ATOM     47  C   UNL A   1      43.604  31.023  32.990  1.00  0.00     0.029 A 
ATOM     48  N   UNL A   1      44.527  29.128  32.377  1.00  0.00    -0.354 N 
ATOM     49  N   UNL A   1      45.076  28.030  28.178  1.00  0.00    -0.248 NA
ATOM     50  C   UNL A   1      44.191  26.163  29.263  1.00  0.00     0.031 C 
ATOM     51  C   UNL A   1      44.415  31.237  31.837  1.00  0.00     0.029 A 
ATOM     52  C   UNL A   1      44.776  29.986  31.334  1.00  0.00     0.049 A 
ATOM     53  H   UNL A   1      45.010  28.294  32.575  1.00  0.00     0.167 HD
ATOM     54  C   UNL A   1      45.086  28.286  29.542  1.00  0.00     0.074 A 
ATOM     55  C   UNL A   1      44.610  27.055  30.165  1.00  0.00     0.031 C 
ATOM     56  C   UNL A   1      45.204  29.559  30.021  1.00  0.00     0.037 A 
BRANCH  43  57
ATOM     57  C   UNL A   1      42.549  27.623  34.409  1.00  0.00     0.064 A 
ATOM     58  C   UNL A   1      43.083  26.407  33.950  1.00  0.00     0.173 A 
ATOM     59  C   UNL A   1      41.949  27.585  35.689  1.00  0.00     0.173 A 
ATOM     60  F   UNL A   1      43.633  26.321  32.730  1.00  0.00    -0.203 F 
ATOM     61  C   UNL A   1      42.993  25.234  34.706  1.00  0.00     0.198 A 
ATOM     62  C   UNL A   1      41.916  26.431  36.465  1.00  0.00     0.198 A 
ATOM     63  F   UNL A   1      41.279  28.632  36.189  1.00  0.00    -0.203 F 
ATOM     64  F   UNL A   1      43.419  24.075  34.187  1.00  0.00    -0.200 F 
ATOM     65  C   UNL A   1      42.415  25.249  35.964  1.00  0.00     0.200 A 
ATOM     66  F   UNL A   1      41.329  26.463  37.670  1.00  0.00    -0.200 F 
ATOM     67  F   UNL A   1      42.288  24.117  36.669  1.00  0.00    -0.200 F 
ENDBRANCH  43  57
BRANCH  44  68
ATOM     68  C   UNL A   1      43.460  25.479  26.087  1.00  0.00     0.064 A 
ATOM     69  C   UNL A   1      44.577  25.195  25.288  1.00  0.00     0.173 A 
ATOM     70  C   UNL A   1      42.522  24.438  26.244  1.00  0.00     0.173 A 
ATOM     71  F   UNL A   1      45.539  26.115  25.123  1.00  0.00    -0.203 F 
ATOM     72  C   UNL A   1      44.755  23.940  24.697  1.00  0.00     0.198 A 
ATOM     73  C   UNL A   1      42.694  23.191  25.647  1.00  0.00     0.198 A 
ATOM     74  F   UNL A   1      41.465  24.579  27.057  1.00  0.00    -0.203 F 
ATOM     75  F   UNL A   1      45.866  23.685  23.990  1.00  0.00    -0.200 F 
ATOM     76  C   UNL A   1      43.818  22.936  24.885  1.00  0.00     0.200 A 
ATOM     77  F   UNL A   1      41.796  22.220  25.865  1.00  0.00    -0.200 F 
ATOM     78  F   UNL A   1      44.017  21.716  24.367  1.00  0.00    -0.200 F 
ENDBRANCH  44  68
BRANCH  56  79
ATOM     79  C   UNL A   1      45.565  30.642  29.039  1.00  0.00     0.064 A 
ATOM     80  C   UNL A   1      46.885  30.944  28.659  1.00  0.00     0.173 A 
ATOM     81  C   UNL A   1      44.537  31.298  28.351  1.00  0.00     0.173 A 
ATOM     82  F   UNL A   1      47.922  30.283  29.184  1.00  0.00    -0.203 F 
ATOM     83  C   UNL A   1      47.161  31.896  27.679  1.00  0.00     0.198 A 
ATOM     84  C   UNL A   1      44.814  32.220  27.343  1.00  0.00     0.198 A 
ATOM     85  F   UNL A   1      43.255  31.006  28.620  1.00  0.00    -0.203 F 
ATOM     86  F   UNL A   1      48.432  32.174  27.351  1.00  0.00    -0.200 F 
ATOM     87  C   UNL A   1      46.124  32.528  27.017  1.00  0.00     0.200 A 
ATOM     88  F   UNL A   1      43.806  32.789  26.666  1.00  0.00    -0.200 F 
ATOM     89  F   UNL A   1      46.387  33.412  26.044  1.00  0.00    -0.200 F 
ENDBRANCH  56  79
ENDBRANCH  30  31
ENDBRANCH  23  25
ENDBRANCH  22  23
ENDBRANCH  21  22
ENDBRANCH   1  21
TORSDOF 15
ENDMDL
MODEL 3
REMARK VINA RESULT:     -11.4      3.479      8.606
REMARK SMILES Cc1cc(C(=O)N[C@H](CC(C)C)C(=O)OCCOC(=O)c2ccc(-c3c4nc(c(-c5c(F)c(F)c(F)c(F)c5F)c5ccc([nH]5)c(-c5c(F)c(F)c(F)c(F)c5F)c5nc(c(-c6c(F)c(F)c(F)c(F)c6F)c6ccc3[nH]6)C=C5)C=C4)cc2)sc1Br
REMARK SMILES IDX 16 1 15 2 13 3 14 4 8 5 7 6 5 7 6 8 4 10 1 11 2 12 3 13
REMARK SMILES IDX 85 14 84 15 86 16 9 17 10 18 11 19 12 20 17 21 18 22 19 23
REMARK SMILES IDX 20 24 21 25 22 26 83 27 23 28 82 29 24 30 25 31 26 32 76 33
REMARK SMILES IDX 27 34 81 35 75 36 77 37 28 38 80 39 74 40 73 41 29 43 61 44
REMARK SMILES IDX 41 45 60 46 42 47 45 48 59 49 78 50 43 51 44 52 58 54 79 55
REMARK SMILES IDX 46 56 30 57 31 58 39 59 32 60 33 61 37 62 40 63 34 64 35 65
REMARK SMILES IDX 38 66 36 67 62 68 63 69 71 70 64 71 65 72 69 73 72 74 66 75
REMARK SMILES IDX 67 76 70 77 68 78 47 79 48 80 56 81 49 82 50 83 54 84 57 85
REMARK SMILES IDX 51 86 52 87 55 88 53 89
REMARK H PARENT 7 9 77 42 45 53
REMARK Flexibility Score: inf
ROOT
ATOM      1  C   UNL A   1      32.221  29.806  26.966  1.00  0.00     0.274 C 
ENDROOT
BRANCH   1   2
ATOM      2  O   UNL A   1      32.369  29.134  25.701  1.00  0.00    -0.461 OA
BRANCH   2   3
ATOM      3  C   UNL A   1      33.041  27.959  25.600  1.00  0.00     0.328 C 
ATOM      4  O   UNL A   1      34.066  27.685  26.213  1.00  0.00    -0.250 OA
BRANCH   3   5
ATOM      5  C   UNL A   1      32.323  26.982  24.629  1.00  0.00     0.192 C 
BRANCH   5   6
ATOM      6  N   UNL A   1      32.950  26.862  23.308  1.00  0.00    -0.338 N 
ATOM      7  C   UNL A   1      33.350  25.854  22.465  1.00  0.00     0.262 C 
ATOM      8  O   UNL A   1      33.665  26.264  21.342  1.00  0.00    -0.268 OA
ATOM      9  H   UNL A   1      33.136  27.747  22.919  1.00  0.00     0.164 HD
BRANCH   7  10
ATOM     10  C   UNL A   1      33.420  24.444  22.836  1.00  0.00     0.093 A 
ATOM     11  C   UNL A   1      32.238  20.857  23.005  1.00  0.00     0.046 C 
ATOM     12  C   UNL A   1      33.001  22.129  23.174  1.00  0.00    -0.025 A 
ATOM     13  C   UNL A   1      32.664  23.343  22.494  1.00  0.00     0.030 A 
ATOM     14  C   UNL A   1      34.092  22.356  23.980  1.00  0.00     0.074 A 
ATOM     15  S   UNL A   1      34.652  23.953  23.940  1.00  0.00    -0.123 S 
ATOM     16  Br  UNL A   1      34.909  21.047  25.049  1.00  0.00    -0.039 Br
ENDBRANCH   7  10
ENDBRANCH   5   6
BRANCH   5  17
ATOM     17  C   UNL A   1      30.779  26.770  24.747  1.00  0.00     0.040 C 
BRANCH  17  18
ATOM     18  C   UNL A   1      29.775  27.034  23.596  1.00  0.00    -0.015 C 
ATOM     19  C   UNL A   1      28.328  26.647  23.904  1.00  0.00     0.007 C 
ATOM     20  C   UNL A   1      29.774  28.522  23.201  1.00  0.00     0.007 C 
ENDBRANCH  17  18
ENDBRANCH   5  17
ENDBRANCH   3   5
ENDBRANCH   2   3
ENDBRANCH   1   2
BRANCH   1  21
ATOM     21  C   UNL A   1      33.104  31.042  27.069  1.00  0.00     0.275 C 
BRANCH  21  22
ATOM     22  O   UNL A   1      34.429  30.646  27.386  1.00  0.00    -0.458 OA
BRANCH  22  23
ATOM     23  C   UNL A   1      35.263  31.622  27.802  1.00  0.00     0.338 C 
ATOM     24  O   UNL A   1      35.179  32.818  27.603  1.00  0.00    -0.246 OA
BRANCH  23  25
ATOM     25  C   UNL A   1      36.380  30.975  28.484  1.00  0.00     0.060 A 
ATOM     26  C   UNL A   1      37.329  31.766  29.141  1.00  0.00     0.016 A 
ATOM     27  C   UNL A   1      36.556  29.602  28.278  1.00  0.00     0.016 A 
ATOM     28  C   UNL A   1      38.539  31.191  29.468  1.00  0.00     0.010 A 
ATOM     29  C   UNL A   1      37.759  29.038  28.585  1.00  0.00     0.010 A 
ATOM     30  C   UNL A   1      38.755  29.857  29.111  1.00  0.00    -0.014 A 
BRANCH  30  31
ATOM     31  C   UNL A   1      40.058  29.273  29.312  1.00  0.00     0.031 A 
ATOM     32  C   UNL A   1      40.411  29.036  30.729  1.00  0.00     0.074 A 
ATOM     33  C   UNL A   1      40.746  28.788  28.264  1.00  0.00     0.049 A 
ATOM     34  N   UNL A   1      41.442  29.464  31.379  1.00  0.00    -0.248 NA
ATOM     35  C   UNL A   1      39.434  28.310  31.559  1.00  0.00     0.031 C 
ATOM     36  C   UNL A   1      40.305  28.661  26.870  1.00  0.00     0.029 A 
ATOM     37  N   UNL A   1      41.955  28.178  28.261  1.00  0.00    -0.354 N 
ATOM     38  C   UNL A   1      41.326  28.928  32.658  1.00  0.00     0.074 A 
ATOM     39  C   UNL A   1      40.006  28.365  32.758  1.00  0.00     0.031 C 
ATOM     40  C   UNL A   1      41.142  27.824  26.216  1.00  0.00     0.029 A 
ATOM     41  C   UNL A   1      42.231  27.464  27.107  1.00  0.00     0.049 A 
ATOM     42  H   UNL A   1      42.585  28.237  29.015  1.00  0.00     0.167 HD
ATOM     43  C   UNL A   1      42.405  28.783  33.470  1.00  0.00     0.037 A 
ATOM     44  C   UNL A   1      43.241  26.574  26.952  1.00  0.00     0.037 A 
ATOM     45  C   UNL A   1      43.493  29.629  33.063  1.00  0.00     0.049 A 
ATOM     46  C   UNL A   1      44.220  26.820  28.046  1.00  0.00     0.074 A 
ATOM     47  C   UNL A   1      43.644  30.997  32.936  1.00  0.00     0.029 A 
ATOM     48  N   UNL A   1      44.517  29.074  32.336  1.00  0.00    -0.354 N 
ATOM     49  N   UNL A   1      44.953  27.895  28.145  1.00  0.00    -0.248 NA
ATOM     50  C   UNL A   1      44.058  26.064  29.281  1.00  0.00     0.031 C 
ATOM     51  C   UNL A   1      44.433  31.176  31.762  1.00  0.00     0.029 A 
ATOM     52  C   UNL A   1      44.759  29.910  31.272  1.00  0.00     0.049 A 
ATOM     53  H   UNL A   1      44.989  28.235  32.537  1.00  0.00     0.167 HD
ATOM     54  C   UNL A   1      44.998  28.174  29.504  1.00  0.00     0.074 A 
ATOM     55  C   UNL A   1      44.513  26.963  30.158  1.00  0.00     0.031 C 
ATOM     56  C   UNL A   1      45.151  29.453  29.958  1.00  0.00     0.037 A 
BRANCH  43  57
ATOM     57  C   UNL A   1      42.556  27.641  34.436  1.00  0.00     0.064 A 
ATOM     58  C   UNL A   1      43.092  26.420  33.994  1.00  0.00     0.173 A 
ATOM     59  C   UNL A   1      41.955  27.622  35.714  1.00  0.00     0.173 A 
ATOM     60  F   UNL A   1      43.645  26.317  32.776  1.00  0.00    -0.203 F 
ATOM     61  C   UNL A   1      43.001  25.258  34.766  1.00  0.00     0.198 A 
ATOM     62  C   UNL A   1      41.922  26.478  36.507  1.00  0.00     0.198 A 
ATOM     63  F   UNL A   1      41.284  28.675  36.199  1.00  0.00    -0.203 F 
ATOM     64  F   UNL A   1      43.429  24.091  34.264  1.00  0.00    -0.200 F 
ATOM     65  C   UNL A   1      42.421  25.289  36.022  1.00  0.00     0.200 A 
ATOM     66  F   UNL A   1      41.332  26.527  37.710  1.00  0.00    -0.200 F 
ATOM     67  F   UNL A   1      42.295  24.168  36.743  1.00  0.00    -0.200 F 
ENDBRANCH  43  57
BRANCH  44  68
ATOM     68  C   UNL A   1      43.244  25.341  26.133  1.00  0.00     0.064 A 
ATOM     69  C   UNL A   1      44.284  25.080  25.229  1.00  0.00     0.173 A 
ATOM     70  C   UNL A   1      42.364  24.273  26.403  1.00  0.00     0.173 A 
ATOM     71  F   UNL A   1      45.190  26.028  24.953  1.00  0.00    -0.203 F 
ATOM     72  C   UNL A   1      44.446  23.819  24.645  1.00  0.00     0.198 A 
ATOM     73  C   UNL A   1      42.520  23.020  25.812  1.00  0.00     0.198 A 
ATOM     74  F   UNL A   1      41.391  24.394  27.317  1.00  0.00    -0.203 F 
ATOM     75  F   UNL A   1      45.488  23.588  23.833  1.00  0.00    -0.200 F 
ATOM     76  C   UNL A   1      43.570  22.788  24.944  1.00  0.00     0.200 A 
ATOM     77  F   UNL A   1      41.684  22.024  26.136  1.00  0.00    -0.200 F 
ATOM     78  F   UNL A   1      43.759  21.566  24.428  1.00  0.00    -0.200 F 
ENDBRANCH  44  68
BRANCH  56  79
ATOM     79  C   UNL A   1      45.510  30.512  28.949  1.00  0.00     0.064 A 
ATOM     80  C   UNL A   1      44.562  31.239  28.208  1.00  0.00     0.173 A 
ATOM     81  C   UNL A   1      46.849  30.906  28.835  1.00  0.00     0.173 A 
ATOM     82  F   UNL A   1      43.253  31.004  28.344  1.00  0.00    -0.203 F 
ATOM     83  C   UNL A   1      44.943  32.270  27.351  1.00  0.00     0.198 A 
ATOM     84  C   UNL A   1      47.224  31.964  28.009  1.00  0.00     0.198 A 
ATOM     85  F   UNL A   1      47.795  30.296  29.566  1.00  0.00    -0.203 F 
ATOM     86  F   UNL A   1      44.016  32.933  26.644  1.00  0.00    -0.200 F 
ATOM     87  C   UNL A   1      46.274  32.637  27.258  1.00  0.00     0.200 A 
ATOM     88  F   UNL A   1      48.506  32.352  27.964  1.00  0.00    -0.200 F 
ATOM     89  F   UNL A   1      46.636  33.657  26.468  1.00  0.00    -0.200 F 
ENDBRANCH  56  79
ENDBRANCH  30  31
ENDBRANCH  23  25
ENDBRANCH  22  23
ENDBRANCH  21  22
ENDBRANCH   1  21
TORSDOF 15
ENDMDL
