MODEL 1
REMARK VINA RESULT:     -12.6      0.000      0.000
REMARK SMILES O=C(OCCOC(=O)c1ccc(S(=O)(=O)[O-])cc1N1C(=O)/C(=C\C=C\c2ccccc2)[NH+]=C1c1ccccc1)c1ccc(-c2c3nc(c(-c4c(F)c(F)c(F)c(F)c4F)c4ccc([nH]4)c(-c4c(F)c(F)c(F)c(F)c4F)c4nc(c(-c5c(F)c(F)c(F)c(F)c5F)c5ccc2[nH]5)C=C4)C=C3)cc1
REMARK SMILES IDX 5 1 4 2 3 3 2 4 1 5 40 6 41 7 102 8 42 9 101 10 43 11 44 12
REMARK SMILES IDX 45 13 95 14 46 15 100 16 94 17 96 18 47 19 99 20 93 21 92 22
REMARK SMILES IDX 48 24 80 25 60 26 79 27 61 28 64 29 78 30 97 31 62 32 63 33
REMARK SMILES IDX 77 35 98 36 65 37 49 38 50 39 58 40 51 41 52 42 56 43 59 44
REMARK SMILES IDX 53 45 54 46 57 47 55 48 81 49 82 50 90 51 83 52 84 53 88 54
REMARK SMILES IDX 91 55 85 56 86 57 89 58 87 59 66 60 67 61 75 62 68 63 69 64
REMARK SMILES IDX 73 65 76 66 70 67 71 68 74 69 72 70 6 71 7 72 8 73 9 74
REMARK SMILES IDX 10 75 18 76 11 77 17 78 12 79 19 80 20 81 33 82 21 83 22 84
REMARK SMILES IDX 32 85 23 86 34 88 35 89 39 90 36 91 38 92 37 93 24 94 25 95
REMARK SMILES IDX 26 96 27 97 31 98 28 99 30 100 29 101 13 102 14 103 15 104
REMARK SMILES IDX 16 105
REMARK H PARENT 96 23 64 34 32 87
REMARK Flexibility Score: inf
ROOT
ATOM      1  C   UNL A   1      32.289  28.743  26.515  1.00  0.00     0.275 C 
ENDROOT
BRANCH   1   2
ATOM      2  C   UNL A   1      32.819  30.188  26.482  1.00  0.00     0.275 C 
BRANCH   2   3
ATOM      3  O   UNL A   1      33.184  30.682  27.776  1.00  0.00    -0.458 OA
BRANCH   3   4
ATOM      4  C   UNL A   1      34.390  31.077  28.229  1.00  0.00     0.338 C 
ATOM      5  O   UNL A   1      34.492  32.224  28.667  1.00  0.00    -0.246 OA
BRANCH   4   6
ATOM      6  C   UNL A   1      35.648  30.251  28.176  1.00  0.00     0.060 A 
ATOM      7  C   UNL A   1      36.487  30.033  27.075  1.00  0.00     0.016 A 
ATOM      8  C   UNL A   1      36.070  29.741  29.414  1.00  0.00     0.016 A 
ATOM      9  C   UNL A   1      37.762  29.480  27.218  1.00  0.00     0.010 A 
ATOM     10  C   UNL A   1      37.324  29.158  29.560  1.00  0.00     0.010 A 
ATOM     11  C   UNL A   1      38.219  29.115  28.480  1.00  0.00    -0.014 A 
BRANCH  11  12
ATOM     12  C   UNL A   1      39.668  28.792  28.655  1.00  0.00     0.031 A 
ATOM     13  C   UNL A   1      40.393  29.654  29.624  1.00  0.00     0.074 A 
ATOM     14  C   UNL A   1      40.507  27.928  27.915  1.00  0.00     0.049 A 
ATOM     15  N   UNL A   1      41.594  29.509  30.099  1.00  0.00    -0.248 NA
ATOM     16  C   UNL A   1      39.713  30.888  30.051  1.00  0.00     0.031 C 
ATOM     17  C   UNL A   1      40.913  27.119  25.975  1.00  0.00     0.029 A 
ATOM     18  N   UNL A   1      40.638  26.369  28.966  1.00  0.00    -0.354 N 
ATOM     19  C   UNL A   1      41.824  30.651  30.838  1.00  0.00     0.074 A 
ATOM     20  C   UNL A   1      40.679  31.515  30.693  1.00  0.00     0.031 C 
ATOM     21  C   UNL A   1      41.166  25.442  26.129  1.00  0.00     0.029 A 
ATOM     22  C   UNL A   1      41.130  24.911  27.977  1.00  0.00     0.049 A 
ATOM     23  H   UNL A   1      40.461  26.341  29.934  1.00  0.00     0.167 HD
ATOM     24  C   UNL A   1      42.906  30.919  31.594  1.00  0.00     0.037 A 
ATOM     25  C   UNL A   1      42.158  24.052  28.366  1.00  0.00     0.037 A 
ATOM     26  C   UNL A   1      44.005  30.005  31.676  1.00  0.00     0.049 A 
ATOM     27  C   UNL A   1      43.307  24.572  29.315  1.00  0.00     0.074 A 
ATOM     28  C   UNL A   1      45.224  30.177  32.291  1.00  0.00     0.029 A 
ATOM     29  N   UNL A   1      43.995  28.722  31.115  1.00  0.00    -0.354 N 
ATOM     30  N   UNL A   1      43.479  25.732  29.929  1.00  0.00    -0.248 NA
ATOM     31  C   UNL A   1      44.505  23.714  29.382  1.00  0.00     0.031 C 
ATOM     32  C   UNL A   1      45.963  29.010  32.079  1.00  0.00     0.029 A 
ATOM     33  C   UNL A   1      45.187  28.081  31.384  1.00  0.00     0.049 A 
ATOM     34  H   UNL A   1      43.247  28.335  30.604  1.00  0.00     0.167 HD
ATOM     35  C   UNL A   1      44.808  25.766  30.385  1.00  0.00     0.074 A 
ATOM     36  C   UNL A   1      45.379  24.485  30.010  1.00  0.00     0.031 C 
ATOM     37  C   UNL A   1      45.556  26.731  30.999  1.00  0.00     0.037 A 
BRANCH  24  38
ATOM     38  C   UNL A   1      42.888  32.231  32.318  1.00  0.00     0.064 A 
ATOM     39  C   UNL A   1      42.318  32.336  33.599  1.00  0.00     0.173 A 
ATOM     40  C   UNL A   1      43.287  33.414  31.681  1.00  0.00     0.173 A 
ATOM     41  F   UNL A   1      41.870  31.239  34.228  1.00  0.00    -0.203 F 
ATOM     42  C   UNL A   1      42.096  33.578  34.189  1.00  0.00     0.198 A 
ATOM     43  C   UNL A   1      43.097  34.653  32.291  1.00  0.00     0.198 A 
ATOM     44  F   UNL A   1      43.812  33.375  30.448  1.00  0.00    -0.203 F 
ATOM     45  F   UNL A   1      41.452  33.654  35.361  1.00  0.00    -0.200 F 
ATOM     46  C   UNL A   1      42.486  34.735  33.535  1.00  0.00     0.200 A 
ATOM     47  F   UNL A   1      43.465  35.774  31.655  1.00  0.00    -0.200 F 
ATOM     48  F   UNL A   1      42.246  35.932  34.089  1.00  0.00    -0.200 F 
ENDBRANCH  24  38
BRANCH  25  49
ATOM     49  C   UNL A   1      42.508  22.866  27.502  1.00  0.00     0.064 A 
ATOM     50  C   UNL A   1      43.448  22.996  26.464  1.00  0.00     0.173 A 
ATOM     51  C   UNL A   1      41.834  21.637  27.565  1.00  0.00     0.173 A 
ATOM     52  F   UNL A   1      43.984  24.197  26.198  1.00  0.00    -0.203 F 
ATOM     53  C   UNL A   1      43.757  21.925  25.616  1.00  0.00     0.198 A 
ATOM     54  C   UNL A   1      42.217  20.537  26.798  1.00  0.00     0.198 A 
ATOM     55  F   UNL A   1      40.732  21.505  28.317  1.00  0.00    -0.203 F 
ATOM     56  F   UNL A   1      44.577  22.111  24.572  1.00  0.00    -0.200 F 
ATOM     57  C   UNL A   1      43.180  20.681  25.819  1.00  0.00     0.200 A 
ATOM     58  F   UNL A   1      41.618  19.354  26.988  1.00  0.00    -0.200 F 
ATOM     59  F   UNL A   1      43.505  19.643  25.037  1.00  0.00    -0.200 F 
ENDBRANCH  25  49
BRANCH  37  60
ATOM     60  C   UNL A   1      46.964  26.347  31.407  1.00  0.00     0.064 A 
ATOM     61  C   UNL A   1      47.253  25.713  32.624  1.00  0.00     0.173 A 
ATOM     62  C   UNL A   1      48.014  26.513  30.487  1.00  0.00     0.173 A 
ATOM     63  F   UNL A   1      46.285  25.523  33.533  1.00  0.00    -0.203 F 
ATOM     64  C   UNL A   1      48.547  25.282  32.915  1.00  0.00     0.198 A 
ATOM     65  C   UNL A   1      49.296  26.050  30.766  1.00  0.00     0.198 A 
ATOM     66  F   UNL A   1      47.778  27.078  29.293  1.00  0.00    -0.203 F 
ATOM     67  F   UNL A   1      48.813  24.711  34.098  1.00  0.00    -0.200 F 
ATOM     68  C   UNL A   1      49.564  25.443  31.983  1.00  0.00     0.200 A 
ATOM     69  F   UNL A   1      50.265  26.174  29.850  1.00  0.00    -0.200 F 
ATOM     70  F   UNL A   1      50.803  25.011  32.258  1.00  0.00    -0.200 F 
ENDBRANCH  37  60
ENDBRANCH  11  12
ENDBRANCH   4   6
ENDBRANCH   3   4
ENDBRANCH   2   3
ENDBRANCH   1   2
BRANCH   1  71
ATOM     71  O   UNL A   1      33.237  27.747  26.053  1.00  0.00    -0.458 OA
BRANCH  71  72
ATOM     72  C   UNL A   1      32.869  26.462  26.292  1.00  0.00     0.342 C 
ATOM     73  O   UNL A   1      31.850  26.127  26.881  1.00  0.00    -0.246 OA
BRANCH  72  74
ATOM     74  C   UNL A   1      33.740  25.434  25.645  1.00  0.00     0.107 A 
ATOM     75  C   UNL A   1      34.973  25.262  26.314  1.00  0.00     0.021 A 
ATOM     76  C   UNL A   1      33.465  24.636  24.494  1.00  0.00     0.152 A 
ATOM     77  C   UNL A   1      35.941  24.385  25.831  1.00  0.00     0.020 A 
ATOM     78  C   UNL A   1      34.516  23.897  23.926  1.00  0.00     0.072 A 
ATOM     79  C   UNL A   1      35.723  23.742  24.616  1.00  0.00     0.059 A 
BRANCH  76  80
ATOM     80  N   UNL A   1      32.148  24.446  23.988  1.00  0.00    -0.153 N 
ATOM     81  C   UNL A   1      31.441  25.568  23.674  1.00  0.00     0.385 C 
ATOM     82  C   UNL A   1      31.367  23.304  23.663  1.00  0.00     0.295 C 
ATOM     83  O   UNL A   1      31.852  26.713  23.602  1.00  0.00    -0.236 OA
ATOM     84  C   UNL A   1      30.099  25.035  23.332  1.00  0.00     0.215 C 
ATOM     85  N   UNL A   1      30.159  23.638  23.250  1.00  0.00    -0.233 N 
ATOM     86  C   UNL A   1      29.031  25.851  23.206  1.00  0.00     0.060 C 
ATOM     87  H   UNL A   1      29.447  23.030  22.947  1.00  0.00     0.312 HD
BRANCH  82  88
ATOM     88  C   UNL A   1      31.922  21.750  23.925  1.00  0.00     0.065 A 
ATOM     89  C   UNL A   1      32.282  20.293  25.381  1.00  0.00     0.017 A 
ATOM     90  C   UNL A   1      31.895  21.035  22.278  1.00  0.00     0.017 A 
ATOM     91  C   UNL A   1      32.576  18.651  24.929  1.00  0.00     0.001 A 
ATOM     92  C   UNL A   1      32.183  19.351  22.088  1.00  0.00     0.001 A 
ATOM     93  C   UNL A   1      32.524  18.267  23.342  1.00  0.00     0.000 A 
ENDBRANCH  82  88
BRANCH  86  94
ATOM     94  C   UNL A   1      29.054  27.295  23.471  1.00  0.00     0.005 C 
ATOM     95  C   UNL A   1      28.385  28.273  22.837  1.00  0.00     0.008 C 
BRANCH  95  96
ATOM     96  C   UNL A   1      28.597  29.703  23.177  1.00  0.00    -0.026 A 
ATOM     97  C   UNL A   1      27.657  30.670  22.794  1.00  0.00     0.008 A 
ATOM     98  C   UNL A   1      29.760  30.139  23.837  1.00  0.00     0.008 A 
ATOM     99  C   UNL A   1      27.861  32.026  23.088  1.00  0.00     0.001 A 
ATOM    100  C   UNL A   1      29.964  31.493  24.130  1.00  0.00     0.001 A 
ATOM    101  C   UNL A   1      29.013  32.438  23.756  1.00  0.00     0.000 A 
ENDBRANCH  95  96
ENDBRANCH  86  94
ENDBRANCH  76  80
BRANCH  79 102
ATOM    102  S   UNL A   1      36.943  22.594  24.039  1.00  0.00     0.124 S 
ATOM    103  O   UNL A   1      36.996  22.688  22.599  1.00  0.00    -0.237 OA
ATOM    104  O   UNL A   1      38.122  22.766  24.858  1.00  0.00    -0.237 OA
ATOM    105  O   UNL A   1      36.365  21.130  24.392  1.00  0.00    -0.744 OA
ENDBRANCH  79 102
ENDBRANCH  72  74
ENDBRANCH  71  72
ENDBRANCH   1  71
TORSDOF 16
ENDMDL
MODEL 2
REMARK VINA RESULT:     -12.5      1.532      2.511
REMARK SMILES O=C(OCCOC(=O)c1ccc(S(=O)(=O)[O-])cc1N1C(=O)/C(=C\C=C\c2ccccc2)[NH+]=C1c1ccccc1)c1ccc(-c2c3nc(c(-c4c(F)c(F)c(F)c(F)c4F)c4ccc([nH]4)c(-c4c(F)c(F)c(F)c(F)c4F)c4nc(c(-c5c(F)c(F)c(F)c(F)c5F)c5ccc2[nH]5)C=C4)C=C3)cc1
REMARK SMILES IDX 5 1 4 2 3 3 2 4 1 5 40 6 41 7 102 8 42 9 101 10 43 11 44 12
REMARK SMILES IDX 45 13 95 14 46 15 100 16 94 17 96 18 47 19 99 20 93 21 92 22
REMARK SMILES IDX 48 24 80 25 60 26 79 27 61 28 64 29 78 30 97 31 62 32 63 33
REMARK SMILES IDX 77 35 98 36 65 37 49 38 50 39 58 40 51 41 52 42 56 43 59 44
REMARK SMILES IDX 53 45 54 46 57 47 55 48 81 49 82 50 90 51 83 52 84 53 88 54
REMARK SMILES IDX 91 55 85 56 86 57 89 58 87 59 66 60 67 61 75 62 68 63 69 64
REMARK SMILES IDX 73 65 76 66 70 67 71 68 74 69 72 70 6 71 7 72 8 73 9 74
REMARK SMILES IDX 10 75 18 76 11 77 17 78 12 79 19 80 20 81 33 82 21 83 22 84
REMARK SMILES IDX 32 85 23 86 34 88 35 89 39 90 36 91 38 92 37 93 24 94 25 95
REMARK SMILES IDX 26 96 27 97 31 98 28 99 30 100 29 101 13 102 14 103 15 104
REMARK SMILES IDX 16 105
REMARK H PARENT 96 23 64 34 32 87
REMARK Flexibility Score: inf
ROOT
ATOM      1  C   UNL A   1      31.960  28.969  26.172  1.00  0.00     0.275 C 
ENDROOT
BRANCH   1   2
ATOM      2  C   UNL A   1      32.421  30.426  26.359  1.00  0.00     0.275 C 
BRANCH   2   3
ATOM      3  O   UNL A   1      33.036  30.661  27.631  1.00  0.00    -0.458 OA
BRANCH   3   4
ATOM      4  C   UNL A   1      34.027  31.516  27.954  1.00  0.00     0.338 C 
ATOM      5  O   UNL A   1      33.718  32.675  28.232  1.00  0.00    -0.246 OA
BRANCH   4   6
ATOM      6  C   UNL A   1      35.496  31.185  27.934  1.00  0.00     0.060 A 
ATOM      7  C   UNL A   1      36.575  32.058  28.131  1.00  0.00     0.016 A 
ATOM      8  C   UNL A   1      35.791  29.819  27.813  1.00  0.00     0.016 A 
ATOM      9  C   UNL A   1      37.870  31.587  28.363  1.00  0.00     0.010 A 
ATOM     10  C   UNL A   1      37.083  29.343  28.008  1.00  0.00     0.010 A 
ATOM     11  C   UNL A   1      38.114  30.218  28.383  1.00  0.00    -0.014 A 
BRANCH  11  12
ATOM     12  C   UNL A   1      39.427  29.729  28.904  1.00  0.00     0.031 A 
ATOM     13  C   UNL A   1      39.745  30.137  30.297  1.00  0.00     0.074 A 
ATOM     14  C   UNL A   1      40.500  29.102  28.231  1.00  0.00     0.049 A 
ATOM     15  N   UNL A   1      40.716  29.733  31.060  1.00  0.00    -0.248 NA
ATOM     16  C   UNL A   1      38.914  31.205  30.879  1.00  0.00     0.031 C 
ATOM     17  C   UNL A   1      41.575  28.977  26.384  1.00  0.00     0.029 A 
ATOM     18  N   UNL A   1      40.322  27.271  28.643  1.00  0.00    -0.354 N 
ATOM     19  C   UNL A   1      40.636  30.527  32.187  1.00  0.00     0.074 A 
ATOM     20  C   UNL A   1      39.579  31.485  31.984  1.00  0.00     0.031 C 
ATOM     21  C   UNL A   1      41.823  27.334  26.010  1.00  0.00     0.029 A 
ATOM     22  C   UNL A   1      41.177  26.205  27.428  1.00  0.00     0.049 A 
ATOM     23  H   UNL A   1      39.826  26.928  29.422  1.00  0.00     0.167 HD
ATOM     24  C   UNL A   1      41.384  30.422  33.302  1.00  0.00     0.037 A 
ATOM     25  C   UNL A   1      42.042  25.178  27.806  1.00  0.00     0.037 A 
ATOM     26  C   UNL A   1      42.423  29.443  33.416  1.00  0.00     0.049 A 
ATOM     27  C   UNL A   1      42.777  25.236  29.201  1.00  0.00     0.074 A 
ATOM     28  C   UNL A   1      43.350  29.286  34.419  1.00  0.00     0.029 A 
ATOM     29  N   UNL A   1      42.653  28.437  32.469  1.00  0.00    -0.354 N 
ATOM     30  N   UNL A   1      42.685  26.095  30.206  1.00  0.00    -0.248 NA
ATOM     31  C   UNL A   1      43.911  24.306  29.355  1.00  0.00     0.031 C 
ATOM     32  C   UNL A   1      44.161  28.202  34.068  1.00  0.00     0.029 A 
ATOM     33  C   UNL A   1      43.704  27.641  32.875  1.00  0.00     0.049 A 
ATOM     34  H   UNL A   1      42.139  28.316  31.638  1.00  0.00     0.167 HD
ATOM     35  C   UNL A   1      43.776  25.853  31.058  1.00  0.00     0.074 A 
ATOM     36  C   UNL A   1      44.488  24.734  30.468  1.00  0.00     0.031 C 
ATOM     37  C   UNL A   1      44.233  26.478  32.184  1.00  0.00     0.037 A 
BRANCH  24  38
ATOM     38  C   UNL A   1      41.071  31.402  34.392  1.00  0.00     0.064 A 
ATOM     39  C   UNL A   1      41.903  32.514  34.617  1.00  0.00     0.173 A 
ATOM     40  C   UNL A   1      40.045  31.156  35.314  1.00  0.00     0.173 A 
ATOM     41  F   UNL A   1      42.933  32.761  33.794  1.00  0.00    -0.203 F 
ATOM     42  C   UNL A   1      41.755  33.304  35.753  1.00  0.00     0.198 A 
ATOM     43  C   UNL A   1      39.877  31.972  36.432  1.00  0.00     0.198 A 
ATOM     44  F   UNL A   1      39.239  30.094  35.163  1.00  0.00    -0.203 F 
ATOM     45  F   UNL A   1      42.630  34.290  35.999  1.00  0.00    -0.200 F 
ATOM     46  C   UNL A   1      40.743  33.034  36.659  1.00  0.00     0.200 A 
ATOM     47  F   UNL A   1      38.904  31.705  37.313  1.00  0.00    -0.200 F 
ATOM     48  F   UNL A   1      40.618  33.777  37.768  1.00  0.00    -0.200 F 
ENDBRANCH  24  38
BRANCH  25  49
ATOM     49  C   UNL A   1      42.710  24.335  26.748  1.00  0.00     0.064 A 
ATOM     50  C   UNL A   1      42.246  23.036  26.476  1.00  0.00     0.173 A 
ATOM     51  C   UNL A   1      43.894  24.710  26.094  1.00  0.00     0.173 A 
ATOM     52  F   UNL A   1      41.248  22.520  27.209  1.00  0.00    -0.203 F 
ATOM     53  C   UNL A   1      42.877  22.214  25.534  1.00  0.00     0.198 A 
ATOM     54  C   UNL A   1      44.458  23.941  25.077  1.00  0.00     0.198 A 
ATOM     55  F   UNL A   1      44.574  25.795  26.491  1.00  0.00    -0.203 F 
ATOM     56  F   UNL A   1      42.474  20.945  25.375  1.00  0.00    -0.200 F 
ATOM     57  C   UNL A   1      43.949  22.689  24.796  1.00  0.00     0.200 A 
ATOM     58  F   UNL A   1      45.518  24.407  24.403  1.00  0.00    -0.200 F 
ATOM     59  F   UNL A   1      44.529  21.921  23.863  1.00  0.00    -0.200 F 
ENDBRANCH  25  49
BRANCH  37  60
ATOM     60  C   UNL A   1      45.430  25.855  32.873  1.00  0.00     0.064 A 
ATOM     61  C   UNL A   1      45.307  24.832  33.824  1.00  0.00     0.173 A 
ATOM     62  C   UNL A   1      46.724  26.219  32.462  1.00  0.00     0.173 A 
ATOM     63  F   UNL A   1      44.094  24.442  34.245  1.00  0.00    -0.203 F 
ATOM     64  C   UNL A   1      46.438  24.214  34.357  1.00  0.00     0.198 A 
ATOM     65  C   UNL A   1      47.848  25.576  32.970  1.00  0.00     0.198 A 
ATOM     66  F   UNL A   1      46.890  27.166  31.526  1.00  0.00    -0.203 F 
ATOM     67  F   UNL A   1      46.304  23.263  35.292  1.00  0.00    -0.200 F 
ATOM     68  C   UNL A   1      47.705  24.580  33.924  1.00  0.00     0.200 A 
ATOM     69  F   UNL A   1      49.066  25.908  32.522  1.00  0.00    -0.200 F 
ATOM     70  F   UNL A   1      48.790  23.972  34.424  1.00  0.00    -0.200 F 
ENDBRANCH  37  60
ENDBRANCH  11  12
ENDBRANCH   4   6
ENDBRANCH   3   4
ENDBRANCH   2   3
ENDBRANCH   1   2
BRANCH   1  71
ATOM     71  O   UNL A   1      33.042  28.009  26.057  1.00  0.00    -0.458 OA
BRANCH  71  72
ATOM     72  C   UNL A   1      32.680  26.720  26.286  1.00  0.00     0.342 C 
ATOM     73  O   UNL A   1      31.680  26.375  26.902  1.00  0.00    -0.246 OA
BRANCH  72  74
ATOM     74  C   UNL A   1      33.530  25.703  25.594  1.00  0.00     0.107 A 
ATOM     75  C   UNL A   1      34.761  25.479  26.251  1.00  0.00     0.021 A 
ATOM     76  C   UNL A   1      33.237  24.959  24.412  1.00  0.00     0.152 A 
ATOM     77  C   UNL A   1      35.710  24.604  25.730  1.00  0.00     0.020 A 
ATOM     78  C   UNL A   1      34.271  24.225  23.809  1.00  0.00     0.072 A 
ATOM     79  C   UNL A   1      35.477  24.017  24.489  1.00  0.00     0.059 A 
BRANCH  76  80
ATOM     80  N   UNL A   1      31.915  24.817  23.902  1.00  0.00    -0.153 N 
ATOM     81  C   UNL A   1      31.268  25.960  23.537  1.00  0.00     0.385 C 
ATOM     82  C   UNL A   1      31.079  23.704  23.616  1.00  0.00     0.295 C 
ATOM     83  O   UNL A   1      31.739  27.078  23.422  1.00  0.00    -0.236 OA
ATOM     84  C   UNL A   1      29.904  25.483  23.205  1.00  0.00     0.215 C 
ATOM     85  N   UNL A   1      29.892  24.083  23.180  1.00  0.00    -0.233 N 
ATOM     86  C   UNL A   1      28.880  26.347  23.037  1.00  0.00     0.060 C 
ATOM     87  H   UNL A   1      29.151  23.500  22.896  1.00  0.00     0.312 HD
BRANCH  82  88
ATOM     88  C   UNL A   1      31.551  22.136  23.946  1.00  0.00     0.065 A 
ATOM     89  C   UNL A   1      32.153  20.323  23.093  1.00  0.00     0.017 A 
ATOM     90  C   UNL A   1      31.952  22.200  25.694  1.00  0.00     0.017 A 
ATOM     91  C   UNL A   1      32.870  19.088  24.066  1.00  0.00     0.001 A 
ATOM     92  C   UNL A   1      32.705  20.844  26.435  1.00  0.00     0.001 A 
ATOM     93  C   UNL A   1      33.098  19.394  25.654  1.00  0.00     0.000 A 
ENDBRANCH  82  88
BRANCH  86  94
ATOM     94  C   UNL A   1      28.976  27.797  23.244  1.00  0.00     0.005 C 
ATOM     95  C   UNL A   1      28.390  28.783  22.542  1.00  0.00     0.008 C 
BRANCH  95  96
ATOM     96  C   UNL A   1      28.670  30.212  22.832  1.00  0.00    -0.026 A 
ATOM     97  C   UNL A   1      29.441  30.571  23.946  1.00  0.00     0.008 A 
ATOM     98  C   UNL A   1      28.133  31.244  22.042  1.00  0.00     0.008 A 
ATOM     99  C   UNL A   1      29.691  31.919  24.243  1.00  0.00     0.001 A 
ATOM    100  C   UNL A   1      28.380  32.590  22.339  1.00  0.00     0.001 A 
ATOM    101  C   UNL A   1      29.161  32.928  23.441  1.00  0.00     0.000 A 
ENDBRANCH  95  96
ENDBRANCH  86  94
ENDBRANCH  76  80
BRANCH  79 102
ATOM    102  S   UNL A   1      36.673  22.871  23.860  1.00  0.00     0.124 S 
ATOM    103  O   UNL A   1      36.655  22.956  22.420  1.00  0.00    -0.237 OA
ATOM    104  O   UNL A   1      37.890  23.053  24.620  1.00  0.00    -0.237 OA
ATOM    105  O   UNL A   1      36.119  21.407  24.251  1.00  0.00    -0.744 OA
ENDBRANCH  79 102
ENDBRANCH  72  74
ENDBRANCH  71  72
ENDBRANCH   1  71
TORSDOF 16
ENDMDL
MODEL 3
REMARK VINA RESULT:     -12.3      9.791     16.090
REMARK SMILES O=C(OCCOC(=O)c1ccc(S(=O)(=O)[O-])cc1N1C(=O)/C(=C\C=C\c2ccccc2)[NH+]=C1c1ccccc1)c1ccc(-c2c3nc(c(-c4c(F)c(F)c(F)c(F)c4F)c4ccc([nH]4)c(-c4c(F)c(F)c(F)c(F)c4F)c4nc(c(-c5c(F)c(F)c(F)c(F)c5F)c5ccc2[nH]5)C=C4)C=C3)cc1
REMARK SMILES IDX 5 1 4 2 3 3 2 4 1 5 40 6 41 7 102 8 42 9 101 10 43 11 44 12
REMARK SMILES IDX 45 13 95 14 46 15 100 16 94 17 96 18 47 19 99 20 93 21 92 22
REMARK SMILES IDX 48 24 80 25 60 26 79 27 61 28 64 29 78 30 97 31 62 32 63 33
REMARK SMILES IDX 77 35 98 36 65 37 49 38 50 39 58 40 51 41 52 42 56 43 59 44
REMARK SMILES IDX 53 45 54 46 57 47 55 48 81 49 82 50 90 51 83 52 84 53 88 54
REMARK SMILES IDX 91 55 85 56 86 57 89 58 87 59 66 60 67 61 75 62 68 63 69 64
REMARK SMILES IDX 73 65 76 66 70 67 71 68 74 69 72 70 6 71 7 72 8 73 9 74
REMARK SMILES IDX 10 75 18 76 11 77 17 78 12 79 19 80 20 81 33 82 21 83 22 84
REMARK SMILES IDX 32 85 23 86 34 88 35 89 39 90 36 91 38 92 37 93 24 94 25 95
REMARK SMILES IDX 26 96 27 97 31 98 28 99 30 100 29 101 13 102 14 103 15 104
REMARK SMILES IDX 16 105
REMARK H PARENT 96 23 64 34 32 87
REMARK Flexibility Score: inf
ROOT
ATOM      1  C   UNL A   1      47.142  37.177  26.694  1.00  0.00     0.275 C 
ENDROOT
BRANCH   1   2
ATOM      2  C   UNL A   1      46.676  35.974  25.854  1.00  0.00     0.275 C 
BRANCH   2   3
ATOM      3  O   UNL A   1      46.112  34.922  26.646  1.00  0.00    -0.458 OA
BRANCH   3   4
ATOM      4  C   UNL A   1      44.923  34.301  26.518  1.00  0.00     0.338 C 
ATOM      5  O   UNL A   1      44.613  33.877  25.404  1.00  0.00    -0.246 OA
BRANCH   4   6
ATOM      6  C   UNL A   1      43.904  34.145  27.615  1.00  0.00     0.060 A 
ATOM      7  C   UNL A   1      43.690  33.030  28.437  1.00  0.00     0.016 A 
ATOM      8  C   UNL A   1      43.169  35.305  27.906  1.00  0.00     0.016 A 
ATOM      9  C   UNL A   1      42.909  33.107  29.594  1.00  0.00     0.010 A 
ATOM     10  C   UNL A   1      42.361  35.380  29.035  1.00  0.00     0.010 A 
ATOM     11  C   UNL A   1      42.305  34.310  29.942  1.00  0.00    -0.014 A 
BRANCH  11  12
ATOM     12  C   UNL A   1      41.714  34.450  31.307  1.00  0.00     0.031 A 
ATOM     13  C   UNL A   1      40.236  34.317  31.372  1.00  0.00     0.074 A 
ATOM     14  C   UNL A   1      42.306  34.873  32.520  1.00  0.00     0.049 A 
ATOM     15  N   UNL A   1      39.474  34.227  32.421  1.00  0.00    -0.248 NA
ATOM     16  C   UNL A   1      39.509  34.381  30.093  1.00  0.00     0.031 C 
ATOM     17  C   UNL A   1      43.772  36.164  33.395  1.00  0.00     0.029 A 
ATOM     18  N   UNL A   1      42.646  33.282  33.470  1.00  0.00    -0.354 N 
ATOM     19  C   UNL A   1      38.185  34.269  31.928  1.00  0.00     0.074 A 
ATOM     20  C   UNL A   1      38.259  34.469  30.503  1.00  0.00     0.031 C 
ATOM     21  C   UNL A   1      44.654  35.278  34.551  1.00  0.00     0.029 A 
ATOM     22  C   UNL A   1      43.938  33.504  34.746  1.00  0.00     0.049 A 
ATOM     23  H   UNL A   1      42.183  32.429  33.300  1.00  0.00     0.167 HD
ATOM     24  C   UNL A   1      37.047  34.121  32.632  1.00  0.00     0.037 A 
ATOM     25  C   UNL A   1      43.776  33.073  36.063  1.00  0.00     0.037 A 
ATOM     26  C   UNL A   1      37.065  33.933  34.052  1.00  0.00     0.049 A 
ATOM     27  C   UNL A   1      42.327  32.915  36.671  1.00  0.00     0.074 A 
ATOM     28  C   UNL A   1      36.006  33.893  34.928  1.00  0.00     0.029 A 
ATOM     29  N   UNL A   1      38.235  33.743  34.797  1.00  0.00    -0.354 N 
ATOM     30  N   UNL A   1      41.128  33.050  36.125  1.00  0.00    -0.248 NA
ATOM     31  C   UNL A   1      42.270  32.797  38.140  1.00  0.00     0.031 C 
ATOM     32  C   UNL A   1      36.535  33.707  36.209  1.00  0.00     0.029 A 
ATOM     33  C   UNL A   1      37.921  33.568  36.130  1.00  0.00     0.049 A 
ATOM     34  H   UNL A   1      39.147  33.734  34.425  1.00  0.00     0.167 HD
ATOM     35  C   UNL A   1      40.199  33.104  37.178  1.00  0.00     0.074 A 
ATOM     36  C   UNL A   1      40.978  32.941  38.392  1.00  0.00     0.031 C 
ATOM     37  C   UNL A   1      38.849  33.317  37.217  1.00  0.00     0.037 A 
BRANCH  24  38
ATOM     38  C   UNL A   1      35.777  34.186  31.840  1.00  0.00     0.064 A 
ATOM     39  C   UNL A   1      35.459  33.180  30.909  1.00  0.00     0.173 A 
ATOM     40  C   UNL A   1      34.953  35.319  31.884  1.00  0.00     0.173 A 
ATOM     41  F   UNL A   1      36.247  32.101  30.790  1.00  0.00    -0.203 F 
ATOM     42  C   UNL A   1      34.404  33.335  30.014  1.00  0.00     0.198 A 
ATOM     43  C   UNL A   1      33.874  35.454  31.011  1.00  0.00     0.198 A 
ATOM     44  F   UNL A   1      35.225  36.321  32.734  1.00  0.00    -0.203 F 
ATOM     45  F   UNL A   1      34.192  32.412  29.066  1.00  0.00    -0.200 F 
ATOM     46  C   UNL A   1      33.612  34.471  30.067  1.00  0.00     0.200 A 
ATOM     47  F   UNL A   1      33.114  36.556  31.054  1.00  0.00    -0.200 F 
ATOM     48  F   UNL A   1      32.614  34.633  29.187  1.00  0.00    -0.200 F 
ENDBRANCH  24  38
BRANCH  25  49
ATOM     49  C   UNL A   1      44.886  33.287  37.062  1.00  0.00     0.064 A 
ATOM     50  C   UNL A   1      44.946  34.474  37.813  1.00  0.00     0.173 A 
ATOM     51  C   UNL A   1      45.983  32.422  37.196  1.00  0.00     0.173 A 
ATOM     52  F   UNL A   1      44.052  35.448  37.591  1.00  0.00    -0.203 F 
ATOM     53  C   UNL A   1      45.991  34.720  38.712  1.00  0.00     0.198 A 
ATOM     54  C   UNL A   1      46.964  32.610  38.169  1.00  0.00     0.198 A 
ATOM     55  F   UNL A   1      46.167  31.419  36.326  1.00  0.00    -0.203 F 
ATOM     56  F   UNL A   1      46.076  35.905  39.334  1.00  0.00    -0.200 F 
ATOM     57  C   UNL A   1      46.970  33.763  38.929  1.00  0.00     0.200 A 
ATOM     58  F   UNL A   1      47.921  31.687  38.333  1.00  0.00    -0.200 F 
ATOM     59  F   UNL A   1      47.948  33.976  39.819  1.00  0.00    -0.200 F 
ENDBRANCH  25  49
BRANCH  37  60
ATOM     60  C   UNL A   1      38.183  33.225  38.575  1.00  0.00     0.064 A 
ATOM     61  C   UNL A   1      37.535  32.064  39.022  1.00  0.00     0.173 A 
ATOM     62  C   UNL A   1      38.319  34.292  39.480  1.00  0.00     0.173 A 
ATOM     63  F   UNL A   1      37.385  31.014  38.200  1.00  0.00    -0.203 F 
ATOM     64  C   UNL A   1      37.026  31.985  40.318  1.00  0.00     0.198 A 
ATOM     65  C   UNL A   1      37.841  34.195  40.783  1.00  0.00     0.198 A 
ATOM     66  F   UNL A   1      38.965  35.407  39.111  1.00  0.00    -0.203 F 
ATOM     67  F   UNL A   1      36.377  30.882  40.717  1.00  0.00    -0.200 F 
ATOM     68  C   UNL A   1      37.186  33.046  41.199  1.00  0.00     0.200 A 
ATOM     69  F   UNL A   1      38.030  35.208  41.640  1.00  0.00    -0.200 F 
ATOM     70  F   UNL A   1      36.712  32.961  42.449  1.00  0.00    -0.200 F 
ENDBRANCH  37  60
ENDBRANCH  11  12
ENDBRANCH   4   6
ENDBRANCH   3   4
ENDBRANCH   2   3
ENDBRANCH   1   2
BRANCH   1  71
ATOM     71  O   UNL A   1      46.145  38.219  26.852  1.00  0.00    -0.458 OA
BRANCH  71  72
ATOM     72  C   UNL A   1      46.225  38.905  28.021  1.00  0.00     0.342 C 
ATOM     73  O   UNL A   1      46.254  38.391  29.131  1.00  0.00    -0.246 OA
BRANCH  72  74
ATOM     74  C   UNL A   1      46.429  40.379  27.866  1.00  0.00     0.107 A 
ATOM     75  C   UNL A   1      47.794  40.741  27.826  1.00  0.00     0.021 A 
ATOM     76  C   UNL A   1      45.442  41.402  27.741  1.00  0.00     0.152 A 
ATOM     77  C   UNL A   1      48.186  42.074  27.737  1.00  0.00     0.020 A 
ATOM     78  C   UNL A   1      45.852  42.742  27.834  1.00  0.00     0.072 A 
ATOM     79  C   UNL A   1      47.212  43.068  27.787  1.00  0.00     0.059 A 
BRANCH  76  80
ATOM     80  N   UNL A   1      44.090  41.127  27.386  1.00  0.00    -0.153 N 
ATOM     81  C   UNL A   1      43.763  41.243  26.068  1.00  0.00     0.385 C 
ATOM     82  C   UNL A   1      42.948  40.685  28.107  1.00  0.00     0.295 C 
ATOM     83  O   UNL A   1      44.519  41.380  25.122  1.00  0.00    -0.236 OA
ATOM     84  C   UNL A   1      42.293  41.044  26.069  1.00  0.00     0.215 C 
ATOM     85  N   UNL A   1      41.882  40.608  27.334  1.00  0.00    -0.233 N 
ATOM     86  C   UNL A   1      41.546  41.333  24.982  1.00  0.00     0.060 C 
ATOM     87  H   UNL A   1      40.981  40.306  27.594  1.00  0.00     0.312 HD
BRANCH  82  88
ATOM     88  C   UNL A   1      42.985  40.441  29.759  1.00  0.00     0.065 A 
ATOM     89  C   UNL A   1      43.802  39.274  31.291  1.00  0.00     0.017 A 
ATOM     90  C   UNL A   1      42.279  41.961  30.402  1.00  0.00     0.017 A 
ATOM     91  C   UNL A   1      43.686  39.780  32.940  1.00  0.00     0.001 A 
ATOM     92  C   UNL A   1      42.318  42.257  32.094  1.00  0.00     0.001 A 
ATOM     93  C   UNL A   1      42.959  41.208  33.258  1.00  0.00     0.000 A 
ENDBRANCH  82  88
BRANCH  86  94
ATOM     94  C   UNL A   1      42.070  41.939  23.751  1.00  0.00     0.005 C 
ATOM     95  C   UNL A   1      41.472  42.822  22.933  1.00  0.00     0.008 C 
BRANCH  95  96
ATOM     96  C   UNL A   1      42.116  43.266  21.670  1.00  0.00    -0.026 A 
ATOM     97  C   UNL A   1      41.393  43.269  20.469  1.00  0.00     0.008 A 
ATOM     98  C   UNL A   1      43.471  43.641  21.625  1.00  0.00     0.008 A 
ATOM     99  C   UNL A   1      41.999  43.662  19.267  1.00  0.00     0.001 A 
ATOM    100  C   UNL A   1      44.077  44.032  20.425  1.00  0.00     0.001 A 
ATOM    101  C   UNL A   1      43.340  44.044  19.244  1.00  0.00     0.000 A 
ENDBRANCH  95  96
ENDBRANCH  86  94
ENDBRANCH  76  80
BRANCH  79 102
ATOM    102  S   UNL A   1      47.722  44.757  27.627  1.00  0.00     0.124 S 
ATOM    103  O   UNL A   1      48.755  45.004  28.605  1.00  0.00    -0.237 OA
ATOM    104  O   UNL A   1      47.926  45.018  26.219  1.00  0.00    -0.237 OA
ATOM    105  O   UNL A   1      46.444  45.641  28.062  1.00  0.00    -0.744 OA
ENDBRANCH  79 102
ENDBRANCH  72  74
ENDBRANCH  71  72
ENDBRANCH   1  71
TORSDOF 16
ENDMDL
