MODEL 1
REMARK VINA RESULT:     -13.2      0.000      0.000
REMARK SMILES N#CCCn1cc(/C=C/c2cc(C(=O)OCCOC(=O)c3ccc(-c4c5nc(c(-c6c(F)c(F)c(F)c(F)c6F)c6ccc([nH]6)c(-c6c(F)c(F)c(F)c(F)c6F)c6nc(c(-c7c(F)c(F)c(F)c(F)c7F)c7ccc4[nH]7)C=C6)C=C5)cc3)c3ccccc3n2)c(-c2ccccc2)n1
REMARK SMILES IDX 15 1 13 2 14 3 12 4 10 5 11 6 90 7 89 8 84 9 88 10 85 11
REMARK SMILES IDX 87 12 86 13 9 14 8 15 7 16 5 17 6 18 98 19 91 20 4 21 3 22
REMARK SMILES IDX 2 23 1 24 92 25 93 26 97 27 94 28 96 29 95 30 16 31 17 32
REMARK SMILES IDX 18 33 19 34 20 35 21 36 22 37 83 38 23 39 82 40 24 41 25 42
REMARK SMILES IDX 26 43 76 44 27 45 81 46 75 47 77 48 28 49 80 50 74 51 73 52
REMARK SMILES IDX 29 54 61 55 41 56 60 57 42 58 45 59 59 60 78 61 43 62 44 63
REMARK SMILES IDX 58 65 79 66 46 67 30 68 31 69 39 70 32 71 33 72 37 73 40 74
REMARK SMILES IDX 34 75 35 76 38 77 36 78 62 79 63 80 71 81 64 82 65 83 69 84
REMARK SMILES IDX 72 85 66 86 67 87 70 88 68 89 47 90 48 91 56 92 49 93 50 94
REMARK SMILES IDX 54 95 57 96 51 97 52 98 55 99 53 100
REMARK H PARENT 77 53 45 64
REMARK Flexibility Score: inf
ROOT
ATOM      1  O   UNL A   1      36.974  23.756  24.817  1.00  0.00    -0.458 OA
ENDROOT
BRANCH   1   2
ATOM      2  C   UNL A   1      36.218  23.273  23.808  1.00  0.00     0.339 C 
ATOM      3  O   UNL A   1      36.652  22.950  22.707  1.00  0.00    -0.246 OA
BRANCH   2   4
ATOM      4  C   UNL A   1      34.783  23.084  24.188  1.00  0.00     0.071 A 
ATOM      5  C   UNL A   1      32.699  24.225  24.568  1.00  0.00     0.065 A 
ATOM      6  C   UNL A   1      34.023  24.267  24.176  1.00  0.00     0.044 A 
ATOM      7  N   UNL A   1      32.110  23.085  24.973  1.00  0.00    -0.248 NA
ATOM      8  C   UNL A   1      32.809  21.941  24.950  1.00  0.00     0.072 A 
ATOM      9  C   UNL A   1      34.162  21.850  24.548  1.00  0.00     0.015 A 
ATOM     10  C   UNL A   1      32.134  20.795  25.349  1.00  0.00     0.029 A 
ATOM     11  C   UNL A   1      34.750  20.553  24.545  1.00  0.00     0.011 A 
ATOM     12  C   UNL A   1      32.732  19.536  25.342  1.00  0.00     0.002 A 
ATOM     13  C   UNL A   1      34.043  19.412  24.926  1.00  0.00     0.001 A 
BRANCH   5  14
ATOM     14  C   UNL A   1      31.862  25.433  24.511  1.00  0.00     0.029 C 
ATOM     15  C   UNL A   1      32.031  26.438  23.629  1.00  0.00     0.014 C 
BRANCH  15  16
ATOM     16  C   UNL A   1      31.270  27.650  23.595  1.00  0.00     0.021 A 
ATOM     17  N   UNL A   1      29.753  29.125  23.026  1.00  0.00    -0.270 N 
ATOM     18  C   UNL A   1      30.241  27.891  22.709  1.00  0.00     0.117 A 
ATOM     19  N   UNL A   1      30.425  29.724  24.020  1.00  0.00    -0.172 NA
ATOM     20  C   UNL A   1      31.379  28.844  24.370  1.00  0.00     0.100 A 
BRANCH  17  21
ATOM     21  C   UNL A   1      28.666  29.853  22.395  1.00  0.00     0.159 C 
BRANCH  21  22
ATOM     22  C   UNL A   1      27.893  30.802  23.301  1.00  0.00     0.144 C 
BRANCH  22  23
ATOM     23  C   UNL A   1      28.173  32.250  22.933  1.00  0.00     0.064 C 
ATOM     24  N   UNL A   1      28.404  33.451  22.628  1.00  0.00    -0.198 NA
ENDBRANCH  22  23
ENDBRANCH  21  22
ENDBRANCH  17  21
BRANCH  20  25
ATOM     25  C   UNL A   1      32.358  29.194  25.395  1.00  0.00     0.003 A 
ATOM     26  C   UNL A   1      33.543  28.457  25.528  1.00  0.00     0.010 A 
ATOM     27  C   UNL A   1      32.122  30.274  26.254  1.00  0.00     0.010 A 
ATOM     28  C   UNL A   1      34.472  28.789  26.518  1.00  0.00     0.001 A 
ATOM     29  C   UNL A   1      33.050  30.602  27.245  1.00  0.00     0.001 A 
ATOM     30  C   UNL A   1      34.225  29.860  27.376  1.00  0.00     0.000 A 
ENDBRANCH  20  25
ENDBRANCH  15  16
ENDBRANCH   5  14
ENDBRANCH   2   4
ENDBRANCH   1   2
BRANCH   1  31
ATOM     31  C   UNL A   1      37.185  22.907  25.961  1.00  0.00     0.275 C 
BRANCH  31  32
ATOM     32  C   UNL A   1      38.437  22.060  25.777  1.00  0.00     0.275 C 
BRANCH  32  33
ATOM     33  O   UNL A   1      39.387  22.314  26.812  1.00  0.00    -0.458 OA
BRANCH  33  34
ATOM     34  C   UNL A   1      40.661  22.468  26.392  1.00  0.00     0.338 C 
ATOM     35  O   UNL A   1      41.423  21.602  25.994  1.00  0.00    -0.246 OA
BRANCH  34  36
ATOM     36  C   UNL A   1      41.104  23.837  26.672  1.00  0.00     0.060 A 
ATOM     37  C   UNL A   1      42.033  24.004  27.703  1.00  0.00     0.016 A 
ATOM     38  C   UNL A   1      40.412  24.924  26.117  1.00  0.00     0.016 A 
ATOM     39  C   UNL A   1      42.150  25.244  28.293  1.00  0.00     0.010 A 
ATOM     40  C   UNL A   1      40.531  26.162  26.707  1.00  0.00     0.010 A 
ATOM     41  C   UNL A   1      41.346  26.289  27.831  1.00  0.00    -0.014 A 
BRANCH  41  42
ATOM     42  C   UNL A   1      41.407  27.549  28.548  1.00  0.00     0.031 A 
ATOM     43  C   UNL A   1      42.588  28.387  28.231  1.00  0.00     0.074 A 
ATOM     44  C   UNL A   1      40.387  27.952  29.331  1.00  0.00     0.049 A 
ATOM     45  N   UNL A   1      43.438  28.922  29.046  1.00  0.00    -0.248 NA
ATOM     46  C   UNL A   1      42.909  28.587  26.808  1.00  0.00     0.031 C 
ATOM     47  C   UNL A   1      39.066  27.329  29.461  1.00  0.00     0.029 A 
ATOM     48  N   UNL A   1      40.275  29.082  30.081  1.00  0.00    -0.354 N 
ATOM     49  C   UNL A   1      44.302  29.667  28.248  1.00  0.00     0.074 A 
ATOM     50  C   UNL A   1      44.014  29.326  26.881  1.00  0.00     0.031 C 
ATOM     51  C   UNL A   1      38.223  28.202  30.055  1.00  0.00     0.029 A 
ATOM     52  C   UNL A   1      38.972  29.386  30.443  1.00  0.00     0.049 A 
ATOM     53  H   UNL A   1      41.048  29.634  30.342  1.00  0.00     0.167 HD
ATOM     54  C   UNL A   1      45.033  30.692  28.758  1.00  0.00     0.037 A 
ATOM     55  C   UNL A   1      38.527  30.568  30.929  1.00  0.00     0.037 A 
ATOM     56  C   UNL A   1      45.222  30.559  30.175  1.00  0.00     0.049 A 
ATOM     57  C   UNL A   1      39.700  31.326  31.429  1.00  0.00     0.074 A 
ATOM     58  C   UNL A   1      45.837  29.632  30.990  1.00  0.00     0.029 A 
ATOM     59  N   UNL A   1      44.457  31.339  31.003  1.00  0.00    -0.354 N 
ATOM     60  N   UNL A   1      40.397  31.003  32.481  1.00  0.00    -0.248 NA
ATOM     61  C   UNL A   1      40.339  32.271  30.526  1.00  0.00     0.031 C 
ATOM     62  C   UNL A   1      45.075  29.623  32.195  1.00  0.00     0.029 A 
ATOM     63  C   UNL A   1      44.050  30.559  32.054  1.00  0.00     0.049 A 
ATOM     64  H   UNL A   1      44.239  32.289  30.868  1.00  0.00     0.167 HD
ATOM     65  C   UNL A   1      41.699  31.363  32.165  1.00  0.00     0.074 A 
ATOM     66  C   UNL A   1      41.579  32.254  31.019  1.00  0.00     0.031 C 
ATOM     67  C   UNL A   1      42.759  30.681  32.688  1.00  0.00     0.037 A 
BRANCH  54  68
ATOM     68  C   UNL A   1      45.244  31.994  28.025  1.00  0.00     0.064 A 
ATOM     69  C   UNL A   1      46.556  32.454  27.799  1.00  0.00     0.173 A 
ATOM     70  C   UNL A   1      44.219  32.944  27.814  1.00  0.00     0.173 A 
ATOM     71  F   UNL A   1      47.606  31.645  28.000  1.00  0.00    -0.203 F 
ATOM     72  C   UNL A   1      46.820  33.783  27.459  1.00  0.00     0.198 A 
ATOM     73  C   UNL A   1      44.485  34.253  27.421  1.00  0.00     0.198 A 
ATOM     74  F   UNL A   1      42.936  32.681  28.090  1.00  0.00    -0.203 F 
ATOM     75  F   UNL A   1      48.089  34.209  27.380  1.00  0.00    -0.200 F 
ATOM     76  C   UNL A   1      45.786  34.682  27.274  1.00  0.00     0.200 A 
ATOM     77  F   UNL A   1      43.468  35.114  27.269  1.00  0.00    -0.200 F 
ATOM     78  F   UNL A   1      46.041  35.970  27.012  1.00  0.00    -0.200 F 
ENDBRANCH  54  68
BRANCH  55  79
ATOM     79  C   UNL A   1      37.208  31.201  30.701  1.00  0.00     0.064 A 
ATOM     80  C   UNL A   1      36.363  31.521  31.775  1.00  0.00     0.173 A 
ATOM     81  C   UNL A   1      36.857  31.739  29.446  1.00  0.00     0.173 A 
ATOM     82  F   UNL A   1      36.653  31.092  33.012  1.00  0.00    -0.203 F 
ATOM     83  C   UNL A   1      35.245  32.344  31.606  1.00  0.00     0.198 A 
ATOM     84  C   UNL A   1      35.734  32.546  29.276  1.00  0.00     0.198 A 
ATOM     85  F   UNL A   1      37.649  31.569  28.377  1.00  0.00    -0.203 F 
ATOM     86  F   UNL A   1      34.496  32.679  32.666  1.00  0.00    -0.200 F 
ATOM     87  C   UNL A   1      34.934  32.860  30.358  1.00  0.00     0.200 A 
ATOM     88  F   UNL A   1      35.467  33.065  28.069  1.00  0.00    -0.200 F 
ATOM     89  F   UNL A   1      33.895  33.691  30.205  1.00  0.00    -0.200 F 
ENDBRANCH  55  79
BRANCH  67  90
ATOM     90  C   UNL A   1      42.490  29.784  33.862  1.00  0.00     0.064 A 
ATOM     91  C   UNL A   1      41.988  28.477  33.749  1.00  0.00     0.173 A 
ATOM     92  C   UNL A   1      42.869  30.225  35.136  1.00  0.00     0.173 A 
ATOM     93  F   UNL A   1      41.703  27.949  32.551  1.00  0.00    -0.203 F 
ATOM     94  C   UNL A   1      41.820  27.671  34.873  1.00  0.00     0.198 A 
ATOM     95  C   UNL A   1      42.738  29.404  36.251  1.00  0.00     0.198 A 
ATOM     96  F   UNL A   1      43.411  31.444  35.293  1.00  0.00    -0.203 F 
ATOM     97  F   UNL A   1      41.318  26.434  34.745  1.00  0.00    -0.200 F 
ATOM     98  C   UNL A   1      42.200  28.133  36.122  1.00  0.00     0.200 A 
ATOM     99  F   UNL A   1      43.154  29.836  37.451  1.00  0.00    -0.200 F 
ATOM    100  F   UNL A   1      42.075  27.344  37.199  1.00  0.00    -0.200 F 
ENDBRANCH  67  90
ENDBRANCH  41  42
ENDBRANCH  34  36
ENDBRANCH  33  34
ENDBRANCH  32  33
ENDBRANCH  31  32
ENDBRANCH   1  31
TORSDOF 17
ENDMDL
MODEL 2
REMARK VINA RESULT:     -13.1      3.253      9.130
REMARK SMILES N#CCCn1cc(/C=C/c2cc(C(=O)OCCOC(=O)c3ccc(-c4c5nc(c(-c6c(F)c(F)c(F)c(F)c6F)c6ccc([nH]6)c(-c6c(F)c(F)c(F)c(F)c6F)c6nc(c(-c7c(F)c(F)c(F)c(F)c7F)c7ccc4[nH]7)C=C6)C=C5)cc3)c3ccccc3n2)c(-c2ccccc2)n1
REMARK SMILES IDX 15 1 13 2 14 3 12 4 10 5 11 6 90 7 89 8 84 9 88 10 85 11
REMARK SMILES IDX 87 12 86 13 9 14 8 15 7 16 5 17 6 18 98 19 91 20 4 21 3 22
REMARK SMILES IDX 2 23 1 24 92 25 93 26 97 27 94 28 96 29 95 30 16 31 17 32
REMARK SMILES IDX 18 33 19 34 20 35 21 36 22 37 83 38 23 39 82 40 24 41 25 42
REMARK SMILES IDX 26 43 76 44 27 45 81 46 75 47 77 48 28 49 80 50 74 51 73 52
REMARK SMILES IDX 29 54 61 55 41 56 60 57 42 58 45 59 59 60 78 61 43 62 44 63
REMARK SMILES IDX 58 65 79 66 46 67 30 68 31 69 39 70 32 71 33 72 37 73 40 74
REMARK SMILES IDX 34 75 35 76 38 77 36 78 62 79 63 80 71 81 64 82 65 83 69 84
REMARK SMILES IDX 72 85 66 86 67 87 70 88 68 89 47 90 48 91 56 92 49 93 50 94
REMARK SMILES IDX 54 95 57 96 51 97 52 98 55 99 53 100
REMARK H PARENT 77 53 45 64
REMARK Flexibility Score: inf
ROOT
ATOM      1  O   UNL A   1      33.426  29.147  25.359  1.00  0.00    -0.458 OA
ENDROOT
BRANCH   1   2
ATOM      2  C   UNL A   1      33.109  28.715  24.120  1.00  0.00     0.339 C 
ATOM      3  O   UNL A   1      33.668  29.083  23.092  1.00  0.00    -0.246 OA
BRANCH   2   4
ATOM      4  C   UNL A   1      32.047  27.660  24.120  1.00  0.00     0.071 A 
ATOM      5  C   UNL A   1      31.640  25.303  24.381  1.00  0.00     0.065 A 
ATOM      6  C   UNL A   1      32.519  26.369  24.413  1.00  0.00     0.044 A 
ATOM      7  N   UNL A   1      30.340  25.459  24.068  1.00  0.00    -0.248 NA
ATOM      8  C   UNL A   1      29.866  26.690  23.827  1.00  0.00     0.072 A 
ATOM      9  C   UNL A   1      30.660  27.861  23.852  1.00  0.00     0.015 A 
ATOM     10  C   UNL A   1      28.511  26.787  23.543  1.00  0.00     0.029 A 
ATOM     11  C   UNL A   1      29.995  29.098  23.611  1.00  0.00     0.011 A 
ATOM     12  C   UNL A   1      27.883  28.008  23.305  1.00  0.00     0.002 A 
ATOM     13  C   UNL A   1      28.627  29.171  23.351  1.00  0.00     0.001 A 
BRANCH   5  14
ATOM     14  C   UNL A   1      32.090  23.950  24.740  1.00  0.00     0.029 C 
ATOM     15  C   UNL A   1      32.716  23.105  23.899  1.00  0.00     0.014 C 
BRANCH  15  16
ATOM     16  C   UNL A   1      33.106  21.762  24.207  1.00  0.00     0.021 A 
ATOM     17  N   UNL A   1      33.024  19.584  24.432  1.00  0.00    -0.270 N 
ATOM     18  C   UNL A   1      32.273  20.670  24.087  1.00  0.00     0.117 A 
ATOM     19  N   UNL A   1      34.269  19.900  24.817  1.00  0.00    -0.172 NA
ATOM     20  C   UNL A   1      34.335  21.237  24.710  1.00  0.00     0.100 A 
BRANCH  17  21
ATOM     21  C   UNL A   1      32.623  18.189  24.479  1.00  0.00     0.159 C 
BRANCH  21  22
ATOM     22  C   UNL A   1      33.453  17.235  23.631  1.00  0.00     0.144 C 
BRANCH  22  23
ATOM     23  C   UNL A   1      34.227  16.264  24.508  1.00  0.00     0.064 C 
ATOM     24  N   UNL A   1      34.869  15.458  25.235  1.00  0.00    -0.198 NA
ENDBRANCH  22  23
ENDBRANCH  21  22
ENDBRANCH  17  21
BRANCH  20  25
ATOM     25  C   UNL A   1      35.544  21.947  25.118  1.00  0.00     0.003 A 
ATOM     26  C   UNL A   1      35.456  23.136  25.856  1.00  0.00     0.010 A 
ATOM     27  C   UNL A   1      36.804  21.444  24.775  1.00  0.00     0.010 A 
ATOM     28  C   UNL A   1      36.616  23.817  26.235  1.00  0.00     0.001 A 
ATOM     29  C   UNL A   1      37.962  22.129  25.152  1.00  0.00     0.001 A 
ATOM     30  C   UNL A   1      37.868  23.314  25.881  1.00  0.00     0.000 A 
ENDBRANCH  20  25
ENDBRANCH  15  16
ENDBRANCH   5  14
ENDBRANCH   2   4
ENDBRANCH   1   2
BRANCH   1  31
ATOM     31  C   UNL A   1      32.520  30.067  26.000  1.00  0.00     0.275 C 
BRANCH  31  32
ATOM     32  C   UNL A   1      33.200  30.759  27.173  1.00  0.00     0.275 C 
BRANCH  32  33
ATOM     33  O   UNL A   1      34.601  30.485  27.190  1.00  0.00    -0.458 OA
BRANCH  33  34
ATOM     34  C   UNL A   1      35.361  31.436  27.776  1.00  0.00     0.338 C 
ATOM     35  O   UNL A   1      35.285  32.645  27.627  1.00  0.00    -0.246 OA
BRANCH  34  36
ATOM     36  C   UNL A   1      36.469  30.801  28.494  1.00  0.00     0.060 A 
ATOM     37  C   UNL A   1      37.518  31.630  28.903  1.00  0.00     0.016 A 
ATOM     38  C   UNL A   1      36.584  29.403  28.507  1.00  0.00     0.016 A 
ATOM     39  C   UNL A   1      38.744  31.061  29.173  1.00  0.00     0.010 A 
ATOM     40  C   UNL A   1      37.808  28.836  28.777  1.00  0.00     0.010 A 
ATOM     41  C   UNL A   1      38.890  29.678  29.038  1.00  0.00    -0.014 A 
BRANCH  41  42
ATOM     42  C   UNL A   1      40.219  29.124  29.214  1.00  0.00     0.031 A 
ATOM     43  C   UNL A   1      40.657  28.998  30.625  1.00  0.00     0.074 A 
ATOM     44  C   UNL A   1      40.917  28.649  28.165  1.00  0.00     0.049 A 
ATOM     45  N   UNL A   1      41.748  29.426  31.171  1.00  0.00    -0.248 NA
ATOM     46  C   UNL A   1      39.711  28.381  31.570  1.00  0.00     0.031 C 
ATOM     47  C   UNL A   1      40.441  28.463  26.790  1.00  0.00     0.029 A 
ATOM     48  N   UNL A   1      42.168  28.112  28.137  1.00  0.00    -0.354 N 
ATOM     49  C   UNL A   1      41.705  28.982  32.490  1.00  0.00     0.074 A 
ATOM     50  C   UNL A   1      40.383  28.462  32.717  1.00  0.00     0.031 C 
ATOM     51  C   UNL A   1      41.302  27.657  26.130  1.00  0.00     0.029 A 
ATOM     52  C   UNL A   1      42.433  27.371  26.996  1.00  0.00     0.049 A 
ATOM     53  H   UNL A   1      42.824  28.239  28.861  1.00  0.00     0.167 HD
ATOM     54  C   UNL A   1      42.834  28.857  33.234  1.00  0.00     0.037 A 
ATOM     55  C   UNL A   1      43.457  26.503  26.821  1.00  0.00     0.037 A 
ATOM     56  C   UNL A   1      43.894  29.691  32.741  1.00  0.00     0.049 A 
ATOM     57  C   UNL A   1      44.486  26.798  27.848  1.00  0.00     0.074 A 
ATOM     58  C   UNL A   1      44.069  31.051  32.589  1.00  0.00     0.029 A 
ATOM     59  N   UNL A   1      44.893  29.099  32.014  1.00  0.00    -0.354 N 
ATOM     60  N   UNL A   1      45.223  27.872  27.871  1.00  0.00    -0.248 NA
ATOM     61  C   UNL A   1      44.445  26.046  29.093  1.00  0.00     0.031 C 
ATOM     62  C   UNL A   1      44.890  31.199  31.434  1.00  0.00     0.029 A 
ATOM     63  C   UNL A   1      45.185  29.921  30.957  1.00  0.00     0.049 A 
ATOM     64  H   UNL A   1      45.326  28.237  32.215  1.00  0.00     0.167 HD
ATOM     65  C   UNL A   1      45.393  28.154  29.218  1.00  0.00     0.074 A 
ATOM     66  C   UNL A   1      45.012  26.933  29.913  1.00  0.00     0.031 C 
ATOM     67  C   UNL A   1      45.556  29.440  29.647  1.00  0.00     0.037 A 
BRANCH  54  68
ATOM     68  C   UNL A   1      43.075  27.699  34.171  1.00  0.00     0.064 A 
ATOM     69  C   UNL A   1      43.413  26.440  33.639  1.00  0.00     0.173 A 
ATOM     70  C   UNL A   1      42.688  27.704  35.531  1.00  0.00     0.173 A 
ATOM     71  F   UNL A   1      43.766  26.316  32.351  1.00  0.00    -0.203 F 
ATOM     72  C   UNL A   1      43.303  25.269  34.394  1.00  0.00     0.198 A 
ATOM     73  C   UNL A   1      42.632  26.540  36.294  1.00  0.00     0.198 A 
ATOM     74  F   UNL A   1      42.239  28.808  36.140  1.00  0.00    -0.203 F 
ATOM     75  F   UNL A   1      43.511  24.081  33.810  1.00  0.00    -0.200 F 
ATOM     76  C   UNL A   1      42.908  25.319  35.718  1.00  0.00     0.200 A 
ATOM     77  F   UNL A   1      42.226  26.609  37.570  1.00  0.00    -0.200 F 
ATOM     78  F   UNL A   1      42.740  24.193  36.422  1.00  0.00    -0.200 F 
ENDBRANCH  54  68
BRANCH  55  79
ATOM     79  C   UNL A   1      43.456  25.250  26.032  1.00  0.00     0.064 A 
ATOM     80  C   UNL A   1      44.494  24.959  25.134  1.00  0.00     0.173 A 
ATOM     81  C   UNL A   1      42.569  24.195  26.329  1.00  0.00     0.173 A 
ATOM     82  F   UNL A   1      45.410  25.892  24.837  1.00  0.00    -0.203 F 
ATOM     83  C   UNL A   1      44.646  23.683  24.582  1.00  0.00     0.198 A 
ATOM     84  C   UNL A   1      42.713  22.929  25.765  1.00  0.00     0.198 A 
ATOM     85  F   UNL A   1      41.601  24.345  27.245  1.00  0.00    -0.203 F 
ATOM     86  F   UNL A   1      45.686  23.424  23.777  1.00  0.00    -0.200 F 
ATOM     87  C   UNL A   1      43.759  22.668  24.902  1.00  0.00     0.200 A 
ATOM     88  F   UNL A   1      41.867  21.948  26.112  1.00  0.00    -0.200 F 
ATOM     89  F   UNL A   1      43.935  21.433  24.414  1.00  0.00    -0.200 F 
ENDBRANCH  55  79
BRANCH  67  90
ATOM     90  C   UNL A   1      45.895  30.474  28.613  1.00  0.00     0.064 A 
ATOM     91  C   UNL A   1      44.937  31.146  27.835  1.00  0.00     0.173 A 
ATOM     92  C   UNL A   1      47.229  30.883  28.495  1.00  0.00     0.173 A 
ATOM     93  F   UNL A   1      43.631  30.882  27.970  1.00  0.00    -0.203 F 
ATOM     94  C   UNL A   1      45.311  32.142  26.936  1.00  0.00     0.198 A 
ATOM     95  C   UNL A   1      47.595  31.907  27.626  1.00  0.00     0.198 A 
ATOM     96  F   UNL A   1      48.177  30.318  29.259  1.00  0.00    -0.203 F 
ATOM     97  F   UNL A   1      44.382  32.754  26.186  1.00  0.00    -0.200 F 
ATOM     98  C   UNL A   1      46.638  32.525  26.836  1.00  0.00     0.200 A 
ATOM     99  F   UNL A   1      48.872  32.310  27.569  1.00  0.00    -0.200 F 
ATOM    100  F   UNL A   1      46.993  33.511  25.999  1.00  0.00    -0.200 F 
ENDBRANCH  67  90
ENDBRANCH  41  42
ENDBRANCH  34  36
ENDBRANCH  33  34
ENDBRANCH  32  33
ENDBRANCH  31  32
ENDBRANCH   1  31
TORSDOF 17
ENDMDL
MODEL 3
REMARK VINA RESULT:     -13.0      3.387      9.215
REMARK SMILES N#CCCn1cc(/C=C/c2cc(C(=O)OCCOC(=O)c3ccc(-c4c5nc(c(-c6c(F)c(F)c(F)c(F)c6F)c6ccc([nH]6)c(-c6c(F)c(F)c(F)c(F)c6F)c6nc(c(-c7c(F)c(F)c(F)c(F)c7F)c7ccc4[nH]7)C=C6)C=C5)cc3)c3ccccc3n2)c(-c2ccccc2)n1
REMARK SMILES IDX 15 1 13 2 14 3 12 4 10 5 11 6 90 7 89 8 84 9 88 10 85 11
REMARK SMILES IDX 87 12 86 13 9 14 8 15 7 16 5 17 6 18 98 19 91 20 4 21 3 22
REMARK SMILES IDX 2 23 1 24 92 25 93 26 97 27 94 28 96 29 95 30 16 31 17 32
REMARK SMILES IDX 18 33 19 34 20 35 21 36 22 37 83 38 23 39 82 40 24 41 25 42
REMARK SMILES IDX 26 43 76 44 27 45 81 46 75 47 77 48 28 49 80 50 74 51 73 52
REMARK SMILES IDX 29 54 61 55 41 56 60 57 42 58 45 59 59 60 78 61 43 62 44 63
REMARK SMILES IDX 58 65 79 66 46 67 30 68 31 69 39 70 32 71 33 72 37 73 40 74
REMARK SMILES IDX 34 75 35 76 38 77 36 78 62 79 63 80 71 81 64 82 65 83 69 84
REMARK SMILES IDX 72 85 66 86 67 87 70 88 68 89 47 90 48 91 56 92 49 93 50 94
REMARK SMILES IDX 54 95 57 96 51 97 52 98 55 99 53 100
REMARK H PARENT 77 53 45 64
REMARK Flexibility Score: inf
ROOT
ATOM      1  O   UNL A   1      33.791  29.028  25.693  1.00  0.00    -0.458 OA
ENDROOT
BRANCH   1   2
ATOM      2  C   UNL A   1      33.589  28.600  24.429  1.00  0.00     0.339 C 
ATOM      3  O   UNL A   1      34.247  28.964  23.459  1.00  0.00    -0.246 OA
BRANCH   2   4
ATOM      4  C   UNL A   1      32.522  27.556  24.325  1.00  0.00     0.071 A 
ATOM      5  C   UNL A   1      32.078  25.197  24.495  1.00  0.00     0.065 A 
ATOM      6  C   UNL A   1      32.961  26.253  24.617  1.00  0.00     0.044 A 
ATOM      7  N   UNL A   1      30.805  25.374  24.095  1.00  0.00    -0.248 NA
ATOM      8  C   UNL A   1      30.359  26.616  23.854  1.00  0.00     0.072 A 
ATOM      9  C   UNL A   1      31.158  27.777  23.965  1.00  0.00     0.015 A 
ATOM     10  C   UNL A   1      29.029  26.733  23.477  1.00  0.00     0.029 A 
ATOM     11  C   UNL A   1      30.523  29.027  23.710  1.00  0.00     0.011 A 
ATOM     12  C   UNL A   1      28.429  27.967  23.227  1.00  0.00     0.002 A 
ATOM     13  C   UNL A   1      29.177  29.120  23.357  1.00  0.00     0.001 A 
BRANCH   5  14
ATOM     14  C   UNL A   1      32.490  23.831  24.849  1.00  0.00     0.029 C 
ATOM     15  C   UNL A   1      33.043  22.953  23.990  1.00  0.00     0.014 C 
BRANCH  15  16
ATOM     16  C   UNL A   1      33.394  21.600  24.296  1.00  0.00     0.021 A 
ATOM     17  N   UNL A   1      33.244  19.426  24.528  1.00  0.00    -0.270 N 
ATOM     18  C   UNL A   1      32.524  20.534  24.191  1.00  0.00     0.117 A 
ATOM     19  N   UNL A   1      34.505  19.701  24.894  1.00  0.00    -0.172 NA
ATOM     20  C   UNL A   1      34.612  21.036  24.782  1.00  0.00     0.100 A 
BRANCH  17  21
ATOM     21  C   UNL A   1      32.799  18.044  24.584  1.00  0.00     0.159 C 
BRANCH  21  22
ATOM     22  C   UNL A   1      33.570  17.066  23.708  1.00  0.00     0.144 C 
BRANCH  22  23
ATOM     23  C   UNL A   1      34.454  16.163  24.553  1.00  0.00     0.064 C 
ATOM     24  N   UNL A   1      35.188  15.414  25.253  1.00  0.00    -0.198 NA
ENDBRANCH  22  23
ENDBRANCH  21  22
ENDBRANCH  17  21
BRANCH  20  25
ATOM     25  C   UNL A   1      35.850  21.707  25.171  1.00  0.00     0.003 A 
ATOM     26  C   UNL A   1      37.089  21.076  24.990  1.00  0.00     0.010 A 
ATOM     27  C   UNL A   1      35.809  22.991  25.726  1.00  0.00     0.010 A 
ATOM     28  C   UNL A   1      38.269  21.718  25.373  1.00  0.00     0.001 A 
ATOM     29  C   UNL A   1      36.990  23.630  26.112  1.00  0.00     0.001 A 
ATOM     30  C   UNL A   1      38.219  22.994  25.934  1.00  0.00     0.000 A 
ENDBRANCH  20  25
ENDBRANCH  15  16
ENDBRANCH   5  14
ENDBRANCH   2   4
ENDBRANCH   1   2
BRANCH   1  31
ATOM     31  C   UNL A   1      32.922  30.059  26.199  1.00  0.00     0.275 C 
BRANCH  31  32
ATOM     32  C   UNL A   1      33.601  30.830  27.322  1.00  0.00     0.275 C 
BRANCH  32  33
ATOM     33  O   UNL A   1      35.004  30.567  27.351  1.00  0.00    -0.458 OA
BRANCH  33  34
ATOM     34  C   UNL A   1      35.738  31.460  28.051  1.00  0.00     0.338 C 
ATOM     35  O   UNL A   1      35.711  32.676  27.961  1.00  0.00    -0.246 OA
BRANCH  34  36
ATOM     36  C   UNL A   1      36.759  30.751  28.826  1.00  0.00     0.060 A 
ATOM     37  C   UNL A   1      37.925  31.458  29.135  1.00  0.00     0.016 A 
ATOM     38  C   UNL A   1      36.672  29.361  28.991  1.00  0.00     0.016 A 
ATOM     39  C   UNL A   1      39.062  30.749  29.457  1.00  0.00     0.010 A 
ATOM     40  C   UNL A   1      37.809  28.655  29.313  1.00  0.00     0.010 A 
ATOM     41  C   UNL A   1      39.005  29.353  29.474  1.00  0.00    -0.014 A 
BRANCH  41  42
ATOM     42  C   UNL A   1      40.244  28.634  29.700  1.00  0.00     0.031 A 
ATOM     43  C   UNL A   1      40.669  28.562  31.119  1.00  0.00     0.074 A 
ATOM     44  C   UNL A   1      40.863  27.984  28.695  1.00  0.00     0.049 A 
ATOM     45  N   UNL A   1      41.813  28.874  31.634  1.00  0.00    -0.248 NA
ATOM     46  C   UNL A   1      39.652  28.161  32.106  1.00  0.00     0.031 C 
ATOM     47  C   UNL A   1      40.356  27.757  27.338  1.00  0.00     0.029 A 
ATOM     48  N   UNL A   1      42.025  27.277  28.717  1.00  0.00    -0.354 N 
ATOM     49  C   UNL A   1      41.716  28.548  32.984  1.00  0.00     0.074 A 
ATOM     50  C   UNL A   1      40.337  28.238  33.245  1.00  0.00     0.031 C 
ATOM     51  C   UNL A   1      41.091  26.788  26.749  1.00  0.00     0.029 A 
ATOM     52  C   UNL A   1      42.177  26.417  27.641  1.00  0.00     0.049 A 
ATOM     53  H   UNL A   1      42.698  27.367  29.432  1.00  0.00     0.167 HD
ATOM     54  C   UNL A   1      42.821  28.326  33.742  1.00  0.00     0.037 A 
ATOM     55  C   UNL A   1      43.068  25.403  27.541  1.00  0.00     0.037 A 
ATOM     56  C   UNL A   1      43.985  28.961  33.189  1.00  0.00     0.049 A 
ATOM     57  C   UNL A   1      44.134  25.631  28.546  1.00  0.00     0.074 A 
ATOM     58  C   UNL A   1      44.348  30.266  32.929  1.00  0.00     0.029 A 
ATOM     59  N   UNL A   1      44.887  28.178  32.516  1.00  0.00    -0.354 N 
ATOM     60  N   UNL A   1      45.015  26.590  28.486  1.00  0.00    -0.248 NA
ATOM     61  C   UNL A   1      43.996  24.994  29.847  1.00  0.00     0.031 C 
ATOM     62  C   UNL A   1      45.175  30.205  31.769  1.00  0.00     0.029 A 
ATOM     63  C   UNL A   1      45.284  28.864  31.398  1.00  0.00     0.049 A 
ATOM     64  H   UNL A   1      45.196  27.284  32.788  1.00  0.00     0.167 HD
ATOM     65  C   UNL A   1      45.232  26.952  29.807  1.00  0.00     0.074 A 
ATOM     66  C   UNL A   1      44.688  25.856  30.596  1.00  0.00     0.031 C 
ATOM     67  C   UNL A   1      45.576  28.232  30.133  1.00  0.00     0.037 A 
BRANCH  54  68
ATOM     68  C   UNL A   1      42.904  27.224  34.769  1.00  0.00     0.064 A 
ATOM     69  C   UNL A   1      43.106  27.555  36.122  1.00  0.00     0.173 A 
ATOM     70  C   UNL A   1      43.101  25.864  34.437  1.00  0.00     0.173 A 
ATOM     71  F   UNL A   1      42.977  28.824  36.540  1.00  0.00    -0.203 F 
ATOM     72  C   UNL A   1      43.541  26.610  37.054  1.00  0.00     0.198 A 
ATOM     73  C   UNL A   1      43.481  24.914  35.382  1.00  0.00     0.198 A 
ATOM     74  F   UNL A   1      43.048  25.423  33.175  1.00  0.00    -0.203 F 
ATOM     75  F   UNL A   1      43.845  26.996  38.301  1.00  0.00    -0.200 F 
ATOM     76  C   UNL A   1      43.733  25.291  36.683  1.00  0.00     0.200 A 
ATOM     77  F   UNL A   1      43.683  23.646  34.996  1.00  0.00    -0.200 F 
ATOM     78  F   UNL A   1      44.211  24.399  37.559  1.00  0.00    -0.200 F 
ENDBRANCH  54  68
BRANCH  55  79
ATOM     79  C   UNL A   1      42.886  24.103  26.855  1.00  0.00     0.064 A 
ATOM     80  C   UNL A   1      43.839  23.627  25.941  1.00  0.00     0.173 A 
ATOM     81  C   UNL A   1      41.903  23.183  27.272  1.00  0.00     0.173 A 
ATOM     82  F   UNL A   1      44.837  24.424  25.532  1.00  0.00    -0.203 F 
ATOM     83  C   UNL A   1      43.818  22.305  25.485  1.00  0.00     0.198 A 
ATOM     84  C   UNL A   1      41.875  21.870  26.805  1.00  0.00     0.198 A 
ATOM     85  F   UNL A   1      41.005  23.511  28.212  1.00  0.00    -0.203 F 
ATOM     86  F   UNL A   1      44.781  21.869  24.661  1.00  0.00    -0.200 F 
ATOM     87  C   UNL A   1      42.840  21.427  25.922  1.00  0.00     0.200 A 
ATOM     88  F   UNL A   1      40.943  21.022  27.264  1.00  0.00    -0.200 F 
ATOM     89  F   UNL A   1      42.852  20.146  25.527  1.00  0.00    -0.200 F 
ENDBRANCH  55  79
BRANCH  67  90
ATOM     90  C   UNL A   1      46.050  29.123  29.021  1.00  0.00     0.064 A 
ATOM     91  C   UNL A   1      45.194  29.897  28.220  1.00  0.00     0.173 A 
ATOM     92  C   UNL A   1      47.430  29.286  28.843  1.00  0.00     0.173 A 
ATOM     93  F   UNL A   1      43.868  29.873  28.404  1.00  0.00    -0.203 F 
ATOM     94  C   UNL A   1      45.701  30.754  27.245  1.00  0.00     0.198 A 
ATOM     95  C   UNL A   1      47.934  30.172  27.896  1.00  0.00     0.198 A 
ATOM     96  F   UNL A   1      48.293  28.616  29.622  1.00  0.00    -0.203 F 
ATOM     97  F   UNL A   1      44.865  31.467  26.476  1.00  0.00    -0.200 F 
ATOM     98  C   UNL A   1      47.070  30.894  27.087  1.00  0.00     0.200 A 
ATOM     99  F   UNL A   1      49.258  30.343  27.780  1.00  0.00    -0.200 F 
ATOM    100  F   UNL A   1      47.558  31.747  26.175  1.00  0.00    -0.200 F 
ENDBRANCH  67  90
ENDBRANCH  41  42
ENDBRANCH  34  36
ENDBRANCH  33  34
ENDBRANCH  32  33
ENDBRANCH  31  32
ENDBRANCH   1  31
TORSDOF 17
ENDMDL
