MODEL 1
REMARK VINA RESULT:     -10.6      0.000      0.000
REMARK SMILES CC[C@@](C)(NC(=O)N(C)[C@@H](C)C(C)C)C(=O)OCCOC(=O)c1ccc(-c2c3nc(c(-c4c(F)c(F)c(F)c(F)c4F)c4ccc([nH]4)c(-c4c(F)c(F)c(F)c(F)c4F)c4nc(c(-c5c(F)c(F)c(F)c(F)c5F)c5ccc2[nH]5)C=C4)C=C3)cc1
REMARK SMILES IDX 18 1 17 2 15 3 16 4 3 5 4 6 2 7 1 8 5 9 6 10 7 12 8 13 9 14
REMARK SMILES IDX 10 15 11 16 12 17 13 18 14 19 19 20 20 21 21 22 22 23 23 24
REMARK SMILES IDX 24 25 85 26 25 27 84 28 26 29 27 30 28 31 78 32 29 33 83 34
REMARK SMILES IDX 77 35 79 36 30 37 82 38 76 39 75 40 31 42 63 43 43 44 62 45
REMARK SMILES IDX 44 46 47 47 61 48 80 49 45 50 46 51 60 53 81 54 48 55 32 56
REMARK SMILES IDX 33 57 41 58 34 59 35 60 39 61 42 62 36 63 37 64 40 65 38 66
REMARK SMILES IDX 64 67 65 68 73 69 66 70 67 71 71 72 74 73 68 74 69 75 72 76
REMARK SMILES IDX 70 77 49 78 50 79 58 80 51 81 52 82 56 83 59 84 53 85 54 86
REMARK SMILES IDX 57 87 55 88
REMARK H PARENT 5 11 79 41 47 52
REMARK Flexibility Score: inf
ROOT
ATOM      1  C   UNL A   1      31.769  28.941  27.185  1.00  0.00     0.274 C 
ENDROOT
BRANCH   1   2
ATOM      2  O   UNL A   1      32.179  28.100  26.079  1.00  0.00    -0.460 OA
BRANCH   2   3
ATOM      3  C   UNL A   1      31.300  27.183  25.610  1.00  0.00     0.331 C 
ATOM      4  O   UNL A   1      30.888  26.270  26.318  1.00  0.00    -0.249 OA
BRANCH   3   5
ATOM      5  C   UNL A   1      31.047  27.274  24.057  1.00  0.00     0.136 C 
ATOM      6  C   UNL A   1      29.763  26.482  23.747  1.00  0.00     0.047 C 
BRANCH   5   7
ATOM      7  C   UNL A   1      30.726  28.785  23.662  1.00  0.00     0.037 C 
ATOM      8  C   UNL A   1      29.855  29.095  22.449  1.00  0.00     0.007 C 
ENDBRANCH   5   7
BRANCH   5   9
ATOM      9  N   UNL A   1      32.161  26.906  23.087  1.00  0.00    -0.322 N 
ATOM     10  C   UNL A   1      33.041  25.998  22.640  1.00  0.00     0.318 C 
ATOM     11  H   UNL A   1      32.298  27.705  22.529  1.00  0.00     0.166 HD
ATOM     12  O   UNL A   1      33.649  26.375  21.629  1.00  0.00    -0.249 OA
BRANCH  10  13
ATOM     13  N   UNL A   1      33.331  24.814  23.233  1.00  0.00    -0.325 N 
ATOM     14  C   UNL A   1      32.656  23.574  22.908  1.00  0.00     0.149 C 
BRANCH  13  15
ATOM     15  C   UNL A   1      34.578  24.633  24.041  1.00  0.00     0.086 C 
ATOM     16  C   UNL A   1      34.372  25.196  25.462  1.00  0.00     0.031 C 
BRANCH  15  17
ATOM     17  C   UNL A   1      35.247  23.210  24.156  1.00  0.00     0.005 C 
ATOM     18  C   UNL A   1      36.467  22.962  23.274  1.00  0.00     0.009 C 
ATOM     19  C   UNL A   1      35.703  22.938  25.606  1.00  0.00     0.009 C 
ENDBRANCH  15  17
ENDBRANCH  13  15
ENDBRANCH  10  13
ENDBRANCH   5   9
ENDBRANCH   3   5
ENDBRANCH   2   3
ENDBRANCH   1   2
BRANCH   1  20
ATOM     20  C   UNL A   1      31.855  30.428  26.817  1.00  0.00     0.275 C 
BRANCH  20  21
ATOM     21  O   UNL A   1      33.189  30.794  26.407  1.00  0.00    -0.458 OA
BRANCH  21  22
ATOM     22  C   UNL A   1      33.765  31.677  27.249  1.00  0.00     0.338 C 
ATOM     23  O   UNL A   1      33.295  32.753  27.581  1.00  0.00    -0.246 OA
BRANCH  22  24
ATOM     24  C   UNL A   1      34.920  31.116  27.946  1.00  0.00     0.060 A 
ATOM     25  C   UNL A   1      35.920  32.027  28.281  1.00  0.00     0.016 A 
ATOM     26  C   UNL A   1      35.090  29.758  28.189  1.00  0.00     0.016 A 
ATOM     27  C   UNL A   1      37.081  31.609  28.905  1.00  0.00     0.010 A 
ATOM     28  C   UNL A   1      36.258  29.328  28.834  1.00  0.00     0.010 A 
ATOM     29  C   UNL A   1      37.245  30.257  29.217  1.00  0.00    -0.014 A 
BRANCH  29  30
ATOM     30  C   UNL A   1      38.424  29.869  30.019  1.00  0.00     0.031 A 
ATOM     31  C   UNL A   1      39.486  28.982  29.451  1.00  0.00     0.074 A 
ATOM     32  C   UNL A   1      38.565  30.411  31.244  1.00  0.00     0.049 A 
ATOM     33  N   UNL A   1      40.557  28.505  30.031  1.00  0.00    -0.248 NA
ATOM     34  C   UNL A   1      39.332  28.587  28.044  1.00  0.00     0.031 C 
ATOM     35  C   UNL A   1      37.626  31.353  31.858  1.00  0.00     0.029 A 
ATOM     36  N   UNL A   1      39.557  30.273  32.180  1.00  0.00    -0.354 N 
ATOM     37  C   UNL A   1      41.199  27.739  29.069  1.00  0.00     0.074 A 
ATOM     38  C   UNL A   1      40.395  27.812  27.866  1.00  0.00     0.031 C 
ATOM     39  C   UNL A   1      38.095  31.723  33.058  1.00  0.00     0.029 A 
ATOM     40  C   UNL A   1      39.332  30.998  33.325  1.00  0.00     0.049 A 
ATOM     41  H   UNL A   1      40.353  29.710  32.045  1.00  0.00     0.167 HD
ATOM     42  C   UNL A   1      42.350  27.036  29.192  1.00  0.00     0.037 A 
ATOM     43  C   UNL A   1      40.029  31.044  34.474  1.00  0.00     0.037 A 
ATOM     44  C   UNL A   1      43.137  26.975  30.397  1.00  0.00     0.049 A 
ATOM     45  C   UNL A   1      41.273  30.212  34.597  1.00  0.00     0.074 A 
ATOM     46  C   UNL A   1      44.286  26.244  30.647  1.00  0.00     0.029 A 
ATOM     47  N   UNL A   1      42.858  27.684  31.559  1.00  0.00    -0.354 N 
ATOM     48  N   UNL A   1      41.833  29.427  33.708  1.00  0.00    -0.248 NA
ATOM     49  C   UNL A   1      41.976  30.260  35.885  1.00  0.00     0.031 C 
ATOM     50  C   UNL A   1      44.685  26.489  31.967  1.00  0.00     0.029 A 
ATOM     51  C   UNL A   1      43.807  27.403  32.527  1.00  0.00     0.049 A 
ATOM     52  H   UNL A   1      42.096  28.297  31.675  1.00  0.00     0.167 HD
ATOM     53  C   UNL A   1      42.949  28.886  34.327  1.00  0.00     0.074 A 
ATOM     54  C   UNL A   1      43.009  29.463  35.655  1.00  0.00     0.031 C 
ATOM     55  C   UNL A   1      43.837  27.982  33.846  1.00  0.00     0.037 A 
BRANCH  42  56
ATOM     56  C   UNL A   1      42.804  26.242  28.004  1.00  0.00     0.064 A 
ATOM     57  C   UNL A   1      42.391  24.918  27.799  1.00  0.00     0.173 A 
ATOM     58  C   UNL A   1      43.638  26.828  27.039  1.00  0.00     0.173 A 
ATOM     59  F   UNL A   1      41.606  24.310  28.700  1.00  0.00    -0.203 F 
ATOM     60  C   UNL A   1      42.811  24.203  26.680  1.00  0.00     0.198 A 
ATOM     61  C   UNL A   1      44.038  26.118  25.910  1.00  0.00     0.198 A 
ATOM     62  F   UNL A   1      44.060  28.093  27.187  1.00  0.00    -0.203 F 
ATOM     63  F   UNL A   1      42.433  22.928  26.520  1.00  0.00    -0.200 F 
ATOM     64  C   UNL A   1      43.628  24.805  25.734  1.00  0.00     0.200 A 
ATOM     65  F   UNL A   1      44.820  26.704  24.994  1.00  0.00    -0.200 F 
ATOM     66  F   UNL A   1      44.027  24.117  24.655  1.00  0.00    -0.200 F 
ENDBRANCH  42  56
BRANCH  43  67
ATOM     67  C   UNL A   1      39.534  31.865  35.609  1.00  0.00     0.064 A 
ATOM     68  C   UNL A   1      38.575  31.372  36.502  1.00  0.00     0.173 A 
ATOM     69  C   UNL A   1      40.012  33.168  35.820  1.00  0.00     0.173 A 
ATOM     70  F   UNL A   1      38.069  30.141  36.329  1.00  0.00    -0.203 F 
ATOM     71  C   UNL A   1      38.102  32.153  37.554  1.00  0.00     0.198 A 
ATOM     72  C   UNL A   1      39.562  33.937  36.890  1.00  0.00     0.198 A 
ATOM     73  F   UNL A   1      40.930  33.689  34.992  1.00  0.00    -0.203 F 
ATOM     74  F   UNL A   1      37.150  31.675  38.367  1.00  0.00    -0.200 F 
ATOM     75  C   UNL A   1      38.602  33.433  37.752  1.00  0.00     0.200 A 
ATOM     76  F   UNL A   1      40.060  35.166  37.084  1.00  0.00    -0.200 F 
ATOM     77  F   UNL A   1      38.150  34.181  38.767  1.00  0.00    -0.200 F 
ENDBRANCH  43  67
BRANCH  55  78
ATOM     78  C   UNL A   1      44.942  27.572  34.773  1.00  0.00     0.064 A 
ATOM     79  C   UNL A   1      44.807  26.465  35.625  1.00  0.00     0.173 A 
ATOM     80  C   UNL A   1      46.144  28.294  34.812  1.00  0.00     0.173 A 
ATOM     81  F   UNL A   1      43.668  25.757  35.635  1.00  0.00    -0.203 F 
ATOM     82  C   UNL A   1      45.826  26.115  36.506  1.00  0.00     0.198 A 
ATOM     83  C   UNL A   1      47.170  27.924  35.678  1.00  0.00     0.198 A 
ATOM     84  F   UNL A   1      46.321  29.358  34.016  1.00  0.00    -0.203 F 
ATOM     85  F   UNL A   1      45.654  25.088  37.351  1.00  0.00    -0.200 F 
ATOM     86  C   UNL A   1      47.006  26.842  36.530  1.00  0.00     0.200 A 
ATOM     87  F   UNL A   1      48.314  28.623  35.695  1.00  0.00    -0.200 F 
ATOM     88  F   UNL A   1      47.983  26.507  37.384  1.00  0.00    -0.200 F 
ENDBRANCH  55  78
ENDBRANCH  29  30
ENDBRANCH  22  24
ENDBRANCH  21  22
ENDBRANCH  20  21
ENDBRANCH   1  20
TORSDOF 16
ENDMDL
MODEL 2
REMARK VINA RESULT:     -10.5      0.979      2.986
REMARK SMILES CC[C@@](C)(NC(=O)N(C)[C@@H](C)C(C)C)C(=O)OCCOC(=O)c1ccc(-c2c3nc(c(-c4c(F)c(F)c(F)c(F)c4F)c4ccc([nH]4)c(-c4c(F)c(F)c(F)c(F)c4F)c4nc(c(-c5c(F)c(F)c(F)c(F)c5F)c5ccc2[nH]5)C=C4)C=C3)cc1
REMARK SMILES IDX 18 1 17 2 15 3 16 4 3 5 4 6 2 7 1 8 5 9 6 10 7 12 8 13 9 14
REMARK SMILES IDX 10 15 11 16 12 17 13 18 14 19 19 20 20 21 21 22 22 23 23 24
REMARK SMILES IDX 24 25 85 26 25 27 84 28 26 29 27 30 28 31 78 32 29 33 83 34
REMARK SMILES IDX 77 35 79 36 30 37 82 38 76 39 75 40 31 42 63 43 43 44 62 45
REMARK SMILES IDX 44 46 47 47 61 48 80 49 45 50 46 51 60 53 81 54 48 55 32 56
REMARK SMILES IDX 33 57 41 58 34 59 35 60 39 61 42 62 36 63 37 64 40 65 38 66
REMARK SMILES IDX 64 67 65 68 73 69 66 70 67 71 71 72 74 73 68 74 69 75 72 76
REMARK SMILES IDX 70 77 49 78 50 79 58 80 51 81 52 82 56 83 59 84 53 85 54 86
REMARK SMILES IDX 57 87 55 88
REMARK H PARENT 5 11 79 41 47 52
REMARK Flexibility Score: inf
ROOT
ATOM      1  C   UNL A   1      31.770  28.276  27.003  1.00  0.00     0.274 C 
ENDROOT
BRANCH   1   2
ATOM      2  O   UNL A   1      32.288  27.115  26.310  1.00  0.00    -0.460 OA
BRANCH   2   3
ATOM      3  C   UNL A   1      31.456  26.067  26.100  1.00  0.00     0.331 C 
ATOM      4  O   UNL A   1      30.295  26.082  26.499  1.00  0.00    -0.249 OA
BRANCH   3   5
ATOM      5  C   UNL A   1      32.168  24.789  25.516  1.00  0.00     0.136 C 
ATOM      6  C   UNL A   1      32.865  24.068  26.685  1.00  0.00     0.047 C 
BRANCH   5   7
ATOM      7  C   UNL A   1      31.066  23.771  24.978  1.00  0.00     0.037 C 
ATOM      8  C   UNL A   1      30.639  22.578  25.829  1.00  0.00     0.007 C 
ENDBRANCH   5   7
BRANCH   5   9
ATOM      9  N   UNL A   1      33.105  24.925  24.324  1.00  0.00    -0.322 N 
ATOM     10  C   UNL A   1      33.375  25.479  23.133  1.00  0.00     0.318 C 
ATOM     11  H   UNL A   1      33.865  24.329  24.517  1.00  0.00     0.166 HD
ATOM     12  O   UNL A   1      34.501  25.185  22.710  1.00  0.00    -0.249 OA
BRANCH  10  13
ATOM     13  N   UNL A   1      32.520  26.225  22.392  1.00  0.00    -0.325 N 
ATOM     14  C   UNL A   1      31.919  25.760  21.158  1.00  0.00     0.149 C 
BRANCH  13  15
ATOM     15  C   UNL A   1      31.886  27.463  22.947  1.00  0.00     0.086 C 
ATOM     16  C   UNL A   1      32.820  28.672  22.739  1.00  0.00     0.031 C 
BRANCH  15  17
ATOM     17  C   UNL A   1      30.428  27.871  22.505  1.00  0.00     0.005 C 
ATOM     18  C   UNL A   1      29.293  27.420  23.418  1.00  0.00     0.009 C 
ATOM     19  C   UNL A   1      30.304  29.406  22.392  1.00  0.00     0.009 C 
ENDBRANCH  15  17
ENDBRANCH  13  15
ENDBRANCH  10  13
ENDBRANCH   5   9
ENDBRANCH   3   5
ENDBRANCH   2   3
ENDBRANCH   1   2
BRANCH   1  20
ATOM     20  C   UNL A   1      31.845  29.531  26.124  1.00  0.00     0.275 C 
BRANCH  20  21
ATOM     21  O   UNL A   1      33.196  30.028  26.028  1.00  0.00    -0.458 OA
BRANCH  21  22
ATOM     22  C   UNL A   1      33.419  31.083  26.839  1.00  0.00     0.338 C 
ATOM     23  O   UNL A   1      32.626  31.982  27.069  1.00  0.00    -0.246 OA
BRANCH  22  24
ATOM     24  C   UNL A   1      34.634  30.931  27.636  1.00  0.00     0.060 A 
ATOM     25  C   UNL A   1      34.773  29.710  28.293  1.00  0.00     0.016 A 
ATOM     26  C   UNL A   1      35.562  31.948  27.829  1.00  0.00     0.016 A 
ATOM     27  C   UNL A   1      35.860  29.464  29.111  1.00  0.00     0.010 A 
ATOM     28  C   UNL A   1      36.674  31.701  28.646  1.00  0.00     0.010 A 
ATOM     29  C   UNL A   1      36.838  30.448  29.269  1.00  0.00    -0.014 A 
BRANCH  29  30
ATOM     30  C   UNL A   1      38.059  30.097  30.024  1.00  0.00     0.031 A 
ATOM     31  C   UNL A   1      39.132  29.256  29.408  1.00  0.00     0.074 A 
ATOM     32  C   UNL A   1      38.225  30.634  31.249  1.00  0.00     0.049 A 
ATOM     33  N   UNL A   1      40.240  28.814  29.945  1.00  0.00    -0.248 NA
ATOM     34  C   UNL A   1      38.941  28.868  28.005  1.00  0.00     0.031 C 
ATOM     35  C   UNL A   1      37.274  31.534  31.905  1.00  0.00     0.029 A 
ATOM     36  N   UNL A   1      39.254  30.524  32.147  1.00  0.00    -0.354 N 
ATOM     37  C   UNL A   1      40.874  28.082  28.953  1.00  0.00     0.074 A 
ATOM     38  C   UNL A   1      40.026  28.135  27.780  1.00  0.00     0.031 C 
ATOM     39  C   UNL A   1      37.773  31.911  33.091  1.00  0.00     0.029 A 
ATOM     40  C   UNL A   1      39.044  31.230  33.306  1.00  0.00     0.049 A 
ATOM     41  H   UNL A   1      40.065  29.993  31.977  1.00  0.00     0.167 HD
ATOM     42  C   UNL A   1      42.055  27.421  29.026  1.00  0.00     0.037 A 
ATOM     43  C   UNL A   1      39.780  31.292  34.430  1.00  0.00     0.037 A 
ATOM     44  C   UNL A   1      42.887  27.379  30.202  1.00  0.00     0.049 A 
ATOM     45  C   UNL A   1      41.058  30.506  34.499  1.00  0.00     0.074 A 
ATOM     46  C   UNL A   1      44.071  26.689  30.403  1.00  0.00     0.029 A 
ATOM     47  N   UNL A   1      42.624  28.066  31.380  1.00  0.00    -0.354 N 
ATOM     48  N   UNL A   1      41.614  29.751  33.583  1.00  0.00    -0.248 NA
ATOM     49  C   UNL A   1      41.805  30.569  35.761  1.00  0.00     0.031 C 
ATOM     50  C   UNL A   1      44.508  26.937  31.710  1.00  0.00     0.029 A 
ATOM     51  C   UNL A   1      43.618  27.813  32.311  1.00  0.00     0.049 A 
ATOM     52  H   UNL A   1      41.845  28.649  31.530  1.00  0.00     0.167 HD
ATOM     53  C   UNL A   1      42.771  29.246  34.155  1.00  0.00     0.074 A 
ATOM     54  C   UNL A   1      42.858  29.814  35.486  1.00  0.00     0.031 C 
ATOM     55  C   UNL A   1      43.674  28.381  33.634  1.00  0.00     0.037 A 
BRANCH  42  56
ATOM     56  C   UNL A   1      42.494  26.656  27.815  1.00  0.00     0.064 A 
ATOM     57  C   UNL A   1      43.380  27.203  26.876  1.00  0.00     0.173 A 
ATOM     58  C   UNL A   1      42.046  25.341  27.609  1.00  0.00     0.173 A 
ATOM     59  F   UNL A   1      43.823  28.460  27.021  1.00  0.00    -0.203 F 
ATOM     60  C   UNL A   1      43.788  26.468  25.765  1.00  0.00     0.198 A 
ATOM     61  C   UNL A   1      42.474  24.602  26.510  1.00  0.00     0.198 A 
ATOM     62  F   UNL A   1      41.199  24.771  28.478  1.00  0.00    -0.203 F 
ATOM     63  F   UNL A   1      44.608  27.021  24.862  1.00  0.00    -0.200 F 
ATOM     64  C   UNL A   1      43.340  25.167  25.586  1.00  0.00     0.200 A 
ATOM     65  F   UNL A   1      42.047  23.343  26.343  1.00  0.00    -0.200 F 
ATOM     66  F   UNL A   1      43.739  24.460  24.520  1.00  0.00    -0.200 F 
ENDBRANCH  42  56
BRANCH  43  67
ATOM     67  C   UNL A   1      39.297  32.084  35.591  1.00  0.00     0.064 A 
ATOM     68  C   UNL A   1      39.670  33.422  35.766  1.00  0.00     0.173 A 
ATOM     69  C   UNL A   1      38.451  31.511  36.553  1.00  0.00     0.173 A 
ATOM     70  F   UNL A   1      40.496  34.008  34.887  1.00  0.00    -0.203 F 
ATOM     71  C   UNL A   1      39.228  34.154  36.866  1.00  0.00     0.198 A 
ATOM     72  C   UNL A   1      37.983  32.252  37.635  1.00  0.00     0.198 A 
ATOM     73  F   UNL A   1      38.065  30.232  36.432  1.00  0.00    -0.203 F 
ATOM     74  F   UNL A   1      39.636  35.419  37.036  1.00  0.00    -0.200 F 
ATOM     75  C   UNL A   1      38.378  33.571  37.796  1.00  0.00     0.200 A 
ATOM     76  F   UNL A   1      37.152  31.687  38.521  1.00  0.00    -0.200 F 
ATOM     77  F   UNL A   1      37.950  34.277  38.850  1.00  0.00    -0.200 F 
ENDBRANCH  43  67
BRANCH  55  78
ATOM     78  C   UNL A   1      44.827  28.004  34.516  1.00  0.00     0.064 A 
ATOM     79  C   UNL A   1      46.033  28.720  34.486  1.00  0.00     0.173 A 
ATOM     80  C   UNL A   1      44.726  26.915  35.394  1.00  0.00     0.173 A 
ATOM     81  F   UNL A   1      46.182  29.756  33.648  1.00  0.00    -0.203 F 
ATOM     82  C   UNL A   1      47.108  28.340  35.284  1.00  0.00     0.198 A 
ATOM     83  C   UNL A   1      45.796  26.554  36.208  1.00  0.00     0.198 A 
ATOM     84  F   UNL A   1      43.592  26.201  35.459  1.00  0.00    -0.203 F 
ATOM     85  F   UNL A   1      48.270  29.004  35.199  1.00  0.00    -0.200 F 
ATOM     86  C   UNL A   1      46.988  27.260  36.146  1.00  0.00     0.200 A 
ATOM     87  F   UNL A   1      45.677  25.515  37.046  1.00  0.00    -0.200 F 
ATOM     88  F   UNL A   1      48.027  26.892  36.907  1.00  0.00    -0.200 F 
ENDBRANCH  55  78
ENDBRANCH  29  30
ENDBRANCH  22  24
ENDBRANCH  21  22
ENDBRANCH  20  21
ENDBRANCH   1  20
TORSDOF 16
ENDMDL
MODEL 3
REMARK VINA RESULT:     -10.4      1.145      2.129
REMARK SMILES CC[C@@](C)(NC(=O)N(C)[C@@H](C)C(C)C)C(=O)OCCOC(=O)c1ccc(-c2c3nc(c(-c4c(F)c(F)c(F)c(F)c4F)c4ccc([nH]4)c(-c4c(F)c(F)c(F)c(F)c4F)c4nc(c(-c5c(F)c(F)c(F)c(F)c5F)c5ccc2[nH]5)C=C4)C=C3)cc1
REMARK SMILES IDX 18 1 17 2 15 3 16 4 3 5 4 6 2 7 1 8 5 9 6 10 7 12 8 13 9 14
REMARK SMILES IDX 10 15 11 16 12 17 13 18 14 19 19 20 20 21 21 22 22 23 23 24
REMARK SMILES IDX 24 25 85 26 25 27 84 28 26 29 27 30 28 31 78 32 29 33 83 34
REMARK SMILES IDX 77 35 79 36 30 37 82 38 76 39 75 40 31 42 63 43 43 44 62 45
REMARK SMILES IDX 44 46 47 47 61 48 80 49 45 50 46 51 60 53 81 54 48 55 32 56
REMARK SMILES IDX 33 57 41 58 34 59 35 60 39 61 42 62 36 63 37 64 40 65 38 66
REMARK SMILES IDX 64 67 65 68 73 69 66 70 67 71 71 72 74 73 68 74 69 75 72 76
REMARK SMILES IDX 70 77 49 78 50 79 58 80 51 81 52 82 56 83 59 84 53 85 54 86
REMARK SMILES IDX 57 87 55 88
REMARK H PARENT 5 11 79 41 47 52
REMARK Flexibility Score: inf
ROOT
ATOM      1  C   UNL A   1      31.426  29.103  25.012  1.00  0.00     0.274 C 
ENDROOT
BRANCH   1   2
ATOM      2  O   UNL A   1      32.210  27.987  25.498  1.00  0.00    -0.460 OA
BRANCH   2   3
ATOM      3  C   UNL A   1      31.579  27.016  26.200  1.00  0.00     0.331 C 
ATOM      4  O   UNL A   1      31.030  27.255  27.272  1.00  0.00    -0.249 OA
BRANCH   3   5
ATOM      5  C   UNL A   1      31.808  25.564  25.634  1.00  0.00     0.136 C 
ATOM      6  C   UNL A   1      30.734  25.307  24.561  1.00  0.00     0.047 C 
BRANCH   5   7
ATOM      7  C   UNL A   1      33.204  25.509  24.867  1.00  0.00     0.037 C 
ATOM      8  C   UNL A   1      33.245  25.316  23.354  1.00  0.00     0.007 C 
ENDBRANCH   5   7
BRANCH   5   9
ATOM      9  N   UNL A   1      31.910  24.386  26.594  1.00  0.00    -0.322 N 
ATOM     10  C   UNL A   1      32.245  23.105  26.809  1.00  0.00     0.318 C 
ATOM     11  H   UNL A   1      31.574  24.720  27.457  1.00  0.00     0.166 HD
ATOM     12  O   UNL A   1      32.152  22.777  27.999  1.00  0.00    -0.249 OA
BRANCH  10  13
ATOM     13  N   UNL A   1      32.582  22.202  25.856  1.00  0.00    -0.325 N 
ATOM     14  C   UNL A   1      31.797  21.975  24.659  1.00  0.00     0.149 C 
BRANCH  13  15
ATOM     15  C   UNL A   1      33.949  21.594  25.809  1.00  0.00     0.086 C 
ATOM     16  C   UNL A   1      33.886  20.207  25.139  1.00  0.00     0.031 C 
BRANCH  15  17
ATOM     17  C   UNL A   1      35.153  22.399  25.186  1.00  0.00     0.005 C 
ATOM     18  C   UNL A   1      35.894  23.345  26.127  1.00  0.00     0.009 C 
ATOM     19  C   UNL A   1      36.218  21.435  24.622  1.00  0.00     0.009 C 
ENDBRANCH  15  17
ENDBRANCH  13  15
ENDBRANCH  10  13
ENDBRANCH   5   9
ENDBRANCH   3   5
ENDBRANCH   2   3
ENDBRANCH   1   2
BRANCH   1  20
ATOM     20  C   UNL A   1      31.779  30.399  25.753  1.00  0.00     0.275 C 
BRANCH  20  21
ATOM     21  O   UNL A   1      33.167  30.420  26.146  1.00  0.00    -0.458 OA
BRANCH  21  22
ATOM     22  C   UNL A   1      33.459  31.460  26.955  1.00  0.00     0.338 C 
ATOM     23  O   UNL A   1      32.730  32.413  27.179  1.00  0.00    -0.246 OA
BRANCH  22  24
ATOM     24  C   UNL A   1      34.656  31.226  27.759  1.00  0.00     0.060 A 
ATOM     25  C   UNL A   1      34.735  29.976  28.369  1.00  0.00     0.016 A 
ATOM     26  C   UNL A   1      35.624  32.194  28.001  1.00  0.00     0.016 A 
ATOM     27  C   UNL A   1      35.801  29.652  29.189  1.00  0.00     0.010 A 
ATOM     28  C   UNL A   1      36.715  31.868  28.819  1.00  0.00     0.010 A 
ATOM     29  C   UNL A   1      36.818  30.587  29.395  1.00  0.00    -0.014 A 
BRANCH  29  30
ATOM     30  C   UNL A   1      38.014  30.156  30.149  1.00  0.00     0.031 A 
ATOM     31  C   UNL A   1      39.032  29.252  29.529  1.00  0.00     0.074 A 
ATOM     32  C   UNL A   1      38.212  30.674  31.376  1.00  0.00     0.049 A 
ATOM     33  N   UNL A   1      40.110  28.738  30.065  1.00  0.00    -0.248 NA
ATOM     34  C   UNL A   1      38.818  28.883  28.124  1.00  0.00     0.031 C 
ATOM     35  C   UNL A   1      37.319  31.629  32.037  1.00  0.00     0.029 A 
ATOM     36  N   UNL A   1      39.232  30.495  32.274  1.00  0.00    -0.354 N 
ATOM     37  C   UNL A   1      40.697  27.972  29.068  1.00  0.00     0.074 A 
ATOM     38  C   UNL A   1      39.854  28.085  27.896  1.00  0.00     0.031 C 
ATOM     39  C   UNL A   1      37.840  31.968  33.226  1.00  0.00     0.029 A 
ATOM     40  C   UNL A   1      39.066  31.207  33.437  1.00  0.00     0.049 A 
ATOM     41  H   UNL A   1      40.008  29.914  32.102  1.00  0.00     0.167 HD
ATOM     42  C   UNL A   1      41.833  27.238  29.139  1.00  0.00     0.037 A 
ATOM     43  C   UNL A   1      39.803  31.217  34.562  1.00  0.00     0.037 A 
ATOM     44  C   UNL A   1      42.660  27.136  30.315  1.00  0.00     0.049 A 
ATOM     45  C   UNL A   1      41.029  30.351  34.628  1.00  0.00     0.074 A 
ATOM     46  C   UNL A   1      43.797  26.372  30.513  1.00  0.00     0.029 A 
ATOM     47  N   UNL A   1      42.440  27.833  31.497  1.00  0.00    -0.354 N 
ATOM     48  N   UNL A   1      41.537  29.567  33.708  1.00  0.00    -0.248 NA
ATOM     49  C   UNL A   1      41.778  30.360  35.891  1.00  0.00     0.031 C 
ATOM     50  C   UNL A   1      44.248  26.585  31.821  1.00  0.00     0.029 A 
ATOM     51  C   UNL A   1      43.415  27.512  32.427  1.00  0.00     0.049 A 
ATOM     52  H   UNL A   1      41.699  28.463  31.650  1.00  0.00     0.167 HD
ATOM     53  C   UNL A   1      42.659  28.987  34.278  1.00  0.00     0.074 A 
ATOM     54  C   UNL A   1      42.781  29.541  35.612  1.00  0.00     0.031 C 
ATOM     55  C   UNL A   1      43.506  28.069  33.752  1.00  0.00     0.037 A 
BRANCH  42  56
ATOM     56  C   UNL A   1      42.224  26.452  27.924  1.00  0.00     0.064 A 
ATOM     57  C   UNL A   1      43.168  26.932  27.006  1.00  0.00     0.173 A 
ATOM     58  C   UNL A   1      41.668  25.184  27.694  1.00  0.00     0.173 A 
ATOM     59  F   UNL A   1      43.716  28.145  27.174  1.00  0.00    -0.203 F 
ATOM     60  C   UNL A   1      43.529  26.179  25.891  1.00  0.00     0.198 A 
ATOM     61  C   UNL A   1      42.048  24.424  26.591  1.00  0.00     0.198 A 
ATOM     62  F   UNL A   1      40.762  24.678  28.543  1.00  0.00    -0.203 F 
ATOM     63  F   UNL A   1      44.408  26.671  25.007  1.00  0.00    -0.200 F 
ATOM     64  C   UNL A   1      42.974  24.923  25.688  1.00  0.00     0.200 A 
ATOM     65  F   UNL A   1      41.517  23.208  26.401  1.00  0.00    -0.200 F 
ATOM     66  F   UNL A   1      43.328  24.198  24.618  1.00  0.00    -0.200 F 
ENDBRANCH  42  56
BRANCH  43  67
ATOM     67  C   UNL A   1      39.370  32.032  35.726  1.00  0.00     0.064 A 
ATOM     68  C   UNL A   1      38.420  31.554  36.637  1.00  0.00     0.173 A 
ATOM     69  C   UNL A   1      39.900  33.312  35.948  1.00  0.00     0.173 A 
ATOM     70  F   UNL A   1      37.866  30.346  36.455  1.00  0.00    -0.203 F 
ATOM     71  C   UNL A   1      38.005  32.330  37.717  1.00  0.00     0.198 A 
ATOM     72  C   UNL A   1      39.508  34.074  37.045  1.00  0.00     0.198 A 
ATOM     73  F   UNL A   1      40.812  33.818  35.104  1.00  0.00    -0.203 F 
ATOM     74  F   UNL A   1      37.060  31.869  38.548  1.00  0.00    -0.200 F 
ATOM     75  C   UNL A   1      38.555  33.587  37.925  1.00  0.00     0.200 A 
ATOM     76  F   UNL A   1      40.055  35.282  37.248  1.00  0.00    -0.200 F 
ATOM     77  F   UNL A   1      38.159  34.330  38.966  1.00  0.00    -0.200 F 
ENDBRANCH  43  67
BRANCH  55  78
ATOM     78  C   UNL A   1      44.632  27.615  34.633  1.00  0.00     0.064 A 
ATOM     79  C   UNL A   1      44.497  26.499  35.473  1.00  0.00     0.173 A 
ATOM     80  C   UNL A   1      45.853  28.304  34.641  1.00  0.00     0.173 A 
ATOM     81  F   UNL A   1      43.341  25.820  35.513  1.00  0.00    -0.203 F 
ATOM     82  C   UNL A   1      45.537  26.108  36.312  1.00  0.00     0.198 A 
ATOM     83  C   UNL A   1      46.898  27.895  35.464  1.00  0.00     0.198 A 
ATOM     84  F   UNL A   1      46.030  29.377  33.854  1.00  0.00    -0.203 F 
ATOM     85  F   UNL A   1      45.367  25.073  37.146  1.00  0.00    -0.200 F 
ATOM     86  C   UNL A   1      46.736  26.803  36.304  1.00  0.00     0.200 A 
ATOM     87  F   UNL A   1      48.060  28.563  35.451  1.00  0.00    -0.200 F 
ATOM     88  F   UNL A   1      47.733  26.430  37.118  1.00  0.00    -0.200 F 
ENDBRANCH  55  78
ENDBRANCH  29  30
ENDBRANCH  22  24
ENDBRANCH  21  22
ENDBRANCH  20  21
ENDBRANCH   1  20
TORSDOF 16
ENDMDL
