MODEL 1
REMARK VINA RESULT:     -12.5      0.000      0.000
REMARK SMILES Cc1cc(=O)cc(C)n1-c1ccc(Cl)cc1C(=O)OCCOC(=O)c1ccc(-c2c3nc(c(-c4c(F)c(F)c(F)c(F)c4F)c4ccc([nH]4)c(-c4c(F)c(F)c(F)c(F)c4F)c4nc(c(-c5c(F)c(F)c(F)c(F)c5F)c5ccc2[nH]5)C=C4)C=C3)cc1
REMARK SMILES IDX 21 1 20 2 19 3 17 4 18 5 16 6 10 7 11 8 12 9 15 10 13 11
REMARK SMILES IDX 14 12 9 13 1 14 2 15 3 16 4 17 7 18 5 19 6 20 8 21 22 22
REMARK SMILES IDX 23 23 24 24 25 25 26 26 87 27 27 28 86 29 28 30 29 31 30 32
REMARK SMILES IDX 80 33 31 34 85 35 79 36 81 37 32 38 84 39 78 40 77 41 33 43
REMARK SMILES IDX 65 44 45 45 64 46 46 47 49 48 63 49 82 50 47 51 48 52 62 54
REMARK SMILES IDX 83 55 50 56 34 57 35 58 43 59 36 60 37 61 41 62 44 63 38 64
REMARK SMILES IDX 39 65 42 66 40 67 66 68 67 69 75 70 68 71 69 72 73 73 76 74
REMARK SMILES IDX 70 75 71 76 74 77 72 78 51 79 52 80 60 81 53 82 54 83 58 84
REMARK SMILES IDX 61 85 55 86 56 87 59 88 57 89
REMARK H PARENT 81 42 49 53
REMARK Flexibility Score: inf
ROOT
ATOM      1  C   UNL A   1      31.819  29.979  26.400  1.00  0.00     0.275 C 
ENDROOT
BRANCH   1   2
ATOM      2  C   UNL A   1      31.784  28.715  27.253  1.00  0.00     0.275 C 
BRANCH   2   3
ATOM      3  O   UNL A   1      32.689  27.715  26.739  1.00  0.00    -0.458 OA
BRANCH   3   4
ATOM      4  C   UNL A   1      32.145  26.507  26.466  1.00  0.00     0.340 C 
ATOM      5  O   UNL A   1      31.070  26.084  26.863  1.00  0.00    -0.246 OA
BRANCH   4   6
ATOM      6  C   UNL A   1      33.003  25.708  25.562  1.00  0.00     0.085 A 
ATOM      7  C   UNL A   1      33.030  25.906  24.168  1.00  0.00     0.060 A 
ATOM      8  C   UNL A   1      33.936  25.139  23.406  1.00  0.00     0.029 A 
ATOM      9  C   UNL A   1      34.764  24.185  24.003  1.00  0.00     0.023 A 
ATOM     10  C   UNL A   1      33.867  24.777  26.161  1.00  0.00     0.038 A 
ATOM     11  C   UNL A   1      34.720  24.005  25.380  1.00  0.00     0.042 A 
ATOM     12  Cl  UNL A   1      35.725  22.827  26.128  1.00  0.00    -0.084 Cl
BRANCH   7  13
ATOM     13  N   UNL A   1      32.171  26.833  23.494  1.00  0.00    -0.317 N 
ATOM     14  C   UNL A   1      34.050  28.550  23.400  1.00  0.00     0.065 C 
ATOM     15  C   UNL A   1      32.607  28.147  23.194  1.00  0.00     0.024 A 
ATOM     16  C   UNL A   1      31.772  29.071  22.683  1.00  0.00     0.073 A 
ATOM     17  C   UNL A   1      30.365  28.719  22.417  1.00  0.00     0.182 A 
ATOM     18  C   UNL A   1      30.834  26.460  23.204  1.00  0.00     0.024 A 
ATOM     19  O   UNL A   1      29.574  29.548  21.983  1.00  0.00    -0.290 OA
ATOM     20  C   UNL A   1      29.948  27.333  22.689  1.00  0.00     0.073 A 
ATOM     21  C   UNL A   1      30.339  25.063  23.512  1.00  0.00     0.065 C 
ENDBRANCH   7  13
ENDBRANCH   4   6
ENDBRANCH   3   4
ENDBRANCH   2   3
ENDBRANCH   1   2
BRANCH   1  22
ATOM     22  O   UNL A   1      33.178  30.426  26.268  1.00  0.00    -0.458 OA
BRANCH  22  23
ATOM     23  C   UNL A   1      33.566  31.380  27.144  1.00  0.00     0.338 C 
ATOM     24  O   UNL A   1      32.940  32.352  27.524  1.00  0.00    -0.246 OA
BRANCH  23  25
ATOM     25  C   UNL A   1      34.898  31.040  27.660  1.00  0.00     0.060 A 
ATOM     26  C   UNL A   1      35.170  29.712  27.979  1.00  0.00     0.016 A 
ATOM     27  C   UNL A   1      35.816  32.040  27.969  1.00  0.00     0.016 A 
ATOM     28  C   UNL A   1      36.312  29.384  28.698  1.00  0.00     0.010 A 
ATOM     29  C   UNL A   1      37.013  31.696  28.606  1.00  0.00     0.010 A 
ATOM     30  C   UNL A   1      37.253  30.370  29.016  1.00  0.00    -0.014 A 
BRANCH  30  31
ATOM     31  C   UNL A   1      38.443  30.030  29.840  1.00  0.00     0.031 A 
ATOM     32  C   UNL A   1      39.540  29.185  29.251  1.00  0.00     0.074 A 
ATOM     33  C   UNL A   1      38.575  30.513  31.091  1.00  0.00     0.049 A 
ATOM     34  N   UNL A   1      40.566  28.626  29.840  1.00  0.00    -0.248 NA
ATOM     35  C   UNL A   1      39.468  28.927  27.803  1.00  0.00     0.031 C 
ATOM     36  C   UNL A   1      37.633  31.415  31.755  1.00  0.00     0.029 A 
ATOM     37  N   UNL A   1      39.568  30.331  32.022  1.00  0.00    -0.354 N 
ATOM     38  C   UNL A   1      41.227  27.910  28.851  1.00  0.00     0.074 A 
ATOM     39  C   UNL A   1      40.487  28.099  27.622  1.00  0.00     0.031 C 
ATOM     40  C   UNL A   1      38.118  31.750  32.959  1.00  0.00     0.029 A 
ATOM     41  C   UNL A   1      39.356  31.014  33.195  1.00  0.00     0.049 A 
ATOM     42  H   UNL A   1      40.358  29.765  31.863  1.00  0.00     0.167 HD
ATOM     43  C   UNL A   1      42.352  27.163  28.962  1.00  0.00     0.037 A 
ATOM     44  C   UNL A   1      40.057  31.017  34.344  1.00  0.00     0.037 A 
ATOM     45  C   UNL A   1      43.113  27.026  30.176  1.00  0.00     0.049 A 
ATOM     46  C   UNL A   1      41.266  30.132  34.463  1.00  0.00     0.074 A 
ATOM     47  C   UNL A   1      44.252  26.273  30.401  1.00  0.00     0.029 A 
ATOM     48  N   UNL A   1      42.822  27.679  31.365  1.00  0.00    -0.354 N 
ATOM     49  N   UNL A   1      41.824  29.369  33.555  1.00  0.00    -0.248 NA
ATOM     50  C   UNL A   1      41.922  30.080  35.777  1.00  0.00     0.031 C 
ATOM     51  C   UNL A   1      44.635  26.450  31.734  1.00  0.00     0.029 A 
ATOM     52  C   UNL A   1      43.758  27.342  32.328  1.00  0.00     0.049 A 
ATOM     53  H   UNL A   1      42.064  28.292  31.502  1.00  0.00     0.167 HD
ATOM     54  C   UNL A   1      42.895  28.751  34.182  1.00  0.00     0.074 A 
ATOM     55  C   UNL A   1      42.924  29.243  35.545  1.00  0.00     0.031 C 
ATOM     56  C   UNL A   1      43.769  27.846  33.678  1.00  0.00     0.037 A 
BRANCH  43  57
ATOM     57  C   UNL A   1      42.813  26.413  27.748  1.00  0.00     0.064 A 
ATOM     58  C   UNL A   1      43.759  26.948  26.861  1.00  0.00     0.173 A 
ATOM     59  C   UNL A   1      42.332  25.120  27.492  1.00  0.00     0.173 A 
ATOM     60  F   UNL A   1      44.237  28.187  27.053  1.00  0.00    -0.203 F 
ATOM     61  C   UNL A   1      44.192  26.224  25.754  1.00  0.00     0.198 A 
ATOM     62  C   UNL A   1      42.786  24.388  26.399  1.00  0.00     0.198 A 
ATOM     63  F   UNL A   1      41.429  24.560  28.311  1.00  0.00    -0.203 F 
ATOM     64  F   UNL A   1      45.067  26.769  24.899  1.00  0.00    -0.200 F 
ATOM     65  C   UNL A   1      43.712  24.942  25.528  1.00  0.00     0.200 A 
ATOM     66  F   UNL A   1      42.330  23.145  26.189  1.00  0.00    -0.200 F 
ATOM     67  F   UNL A   1      44.137  24.241  24.468  1.00  0.00    -0.200 F 
ENDBRANCH  43  57
BRANCH  44  68
ATOM     68  C   UNL A   1      39.609  31.863  35.480  1.00  0.00     0.064 A 
ATOM     69  C   UNL A   1      40.116  33.159  35.651  1.00  0.00     0.173 A 
ATOM     70  C   UNL A   1      38.651  31.412  36.399  1.00  0.00     0.173 A 
ATOM     71  F   UNL A   1      41.055  33.626  34.815  1.00  0.00    -0.203 F 
ATOM     72  C   UNL A   1      39.677  33.971  36.695  1.00  0.00     0.198 A 
ATOM     73  C   UNL A   1      38.192  32.233  37.425  1.00  0.00     0.198 A 
ATOM     74  F   UNL A   1      38.139  30.177  36.283  1.00  0.00    -0.203 F 
ATOM     75  F   UNL A   1      40.198  35.196  36.853  1.00  0.00    -0.200 F 
ATOM     76  C   UNL A   1      38.708  33.512  37.574  1.00  0.00     0.200 A 
ATOM     77  F   UNL A   1      37.246  31.791  38.264  1.00  0.00    -0.200 F 
ATOM     78  F   UNL A   1      38.274  34.300  38.569  1.00  0.00    -0.200 F 
ENDBRANCH  44  68
BRANCH  56  79
ATOM     79  C   UNL A   1      44.838  27.338  34.595  1.00  0.00     0.064 A 
ATOM     80  C   UNL A   1      46.053  28.022  34.746  1.00  0.00     0.173 A 
ATOM     81  C   UNL A   1      44.620  26.196  35.381  1.00  0.00     0.173 A 
ATOM     82  F   UNL A   1      46.310  29.110  34.005  1.00  0.00    -0.203 F 
ATOM     83  C   UNL A   1      47.017  27.574  35.644  1.00  0.00     0.198 A 
ATOM     84  C   UNL A   1      45.577  25.765  36.294  1.00  0.00     0.198 A 
ATOM     85  F   UNL A   1      43.471  25.513  35.275  1.00  0.00    -0.203 F 
ATOM     86  F   UNL A   1      48.183  28.226  35.752  1.00  0.00    -0.200 F 
ATOM     87  C   UNL A   1      46.775  26.452  36.422  1.00  0.00     0.200 A 
ATOM     88  F   UNL A   1      45.338  24.687  37.054  1.00  0.00    -0.200 F 
ATOM     89  F   UNL A   1      47.700  26.029  37.296  1.00  0.00    -0.200 F 
ENDBRANCH  56  79
ENDBRANCH  30  31
ENDBRANCH  23  25
ENDBRANCH  22  23
ENDBRANCH   1  22
TORSDOF 12
ENDMDL
MODEL 2
REMARK VINA RESULT:     -12.5      0.190      1.621
REMARK SMILES Cc1cc(=O)cc(C)n1-c1ccc(Cl)cc1C(=O)OCCOC(=O)c1ccc(-c2c3nc(c(-c4c(F)c(F)c(F)c(F)c4F)c4ccc([nH]4)c(-c4c(F)c(F)c(F)c(F)c4F)c4nc(c(-c5c(F)c(F)c(F)c(F)c5F)c5ccc2[nH]5)C=C4)C=C3)cc1
REMARK SMILES IDX 21 1 20 2 19 3 17 4 18 5 16 6 10 7 11 8 12 9 15 10 13 11
REMARK SMILES IDX 14 12 9 13 1 14 2 15 3 16 4 17 7 18 5 19 6 20 8 21 22 22
REMARK SMILES IDX 23 23 24 24 25 25 26 26 87 27 27 28 86 29 28 30 29 31 30 32
REMARK SMILES IDX 80 33 31 34 85 35 79 36 81 37 32 38 84 39 78 40 77 41 33 43
REMARK SMILES IDX 65 44 45 45 64 46 46 47 49 48 63 49 82 50 47 51 48 52 62 54
REMARK SMILES IDX 83 55 50 56 34 57 35 58 43 59 36 60 37 61 41 62 44 63 38 64
REMARK SMILES IDX 39 65 42 66 40 67 66 68 67 69 75 70 68 71 69 72 73 73 76 74
REMARK SMILES IDX 70 75 71 76 74 77 72 78 51 79 52 80 60 81 53 82 54 83 58 84
REMARK SMILES IDX 61 85 55 86 56 87 59 88 57 89
REMARK H PARENT 81 42 49 53
REMARK Flexibility Score: inf
ROOT
ATOM      1  C   UNL A   1      31.840  29.944  26.417  1.00  0.00     0.275 C 
ENDROOT
BRANCH   1   2
ATOM      2  C   UNL A   1      31.811  28.699  27.298  1.00  0.00     0.275 C 
BRANCH   2   3
ATOM      3  O   UNL A   1      32.702  27.684  26.792  1.00  0.00    -0.458 OA
BRANCH   3   4
ATOM      4  C   UNL A   1      32.134  26.496  26.482  1.00  0.00     0.340 C 
ATOM      5  O   UNL A   1      31.051  26.083  26.866  1.00  0.00    -0.246 OA
BRANCH   4   6
ATOM      6  C   UNL A   1      32.975  25.708  25.554  1.00  0.00     0.085 A 
ATOM      7  C   UNL A   1      32.986  25.930  24.163  1.00  0.00     0.060 A 
ATOM      8  C   UNL A   1      33.879  25.170  23.377  1.00  0.00     0.029 A 
ATOM      9  C   UNL A   1      34.707  24.201  23.947  1.00  0.00     0.023 A 
ATOM     10  C   UNL A   1      33.841  24.761  26.126  1.00  0.00     0.038 A 
ATOM     11  C   UNL A   1      34.680  23.997  25.321  1.00  0.00     0.042 A 
ATOM     12  Cl  UNL A   1      35.686  22.800  26.036  1.00  0.00    -0.084 Cl
BRANCH   7  13
ATOM     13  N   UNL A   1      32.126  26.873  23.516  1.00  0.00    -0.317 N 
ATOM     14  C   UNL A   1      34.016  28.578  23.422  1.00  0.00     0.065 C 
ATOM     15  C   UNL A   1      32.567  28.189  23.230  1.00  0.00     0.024 A 
ATOM     16  C   UNL A   1      31.731  29.126  22.746  1.00  0.00     0.073 A 
ATOM     17  C   UNL A   1      30.319  28.789  22.494  1.00  0.00     0.182 A 
ATOM     18  C   UNL A   1      30.782  26.515  23.240  1.00  0.00     0.024 A 
ATOM     19  O   UNL A   1      29.528  29.630  22.085  1.00  0.00    -0.290 OA
ATOM     20  C   UNL A   1      29.895  27.402  22.750  1.00  0.00     0.073 A 
ATOM     21  C   UNL A   1      30.280  25.117  23.532  1.00  0.00     0.065 C 
ENDBRANCH   7  13
ENDBRANCH   4   6
ENDBRANCH   3   4
ENDBRANCH   2   3
ENDBRANCH   1   2
BRANCH   1  22
ATOM     22  O   UNL A   1      33.197  30.399  26.281  1.00  0.00    -0.458 OA
BRANCH  22  23
ATOM     23  C   UNL A   1      33.585  31.346  27.164  1.00  0.00     0.338 C 
ATOM     24  O   UNL A   1      32.963  32.318  27.548  1.00  0.00    -0.246 OA
BRANCH  23  25
ATOM     25  C   UNL A   1      34.914  30.997  27.684  1.00  0.00     0.060 A 
ATOM     26  C   UNL A   1      35.179  29.666  27.996  1.00  0.00     0.016 A 
ATOM     27  C   UNL A   1      35.835  31.991  28.001  1.00  0.00     0.016 A 
ATOM     28  C   UNL A   1      36.316  29.328  28.718  1.00  0.00     0.010 A 
ATOM     29  C   UNL A   1      37.029  31.637  28.641  1.00  0.00     0.010 A 
ATOM     30  C   UNL A   1      37.261  30.308  29.045  1.00  0.00    -0.014 A 
BRANCH  30  31
ATOM     31  C   UNL A   1      38.446  29.958  29.871  1.00  0.00     0.031 A 
ATOM     32  C   UNL A   1      39.514  29.063  29.300  1.00  0.00     0.074 A 
ATOM     33  C   UNL A   1      38.601  30.474  31.106  1.00  0.00     0.049 A 
ATOM     34  N   UNL A   1      40.527  28.492  29.900  1.00  0.00    -0.248 NA
ATOM     35  C   UNL A   1      39.424  28.765  27.862  1.00  0.00     0.031 C 
ATOM     36  C   UNL A   1      37.690  31.422  31.748  1.00  0.00     0.029 A 
ATOM     37  N   UNL A   1      39.595  30.290  32.036  1.00  0.00    -0.354 N 
ATOM     38  C   UNL A   1      41.160  27.728  28.928  1.00  0.00     0.074 A 
ATOM     39  C   UNL A   1      40.417  27.902  27.700  1.00  0.00     0.031 C 
ATOM     40  C   UNL A   1      38.193  31.778  32.940  1.00  0.00     0.029 A 
ATOM     41  C   UNL A   1      39.410  31.013  33.189  1.00  0.00     0.049 A 
ATOM     42  H   UNL A   1      40.367  29.697  31.889  1.00  0.00     0.167 HD
ATOM     43  C   UNL A   1      42.263  26.952  29.055  1.00  0.00     0.037 A 
ATOM     44  C   UNL A   1      40.119  31.030  34.334  1.00  0.00     0.037 A 
ATOM     45  C   UNL A   1      43.028  26.828  30.268  1.00  0.00     0.049 A 
ATOM     46  C   UNL A   1      41.303  30.114  34.471  1.00  0.00     0.074 A 
ATOM     47  C   UNL A   1      44.146  26.050  30.509  1.00  0.00     0.029 A 
ATOM     48  N   UNL A   1      42.765  27.525  31.438  1.00  0.00    -0.354 N 
ATOM     49  N   UNL A   1      41.832  29.308  33.583  1.00  0.00    -0.248 NA
ATOM     50  C   UNL A   1      41.966  30.082  35.783  1.00  0.00     0.031 C 
ATOM     51  C   UNL A   1      44.544  26.255  31.833  1.00  0.00     0.029 A 
ATOM     52  C   UNL A   1      43.697  27.190  32.406  1.00  0.00     0.049 A 
ATOM     53  H   UNL A   1      42.026  28.164  31.562  1.00  0.00     0.167 HD
ATOM     54  C   UNL A   1      42.889  28.677  34.222  1.00  0.00     0.074 A 
ATOM     55  C   UNL A   1      42.942  29.209  35.569  1.00  0.00     0.031 C 
ATOM     56  C   UNL A   1      43.732  27.732  33.740  1.00  0.00     0.037 A 
BRANCH  43  57
ATOM     57  C   UNL A   1      42.693  26.153  27.861  1.00  0.00     0.064 A 
ATOM     58  C   UNL A   1      42.123  24.908  27.559  1.00  0.00     0.173 A 
ATOM     59  C   UNL A   1      43.661  26.663  26.981  1.00  0.00     0.173 A 
ATOM     60  F   UNL A   1      41.206  24.370  28.377  1.00  0.00    -0.203 F 
ATOM     61  C   UNL A   1      42.519  24.195  26.430  1.00  0.00     0.198 A 
ATOM     62  C   UNL A   1      44.036  25.960  25.840  1.00  0.00     0.198 A 
ATOM     63  F   UNL A   1      44.234  27.852  27.222  1.00  0.00    -0.203 F 
ATOM     64  F   UNL A   1      41.990  22.990  26.181  1.00  0.00    -0.200 F 
ATOM     65  C   UNL A   1      43.469  24.724  25.568  1.00  0.00     0.200 A 
ATOM     66  F   UNL A   1      44.944  26.479  25.003  1.00  0.00    -0.200 F 
ATOM     67  F   UNL A   1      43.841  24.041  24.477  1.00  0.00    -0.200 F 
ENDBRANCH  43  57
BRANCH  44  68
ATOM     68  C   UNL A   1      39.705  31.922  35.446  1.00  0.00     0.064 A 
ATOM     69  C   UNL A   1      40.280  33.191  35.600  1.00  0.00     0.173 A 
ATOM     70  C   UNL A   1      38.710  31.543  36.361  1.00  0.00     0.173 A 
ATOM     71  F   UNL A   1      41.254  33.589  34.769  1.00  0.00    -0.203 F 
ATOM     72  C   UNL A   1      39.874  34.047  36.621  1.00  0.00     0.198 A 
ATOM     73  C   UNL A   1      38.285  32.409  37.364  1.00  0.00     0.198 A 
ATOM     74  F   UNL A   1      38.133  30.337  36.262  1.00  0.00    -0.203 F 
ATOM     75  F   UNL A   1      40.459  35.244  36.763  1.00  0.00    -0.200 F 
ATOM     76  C   UNL A   1      38.869  33.660  37.496  1.00  0.00     0.200 A 
ATOM     77  F   UNL A   1      37.304  32.037  38.198  1.00  0.00    -0.200 F 
ATOM     78  F   UNL A   1      38.466  34.490  38.468  1.00  0.00    -0.200 F 
ENDBRANCH  44  68
BRANCH  56  79
ATOM     79  C   UNL A   1      44.793  27.221  34.665  1.00  0.00     0.064 A 
ATOM     80  C   UNL A   1      44.586  26.075  35.447  1.00  0.00     0.173 A 
ATOM     81  C   UNL A   1      46.050  27.841  34.720  1.00  0.00     0.173 A 
ATOM     82  F   UNL A   1      43.396  25.458  35.437  1.00  0.00    -0.203 F 
ATOM     83  C   UNL A   1      45.599  25.575  36.260  1.00  0.00     0.198 A 
ATOM     84  C   UNL A   1      47.067  27.325  35.517  1.00  0.00     0.198 A 
ATOM     85  F   UNL A   1      46.295  28.936  33.985  1.00  0.00    -0.203 F 
ATOM     86  F   UNL A   1      45.372  24.495  37.021  1.00  0.00    -0.200 F 
ATOM     87  C   UNL A   1      46.839  26.194  36.287  1.00  0.00     0.200 A 
ATOM     88  F   UNL A   1      48.269  27.916  35.534  1.00  0.00    -0.200 F 
ATOM     89  F   UNL A   1      47.818  25.702  37.062  1.00  0.00    -0.200 F 
ENDBRANCH  56  79
ENDBRANCH  30  31
ENDBRANCH  23  25
ENDBRANCH  22  23
ENDBRANCH   1  22
TORSDOF 12
ENDMDL
MODEL 3
REMARK VINA RESULT:     -12.4      0.169      1.619
REMARK SMILES Cc1cc(=O)cc(C)n1-c1ccc(Cl)cc1C(=O)OCCOC(=O)c1ccc(-c2c3nc(c(-c4c(F)c(F)c(F)c(F)c4F)c4ccc([nH]4)c(-c4c(F)c(F)c(F)c(F)c4F)c4nc(c(-c5c(F)c(F)c(F)c(F)c5F)c5ccc2[nH]5)C=C4)C=C3)cc1
REMARK SMILES IDX 21 1 20 2 19 3 17 4 18 5 16 6 10 7 11 8 12 9 15 10 13 11
REMARK SMILES IDX 14 12 9 13 1 14 2 15 3 16 4 17 7 18 5 19 6 20 8 21 22 22
REMARK SMILES IDX 23 23 24 24 25 25 26 26 87 27 27 28 86 29 28 30 29 31 30 32
REMARK SMILES IDX 80 33 31 34 85 35 79 36 81 37 32 38 84 39 78 40 77 41 33 43
REMARK SMILES IDX 65 44 45 45 64 46 46 47 49 48 63 49 82 50 47 51 48 52 62 54
REMARK SMILES IDX 83 55 50 56 34 57 35 58 43 59 36 60 37 61 41 62 44 63 38 64
REMARK SMILES IDX 39 65 42 66 40 67 66 68 67 69 75 70 68 71 69 72 73 73 76 74
REMARK SMILES IDX 70 75 71 76 74 77 72 78 51 79 52 80 60 81 53 82 54 83 58 84
REMARK SMILES IDX 61 85 55 86 56 87 59 88 57 89
REMARK H PARENT 81 42 49 53
REMARK Flexibility Score: inf
ROOT
ATOM      1  C   UNL A   1      31.733  29.864  26.640  1.00  0.00     0.275 C 
ENDROOT
BRANCH   1   2
ATOM      2  C   UNL A   1      31.781  28.549  27.411  1.00  0.00     0.275 C 
BRANCH   2   3
ATOM      3  O   UNL A   1      32.660  27.601  26.770  1.00  0.00    -0.458 OA
BRANCH   3   4
ATOM      4  C   UNL A   1      32.121  26.396  26.478  1.00  0.00     0.340 C 
ATOM      5  O   UNL A   1      31.052  25.959  26.875  1.00  0.00    -0.246 OA
BRANCH   4   6
ATOM      6  C   UNL A   1      32.976  25.620  25.552  1.00  0.00     0.085 A 
ATOM      7  C   UNL A   1      32.996  25.850  24.162  1.00  0.00     0.060 A 
ATOM      8  C   UNL A   1      33.900  25.103  23.378  1.00  0.00     0.029 A 
ATOM      9  C   UNL A   1      34.732  24.137  23.949  1.00  0.00     0.023 A 
ATOM     10  C   UNL A   1      33.845  24.676  26.125  1.00  0.00     0.038 A 
ATOM     11  C   UNL A   1      34.695  23.925  25.321  1.00  0.00     0.042 A 
ATOM     12  Cl  UNL A   1      35.706  22.731  26.037  1.00  0.00    -0.084 Cl
BRANCH   7  13
ATOM     13  N   UNL A   1      32.132  26.790  23.514  1.00  0.00    -0.317 N 
ATOM     14  C   UNL A   1      34.009  28.511  23.444  1.00  0.00     0.065 C 
ATOM     15  C   UNL A   1      32.565  28.112  23.239  1.00  0.00     0.024 A 
ATOM     16  C   UNL A   1      31.726  29.045  22.754  1.00  0.00     0.073 A 
ATOM     17  C   UNL A   1      30.318  28.699  22.490  1.00  0.00     0.182 A 
ATOM     18  C   UNL A   1      30.793  26.423  23.226  1.00  0.00     0.024 A 
ATOM     19  O   UNL A   1      29.524  29.536  22.079  1.00  0.00    -0.290 OA
ATOM     20  C   UNL A   1      29.904  27.307  22.735  1.00  0.00     0.073 A 
ATOM     21  C   UNL A   1      30.301  25.020  23.506  1.00  0.00     0.065 C 
ENDBRANCH   7  13
ENDBRANCH   4   6
ENDBRANCH   3   4
ENDBRANCH   2   3
ENDBRANCH   1   2
BRANCH   1  22
ATOM     22  O   UNL A   1      33.073  30.301  26.360  1.00  0.00    -0.458 OA
BRANCH  22  23
ATOM     23  C   UNL A   1      33.511  31.347  27.095  1.00  0.00     0.338 C 
ATOM     24  O   UNL A   1      32.928  32.386  27.347  1.00  0.00    -0.246 OA
BRANCH  23  25
ATOM     25  C   UNL A   1      34.837  31.028  27.638  1.00  0.00     0.060 A 
ATOM     26  C   UNL A   1      35.137  29.699  27.927  1.00  0.00     0.016 A 
ATOM     27  C   UNL A   1      35.718  32.042  28.001  1.00  0.00     0.016 A 
ATOM     28  C   UNL A   1      36.267  29.380  28.668  1.00  0.00     0.010 A 
ATOM     29  C   UNL A   1      36.907  31.711  28.661  1.00  0.00     0.010 A 
ATOM     30  C   UNL A   1      37.172  30.381  29.040  1.00  0.00    -0.014 A 
BRANCH  30  31
ATOM     31  C   UNL A   1      38.348  30.048  29.886  1.00  0.00     0.031 A 
ATOM     32  C   UNL A   1      39.461  29.209  29.319  1.00  0.00     0.074 A 
ATOM     33  C   UNL A   1      38.453  30.533  31.139  1.00  0.00     0.049 A 
ATOM     34  N   UNL A   1      40.479  28.657  29.928  1.00  0.00    -0.248 NA
ATOM     35  C   UNL A   1      39.418  28.951  27.870  1.00  0.00     0.031 C 
ATOM     36  C   UNL A   1      37.492  31.429  31.785  1.00  0.00     0.029 A 
ATOM     37  N   UNL A   1      39.429  30.357  32.089  1.00  0.00    -0.354 N 
ATOM     38  C   UNL A   1      41.163  27.945  28.952  1.00  0.00     0.074 A 
ATOM     39  C   UNL A   1      40.445  28.129  27.709  1.00  0.00     0.031 C 
ATOM     40  C   UNL A   1      37.952  31.767  32.998  1.00  0.00     0.029 A 
ATOM     41  C   UNL A   1      39.189  31.038  33.258  1.00  0.00     0.049 A 
ATOM     42  H   UNL A   1      40.225  29.796  31.946  1.00  0.00     0.167 HD
ATOM     43  C   UNL A   1      42.290  27.205  29.084  1.00  0.00     0.037 A 
ATOM     44  C   UNL A   1      39.868  31.046  34.420  1.00  0.00     0.037 A 
ATOM     45  C   UNL A   1      43.028  27.072  30.313  1.00  0.00     0.049 A 
ATOM     46  C   UNL A   1      41.080  30.168  34.563  1.00  0.00     0.074 A 
ATOM     47  C   UNL A   1      44.167  26.327  30.560  1.00  0.00     0.029 A 
ATOM     48  N   UNL A   1      42.711  27.724  31.496  1.00  0.00    -0.354 N 
ATOM     49  N   UNL A   1      41.661  29.409  33.666  1.00  0.00    -0.248 NA
ATOM     50  C   UNL A   1      41.711  30.121  35.889  1.00  0.00     0.031 C 
ATOM     51  C   UNL A   1      44.524  26.507  31.900  1.00  0.00     0.029 A 
ATOM     52  C   UNL A   1      43.630  27.393  32.478  1.00  0.00     0.049 A 
ATOM     53  H   UNL A   1      41.946  28.332  31.619  1.00  0.00     0.167 HD
ATOM     54  C   UNL A   1      42.723  28.797  34.314  1.00  0.00     0.074 A 
ATOM     55  C   UNL A   1      42.723  29.290  35.676  1.00  0.00     0.031 C 
ATOM     56  C   UNL A   1      43.612  27.897  33.827  1.00  0.00     0.037 A 
BRANCH  43  57
ATOM     57  C   UNL A   1      42.779  26.458  27.880  1.00  0.00     0.064 A 
ATOM     58  C   UNL A   1      43.688  27.025  26.975  1.00  0.00     0.173 A 
ATOM     59  C   UNL A   1      42.363  25.137  27.652  1.00  0.00     0.173 A 
ATOM     60  F   UNL A   1      44.102  28.290  27.139  1.00  0.00    -0.203 F 
ATOM     61  C   UNL A   1      44.149  26.303  25.877  1.00  0.00     0.198 A 
ATOM     62  C   UNL A   1      42.846  24.409  26.568  1.00  0.00     0.198 A 
ATOM     63  F   UNL A   1      41.498  24.546  28.490  1.00  0.00    -0.203 F 
ATOM     64  F   UNL A   1      44.987  26.877  25.004  1.00  0.00    -0.200 F 
ATOM     65  C   UNL A   1      43.734  24.994  25.678  1.00  0.00     0.200 A 
ATOM     66  F   UNL A   1      42.453  23.141  26.385  1.00  0.00    -0.200 F 
ATOM     67  F   UNL A   1      44.186  24.297  24.627  1.00  0.00    -0.200 F 
ENDBRANCH  43  57
BRANCH  44  68
ATOM     68  C   UNL A   1      39.394  31.890  35.547  1.00  0.00     0.064 A 
ATOM     69  C   UNL A   1      38.472  31.391  36.477  1.00  0.00     0.173 A 
ATOM     70  C   UNL A   1      39.869  33.196  35.736  1.00  0.00     0.173 A 
ATOM     71  F   UNL A   1      37.967  30.158  36.325  1.00  0.00    -0.203 F 
ATOM     72  C   UNL A   1      38.047  32.165  37.556  1.00  0.00     0.198 A 
ATOM     73  C   UNL A   1      39.466  33.959  36.829  1.00  0.00     0.198 A 
ATOM     74  F   UNL A   1      40.748  33.723  34.870  1.00  0.00    -0.203 F 
ATOM     75  F   UNL A   1      37.144  31.675  38.416  1.00  0.00    -0.200 F 
ATOM     76  C   UNL A   1      38.553  33.444  37.737  1.00  0.00     0.200 A 
ATOM     77  F   UNL A   1      39.967  35.189  37.008  1.00  0.00    -0.200 F 
ATOM     78  F   UNL A   1      38.157  34.182  38.783  1.00  0.00    -0.200 F 
ENDBRANCH  44  68
BRANCH  56  79
ATOM     79  C   UNL A   1      44.666  27.396  34.765  1.00  0.00     0.064 A 
ATOM     80  C   UNL A   1      44.479  26.225  35.512  1.00  0.00     0.173 A 
ATOM     81  C   UNL A   1      45.901  28.054  34.865  1.00  0.00     0.173 A 
ATOM     82  F   UNL A   1      43.309  25.571  35.459  1.00  0.00    -0.203 F 
ATOM     83  C   UNL A   1      45.488  25.737  36.337  1.00  0.00     0.198 A 
ATOM     84  C   UNL A   1      46.915  27.550  35.673  1.00  0.00     0.198 A 
ATOM     85  F   UNL A   1      46.128  29.175  34.163  1.00  0.00    -0.203 F 
ATOM     86  F   UNL A   1      45.278  24.631  37.065  1.00  0.00    -0.200 F 
ATOM     87  C   UNL A   1      46.707  26.394  36.409  1.00  0.00     0.200 A 
ATOM     88  F   UNL A   1      48.098  28.179  35.733  1.00  0.00    -0.200 F 
ATOM     89  F   UNL A   1      47.682  25.914  37.195  1.00  0.00    -0.200 F 
ENDBRANCH  56  79
ENDBRANCH  30  31
ENDBRANCH  23  25
ENDBRANCH  22  23
ENDBRANCH   1  22
TORSDOF 12
ENDMDL
