MODEL 1
REMARK VINA RESULT:     -12.7      0.000      0.000
REMARK SMILES NC(=O)c1cc(NC(=O)/C=C\C(=O)OCCOC(=O)c2ccc(-c3c4nc(c(-c5c(F)c(F)c(F)c(F)c5F)c5ccc([nH]5)c(-c5c(F)c(F)c(F)c(F)c5F)c5nc(c(-c6c(F)c(F)c(F)c(F)c6F)c6ccc3[nH]6)C=C5)C=C4)cc2)ccc1N1CCOCC1
REMARK SMILES IDX 15 1 14 2 12 3 13 4 11 5 10 6 8 7 7 8 9 10 6 11 4 12 5 13
REMARK SMILES IDX 85 14 84 15 83 16 2 17 1 18 3 21 86 22 87 23 91 24 88 25
REMARK SMILES IDX 90 26 89 27 16 28 17 29 18 30 19 31 20 32 21 33 82 34 22 35
REMARK SMILES IDX 81 36 23 37 24 38 25 39 75 40 26 41 80 42 74 43 76 44 27 45
REMARK SMILES IDX 79 46 73 47 72 48 28 50 60 51 40 52 59 53 41 54 44 55 58 56
REMARK SMILES IDX 77 57 42 58 43 59 57 61 78 62 45 63 29 64 30 65 38 66 31 67
REMARK SMILES IDX 32 68 36 69 39 70 33 71 34 72 37 73 35 74 61 75 62 76 70 77
REMARK SMILES IDX 63 78 64 79 68 80 71 81 65 82 66 83 69 84 67 85 46 86 47 87
REMARK SMILES IDX 55 88 48 89 49 90 53 91 56 92 50 93 51 94 54 95 52 96
REMARK H PARENT 7 9 1 19 1 20 76 49 44 60
REMARK Flexibility Score: inf
ROOT
ATOM      1  C   UNL A   1      31.866  28.760  24.935  1.00  0.00     0.275 C 
ENDROOT
BRANCH   1   2
ATOM      2  O   UNL A   1      32.799  27.789  25.445  1.00  0.00    -0.459 OA
BRANCH   2   3
ATOM      3  C   UNL A   1      32.954  26.702  24.662  1.00  0.00     0.331 C 
ATOM      4  O   UNL A   1      33.962  26.017  24.577  1.00  0.00    -0.247 OA
BRANCH   3   5
ATOM      5  C   UNL A   1      31.757  26.351  23.897  1.00  0.00     0.099 C 
ATOM      6  C   UNL A   1      31.738  25.620  22.774  1.00  0.00     0.079 C 
BRANCH   6   7
ATOM      7  C   UNL A   1      32.877  25.173  21.939  1.00  0.00     0.248 C 
ATOM      8  N   UNL A   1      33.510  23.976  22.094  1.00  0.00    -0.322 N 
ATOM      9  H   UNL A   1      34.345  23.899  21.579  1.00  0.00     0.170 HD
ATOM     10  O   UNL A   1      33.288  25.960  21.084  1.00  0.00    -0.270 OA
BRANCH   8  11
ATOM     11  C   UNL A   1      33.202  22.834  22.847  1.00  0.00     0.042 A 
ATOM     12  C   UNL A   1      33.813  21.094  24.409  1.00  0.00     0.064 A 
ATOM     13  C   UNL A   1      33.933  22.420  23.949  1.00  0.00     0.042 A 
ATOM     14  C   UNL A   1      32.922  20.178  23.799  1.00  0.00     0.050 A 
ATOM     15  C   UNL A   1      32.046  20.706  22.839  1.00  0.00     0.029 A 
ATOM     16  C   UNL A   1      32.167  22.024  22.380  1.00  0.00     0.028 A 
BRANCH  12  17
ATOM     17  C   UNL A   1      34.891  20.694  25.345  1.00  0.00     0.250 C 
ATOM     18  N   UNL A   1      34.680  21.006  26.652  1.00  0.00    -0.366 N 
ATOM     19  H   UNL A   1      35.354  20.770  27.329  1.00  0.00     0.159 HD
ATOM     20  H   UNL A   1      33.853  21.469  26.920  1.00  0.00     0.159 HD
ATOM     21  O   UNL A   1      35.850  20.022  24.991  1.00  0.00    -0.269 OA
ENDBRANCH  12  17
BRANCH  14  22
ATOM     22  N   UNL A   1      32.957  18.812  24.037  1.00  0.00    -0.366 N 
ATOM     23  C   UNL A   1      32.370  18.256  25.265  1.00  0.00     0.145 C 
ATOM     24  C   UNL A   1      33.124  17.849  22.937  1.00  0.00     0.145 C 
ATOM     25  C   UNL A   1      33.128  16.979  25.670  1.00  0.00     0.181 C 
ATOM     26  C   UNL A   1      33.855  16.603  23.462  1.00  0.00     0.181 C 
ATOM     27  O   UNL A   1      33.182  16.028  24.592  1.00  0.00    -0.378 OA
ENDBRANCH  14  22
ENDBRANCH   8  11
ENDBRANCH   6   7
ENDBRANCH   3   5
ENDBRANCH   2   3
ENDBRANCH   1   2
BRANCH   1  28
ATOM     28  C   UNL A   1      31.837  30.125  25.643  1.00  0.00     0.275 C 
BRANCH  28  29
ATOM     29  O   UNL A   1      32.538  30.146  26.901  1.00  0.00    -0.458 OA
BRANCH  29  30
ATOM     30  C   UNL A   1      33.142  31.327  27.201  1.00  0.00     0.338 C 
ATOM     31  O   UNL A   1      32.632  32.431  27.187  1.00  0.00    -0.246 OA
BRANCH  30  32
ATOM     32  C   UNL A   1      34.503  31.073  27.729  1.00  0.00     0.060 A 
ATOM     33  C   UNL A   1      34.869  29.747  28.001  1.00  0.00     0.016 A 
ATOM     34  C   UNL A   1      35.396  32.114  27.986  1.00  0.00     0.016 A 
ATOM     35  C   UNL A   1      36.123  29.454  28.536  1.00  0.00     0.010 A 
ATOM     36  C   UNL A   1      36.648  31.824  28.537  1.00  0.00     0.010 A 
ATOM     37  C   UNL A   1      37.006  30.497  28.838  1.00  0.00    -0.014 A 
BRANCH  37  38
ATOM     38  C   UNL A   1      38.163  30.241  29.727  1.00  0.00     0.031 A 
ATOM     39  C   UNL A   1      39.235  29.331  29.197  1.00  0.00     0.074 A 
ATOM     40  C   UNL A   1      38.271  30.789  30.950  1.00  0.00     0.049 A 
ATOM     41  N   UNL A   1      40.299  28.860  29.792  1.00  0.00    -0.248 NA
ATOM     42  C   UNL A   1      39.076  28.882  27.802  1.00  0.00     0.031 C 
ATOM     43  C   UNL A   1      37.323  31.721  31.549  1.00  0.00     0.029 A 
ATOM     44  N   UNL A   1      39.233  30.629  31.917  1.00  0.00    -0.354 N 
ATOM     45  C   UNL A   1      40.931  28.065  28.845  1.00  0.00     0.074 A 
ATOM     46  C   UNL A   1      40.117  28.080  27.653  1.00  0.00     0.031 C 
ATOM     47  C   UNL A   1      37.744  32.053  32.781  1.00  0.00     0.029 A 
ATOM     48  C   UNL A   1      38.964  31.310  33.081  1.00  0.00     0.049 A 
ATOM     49  H   UNL A   1      40.039  30.079  31.788  1.00  0.00     0.167 HD
ATOM     50  C   UNL A   1      42.096  27.389  28.960  1.00  0.00     0.037 A 
ATOM     51  C   UNL A   1      39.614  31.299  34.261  1.00  0.00     0.037 A 
ATOM     52  C   UNL A   1      42.885  27.357  30.159  1.00  0.00     0.049 A 
ATOM     53  C   UNL A   1      40.851  30.444  34.398  1.00  0.00     0.074 A 
ATOM     54  C   UNL A   1      44.067  26.680  30.398  1.00  0.00     0.029 A 
ATOM     55  N   UNL A   1      42.563  28.032  31.328  1.00  0.00    -0.354 N 
ATOM     56  N   UNL A   1      41.449  29.699  33.498  1.00  0.00    -0.248 NA
ATOM     57  C   UNL A   1      41.504  30.426  35.715  1.00  0.00     0.031 C 
ATOM     58  C   UNL A   1      44.434  26.906  31.728  1.00  0.00     0.029 A 
ATOM     59  C   UNL A   1      43.516  27.775  32.297  1.00  0.00     0.049 A 
ATOM     60  H   UNL A   1      41.774  28.608  31.448  1.00  0.00     0.167 HD
ATOM     61  C   UNL A   1      42.568  29.166  34.124  1.00  0.00     0.074 A 
ATOM     62  C   UNL A   1      42.571  29.679  35.478  1.00  0.00     0.031 C 
ATOM     63  C   UNL A   1      43.509  28.324  33.629  1.00  0.00     0.037 A 
BRANCH  50  64
ATOM     64  C   UNL A   1      42.562  26.615  27.765  1.00  0.00     0.064 A 
ATOM     65  C   UNL A   1      43.477  27.157  26.850  1.00  0.00     0.173 A 
ATOM     66  C   UNL A   1      42.101  25.310  27.536  1.00  0.00     0.173 A 
ATOM     67  F   UNL A   1      43.928  28.411  27.010  1.00  0.00    -0.203 F 
ATOM     68  C   UNL A   1      43.898  26.431  25.739  1.00  0.00     0.198 A 
ATOM     69  C   UNL A   1      42.547  24.574  26.442  1.00  0.00     0.198 A 
ATOM     70  F   UNL A   1      41.220  24.747  28.375  1.00  0.00    -0.203 F 
ATOM     71  F   UNL A   1      44.733  26.989  24.853  1.00  0.00    -0.200 F 
ATOM     72  C   UNL A   1      43.440  25.137  25.541  1.00  0.00     0.200 A 
ATOM     73  F   UNL A   1      42.109  23.321  26.255  1.00  0.00    -0.200 F 
ATOM     74  F   UNL A   1      43.851  24.435  24.477  1.00  0.00    -0.200 F 
ENDBRANCH  50  64
BRANCH  51  75
ATOM     75  C   UNL A   1      39.110  32.087  35.422  1.00  0.00     0.064 A 
ATOM     76  C   UNL A   1      39.474  33.430  35.598  1.00  0.00     0.173 A 
ATOM     77  C   UNL A   1      38.312  31.498  36.415  1.00  0.00     0.173 A 
ATOM     78  F   UNL A   1      40.257  34.036  34.693  1.00  0.00    -0.203 F 
ATOM     79  C   UNL A   1      39.095  34.140  36.737  1.00  0.00     0.198 A 
ATOM     80  C   UNL A   1      37.903  32.220  37.537  1.00  0.00     0.198 A 
ATOM     81  F   UNL A   1      37.935  30.217  36.304  1.00  0.00    -0.203 F 
ATOM     82  F   UNL A   1      39.522  35.398  36.913  1.00  0.00    -0.200 F 
ATOM     83  C   UNL A   1      38.308  33.535  37.705  1.00  0.00     0.200 A 
ATOM     84  F   UNL A   1      37.134  31.633  38.465  1.00  0.00    -0.200 F 
ATOM     85  F   UNL A   1      37.955  34.212  38.806  1.00  0.00    -0.200 F 
ENDBRANCH  51  75
BRANCH  63  86
ATOM     86  C   UNL A   1      44.655  27.963  34.529  1.00  0.00     0.064 A 
ATOM     87  C   UNL A   1      44.609  26.850  35.380  1.00  0.00     0.173 A 
ATOM     88  C   UNL A   1      45.838  28.720  34.497  1.00  0.00     0.173 A 
ATOM     89  F   UNL A   1      43.497  26.103  35.454  1.00  0.00    -0.203 F 
ATOM     90  C   UNL A   1      45.694  26.524  36.188  1.00  0.00     0.198 A 
ATOM     91  C   UNL A   1      46.933  28.368  35.280  1.00  0.00     0.198 A 
ATOM     92  F   UNL A   1      45.938  29.788  33.692  1.00  0.00    -0.203 F 
ATOM     93  F   UNL A   1      45.607  25.487  37.034  1.00  0.00    -0.200 F 
ATOM     94  C   UNL A   1      46.857  27.277  36.132  1.00  0.00     0.200 A 
ATOM     95  F   UNL A   1      48.063  29.085  35.208  1.00  0.00    -0.200 F 
ATOM     96  F   UNL A   1      47.904  26.953  36.903  1.00  0.00    -0.200 F 
ENDBRANCH  63  86
ENDBRANCH  37  38
ENDBRANCH  30  32
ENDBRANCH  29  30
ENDBRANCH  28  29
ENDBRANCH   1  28
TORSDOF 15
ENDMDL
MODEL 2
REMARK VINA RESULT:     -12.5      5.953     11.481
REMARK SMILES NC(=O)c1cc(NC(=O)/C=C\C(=O)OCCOC(=O)c2ccc(-c3c4nc(c(-c5c(F)c(F)c(F)c(F)c5F)c5ccc([nH]5)c(-c5c(F)c(F)c(F)c(F)c5F)c5nc(c(-c6c(F)c(F)c(F)c(F)c6F)c6ccc3[nH]6)C=C5)C=C4)cc2)ccc1N1CCOCC1
REMARK SMILES IDX 15 1 14 2 12 3 13 4 11 5 10 6 8 7 7 8 9 10 6 11 4 12 5 13
REMARK SMILES IDX 85 14 84 15 83 16 2 17 1 18 3 21 86 22 87 23 91 24 88 25
REMARK SMILES IDX 90 26 89 27 16 28 17 29 18 30 19 31 20 32 21 33 82 34 22 35
REMARK SMILES IDX 81 36 23 37 24 38 25 39 75 40 26 41 80 42 74 43 76 44 27 45
REMARK SMILES IDX 79 46 73 47 72 48 28 50 60 51 40 52 59 53 41 54 44 55 58 56
REMARK SMILES IDX 77 57 42 58 43 59 57 61 78 62 45 63 29 64 30 65 38 66 31 67
REMARK SMILES IDX 32 68 36 69 39 70 33 71 34 72 37 73 35 74 61 75 62 76 70 77
REMARK SMILES IDX 63 78 64 79 68 80 71 81 65 82 66 83 69 84 67 85 46 86 47 87
REMARK SMILES IDX 55 88 48 89 49 90 53 91 56 92 50 93 51 94 54 95 52 96
REMARK H PARENT 7 9 1 19 1 20 76 49 44 60
REMARK Flexibility Score: inf
ROOT
ATOM      1  C   UNL A   1      33.159  34.618  28.881  1.00  0.00     0.275 C 
ENDROOT
BRANCH   1   2
ATOM      2  O   UNL A   1      33.671  35.482  29.913  1.00  0.00    -0.459 OA
BRANCH   2   3
ATOM      3  C   UNL A   1      33.292  36.771  29.799  1.00  0.00     0.331 C 
ATOM      4  O   UNL A   1      32.954  37.330  28.767  1.00  0.00    -0.247 OA
BRANCH   3   5
ATOM      5  C   UNL A   1      33.276  37.496  31.069  1.00  0.00     0.099 C 
ATOM      6  C   UNL A   1      33.089  36.946  32.277  1.00  0.00     0.079 C 
BRANCH   6   7
ATOM      7  C   UNL A   1      32.667  35.566  32.612  1.00  0.00     0.248 C 
ATOM      8  N   UNL A   1      33.525  34.579  32.997  1.00  0.00    -0.322 N 
ATOM      9  H   UNL A   1      33.116  33.685  33.021  1.00  0.00     0.170 HD
ATOM     10  O   UNL A   1      31.469  35.302  32.493  1.00  0.00    -0.270 OA
BRANCH   8  11
ATOM     11  C   UNL A   1      34.878  34.594  33.362  1.00  0.00     0.042 A 
ATOM     12  C   UNL A   1      37.228  34.488  32.805  1.00  0.00     0.064 A 
ATOM     13  C   UNL A   1      35.911  34.864  32.477  1.00  0.00     0.042 A 
ATOM     14  C   UNL A   1      37.536  33.878  34.045  1.00  0.00     0.050 A 
ATOM     15  C   UNL A   1      36.501  33.833  34.991  1.00  0.00     0.029 A 
ATOM     16  C   UNL A   1      35.190  34.205  34.665  1.00  0.00     0.028 A 
BRANCH  12  17
ATOM     17  C   UNL A   1      38.153  34.509  31.646  1.00  0.00     0.250 C 
ATOM     18  N   UNL A   1      37.562  34.575  30.423  1.00  0.00    -0.366 N 
ATOM     19  H   UNL A   1      38.116  34.593  29.609  1.00  0.00     0.159 HD
ATOM     20  H   UNL A   1      36.581  34.606  30.352  1.00  0.00     0.159 HD
ATOM     21  O   UNL A   1      39.367  34.583  31.779  1.00  0.00    -0.269 OA
ENDBRANCH  12  17
BRANCH  14  22
ATOM     22  N   UNL A   1      38.748  33.258  34.306  1.00  0.00    -0.366 N 
ATOM     23  C   UNL A   1      39.757  33.922  35.144  1.00  0.00     0.145 C 
ATOM     24  C   UNL A   1      38.903  31.800  34.185  1.00  0.00     0.145 C 
ATOM     25  C   UNL A   1      41.166  33.483  34.707  1.00  0.00     0.181 C 
ATOM     26  C   UNL A   1      40.351  31.475  33.783  1.00  0.00     0.181 C 
ATOM     27  O   UNL A   1      41.298  32.049  34.697  1.00  0.00    -0.378 OA
ENDBRANCH  14  22
ENDBRANCH   8  11
ENDBRANCH   6   7
ENDBRANCH   3   5
ENDBRANCH   2   3
ENDBRANCH   1   2
BRANCH   1  28
ATOM     28  C   UNL A   1      33.808  33.229  28.761  1.00  0.00     0.275 C 
BRANCH  28  29
ATOM     29  O   UNL A   1      35.091  33.126  29.407  1.00  0.00    -0.458 OA
BRANCH  29  30
ATOM     30  C   UNL A   1      35.169  32.176  30.377  1.00  0.00     0.338 C 
ATOM     31  O   UNL A   1      34.391  32.006  31.296  1.00  0.00    -0.246 OA
BRANCH  30  32
ATOM     32  C   UNL A   1      36.271  31.234  30.068  1.00  0.00     0.060 A 
ATOM     33  C   UNL A   1      37.018  30.717  31.136  1.00  0.00     0.016 A 
ATOM     34  C   UNL A   1      36.593  30.889  28.755  1.00  0.00     0.016 A 
ATOM     35  C   UNL A   1      38.091  29.859  30.900  1.00  0.00     0.010 A 
ATOM     36  C   UNL A   1      37.679  30.040  28.515  1.00  0.00     0.010 A 
ATOM     37  C   UNL A   1      38.447  29.544  29.584  1.00  0.00    -0.014 A 
BRANCH  37  38
ATOM     38  C   UNL A   1      39.776  28.949  29.309  1.00  0.00     0.031 A 
ATOM     39  C   UNL A   1      40.962  29.865  29.416  1.00  0.00     0.074 A 
ATOM     40  C   UNL A   1      39.935  27.655  28.982  1.00  0.00     0.049 A 
ATOM     41  N   UNL A   1      42.218  29.639  29.137  1.00  0.00    -0.248 NA
ATOM     42  C   UNL A   1      40.687  31.230  29.897  1.00  0.00     0.031 C 
ATOM     43  C   UNL A   1      38.869  26.664  28.895  1.00  0.00     0.029 A 
ATOM     44  N   UNL A   1      41.067  26.951  28.651  1.00  0.00    -0.354 N 
ATOM     45  C   UNL A   1      42.878  30.830  29.409  1.00  0.00     0.074 A 
ATOM     46  C   UNL A   1      41.885  31.788  29.835  1.00  0.00     0.031 C 
ATOM     47  C   UNL A   1      39.392  25.479  28.534  1.00  0.00     0.029 A 
ATOM     48  C   UNL A   1      40.824  25.643  28.306  1.00  0.00     0.049 A 
ATOM     49  H   UNL A   1      41.969  27.348  28.659  1.00  0.00     0.167 HD
ATOM     50  C   UNL A   1      44.200  31.096  29.319  1.00  0.00     0.037 A 
ATOM     51  C   UNL A   1      41.662  24.702  27.827  1.00  0.00     0.037 A 
ATOM     52  C   UNL A   1      45.177  30.145  28.868  1.00  0.00     0.049 A 
ATOM     53  C   UNL A   1      43.115  25.062  27.629  1.00  0.00     0.074 A 
ATOM     54  C   UNL A   1      46.540  30.316  28.709  1.00  0.00     0.029 A 
ATOM     55  N   UNL A   1      44.887  28.840  28.497  1.00  0.00    -0.354 N 
ATOM     56  N   UNL A   1      43.736  26.187  27.894  1.00  0.00    -0.248 NA
ATOM     57  C   UNL A   1      43.985  24.020  27.063  1.00  0.00     0.031 C 
ATOM     58  C   UNL A   1      47.067  29.129  28.193  1.00  0.00     0.029 A 
ATOM     59  C   UNL A   1      46.045  28.198  28.093  1.00  0.00     0.049 A 
ATOM     60  H   UNL A   1      43.991  28.432  28.518  1.00  0.00     0.167 HD
ATOM     61  C   UNL A   1      45.070  25.973  27.573  1.00  0.00     0.074 A 
ATOM     62  C   UNL A   1      45.171  24.608  27.102  1.00  0.00     0.031 C 
ATOM     63  C   UNL A   1      46.119  26.827  27.656  1.00  0.00     0.037 A 
BRANCH  50  64
ATOM     64  C   UNL A   1      44.651  32.475  29.694  1.00  0.00     0.064 A 
ATOM     65  C   UNL A   1      45.126  32.768  30.982  1.00  0.00     0.173 A 
ATOM     66  C   UNL A   1      44.620  33.516  28.754  1.00  0.00     0.173 A 
ATOM     67  F   UNL A   1      45.150  31.814  31.925  1.00  0.00    -0.203 F 
ATOM     68  C   UNL A   1      45.535  34.055  31.320  1.00  0.00     0.198 A 
ATOM     69  C   UNL A   1      45.059  34.794  29.085  1.00  0.00     0.198 A 
ATOM     70  F   UNL A   1      44.168  33.291  27.511  1.00  0.00    -0.203 F 
ATOM     71  F   UNL A   1      45.938  34.321  32.569  1.00  0.00    -0.200 F 
ATOM     72  C   UNL A   1      45.510  35.064  30.370  1.00  0.00     0.200 A 
ATOM     73  F   UNL A   1      45.041  35.767  28.164  1.00  0.00    -0.200 F 
ATOM     74  F   UNL A   1      45.912  36.301  30.693  1.00  0.00    -0.200 F 
ENDBRANCH  50  64
BRANCH  51  75
ATOM     75  C   UNL A   1      41.165  23.343  27.469  1.00  0.00     0.064 A 
ATOM     76  C   UNL A   1      41.740  22.191  28.027  1.00  0.00     0.173 A 
ATOM     77  C   UNL A   1      40.155  23.162  26.511  1.00  0.00     0.173 A 
ATOM     78  F   UNL A   1      42.728  22.306  28.928  1.00  0.00    -0.203 F 
ATOM     79  C   UNL A   1      41.353  20.917  27.614  1.00  0.00     0.198 A 
ATOM     80  C   UNL A   1      39.744  21.886  26.125  1.00  0.00     0.198 A 
ATOM     81  F   UNL A   1      39.570  24.225  25.940  1.00  0.00    -0.203 F 
ATOM     82  F   UNL A   1      41.974  19.837  28.110  1.00  0.00    -0.200 F 
ATOM     83  C   UNL A   1      40.355  20.765  26.665  1.00  0.00     0.200 A 
ATOM     84  F   UNL A   1      38.771  21.745  25.215  1.00  0.00    -0.200 F 
ATOM     85  F   UNL A   1      39.993  19.540  26.259  1.00  0.00    -0.200 F 
ENDBRANCH  51  75
BRANCH  63  86
ATOM     86  C   UNL A   1      47.476  26.293  27.298  1.00  0.00     0.064 A 
ATOM     87  C   UNL A   1      48.019  26.446  26.015  1.00  0.00     0.173 A 
ATOM     88  C   UNL A   1      48.262  25.660  28.274  1.00  0.00     0.173 A 
ATOM     89  F   UNL A   1      47.302  27.033  25.044  1.00  0.00    -0.203 F 
ATOM     90  C   UNL A   1      49.288  25.960  25.713  1.00  0.00     0.198 A 
ATOM     91  C   UNL A   1      49.544  25.209  27.978  1.00  0.00     0.198 A 
ATOM     92  F   UNL A   1      47.793  25.498  29.521  1.00  0.00    -0.203 F 
ATOM     93  F   UNL A   1      49.765  26.070  24.466  1.00  0.00    -0.200 F 
ATOM     94  C   UNL A   1      50.052  25.350  26.697  1.00  0.00     0.200 A 
ATOM     95  F   UNL A   1      50.289  24.639  28.936  1.00  0.00    -0.200 F 
ATOM     96  F   UNL A   1      51.278  24.894  26.407  1.00  0.00    -0.200 F 
ENDBRANCH  63  86
ENDBRANCH  37  38
ENDBRANCH  30  32
ENDBRANCH  29  30
ENDBRANCH  28  29
ENDBRANCH   1  28
TORSDOF 15
ENDMDL
MODEL 3
REMARK VINA RESULT:     -12.5      4.020      9.790
REMARK SMILES NC(=O)c1cc(NC(=O)/C=C\C(=O)OCCOC(=O)c2ccc(-c3c4nc(c(-c5c(F)c(F)c(F)c(F)c5F)c5ccc([nH]5)c(-c5c(F)c(F)c(F)c(F)c5F)c5nc(c(-c6c(F)c(F)c(F)c(F)c6F)c6ccc3[nH]6)C=C5)C=C4)cc2)ccc1N1CCOCC1
REMARK SMILES IDX 15 1 14 2 12 3 13 4 11 5 10 6 8 7 7 8 9 10 6 11 4 12 5 13
REMARK SMILES IDX 85 14 84 15 83 16 2 17 1 18 3 21 86 22 87 23 91 24 88 25
REMARK SMILES IDX 90 26 89 27 16 28 17 29 18 30 19 31 20 32 21 33 82 34 22 35
REMARK SMILES IDX 81 36 23 37 24 38 25 39 75 40 26 41 80 42 74 43 76 44 27 45
REMARK SMILES IDX 79 46 73 47 72 48 28 50 60 51 40 52 59 53 41 54 44 55 58 56
REMARK SMILES IDX 77 57 42 58 43 59 57 61 78 62 45 63 29 64 30 65 38 66 31 67
REMARK SMILES IDX 32 68 36 69 39 70 33 71 34 72 37 73 35 74 61 75 62 76 70 77
REMARK SMILES IDX 63 78 64 79 68 80 71 81 65 82 66 83 69 84 67 85 46 86 47 87
REMARK SMILES IDX 55 88 48 89 49 90 53 91 56 92 50 93 51 94 54 95 52 96
REMARK H PARENT 7 9 1 19 1 20 76 49 44 60
REMARK Flexibility Score: inf
ROOT
ATOM      1  C   UNL A   1      36.645  22.566  23.777  1.00  0.00     0.275 C 
ENDROOT
BRANCH   1   2
ATOM      2  O   UNL A   1      35.253  22.697  24.123  1.00  0.00    -0.459 OA
BRANCH   2   3
ATOM      3  C   UNL A   1      34.993  23.660  25.030  1.00  0.00     0.331 C 
ATOM      4  O   UNL A   1      35.182  24.857  24.878  1.00  0.00    -0.247 OA
BRANCH   3   5
ATOM      5  C   UNL A   1      34.404  23.158  26.271  1.00  0.00     0.099 C 
ATOM      6  C   UNL A   1      33.737  22.004  26.405  1.00  0.00     0.079 C 
BRANCH   6   7
ATOM      7  C   UNL A   1      33.264  21.078  25.348  1.00  0.00     0.248 C 
ATOM      8  N   UNL A   1      32.349  21.415  24.396  1.00  0.00    -0.322 N 
ATOM      9  H   UNL A   1      32.018  20.647  23.875  1.00  0.00     0.170 HD
ATOM     10  O   UNL A   1      33.706  19.928  25.372  1.00  0.00    -0.270 OA
BRANCH   8  11
ATOM     11  C   UNL A   1      31.787  22.642  24.016  1.00  0.00     0.042 A 
ATOM     12  C   UNL A   1      31.855  24.711  22.769  1.00  0.00     0.064 A 
ATOM     13  C   UNL A   1      32.165  23.342  22.881  1.00  0.00     0.042 A 
ATOM     14  C   UNL A   1      31.122  25.387  23.774  1.00  0.00     0.050 A 
ATOM     15  C   UNL A   1      30.572  24.589  24.788  1.00  0.00     0.029 A 
ATOM     16  C   UNL A   1      30.881  23.227  24.900  1.00  0.00     0.028 A 
BRANCH  12  17
ATOM     17  C   UNL A   1      32.612  25.402  21.697  1.00  0.00     0.250 C 
ATOM     18  N   UNL A   1      31.871  25.847  20.648  1.00  0.00    -0.366 N 
ATOM     19  H   UNL A   1      32.307  26.315  19.900  1.00  0.00     0.159 HD
ATOM     20  H   UNL A   1      30.897  25.702  20.636  1.00  0.00     0.159 HD
ATOM     21  O   UNL A   1      33.803  25.662  21.799  1.00  0.00    -0.269 OA
ENDBRANCH  12  17
BRANCH  14  22
ATOM     22  N   UNL A   1      31.021  26.769  23.839  1.00  0.00    -0.366 N 
ATOM     23  C   UNL A   1      29.791  27.446  23.403  1.00  0.00     0.145 C 
ATOM     24  C   UNL A   1      31.876  27.556  24.741  1.00  0.00     0.145 C 
ATOM     25  C   UNL A   1      30.131  28.847  22.867  1.00  0.00     0.181 C 
ATOM     26  C   UNL A   1      32.119  28.944  24.127  1.00  0.00     0.181 C 
ATOM     27  O   UNL A   1      30.886  29.614  23.823  1.00  0.00    -0.378 OA
ENDBRANCH  14  22
ENDBRANCH   8  11
ENDBRANCH   6   7
ENDBRANCH   3   5
ENDBRANCH   2   3
ENDBRANCH   1   2
BRANCH   1  28
ATOM     28  C   UNL A   1      37.421  21.427  24.459  1.00  0.00     0.275 C 
BRANCH  28  29
ATOM     29  O   UNL A   1      37.745  21.685  25.839  1.00  0.00    -0.458 OA
BRANCH  29  30
ATOM     30  C   UNL A   1      39.039  21.442  26.178  1.00  0.00     0.338 C 
ATOM     31  O   UNL A   1      39.682  20.440  25.933  1.00  0.00    -0.246 OA
BRANCH  30  32
ATOM     32  C   UNL A   1      39.641  22.664  26.761  1.00  0.00     0.060 A 
ATOM     33  C   UNL A   1      39.118  23.907  26.374  1.00  0.00     0.016 A 
ATOM     34  C   UNL A   1      40.720  22.602  27.643  1.00  0.00     0.016 A 
ATOM     35  C   UNL A   1      39.672  25.091  26.859  1.00  0.00     0.010 A 
ATOM     36  C   UNL A   1      41.287  23.789  28.119  1.00  0.00     0.010 A 
ATOM     37  C   UNL A   1      40.782  25.036  27.710  1.00  0.00    -0.014 A 
BRANCH  37  38
ATOM     38  C   UNL A   1      41.592  26.256  27.933  1.00  0.00     0.031 A 
ATOM     39  C   UNL A   1      40.938  27.373  28.695  1.00  0.00     0.074 A 
ATOM     40  C   UNL A   1      42.855  26.377  27.487  1.00  0.00     0.049 A 
ATOM     41  N   UNL A   1      41.374  28.579  28.947  1.00  0.00    -0.248 NA
ATOM     42  C   UNL A   1      39.598  27.090  29.240  1.00  0.00     0.031 C 
ATOM     43  C   UNL A   1      43.609  25.347  26.781  1.00  0.00     0.029 A 
ATOM     44  N   UNL A   1      43.729  27.435  27.557  1.00  0.00    -0.354 N 
ATOM     45  C   UNL A   1      40.365  29.192  29.678  1.00  0.00     0.074 A 
ATOM     46  C   UNL A   1      39.280  28.248  29.796  1.00  0.00     0.031 C 
ATOM     47  C   UNL A   1      44.831  25.818  26.480  1.00  0.00     0.029 A 
ATOM     48  C   UNL A   1      44.926  27.206  26.921  1.00  0.00     0.049 A 
ATOM     49  H   UNL A   1      43.517  28.278  28.020  1.00  0.00     0.167 HD
ATOM     50  C   UNL A   1      40.352  30.434  30.212  1.00  0.00     0.037 A 
ATOM     51  C   UNL A   1      45.959  28.040  26.693  1.00  0.00     0.037 A 
ATOM     52  C   UNL A   1      41.425  31.377  30.067  1.00  0.00     0.049 A 
ATOM     53  C   UNL A   1      45.870  29.459  27.203  1.00  0.00     0.074 A 
ATOM     54  C   UNL A   1      41.506  32.673  30.539  1.00  0.00     0.029 A 
ATOM     55  N   UNL A   1      42.608  31.120  29.387  1.00  0.00    -0.354 N 
ATOM     56  N   UNL A   1      44.917  30.033  27.899  1.00  0.00    -0.248 NA
ATOM     57  C   UNL A   1      46.999  30.348  26.893  1.00  0.00     0.031 C 
ATOM     58  C   UNL A   1      42.717  33.218  30.103  1.00  0.00     0.029 A 
ATOM     59  C   UNL A   1      43.418  32.241  29.414  1.00  0.00     0.049 A 
ATOM     60  H   UNL A   1      42.835  30.267  28.950  1.00  0.00     0.167 HD
ATOM     61  C   UNL A   1      45.352  31.327  28.150  1.00  0.00     0.074 A 
ATOM     62  C   UNL A   1      46.659  31.452  27.539  1.00  0.00     0.031 C 
ATOM     63  C   UNL A   1      44.729  32.327  28.821  1.00  0.00     0.037 A 
BRANCH  50  64
ATOM     64  C   UNL A   1      39.129  30.841  30.976  1.00  0.00     0.064 A 
ATOM     65  C   UNL A   1      38.044  31.467  30.345  1.00  0.00     0.173 A 
ATOM     66  C   UNL A   1      39.033  30.591  32.353  1.00  0.00     0.173 A 
ATOM     67  F   UNL A   1      38.098  31.752  29.035  1.00  0.00    -0.203 F 
ATOM     68  C   UNL A   1      36.915  31.846  31.067  1.00  0.00     0.198 A 
ATOM     69  C   UNL A   1      37.891  30.943  33.066  1.00  0.00     0.198 A 
ATOM     70  F   UNL A   1      40.045  30.002  33.006  1.00  0.00    -0.203 F 
ATOM     71  F   UNL A   1      35.913  32.488  30.452  1.00  0.00    -0.200 F 
ATOM     72  C   UNL A   1      36.836  31.576  32.424  1.00  0.00     0.200 A 
ATOM     73  F   UNL A   1      37.812  30.675  34.377  1.00  0.00    -0.200 F 
ATOM     74  F   UNL A   1      35.746  31.934  33.118  1.00  0.00    -0.200 F 
ENDBRANCH  50  64
BRANCH  51  75
ATOM     75  C   UNL A   1      47.155  27.588  25.927  1.00  0.00     0.064 A 
ATOM     76  C   UNL A   1      48.304  27.122  26.584  1.00  0.00     0.173 A 
ATOM     77  C   UNL A   1      47.204  27.676  24.527  1.00  0.00     0.173 A 
ATOM     78  F   UNL A   1      48.321  27.043  27.924  1.00  0.00    -0.203 F 
ATOM     79  C   UNL A   1      49.462  26.801  25.879  1.00  0.00     0.198 A 
ATOM     80  C   UNL A   1      48.352  27.320  23.819  1.00  0.00     0.198 A 
ATOM     81  F   UNL A   1      46.139  28.117  23.842  1.00  0.00    -0.203 F 
ATOM     82  F   UNL A   1      50.568  26.432  26.541  1.00  0.00    -0.200 F 
ATOM     83  C   UNL A   1      49.486  26.899  24.496  1.00  0.00     0.200 A 
ATOM     84  F   UNL A   1      48.365  27.406  22.481  1.00  0.00    -0.200 F 
ATOM     85  F   UNL A   1      50.603  26.603  23.819  1.00  0.00    -0.200 F 
ENDBRANCH  51  75
BRANCH  63  86
ATOM     86  C   UNL A   1      45.478  33.616  28.993  1.00  0.00     0.064 A 
ATOM     87  C   UNL A   1      45.349  34.677  28.085  1.00  0.00     0.173 A 
ATOM     88  C   UNL A   1      46.301  33.807  30.115  1.00  0.00     0.173 A 
ATOM     89  F   UNL A   1      44.584  34.539  26.991  1.00  0.00    -0.203 F 
ATOM     90  C   UNL A   1      46.037  35.870  28.278  1.00  0.00     0.198 A 
ATOM     91  C   UNL A   1      46.958  35.015  30.323  1.00  0.00     0.198 A 
ATOM     92  F   UNL A   1      46.450  32.827  31.020  1.00  0.00    -0.203 F 
ATOM     93  F   UNL A   1      45.941  36.850  27.369  1.00  0.00    -0.200 F 
ATOM     94  C   UNL A   1      46.835  36.041  29.401  1.00  0.00     0.200 A 
ATOM     95  F   UNL A   1      47.711  35.185  31.419  1.00  0.00    -0.200 F 
ATOM     96  F   UNL A   1      47.487  37.196  29.590  1.00  0.00    -0.200 F 
ENDBRANCH  63  86
ENDBRANCH  37  38
ENDBRANCH  30  32
ENDBRANCH  29  30
ENDBRANCH  28  29
ENDBRANCH   1  28
TORSDOF 15
ENDMDL
