MODEL 1
REMARK VINA RESULT:     -11.5      0.000      0.000
REMARK SMILES C[C@@H](C(=O)OCCOC(=O)c1ccc(-c2c3nc(c(-c4c(F)c(F)c(F)c(F)c4F)c4ccc([nH]4)c(-c4c(F)c(F)c(F)c(F)c4F)c4nc(c(-c5c(F)c(F)c(F)c(F)c5F)c5ccc2[nH]5)C=C4)C=C3)cc1)c1ccc(C[C@@H]2CCC[C@@H]2O)cc1
REMARK SMILES IDX 6 1 5 2 3 3 4 4 2 5 1 6 74 7 75 8 86 9 76 10 85 11 77 12
REMARK SMILES IDX 78 13 79 14 80 15 83 16 81 17 82 18 84 19 7 21 8 22 9 23
REMARK SMILES IDX 10 24 11 25 12 26 73 27 13 28 72 29 14 30 15 31 16 32 66 33
REMARK SMILES IDX 17 34 71 35 65 36 67 37 18 38 70 39 64 40 63 41 19 43 51 44
REMARK SMILES IDX 31 45 50 46 32 47 35 48 49 49 68 50 33 51 34 52 48 54 69 55
REMARK SMILES IDX 36 56 20 57 21 58 29 59 22 60 23 61 27 62 30 63 24 64 25 65
REMARK SMILES IDX 28 66 26 67 52 68 53 69 61 70 54 71 55 72 59 73 62 74 56 75
REMARK SMILES IDX 57 76 60 77 58 78 37 79 38 80 46 81 39 82 40 83 44 84 47 85
REMARK SMILES IDX 41 86 42 87 45 88 43 89
REMARK H PARENT 84 20 67 42 35 53
REMARK Flexibility Score: inf
ROOT
ATOM      1  C   UNL A   1      31.021  30.674  25.462  1.00  0.00     0.274 C 
ENDROOT
BRANCH   1   2
ATOM      2  O   UNL A   1      31.589  29.365  25.676  1.00  0.00    -0.462 OA
BRANCH   2   3
ATOM      3  C   UNL A   1      31.722  28.598  24.554  1.00  0.00     0.313 C 
ATOM      4  O   UNL A   1      30.749  28.133  23.970  1.00  0.00    -0.252 OA
BRANCH   3   5
ATOM      5  C   UNL A   1      33.206  28.308  24.191  1.00  0.00     0.126 C 
ATOM      6  C   UNL A   1      33.563  28.939  22.835  1.00  0.00     0.025 C 
BRANCH   5   7
ATOM      7  C   UNL A   1      33.569  26.812  24.284  1.00  0.00    -0.034 A 
ATOM      8  C   UNL A   1      33.523  26.012  23.134  1.00  0.00     0.005 A 
ATOM      9  C   UNL A   1      33.972  26.179  25.472  1.00  0.00     0.005 A 
ATOM     10  C   UNL A   1      34.028  24.711  23.124  1.00  0.00     0.004 A 
ATOM     11  C   UNL A   1      34.407  24.841  25.477  1.00  0.00     0.004 A 
ATOM     12  C   UNL A   1      34.465  24.094  24.292  1.00  0.00    -0.048 A 
BRANCH  12  13
ATOM     13  C   UNL A   1      35.089  22.717  24.274  1.00  0.00     0.041 C 
BRANCH  13  14
ATOM     14  C   UNL A   1      34.235  21.470  24.594  1.00  0.00     0.022 C 
ATOM     15  C   UNL A   1      32.798  21.482  24.059  1.00  0.00     0.007 C 
ATOM     16  C   UNL A   1      34.050  21.115  26.071  1.00  0.00     0.117 C 
ATOM     17  C   UNL A   1      31.880  21.772  25.251  1.00  0.00     0.003 C 
ATOM     18  C   UNL A   1      32.772  21.829  26.486  1.00  0.00     0.032 C 
BRANCH  16  19
ATOM     19  O   UNL A   1      35.154  21.453  26.886  1.00  0.00    -0.393 OA
ATOM     20  H   UNL A   1      35.546  20.645  27.250  1.00  0.00     0.210 HD
ENDBRANCH  16  19
ENDBRANCH  13  14
ENDBRANCH  12  13
ENDBRANCH   5   7
ENDBRANCH   3   5
ENDBRANCH   2   3
ENDBRANCH   1   2
BRANCH   1  21
ATOM     21  C   UNL A   1      31.535  31.716  26.464  1.00  0.00     0.275 C 
BRANCH  21  22
ATOM     22  O   UNL A   1      32.885  31.453  26.895  1.00  0.00    -0.458 OA
BRANCH  22  23
ATOM     23  C   UNL A   1      33.502  32.495  27.501  1.00  0.00     0.338 C 
ATOM     24  O   UNL A   1      33.037  33.609  27.687  1.00  0.00    -0.246 OA
BRANCH  23  25
ATOM     25  C   UNL A   1      34.797  32.077  28.077  1.00  0.00     0.060 A 
ATOM     26  C   UNL A   1      34.847  30.795  28.624  1.00  0.00     0.016 A 
ATOM     27  C   UNL A   1      35.920  32.906  28.143  1.00  0.00     0.016 A 
ATOM     28  C   UNL A   1      36.019  30.323  29.206  1.00  0.00     0.010 A 
ATOM     29  C   UNL A   1      37.096  32.438  28.757  1.00  0.00     0.010 A 
ATOM     30  C   UNL A   1      37.152  31.137  29.284  1.00  0.00    -0.014 A 
BRANCH  30  31
ATOM     31  C   UNL A   1      38.346  30.599  29.984  1.00  0.00     0.031 A 
ATOM     32  C   UNL A   1      38.574  30.939  31.428  1.00  0.00     0.074 A 
ATOM     33  C   UNL A   1      39.142  29.698  29.379  1.00  0.00     0.049 A 
ATOM     34  N   UNL A   1      39.508  30.519  32.244  1.00  0.00    -0.248 NA
ATOM     35  C   UNL A   1      37.607  31.862  32.042  1.00  0.00     0.031 C 
ATOM     36  C   UNL A   1      38.960  29.194  28.020  1.00  0.00     0.029 A 
ATOM     37  N   UNL A   1      40.236  29.013  29.849  1.00  0.00    -0.354 N 
ATOM     38  C   UNL A   1      39.249  31.134  33.461  1.00  0.00     0.074 A 
ATOM     39  C   UNL A   1      38.059  31.940  33.285  1.00  0.00     0.031 C 
ATOM     40  C   UNL A   1      39.893  28.257  27.775  1.00  0.00     0.029 A 
ATOM     41  C   UNL A   1      40.753  28.113  28.949  1.00  0.00     0.049 A 
ATOM     42  H   UNL A   1      40.615  29.154  30.746  1.00  0.00     0.167 HD
ATOM     43  C   UNL A   1      39.955  31.054  34.614  1.00  0.00     0.037 A 
ATOM     44  C   UNL A   1      41.800  27.271  29.062  1.00  0.00     0.037 A 
ATOM     45  C   UNL A   1      41.153  30.277  34.791  1.00  0.00     0.049 A 
ATOM     46  C   UNL A   1      42.615  27.267  30.332  1.00  0.00     0.074 A 
ATOM     47  C   UNL A   1      41.974  30.197  35.903  1.00  0.00     0.029 A 
ATOM     48  N   UNL A   1      41.706  29.452  33.826  1.00  0.00    -0.354 N 
ATOM     49  N   UNL A   1      42.393  27.889  31.464  1.00  0.00    -0.248 NA
ATOM     50  C   UNL A   1      43.845  26.459  30.325  1.00  0.00     0.031 C 
ATOM     51  C   UNL A   1      43.049  29.356  35.595  1.00  0.00     0.029 A 
ATOM     52  C   UNL A   1      42.872  28.877  34.307  1.00  0.00     0.049 A 
ATOM     53  H   UNL A   1      41.327  29.295  32.931  1.00  0.00     0.167 HD
ATOM     54  C   UNL A   1      43.448  27.547  32.301  1.00  0.00     0.074 A 
ATOM     55  C   UNL A   1      44.292  26.633  31.561  1.00  0.00     0.031 C 
ATOM     56  C   UNL A   1      43.704  27.967  33.563  1.00  0.00     0.037 A 
BRANCH  43  57
ATOM     57  C   UNL A   1      39.490  31.904  35.756  1.00  0.00     0.064 A 
ATOM     58  C   UNL A   1      40.010  33.185  35.987  1.00  0.00     0.173 A 
ATOM     59  C   UNL A   1      38.496  31.427  36.624  1.00  0.00     0.173 A 
ATOM     60  F   UNL A   1      40.976  33.674  35.195  1.00  0.00    -0.203 F 
ATOM     61  C   UNL A   1      39.563  33.952  37.060  1.00  0.00     0.198 A 
ATOM     62  C   UNL A   1      38.037  32.205  37.682  1.00  0.00     0.198 A 
ATOM     63  F   UNL A   1      37.970  30.206  36.442  1.00  0.00    -0.203 F 
ATOM     64  F   UNL A   1      40.099  35.158  37.289  1.00  0.00    -0.200 F 
ATOM     65  C   UNL A   1      38.574  33.463  37.903  1.00  0.00     0.200 A 
ATOM     66  F   UNL A   1      37.079  31.733  38.491  1.00  0.00    -0.200 F 
ATOM     67  F   UNL A   1      38.146  34.203  38.935  1.00  0.00    -0.200 F 
ENDBRANCH  43  57
BRANCH  44  68
ATOM     68  C   UNL A   1      42.167  26.362  27.943  1.00  0.00     0.064 A 
ATOM     69  C   UNL A   1      43.131  26.741  26.998  1.00  0.00     0.173 A 
ATOM     70  C   UNL A   1      41.525  25.129  27.758  1.00  0.00     0.173 A 
ATOM     71  F   UNL A   1      43.753  27.925  27.114  1.00  0.00    -0.203 F 
ATOM     72  C   UNL A   1      43.423  25.933  25.901  1.00  0.00     0.198 A 
ATOM     73  C   UNL A   1      41.839  24.308  26.677  1.00  0.00     0.198 A 
ATOM     74  F   UNL A   1      40.586  24.724  28.626  1.00  0.00    -0.203 F 
ATOM     75  F   UNL A   1      44.307  26.347  24.983  1.00  0.00    -0.200 F 
ATOM     76  C   UNL A   1      42.779  24.715  25.744  1.00  0.00     0.200 A 
ATOM     77  F   UNL A   1      41.220  23.128  26.534  1.00  0.00    -0.200 F 
ATOM     78  F   UNL A   1      43.055  23.940  24.686  1.00  0.00    -0.200 F 
ENDBRANCH  44  68
BRANCH  56  79
ATOM     79  C   UNL A   1      44.946  27.450  34.230  1.00  0.00     0.064 A 
ATOM     80  C   UNL A   1      46.160  28.150  34.156  1.00  0.00     0.173 A 
ATOM     81  C   UNL A   1      44.912  26.276  34.997  1.00  0.00     0.173 A 
ATOM     82  F   UNL A   1      46.248  29.272  33.426  1.00  0.00    -0.203 F 
ATOM     83  C   UNL A   1      47.298  27.683  34.810  1.00  0.00     0.198 A 
ATOM     84  C   UNL A   1      46.044  25.826  35.670  1.00  0.00     0.198 A 
ATOM     85  F   UNL A   1      43.774  25.573  35.106  1.00  0.00    -0.203 F 
ATOM     86  F   UNL A   1      48.455  28.350  34.695  1.00  0.00    -0.200 F 
ATOM     87  C   UNL A   1      47.236  26.527  35.573  1.00  0.00     0.200 A 
ATOM     88  F   UNL A   1      45.981  24.714  36.417  1.00  0.00    -0.200 F 
ATOM     89  F   UNL A   1      48.330  26.084  36.210  1.00  0.00    -0.200 F 
ENDBRANCH  56  79
ENDBRANCH  30  31
ENDBRANCH  23  25
ENDBRANCH  22  23
ENDBRANCH  21  22
ENDBRANCH   1  21
TORSDOF 15
ENDMDL
MODEL 2
REMARK VINA RESULT:     -11.4      0.228      1.997
REMARK SMILES C[C@@H](C(=O)OCCOC(=O)c1ccc(-c2c3nc(c(-c4c(F)c(F)c(F)c(F)c4F)c4ccc([nH]4)c(-c4c(F)c(F)c(F)c(F)c4F)c4nc(c(-c5c(F)c(F)c(F)c(F)c5F)c5ccc2[nH]5)C=C4)C=C3)cc1)c1ccc(C[C@@H]2CCC[C@@H]2O)cc1
REMARK SMILES IDX 6 1 5 2 3 3 4 4 2 5 1 6 74 7 75 8 86 9 76 10 85 11 77 12
REMARK SMILES IDX 78 13 79 14 80 15 83 16 81 17 82 18 84 19 7 21 8 22 9 23
REMARK SMILES IDX 10 24 11 25 12 26 73 27 13 28 72 29 14 30 15 31 16 32 66 33
REMARK SMILES IDX 17 34 71 35 65 36 67 37 18 38 70 39 64 40 63 41 19 43 51 44
REMARK SMILES IDX 31 45 50 46 32 47 35 48 49 49 68 50 33 51 34 52 48 54 69 55
REMARK SMILES IDX 36 56 20 57 21 58 29 59 22 60 23 61 27 62 30 63 24 64 25 65
REMARK SMILES IDX 28 66 26 67 52 68 53 69 61 70 54 71 55 72 59 73 62 74 56 75
REMARK SMILES IDX 57 76 60 77 58 78 37 79 38 80 46 81 39 82 40 83 44 84 47 85
REMARK SMILES IDX 41 86 42 87 45 88 43 89
REMARK H PARENT 84 20 67 42 35 53
REMARK Flexibility Score: inf
ROOT
ATOM      1  C   UNL A   1      31.230  30.555  25.269  1.00  0.00     0.274 C 
ENDROOT
BRANCH   1   2
ATOM      2  O   UNL A   1      31.553  29.197  25.639  1.00  0.00    -0.462 OA
BRANCH   2   3
ATOM      3  C   UNL A   1      31.661  28.320  24.599  1.00  0.00     0.313 C 
ATOM      4  O   UNL A   1      30.684  27.735  24.143  1.00  0.00    -0.252 OA
BRANCH   3   5
ATOM      5  C   UNL A   1      33.132  28.082  24.158  1.00  0.00     0.126 C 
ATOM      6  C   UNL A   1      33.391  28.713  22.779  1.00  0.00     0.025 C 
BRANCH   5   7
ATOM      7  C   UNL A   1      33.556  26.601  24.242  1.00  0.00    -0.034 A 
ATOM      8  C   UNL A   1      33.435  25.778  23.113  1.00  0.00     0.005 A 
ATOM      9  C   UNL A   1      34.087  26.005  25.398  1.00  0.00     0.005 A 
ATOM     10  C   UNL A   1      33.983  24.495  23.078  1.00  0.00     0.004 A 
ATOM     11  C   UNL A   1      34.567  24.683  25.385  1.00  0.00     0.004 A 
ATOM     12  C   UNL A   1      34.544  23.916  24.212  1.00  0.00    -0.048 A 
BRANCH  12  13
ATOM     13  C   UNL A   1      35.213  22.560  24.160  1.00  0.00     0.041 C 
BRANCH  13  14
ATOM     14  C   UNL A   1      34.421  21.286  24.527  1.00  0.00     0.022 C 
ATOM     15  C   UNL A   1      33.020  21.165  23.918  1.00  0.00     0.007 C 
ATOM     16  C   UNL A   1      34.175  21.027  26.015  1.00  0.00     0.117 C 
ATOM     17  C   UNL A   1      32.018  21.478  25.035  1.00  0.00     0.003 C 
ATOM     18  C   UNL A   1      32.833  21.682  26.307  1.00  0.00     0.032 C 
BRANCH  16  19
ATOM     19  O   UNL A   1      35.208  21.494  26.859  1.00  0.00    -0.393 OA
ATOM     20  H   UNL A   1      35.205  20.986  27.684  1.00  0.00     0.210 HD
ENDBRANCH  16  19
ENDBRANCH  13  14
ENDBRANCH  12  13
ENDBRANCH   5   7
ENDBRANCH   3   5
ENDBRANCH   2   3
ENDBRANCH   1   2
BRANCH   1  21
ATOM     21  C   UNL A   1      31.413  31.546  26.424  1.00  0.00     0.275 C 
BRANCH  21  22
ATOM     22  O   UNL A   1      32.595  31.279  27.204  1.00  0.00    -0.458 OA
BRANCH  22  23
ATOM     23  C   UNL A   1      33.329  32.373  27.519  1.00  0.00     0.338 C 
ATOM     24  O   UNL A   1      32.954  33.534  27.489  1.00  0.00    -0.246 OA
BRANCH  23  25
ATOM     25  C   UNL A   1      34.641  31.983  28.075  1.00  0.00     0.060 A 
ATOM     26  C   UNL A   1      34.745  30.683  28.568  1.00  0.00     0.016 A 
ATOM     27  C   UNL A   1      35.731  32.853  28.176  1.00  0.00     0.016 A 
ATOM     28  C   UNL A   1      35.936  30.234  29.129  1.00  0.00     0.010 A 
ATOM     29  C   UNL A   1      36.925  32.407  28.769  1.00  0.00     0.010 A 
ATOM     30  C   UNL A   1      37.035  31.089  29.240  1.00  0.00    -0.014 A 
BRANCH  30  31
ATOM     31  C   UNL A   1      38.252  30.571  29.916  1.00  0.00     0.031 A 
ATOM     32  C   UNL A   1      38.501  30.911  31.357  1.00  0.00     0.074 A 
ATOM     33  C   UNL A   1      39.052  29.685  29.293  1.00  0.00     0.049 A 
ATOM     34  N   UNL A   1      39.457  30.505  32.153  1.00  0.00    -0.248 NA
ATOM     35  C   UNL A   1      37.529  31.814  31.991  1.00  0.00     0.031 C 
ATOM     36  C   UNL A   1      38.853  29.182  27.937  1.00  0.00     0.029 A 
ATOM     37  N   UNL A   1      40.167  29.019  29.741  1.00  0.00    -0.354 N 
ATOM     38  C   UNL A   1      39.211  31.112  33.377  1.00  0.00     0.074 A 
ATOM     39  C   UNL A   1      38.003  31.897  33.225  1.00  0.00     0.031 C 
ATOM     40  C   UNL A   1      39.798  28.262  27.671  1.00  0.00     0.029 A 
ATOM     41  C   UNL A   1      40.683  28.131  28.828  1.00  0.00     0.049 A 
ATOM     42  H   UNL A   1      40.560  29.164  30.631  1.00  0.00     0.167 HD
ATOM     43  C   UNL A   1      39.939  31.042  34.516  1.00  0.00     0.037 A 
ATOM     44  C   UNL A   1      41.746  27.308  28.919  1.00  0.00     0.037 A 
ATOM     45  C   UNL A   1      41.155  30.287  34.668  1.00  0.00     0.049 A 
ATOM     46  C   UNL A   1      42.585  27.315  30.173  1.00  0.00     0.074 A 
ATOM     47  C   UNL A   1      41.997  30.218  35.764  1.00  0.00     0.029 A 
ATOM     48  N   UNL A   1      41.704  29.473  33.690  1.00  0.00    -0.354 N 
ATOM     49  N   UNL A   1      42.374  27.929  31.311  1.00  0.00    -0.248 NA
ATOM     50  C   UNL A   1      43.829  26.529  30.141  1.00  0.00     0.031 C 
ATOM     51  C   UNL A   1      43.081  29.397  35.433  1.00  0.00     0.029 A 
ATOM     52  C   UNL A   1      42.889  28.919  34.147  1.00  0.00     0.049 A 
ATOM     53  H   UNL A   1      41.310  29.312  32.802  1.00  0.00     0.167 HD
ATOM     54  C   UNL A   1      43.451  27.604  32.127  1.00  0.00     0.074 A 
ATOM     55  C   UNL A   1      44.297  26.708  31.369  1.00  0.00     0.031 C 
ATOM     56  C   UNL A   1      43.722  28.026  33.385  1.00  0.00     0.037 A 
BRANCH  43  57
ATOM     57  C   UNL A   1      39.481  31.881  35.669  1.00  0.00     0.064 A 
ATOM     58  C   UNL A   1      38.526  31.423  36.586  1.00  0.00     0.173 A 
ATOM     59  C   UNL A   1      40.022  33.161  35.861  1.00  0.00     0.173 A 
ATOM     60  F   UNL A   1      37.966  30.213  36.431  1.00  0.00    -0.203 F 
ATOM     61  C   UNL A   1      38.114  32.227  37.646  1.00  0.00     0.198 A 
ATOM     62  C   UNL A   1      39.624  33.953  36.933  1.00  0.00     0.198 A 
ATOM     63  F   UNL A   1      40.940  33.642  35.008  1.00  0.00    -0.203 F 
ATOM     64  F   UNL A   1      37.170  31.788  38.491  1.00  0.00    -0.200 F 
ATOM     65  C   UNL A   1      38.666  33.488  37.821  1.00  0.00     0.200 A 
ATOM     66  F   UNL A   1      40.163  35.168  37.103  1.00  0.00    -0.200 F 
ATOM     67  F   UNL A   1      38.268  34.260  38.841  1.00  0.00    -0.200 F 
ENDBRANCH  43  57
BRANCH  44  68
ATOM     68  C   UNL A   1      42.108  26.408  27.791  1.00  0.00     0.064 A 
ATOM     69  C   UNL A   1      41.503  25.151  27.653  1.00  0.00     0.173 A 
ATOM     70  C   UNL A   1      43.103  26.755  26.865  1.00  0.00     0.173 A 
ATOM     71  F   UNL A   1      40.566  24.759  28.531  1.00  0.00    -0.203 F 
ATOM     72  C   UNL A   1      41.893  24.268  26.648  1.00  0.00     0.198 A 
ATOM     73  C   UNL A   1      43.472  25.884  25.843  1.00  0.00     0.198 A 
ATOM     74  F   UNL A   1      43.723  27.941  26.959  1.00  0.00    -0.203 F 
ATOM     75  F   UNL A   1      41.338  23.050  26.576  1.00  0.00    -0.200 F 
ATOM     76  C   UNL A   1      42.875  24.637  25.741  1.00  0.00     0.200 A 
ATOM     77  F   UNL A   1      44.415  26.248  24.963  1.00  0.00    -0.200 F 
ATOM     78  F   UNL A   1      43.255  23.786  24.778  1.00  0.00    -0.200 F 
ENDBRANCH  44  68
BRANCH  56  79
ATOM     79  C   UNL A   1      44.986  27.529  34.027  1.00  0.00     0.064 A 
ATOM     80  C   UNL A   1      45.012  26.331  34.756  1.00  0.00     0.173 A 
ATOM     81  C   UNL A   1      46.193  28.226  33.866  1.00  0.00     0.173 A 
ATOM     82  F   UNL A   1      43.882  25.635  34.950  1.00  0.00    -0.203 F 
ATOM     83  C   UNL A   1      46.197  25.858  35.316  1.00  0.00     0.198 A 
ATOM     84  C   UNL A   1      47.380  27.736  34.404  1.00  0.00     0.198 A 
ATOM     85  F   UNL A   1      46.224  29.373  33.172  1.00  0.00    -0.203 F 
ATOM     86  F   UNL A   1      46.190  24.730  36.039  1.00  0.00    -0.200 F 
ATOM     87  C   UNL A   1      47.380  26.556  35.132  1.00  0.00     0.200 A 
ATOM     88  F   UNL A   1      48.527  28.406  34.217  1.00  0.00    -0.200 F 
ATOM     89  F   UNL A   1      48.522  26.094  35.663  1.00  0.00    -0.200 F 
ENDBRANCH  56  79
ENDBRANCH  30  31
ENDBRANCH  23  25
ENDBRANCH  22  23
ENDBRANCH  21  22
ENDBRANCH   1  21
TORSDOF 15
ENDMDL
MODEL 3
REMARK VINA RESULT:     -11.4      1.234      7.677
REMARK SMILES C[C@@H](C(=O)OCCOC(=O)c1ccc(-c2c3nc(c(-c4c(F)c(F)c(F)c(F)c4F)c4ccc([nH]4)c(-c4c(F)c(F)c(F)c(F)c4F)c4nc(c(-c5c(F)c(F)c(F)c(F)c5F)c5ccc2[nH]5)C=C4)C=C3)cc1)c1ccc(C[C@@H]2CCC[C@@H]2O)cc1
REMARK SMILES IDX 6 1 5 2 3 3 4 4 2 5 1 6 74 7 75 8 86 9 76 10 85 11 77 12
REMARK SMILES IDX 78 13 79 14 80 15 83 16 81 17 82 18 84 19 7 21 8 22 9 23
REMARK SMILES IDX 10 24 11 25 12 26 73 27 13 28 72 29 14 30 15 31 16 32 66 33
REMARK SMILES IDX 17 34 71 35 65 36 67 37 18 38 70 39 64 40 63 41 19 43 51 44
REMARK SMILES IDX 31 45 50 46 32 47 35 48 49 49 68 50 33 51 34 52 48 54 69 55
REMARK SMILES IDX 36 56 20 57 21 58 29 59 22 60 23 61 27 62 30 63 24 64 25 65
REMARK SMILES IDX 28 66 26 67 52 68 53 69 61 70 54 71 55 72 59 73 62 74 56 75
REMARK SMILES IDX 57 76 60 77 58 78 37 79 38 80 46 81 39 82 40 83 44 84 47 85
REMARK SMILES IDX 41 86 42 87 45 88 43 89
REMARK H PARENT 84 20 67 42 35 53
REMARK Flexibility Score: inf
ROOT
ATOM      1  C   UNL A   1      31.660  29.083  24.253  1.00  0.00     0.274 C 
ENDROOT
BRANCH   1   2
ATOM      2  O   UNL A   1      30.337  28.544  24.042  1.00  0.00    -0.462 OA
BRANCH   2   3
ATOM      3  C   UNL A   1      30.241  27.608  23.053  1.00  0.00     0.313 C 
ATOM      4  O   UNL A   1      30.653  27.821  21.919  1.00  0.00    -0.252 OA
BRANCH   3   5
ATOM      5  C   UNL A   1      29.474  26.332  23.501  1.00  0.00     0.126 C 
ATOM      6  C   UNL A   1      28.096  26.703  24.075  1.00  0.00     0.025 C 
BRANCH   5   7
ATOM      7  C   UNL A   1      30.302  25.426  24.435  1.00  0.00    -0.034 A 
ATOM      8  C   UNL A   1      30.727  24.168  23.986  1.00  0.00     0.005 A 
ATOM      9  C   UNL A   1      30.687  25.790  25.736  1.00  0.00     0.005 A 
ATOM     10  C   UNL A   1      31.638  23.399  24.712  1.00  0.00     0.004 A 
ATOM     11  C   UNL A   1      31.542  24.976  26.501  1.00  0.00     0.004 A 
ATOM     12  C   UNL A   1      32.051  23.776  25.986  1.00  0.00    -0.048 A 
BRANCH  12  13
ATOM     13  C   UNL A   1      33.099  22.991  26.743  1.00  0.00     0.041 C 
BRANCH  13  14
ATOM     14  C   UNL A   1      34.595  23.151  26.394  1.00  0.00     0.022 C 
ATOM     15  C   UNL A   1      34.949  24.318  25.465  1.00  0.00     0.007 C 
ATOM     16  C   UNL A   1      35.284  21.958  25.728  1.00  0.00     0.117 C 
ATOM     17  C   UNL A   1      35.228  23.720  24.082  1.00  0.00     0.003 C 
ATOM     18  C   UNL A   1      35.133  22.206  24.234  1.00  0.00     0.032 C 
BRANCH  16  19
ATOM     19  O   UNL A   1      34.775  20.703  26.129  1.00  0.00    -0.393 OA
ATOM     20  H   UNL A   1      34.881  20.065  25.407  1.00  0.00     0.210 HD
ENDBRANCH  16  19
ENDBRANCH  13  14
ENDBRANCH  12  13
ENDBRANCH   5   7
ENDBRANCH   3   5
ENDBRANCH   2   3
ENDBRANCH   1   2
BRANCH   1  21
ATOM     21  C   UNL A   1      31.770  29.899  25.547  1.00  0.00     0.275 C 
BRANCH  21  22
ATOM     22  O   UNL A   1      33.115  30.348  25.807  1.00  0.00    -0.458 OA
BRANCH  22  23
ATOM     23  C   UNL A   1      33.234  31.223  26.835  1.00  0.00     0.338 C 
ATOM     24  O   UNL A   1      32.405  32.046  27.189  1.00  0.00    -0.246 OA
BRANCH  23  25
ATOM     25  C   UNL A   1      34.463  30.958  27.610  1.00  0.00     0.060 A 
ATOM     26  C   UNL A   1      34.681  29.636  27.996  1.00  0.00     0.016 A 
ATOM     27  C   UNL A   1      35.358  31.955  28.010  1.00  0.00     0.016 A 
ATOM     28  C   UNL A   1      35.802  29.295  28.745  1.00  0.00     0.010 A 
ATOM     29  C   UNL A   1      36.476  31.614  28.792  1.00  0.00     0.010 A 
ATOM     30  C   UNL A   1      36.707  30.278  29.156  1.00  0.00    -0.014 A 
BRANCH  30  31
ATOM     31  C   UNL A   1      37.842  29.859  30.017  1.00  0.00     0.031 A 
ATOM     32  C   UNL A   1      38.943  29.020  29.436  1.00  0.00     0.074 A 
ATOM     33  C   UNL A   1      37.964  30.344  31.267  1.00  0.00     0.049 A 
ATOM     34  N   UNL A   1      40.056  28.609  29.990  1.00  0.00    -0.248 NA
ATOM     35  C   UNL A   1      38.778  28.606  28.035  1.00  0.00     0.031 C 
ATOM     36  C   UNL A   1      37.025  31.261  31.907  1.00  0.00     0.029 A 
ATOM     37  N   UNL A   1      38.953  30.165  32.203  1.00  0.00    -0.354 N 
ATOM     38  C   UNL A   1      40.716  27.879  29.012  1.00  0.00     0.074 A 
ATOM     39  C   UNL A   1      39.891  27.920  27.823  1.00  0.00     0.031 C 
ATOM     40  C   UNL A   1      37.499  31.591  33.122  1.00  0.00     0.029 A 
ATOM     41  C   UNL A   1      38.759  30.888  33.356  1.00  0.00     0.049 A 
ATOM     42  H   UNL A   1      39.728  29.575  32.062  1.00  0.00     0.167 HD
ATOM     43  C   UNL A   1      41.891  27.213  29.105  1.00  0.00     0.037 A 
ATOM     44  C   UNL A   1      39.515  30.970  34.469  1.00  0.00     0.037 A 
ATOM     45  C   UNL A   1      42.705  27.143  30.290  1.00  0.00     0.049 A 
ATOM     46  C   UNL A   1      40.777  30.149  34.572  1.00  0.00     0.074 A 
ATOM     47  C   UNL A   1      43.873  26.430  30.496  1.00  0.00     0.029 A 
ATOM     48  N   UNL A   1      42.428  27.808  31.474  1.00  0.00    -0.354 N 
ATOM     49  N   UNL A   1      41.371  29.421  33.660  1.00  0.00    -0.248 NA
ATOM     50  C   UNL A   1      41.459  30.146  35.877  1.00  0.00     0.031 C 
ATOM     51  C   UNL A   1      44.280  26.628  31.819  1.00  0.00     0.029 A 
ATOM     52  C   UNL A   1      43.390  27.501  32.424  1.00  0.00     0.049 A 
ATOM     53  H   UNL A   1      41.663  28.410  31.620  1.00  0.00     0.167 HD
ATOM     54  C   UNL A   1      42.493  28.877  34.275  1.00  0.00     0.074 A 
ATOM     55  C   UNL A   1      42.518  29.388  35.628  1.00  0.00     0.031 C 
ATOM     56  C   UNL A   1      43.408  28.017  33.768  1.00  0.00     0.037 A 
BRANCH  43  57
ATOM     57  C   UNL A   1      42.324  26.427  27.906  1.00  0.00     0.064 A 
ATOM     58  C   UNL A   1      41.840  25.138  27.649  1.00  0.00     0.173 A 
ATOM     59  C   UNL A   1      43.232  26.987  26.993  1.00  0.00     0.173 A 
ATOM     60  F   UNL A   1      40.986  24.554  28.504  1.00  0.00    -0.203 F 
ATOM     61  C   UNL A   1      42.264  24.428  26.528  1.00  0.00     0.198 A 
ATOM     62  C   UNL A   1      43.637  26.284  25.864  1.00  0.00     0.198 A 
ATOM     63  F   UNL A   1      43.723  28.219  27.199  1.00  0.00    -0.203 F 
ATOM     64  F   UNL A   1      41.820  23.181  26.319  1.00  0.00    -0.200 F 
ATOM     65  C   UNL A   1      43.158  25.004  25.635  1.00  0.00     0.200 A 
ATOM     66  F   UNL A   1      44.495  26.843  25.001  1.00  0.00    -0.200 F 
ATOM     67  F   UNL A   1      43.565  24.318  24.557  1.00  0.00    -0.200 F 
ENDBRANCH  43  57
BRANCH  44  68
ATOM     68  C   UNL A   1      39.107  31.845  35.600  1.00  0.00     0.064 A 
ATOM     69  C   UNL A   1      38.277  31.359  36.621  1.00  0.00     0.173 A 
ATOM     70  C   UNL A   1      39.483  33.195  35.657  1.00  0.00     0.173 A 
ATOM     71  F   UNL A   1      37.865  30.082  36.597  1.00  0.00    -0.203 F 
ATOM     72  C   UNL A   1      37.822  32.193  37.640  1.00  0.00     0.198 A 
ATOM     73  C   UNL A   1      39.051  34.021  36.693  1.00  0.00     0.198 A 
ATOM     74  F   UNL A   1      40.265  33.715  34.699  1.00  0.00    -0.203 F 
ATOM     75  F   UNL A   1      36.983  31.715  38.570  1.00  0.00    -0.200 F 
ATOM     76  C   UNL A   1      38.213  33.522  37.678  1.00  0.00     0.200 A 
ATOM     77  F   UNL A   1      39.439  35.303  36.729  1.00  0.00    -0.200 F 
ATOM     78  F   UNL A   1      37.771  34.326  38.654  1.00  0.00    -0.200 F 
ENDBRANCH  44  68
BRANCH  56  79
ATOM     79  C   UNL A   1      44.517  27.567  34.675  1.00  0.00     0.064 A 
ATOM     80  C   UNL A   1      45.714  28.290  34.780  1.00  0.00     0.173 A 
ATOM     81  C   UNL A   1      44.361  26.435  35.491  1.00  0.00     0.173 A 
ATOM     82  F   UNL A   1      45.918  29.372  34.012  1.00  0.00    -0.203 F 
ATOM     83  C   UNL A   1      46.722  27.887  35.653  1.00  0.00     0.198 A 
ATOM     84  C   UNL A   1      45.359  26.051  36.381  1.00  0.00     0.198 A 
ATOM     85  F   UNL A   1      43.232  25.712  35.435  1.00  0.00    -0.203 F 
ATOM     86  F   UNL A   1      47.871  28.573  35.708  1.00  0.00    -0.200 F 
ATOM     87  C   UNL A   1      46.540  26.773  36.458  1.00  0.00     0.200 A 
ATOM     88  F   UNL A   1      45.178  24.980  37.168  1.00  0.00    -0.200 F 
ATOM     89  F   UNL A   1      47.507  26.392  37.306  1.00  0.00    -0.200 F 
ENDBRANCH  56  79
ENDBRANCH  30  31
ENDBRANCH  23  25
ENDBRANCH  22  23
ENDBRANCH  21  22
ENDBRANCH   1  21
TORSDOF 15
ENDMDL
