MODEL 1
REMARK VINA RESULT:     -11.8      0.000      0.000
REMARK SMILES CCOC(=O)c1noc(C)c1C(=O)OCCOC(=O)c1ccc(-c2c3nc(c(-c4c(F)c(F)c(F)c(F)c4F)c4ccc([nH]4)c(-c4c(F)c(F)c(F)c(F)c4F)c4nc(c(-c5c(F)c(F)c(F)c(F)c5F)c5ccc2[nH]5)C=C4)C=C3)cc1
REMARK SMILES IDX 15 1 14 2 12 3 13 4 11 5 6 6 7 7 8 8 9 9 10 10 4 11 5 12
REMARK SMILES IDX 3 13 2 14 1 15 16 16 17 17 18 18 19 19 20 20 21 21 82 22
REMARK SMILES IDX 22 23 81 24 23 25 24 26 25 27 75 28 26 29 80 30 74 31 76 32
REMARK SMILES IDX 27 33 79 34 73 35 72 36 28 38 60 39 40 40 59 41 41 42 44 43
REMARK SMILES IDX 58 44 77 45 42 46 43 47 57 49 78 50 45 51 29 52 30 53 38 54
REMARK SMILES IDX 31 55 32 56 36 57 39 58 33 59 34 60 37 61 35 62 61 63 62 64
REMARK SMILES IDX 70 65 63 66 64 67 68 68 71 69 65 70 66 71 69 72 67 73 46 74
REMARK SMILES IDX 47 75 55 76 48 77 49 78 53 79 56 80 50 81 51 82 54 83 52 84
REMARK H PARENT 76 37 44 48
REMARK Flexibility Score: inf
ROOT
ATOM      1  C   UNL A   1      31.431  28.116  25.088  1.00  0.00     0.275 C 
ENDROOT
BRANCH   1   2
ATOM      2  O   UNL A   1      30.524  27.486  24.147  1.00  0.00    -0.458 OA
BRANCH   2   3
ATOM      3  C   UNL A   1      30.992  27.370  22.864  1.00  0.00     0.344 C 
ATOM      4  O   UNL A   1      30.513  27.994  21.924  1.00  0.00    -0.246 OA
BRANCH   3   5
ATOM      5  C   UNL A   1      32.041  26.376  22.707  1.00  0.00     0.137 A 
ATOM      6  C   UNL A   1      32.216  24.911  22.866  1.00  0.00     0.206 A 
ATOM      7  N   UNL A   1      33.529  24.657  22.623  1.00  0.00    -0.072 NA
ATOM      8  O   UNL A   1      34.157  25.825  22.293  1.00  0.00    -0.360 OA
ATOM      9  C   UNL A   1      33.283  26.845  22.321  1.00  0.00     0.149 A 
ATOM     10  C   UNL A   1      33.802  28.192  21.975  1.00  0.00     0.092 C 
BRANCH   6  11
ATOM     11  C   UNL A   1      31.390  23.605  23.135  1.00  0.00     0.361 C 
ATOM     12  O   UNL A   1      30.155  23.690  23.125  1.00  0.00    -0.244 OA
BRANCH  11  13
ATOM     13  O   UNL A   1      31.903  22.230  23.338  1.00  0.00    -0.461 OA
BRANCH  13  14
ATOM     14  C   UNL A   1      33.035  20.643  23.862  1.00  0.00     0.230 C 
ATOM     15  C   UNL A   1      34.250  20.567  24.984  1.00  0.00     0.049 C 
ENDBRANCH  13  14
ENDBRANCH  11  13
ENDBRANCH   6  11
ENDBRANCH   3   5
ENDBRANCH   2   3
ENDBRANCH   1   2
BRANCH   1  16
ATOM     16  C   UNL A   1      31.378  29.641  24.948  1.00  0.00     0.275 C 
BRANCH  16  17
ATOM     17  O   UNL A   1      32.614  30.202  25.423  1.00  0.00    -0.458 OA
BRANCH  17  18
ATOM     18  C   UNL A   1      32.406  31.055  26.438  1.00  0.00     0.338 C 
ATOM     19  O   UNL A   1      31.426  31.755  26.642  1.00  0.00    -0.246 OA
BRANCH  18  20
ATOM     20  C   UNL A   1      33.488  31.084  27.399  1.00  0.00     0.060 A 
ATOM     21  C   UNL A   1      34.577  32.470  27.910  1.00  0.00     0.016 A 
ATOM     22  C   UNL A   1      34.046  29.390  27.641  1.00  0.00     0.016 A 
ATOM     23  C   UNL A   1      36.219  32.083  28.644  1.00  0.00     0.010 A 
ATOM     24  C   UNL A   1      35.620  29.053  28.374  1.00  0.00     0.010 A 
ATOM     25  C   UNL A   1      36.710  30.365  28.898  1.00  0.00    -0.014 A 
BRANCH  25  26
ATOM     26  C   UNL A   1      37.879  29.933  29.766  1.00  0.00     0.031 A 
ATOM     27  C   UNL A   1      38.029  30.355  31.215  1.00  0.00     0.074 A 
ATOM     28  C   UNL A   1      39.000  29.425  29.203  1.00  0.00     0.049 A 
ATOM     29  N   UNL A   1      39.034  30.134  32.036  1.00  0.00    -0.248 NA
ATOM     30  C   UNL A   1      36.994  31.231  31.775  1.00  0.00     0.031 C 
ATOM     31  C   UNL A   1      39.286  29.395  27.782  1.00  0.00     0.029 A 
ATOM     32  N   UNL A   1      40.141  28.863  29.736  1.00  0.00    -0.354 N 
ATOM     33  C   UNL A   1      38.800  30.914  33.164  1.00  0.00     0.074 A 
ATOM     34  C   UNL A   1      37.548  31.606  32.925  1.00  0.00     0.031 C 
ATOM     35  C   UNL A   1      40.374  28.669  27.525  1.00  0.00     0.029 A 
ATOM     36  C   UNL A   1      40.946  28.262  28.789  1.00  0.00     0.049 A 
ATOM     37  H   UNL A   1      40.359  28.887  30.696  1.00  0.00     0.167 HD
ATOM     38  C   UNL A   1      39.570  31.053  34.276  1.00  0.00     0.037 A 
ATOM     39  C   UNL A   1      42.027  27.472  28.898  1.00  0.00     0.037 A 
ATOM     40  C   UNL A   1      40.790  30.317  34.530  1.00  0.00     0.049 A 
ATOM     41  C   UNL A   1      42.635  27.300  30.247  1.00  0.00     0.074 A 
ATOM     42  C   UNL A   1      41.564  30.293  35.683  1.00  0.00     0.029 A 
ATOM     43  N   UNL A   1      41.413  29.470  33.626  1.00  0.00    -0.354 N 
ATOM     44  N   UNL A   1      42.317  27.915  31.356  1.00  0.00    -0.248 NA
ATOM     45  C   UNL A   1      43.767  26.375  30.364  1.00  0.00     0.031 C 
ATOM     46  C   UNL A   1      42.658  29.444  35.469  1.00  0.00     0.029 A 
ATOM     47  C   UNL A   1      42.546  28.904  34.201  1.00  0.00     0.049 A 
ATOM     48  H   UNL A   1      41.098  29.294  32.710  1.00  0.00     0.167 HD
ATOM     49  C   UNL A   1      43.236  27.490  32.294  1.00  0.00     0.074 A 
ATOM     50  C   UNL A   1      44.074  26.501  31.648  1.00  0.00     0.031 C 
ATOM     51  C   UNL A   1      43.391  27.930  33.564  1.00  0.00     0.037 A 
BRANCH  38  52
ATOM     52  C   UNL A   1      39.124  32.027  35.337  1.00  0.00     0.064 A 
ATOM     53  C   UNL A   1      38.333  31.624  36.423  1.00  0.00     0.173 A 
ATOM     54  C   UNL A   1      39.579  33.358  35.325  1.00  0.00     0.173 A 
ATOM     55  F   UNL A   1      37.880  30.364  36.497  1.00  0.00    -0.203 F 
ATOM     56  C   UNL A   1      37.992  32.517  37.439  1.00  0.00     0.198 A 
ATOM     57  C   UNL A   1      39.263  34.239  36.358  1.00  0.00     0.198 A 
ATOM     58  F   UNL A   1      40.359  33.798  34.326  1.00  0.00    -0.203 F 
ATOM     59  F   UNL A   1      37.210  32.112  38.449  1.00  0.00    -0.200 F 
ATOM     60  C   UNL A   1      38.465  33.819  37.410  1.00  0.00     0.200 A 
ATOM     61  F   UNL A   1      39.743  35.491  36.341  1.00  0.00    -0.200 F 
ATOM     62  F   UNL A   1      38.155  34.669  38.400  1.00  0.00    -0.200 F 
ENDBRANCH  38  52
BRANCH  39  63
ATOM     63  C   UNL A   1      42.519  26.706  27.720  1.00  0.00     0.064 A 
ATOM     64  C   UNL A   1      41.935  25.465  27.421  1.00  0.00     0.173 A 
ATOM     65  C   UNL A   1      43.503  27.186  26.847  1.00  0.00     0.173 A 
ATOM     66  F   UNL A   1      40.994  24.957  28.232  1.00  0.00    -0.203 F 
ATOM     67  C   UNL A   1      42.329  24.727  26.309  1.00  0.00     0.198 A 
ATOM     68  C   UNL A   1      43.869  26.464  25.710  1.00  0.00     0.198 A 
ATOM     69  F   UNL A   1      44.080  28.375  27.071  1.00  0.00    -0.203 F 
ATOM     70  F   UNL A   1      41.782  23.525  26.076  1.00  0.00    -0.200 F 
ATOM     71  C   UNL A   1      43.289  25.232  25.448  1.00  0.00     0.200 A 
ATOM     72  F   UNL A   1      44.775  26.970  24.862  1.00  0.00    -0.200 F 
ATOM     73  F   UNL A   1      43.654  24.532  24.365  1.00  0.00    -0.200 F 
ENDBRANCH  39  63
BRANCH  51  74
ATOM     74  C   UNL A   1      44.533  27.341  34.331  1.00  0.00     0.064 A 
ATOM     75  C   UNL A   1      44.367  26.186  35.111  1.00  0.00     0.173 A 
ATOM     76  C   UNL A   1      45.792  27.955  34.316  1.00  0.00     0.173 A 
ATOM     77  F   UNL A   1      43.172  25.579  35.175  1.00  0.00    -0.203 F 
ATOM     78  C   UNL A   1      45.416  25.686  35.876  1.00  0.00     0.198 A 
ATOM     79  C   UNL A   1      46.845  27.438  35.065  1.00  0.00     0.198 A 
ATOM     80  F   UNL A   1      45.994  29.066  33.591  1.00  0.00    -0.203 F 
ATOM     81  F   UNL A   1      45.220  24.617  36.660  1.00  0.00    -0.200 F 
ATOM     82  C   UNL A   1      46.653  26.311  35.850  1.00  0.00     0.200 A 
ATOM     83  F   UNL A   1      48.040  28.042  35.041  1.00  0.00    -0.200 F 
ATOM     84  F   UNL A   1      47.659  25.836  36.599  1.00  0.00    -0.200 F 
ENDBRANCH  51  74
ENDBRANCH  25  26
ENDBRANCH  18  20
ENDBRANCH  17  18
ENDBRANCH  16  17
ENDBRANCH   1  16
TORSDOF 14
ENDMDL
MODEL 2
REMARK VINA RESULT:     -11.7      4.095      9.732
REMARK SMILES CCOC(=O)c1noc(C)c1C(=O)OCCOC(=O)c1ccc(-c2c3nc(c(-c4c(F)c(F)c(F)c(F)c4F)c4ccc([nH]4)c(-c4c(F)c(F)c(F)c(F)c4F)c4nc(c(-c5c(F)c(F)c(F)c(F)c5F)c5ccc2[nH]5)C=C4)C=C3)cc1
REMARK SMILES IDX 15 1 14 2 12 3 13 4 11 5 6 6 7 7 8 8 9 9 10 10 4 11 5 12
REMARK SMILES IDX 3 13 2 14 1 15 16 16 17 17 18 18 19 19 20 20 21 21 82 22
REMARK SMILES IDX 22 23 81 24 23 25 24 26 25 27 75 28 26 29 80 30 74 31 76 32
REMARK SMILES IDX 27 33 79 34 73 35 72 36 28 38 60 39 40 40 59 41 41 42 44 43
REMARK SMILES IDX 58 44 77 45 42 46 43 47 57 49 78 50 45 51 29 52 30 53 38 54
REMARK SMILES IDX 31 55 32 56 36 57 39 58 33 59 34 60 37 61 35 62 61 63 62 64
REMARK SMILES IDX 70 65 63 66 64 67 68 68 71 69 65 70 66 71 69 72 67 73 46 74
REMARK SMILES IDX 47 75 55 76 48 77 49 78 53 79 56 80 50 81 51 82 54 83 52 84
REMARK H PARENT 76 37 44 48
REMARK Flexibility Score: inf
ROOT
ATOM      1  C   UNL A   1      33.794  22.171  25.653  1.00  0.00     0.275 C 
ENDROOT
BRANCH   1   2
ATOM      2  O   UNL A   1      34.118  23.496  25.160  1.00  0.00    -0.458 OA
BRANCH   2   3
ATOM      3  C   UNL A   1      33.049  24.257  24.765  1.00  0.00     0.344 C 
ATOM      4  O   UNL A   1      31.992  24.291  25.385  1.00  0.00    -0.246 OA
BRANCH   3   5
ATOM      5  C   UNL A   1      33.250  24.943  23.499  1.00  0.00     0.137 A 
ATOM      6  C   UNL A   1      33.527  26.317  23.010  1.00  0.00     0.206 A 
ATOM      7  N   UNL A   1      33.505  26.249  21.653  1.00  0.00    -0.072 NA
ATOM      8  O   UNL A   1      33.279  24.956  21.273  1.00  0.00    -0.360 OA
ATOM      9  C   UNL A   1      33.145  24.171  22.357  1.00  0.00     0.149 A 
ATOM     10  C   UNL A   1      32.903  22.726  22.121  1.00  0.00     0.092 C 
BRANCH   6  11
ATOM     11  C   UNL A   1      33.902  27.746  23.536  1.00  0.00     0.361 C 
ATOM     12  O   UNL A   1      34.389  28.549  22.729  1.00  0.00    -0.244 OA
BRANCH  11  13
ATOM     13  O   UNL A   1      33.685  28.303  24.892  1.00  0.00    -0.461 OA
BRANCH  13  14
ATOM     14  C   UNL A   1      33.916  29.270  26.648  1.00  0.00     0.230 C 
ATOM     15  C   UNL A   1      35.251  29.328  27.626  1.00  0.00     0.049 C 
ENDBRANCH  13  14
ENDBRANCH  11  13
ENDBRANCH   6  11
ENDBRANCH   3   5
ENDBRANCH   2   3
ENDBRANCH   1   2
BRANCH   1  16
ATOM     16  C   UNL A   1      34.898  21.174  25.286  1.00  0.00     0.275 C 
BRANCH  16  17
ATOM     17  O   UNL A   1      36.048  21.417  26.114  1.00  0.00    -0.458 OA
BRANCH  17  18
ATOM     18  C   UNL A   1      37.187  21.114  25.471  1.00  0.00     0.338 C 
ATOM     19  O   UNL A   1      37.385  20.202  24.685  1.00  0.00    -0.246 OA
BRANCH  18  20
ATOM     20  C   UNL A   1      38.270  22.033  25.751  1.00  0.00     0.060 A 
ATOM     21  C   UNL A   1      39.823  21.776  26.696  1.00  0.00     0.016 A 
ATOM     22  C   UNL A   1      37.635  23.703  25.538  1.00  0.00     0.016 A 
ATOM     23  C   UNL A   1      40.677  23.238  27.412  1.00  0.00     0.010 A 
ATOM     24  C   UNL A   1      38.497  25.091  26.217  1.00  0.00     0.010 A 
ATOM     25  C   UNL A   1      40.015  24.895  27.133  1.00  0.00    -0.014 A 
BRANCH  25  26
ATOM     26  C   UNL A   1      40.787  26.175  27.397  1.00  0.00     0.031 A 
ATOM     27  C   UNL A   1      42.189  26.417  26.870  1.00  0.00     0.074 A 
ATOM     28  C   UNL A   1      40.397  27.021  28.379  1.00  0.00     0.049 A 
ATOM     29  N   UNL A   1      42.994  27.430  27.108  1.00  0.00    -0.248 NA
ATOM     30  C   UNL A   1      42.810  25.343  26.084  1.00  0.00     0.031 C 
ATOM     31  C   UNL A   1      39.365  26.748  29.361  1.00  0.00     0.029 A 
ATOM     32  N   UNL A   1      40.828  28.275  28.758  1.00  0.00    -0.354 N 
ATOM     33  C   UNL A   1      44.236  27.076  26.590  1.00  0.00     0.074 A 
ATOM     34  C   UNL A   1      44.072  25.757  26.011  1.00  0.00     0.031 C 
ATOM     35  C   UNL A   1      39.078  27.838  30.073  1.00  0.00     0.029 A 
ATOM     36  C   UNL A   1      39.995  28.884  29.676  1.00  0.00     0.049 A 
ATOM     37  H   UNL A   1      41.647  28.694  28.409  1.00  0.00     0.167 HD
ATOM     38  C   UNL A   1      45.400  27.778  26.618  1.00  0.00     0.037 A 
ATOM     39  C   UNL A   1      39.952  30.136  30.161  1.00  0.00     0.037 A 
ATOM     40  C   UNL A   1      45.542  29.118  27.149  1.00  0.00     0.049 A 
ATOM     41  C   UNL A   1      41.077  31.054  29.827  1.00  0.00     0.074 A 
ATOM     42  C   UNL A   1      46.647  29.957  27.100  1.00  0.00     0.029 A 
ATOM     43  N   UNL A   1      44.550  29.819  27.817  1.00  0.00    -0.354 N 
ATOM     44  N   UNL A   1      42.187  30.769  29.197  1.00  0.00    -0.248 NA
ATOM     45  C   UNL A   1      40.981  32.439  30.299  1.00  0.00     0.031 C 
ATOM     46  C   UNL A   1      46.326  31.156  27.750  1.00  0.00     0.029 A 
ATOM     47  C   UNL A   1      45.009  31.084  28.167  1.00  0.00     0.049 A 
ATOM     48  H   UNL A   1      43.650  29.471  28.016  1.00  0.00     0.167 HD
ATOM     49  C   UNL A   1      42.944  31.923  29.235  1.00  0.00     0.074 A 
ATOM     50  C   UNL A   1      42.134  32.938  29.878  1.00  0.00     0.031 C 
ATOM     51  C   UNL A   1      44.218  32.095  28.815  1.00  0.00     0.037 A 
BRANCH  38  52
ATOM     52  C   UNL A   1      46.637  27.136  26.042  1.00  0.00     0.064 A 
ATOM     53  C   UNL A   1      47.069  27.405  24.735  1.00  0.00     0.173 A 
ATOM     54  C   UNL A   1      47.458  26.320  26.841  1.00  0.00     0.173 A 
ATOM     55  F   UNL A   1      46.334  28.187  23.930  1.00  0.00    -0.203 F 
ATOM     56  C   UNL A   1      48.256  26.866  24.241  1.00  0.00     0.198 A 
ATOM     57  C   UNL A   1      48.660  25.808  26.354  1.00  0.00     0.198 A 
ATOM     58  F   UNL A   1      47.113  26.044  28.108  1.00  0.00    -0.203 F 
ATOM     59  F   UNL A   1      48.629  27.117  22.979  1.00  0.00    -0.200 F 
ATOM     60  C   UNL A   1      49.054  26.077  25.053  1.00  0.00     0.200 A 
ATOM     61  F   UNL A   1      49.444  25.066  27.151  1.00  0.00    -0.200 F 
ATOM     62  F   UNL A   1      50.207  25.578  24.584  1.00  0.00    -0.200 F 
ENDBRANCH  38  52
BRANCH  39  63
ATOM     63  C   UNL A   1      38.757  30.611  30.908  1.00  0.00     0.064 A 
ATOM     64  C   UNL A   1      37.635  31.054  30.190  1.00  0.00     0.173 A 
ATOM     65  C   UNL A   1      38.662  30.587  32.305  1.00  0.00     0.173 A 
ATOM     66  F   UNL A   1      37.678  31.106  28.849  1.00  0.00    -0.203 F 
ATOM     67  C   UNL A   1      36.476  31.471  30.838  1.00  0.00     0.198 A 
ATOM     68  C   UNL A   1      37.486  30.967  32.953  1.00  0.00     0.198 A 
ATOM     69  F   UNL A   1      39.695  30.153  33.042  1.00  0.00    -0.203 F 
ATOM     70  F   UNL A   1      35.438  31.929  30.123  1.00  0.00    -0.200 F 
ATOM     71  C   UNL A   1      36.398  31.417  32.220  1.00  0.00     0.200 A 
ATOM     72  F   UNL A   1      37.403  30.883  34.288  1.00  0.00    -0.200 F 
ATOM     73  F   UNL A   1      35.276  31.798  32.844  1.00  0.00    -0.200 F 
ENDBRANCH  39  63
BRANCH  51  74
ATOM     74  C   UNL A   1      44.816  33.445  29.058  1.00  0.00     0.064 A 
ATOM     75  C   UNL A   1      45.492  33.737  30.253  1.00  0.00     0.173 A 
ATOM     76  C   UNL A   1      44.682  34.465  28.106  1.00  0.00     0.173 A 
ATOM     77  F   UNL A   1      45.622  32.798  31.203  1.00  0.00    -0.203 F 
ATOM     78  C   UNL A   1      45.984  35.014  30.500  1.00  0.00     0.198 A 
ATOM     79  C   UNL A   1      45.196  35.735  28.349  1.00  0.00     0.198 A 
ATOM     80  F   UNL A   1      44.037  34.234  26.954  1.00  0.00    -0.203 F 
ATOM     81  F   UNL A   1      46.573  35.288  31.672  1.00  0.00    -0.200 F 
ATOM     82  C   UNL A   1      45.838  36.011  29.547  1.00  0.00     0.200 A 
ATOM     83  F   UNL A   1      45.054  36.699  27.429  1.00  0.00    -0.200 F 
ATOM     84  F   UNL A   1      46.299  37.245  29.793  1.00  0.00    -0.200 F 
ENDBRANCH  51  74
ENDBRANCH  25  26
ENDBRANCH  18  20
ENDBRANCH  17  18
ENDBRANCH  16  17
ENDBRANCH   1  16
TORSDOF 14
ENDMDL
MODEL 3
REMARK VINA RESULT:     -11.7      3.711      8.867
REMARK SMILES CCOC(=O)c1noc(C)c1C(=O)OCCOC(=O)c1ccc(-c2c3nc(c(-c4c(F)c(F)c(F)c(F)c4F)c4ccc([nH]4)c(-c4c(F)c(F)c(F)c(F)c4F)c4nc(c(-c5c(F)c(F)c(F)c(F)c5F)c5ccc2[nH]5)C=C4)C=C3)cc1
REMARK SMILES IDX 15 1 14 2 12 3 13 4 11 5 6 6 7 7 8 8 9 9 10 10 4 11 5 12
REMARK SMILES IDX 3 13 2 14 1 15 16 16 17 17 18 18 19 19 20 20 21 21 82 22
REMARK SMILES IDX 22 23 81 24 23 25 24 26 25 27 75 28 26 29 80 30 74 31 76 32
REMARK SMILES IDX 27 33 79 34 73 35 72 36 28 38 60 39 40 40 59 41 41 42 44 43
REMARK SMILES IDX 58 44 77 45 42 46 43 47 57 49 78 50 45 51 29 52 30 53 38 54
REMARK SMILES IDX 31 55 32 56 36 57 39 58 33 59 34 60 37 61 35 62 61 63 62 64
REMARK SMILES IDX 70 65 63 66 64 67 68 68 71 69 65 70 66 71 69 72 67 73 46 74
REMARK SMILES IDX 47 75 55 76 48 77 49 78 53 79 56 80 50 81 51 82 54 83 52 84
REMARK H PARENT 76 37 44 48
REMARK Flexibility Score: inf
ROOT
ATOM      1  C   UNL A   1      42.645  20.976  26.107  1.00  0.00     0.275 C 
ENDROOT
BRANCH   1   2
ATOM      2  O   UNL A   1      41.357  21.501  25.694  1.00  0.00    -0.458 OA
BRANCH   2   3
ATOM      3  C   UNL A   1      40.412  21.593  26.683  1.00  0.00     0.344 C 
ATOM      4  O   UNL A   1      40.580  21.133  27.807  1.00  0.00    -0.246 OA
BRANCH   3   5
ATOM      5  C   UNL A   1      39.164  22.200  26.251  1.00  0.00     0.137 A 
ATOM      6  C   UNL A   1      37.917  21.801  25.552  1.00  0.00     0.206 A 
ATOM      7  N   UNL A   1      37.186  22.937  25.402  1.00  0.00    -0.072 NA
ATOM      8  O   UNL A   1      37.855  23.979  25.979  1.00  0.00    -0.360 OA
ATOM      9  C   UNL A   1      39.017  23.552  26.501  1.00  0.00     0.149 A 
ATOM     10  C   UNL A   1      39.868  24.562  27.179  1.00  0.00     0.092 C 
BRANCH   6  11
ATOM     11  C   UNL A   1      37.168  20.528  25.025  1.00  0.00     0.361 C 
ATOM     12  O   UNL A   1      37.853  19.578  24.626  1.00  0.00    -0.244 OA
BRANCH  11  13
ATOM     13  O   UNL A   1      35.708  20.277  25.001  1.00  0.00    -0.461 OA
BRANCH  13  14
ATOM     14  C   UNL A   1      33.703  20.507  25.014  1.00  0.00     0.230 C 
ATOM     15  C   UNL A   1      32.738  21.219  23.872  1.00  0.00     0.049 C 
ENDBRANCH  13  14
ENDBRANCH  11  13
ENDBRANCH   6  11
ENDBRANCH   3   5
ENDBRANCH   2   3
ENDBRANCH   1   2
BRANCH   1  16
ATOM     16  C   UNL A   1      43.743  21.416  25.134  1.00  0.00     0.275 C 
BRANCH  16  17
ATOM     17  O   UNL A   1      43.293  22.571  24.405  1.00  0.00    -0.458 OA
BRANCH  17  18
ATOM     18  C   UNL A   1      44.066  23.640  24.655  1.00  0.00     0.338 C 
ATOM     19  O   UNL A   1      45.197  23.859  24.251  1.00  0.00    -0.246 OA
BRANCH  18  20
ATOM     20  C   UNL A   1      43.420  24.640  25.477  1.00  0.00     0.060 A 
ATOM     21  C   UNL A   1      43.065  26.407  25.129  1.00  0.00     0.016 A 
ATOM     22  C   UNL A   1      43.510  24.081  27.185  1.00  0.00     0.016 A 
ATOM     23  C   UNL A   1      42.826  27.559  26.542  1.00  0.00     0.010 A 
ATOM     24  C   UNL A   1      43.249  25.210  28.521  1.00  0.00     0.010 A 
ATOM     25  C   UNL A   1      42.889  26.934  28.234  1.00  0.00    -0.014 A 
BRANCH  25  26
ATOM     26  C   UNL A   1      42.404  27.709  29.447  1.00  0.00     0.031 A 
ATOM     27  C   UNL A   1      43.106  27.660  30.791  1.00  0.00     0.074 A 
ATOM     28  C   UNL A   1      41.150  28.218  29.479  1.00  0.00     0.049 A 
ATOM     29  N   UNL A   1      42.735  28.200  31.932  1.00  0.00    -0.248 NA
ATOM     30  C   UNL A   1      44.295  26.807  30.902  1.00  0.00     0.031 C 
ATOM     31  C   UNL A   1      40.113  27.954  28.501  1.00  0.00     0.029 A 
ATOM     32  N   UNL A   1      40.498  29.037  30.375  1.00  0.00    -0.354 N 
ATOM     33  C   UNL A   1      43.580  27.680  32.907  1.00  0.00     0.074 A 
ATOM     34  C   UNL A   1      44.493  26.789  32.218  1.00  0.00     0.031 C 
ATOM     35  C   UNL A   1      39.054  28.741  28.699  1.00  0.00     0.029 A 
ATOM     36  C   UNL A   1      39.286  29.504  29.905  1.00  0.00     0.049 A 
ATOM     37  H   UNL A   1      40.859  29.267  31.262  1.00  0.00     0.167 HD
ATOM     38  C   UNL A   1      43.574  27.909  34.247  1.00  0.00     0.037 A 
ATOM     39  C   UNL A   1      38.438  30.436  30.371  1.00  0.00     0.037 A 
ATOM     40  C   UNL A   1      42.695  28.841  34.920  1.00  0.00     0.049 A 
ATOM     41  C   UNL A   1      38.694  30.998  31.727  1.00  0.00     0.074 A 
ATOM     42  C   UNL A   1      42.705  29.237  36.251  1.00  0.00     0.029 A 
ATOM     43  N   UNL A   1      41.653  29.531  34.318  1.00  0.00    -0.354 N 
ATOM     44  N   UNL A   1      39.594  30.621  32.597  1.00  0.00    -0.248 NA
ATOM     45  C   UNL A   1      37.806  32.068  32.192  1.00  0.00     0.031 C 
ATOM     46  C   UNL A   1      41.664  30.152  36.453  1.00  0.00     0.029 A 
ATOM     47  C   UNL A   1      41.030  30.361  35.242  1.00  0.00     0.049 A 
ATOM     48  H   UNL A   1      41.393  29.444  33.372  1.00  0.00     0.167 HD
ATOM     49  C   UNL A   1      39.356  31.372  33.730  1.00  0.00     0.074 A 
ATOM     50  C   UNL A   1      38.278  32.287  33.412  1.00  0.00     0.031 C 
ATOM     51  C   UNL A   1      39.953  31.265  34.939  1.00  0.00     0.037 A 
BRANCH  38  52
ATOM     52  C   UNL A   1      44.561  27.158  35.106  1.00  0.00     0.064 A 
ATOM     53  C   UNL A   1      45.819  27.692  35.423  1.00  0.00     0.173 A 
ATOM     54  C   UNL A   1      44.206  25.935  35.703  1.00  0.00     0.173 A 
ATOM     55  F   UNL A   1      46.208  28.861  34.895  1.00  0.00    -0.203 F 
ATOM     56  C   UNL A   1      46.691  27.023  36.281  1.00  0.00     0.198 A 
ATOM     57  C   UNL A   1      45.068  25.284  36.585  1.00  0.00     0.198 A 
ATOM     58  F   UNL A   1      43.008  25.384  35.457  1.00  0.00    -0.203 F 
ATOM     59  F   UNL A   1      47.898  27.542  36.544  1.00  0.00    -0.200 F 
ATOM     60  C   UNL A   1      46.311  25.826  36.868  1.00  0.00     0.200 A 
ATOM     61  F   UNL A   1      44.688  24.139  37.171  1.00  0.00    -0.200 F 
ATOM     62  F   UNL A   1      47.143  25.196  37.710  1.00  0.00    -0.200 F 
ENDBRANCH  38  52
BRANCH  39  63
ATOM     63  C   UNL A   1      37.353  30.966  29.502  1.00  0.00     0.064 A 
ATOM     64  C   UNL A   1      36.205  30.185  29.292  1.00  0.00     0.173 A 
ATOM     65  C   UNL A   1      37.384  32.240  28.922  1.00  0.00     0.173 A 
ATOM     66  F   UNL A   1      36.129  28.953  29.819  1.00  0.00    -0.203 F 
ATOM     67  C   UNL A   1      35.143  30.649  28.521  1.00  0.00     0.198 A 
ATOM     68  C   UNL A   1      36.302  32.720  28.183  1.00  0.00     0.198 A 
ATOM     69  F   UNL A   1      38.445  33.038  29.107  1.00  0.00    -0.203 F 
ATOM     70  F   UNL A   1      34.080  29.861  28.304  1.00  0.00    -0.200 F 
ATOM     71  C   UNL A   1      35.188  31.921  27.975  1.00  0.00     0.200 A 
ATOM     72  F   UNL A   1      36.336  33.964  27.683  1.00  0.00    -0.200 F 
ATOM     73  F   UNL A   1      34.157  32.378  27.251  1.00  0.00    -0.200 F 
ENDBRANCH  39  63
BRANCH  51  74
ATOM     74  C   UNL A   1      39.430  32.165  36.015  1.00  0.00     0.064 A 
ATOM     75  C   UNL A   1      40.012  33.418  36.262  1.00  0.00     0.173 A 
ATOM     76  C   UNL A   1      38.364  31.757  36.827  1.00  0.00     0.173 A 
ATOM     77  F   UNL A   1      41.051  33.838  35.525  1.00  0.00    -0.203 F 
ATOM     78  C   UNL A   1      39.565  34.217  37.309  1.00  0.00     0.198 A 
ATOM     79  C   UNL A   1      37.905  32.571  37.859  1.00  0.00     0.198 A 
ATOM     80  F   UNL A   1      37.783  30.565  36.632  1.00  0.00    -0.203 F 
ATOM     81  F   UNL A   1      40.173  35.383  37.566  1.00  0.00    -0.200 F 
ATOM     82  C   UNL A   1      38.511  33.794  38.104  1.00  0.00     0.200 A 
ATOM     83  F   UNL A   1      36.888  32.162  38.629  1.00  0.00    -0.200 F 
ATOM     84  F   UNL A   1      38.091  34.559  39.122  1.00  0.00    -0.200 F 
ENDBRANCH  51  74
ENDBRANCH  25  26
ENDBRANCH  18  20
ENDBRANCH  17  18
ENDBRANCH  16  17
ENDBRANCH   1  16
TORSDOF 14
ENDMDL
