MODEL 1
REMARK VINA RESULT:     -10.7      0.000      0.000
REMARK SMILES O=C(CCC(=O)OCCOC(=O)c1ccc(-c2c3nc(c(-c4c(F)c(F)c(F)c(F)c4F)c4ccc([nH]4)c(-c4c(F)c(F)c(F)c(F)c4F)c4nc(c(-c5c(F)c(F)c(F)c(F)c5F)c5ccc2[nH]5)C=C4)C=C3)cc1)Nc1nncs1
REMARK SMILES IDX 8 1 7 2 5 3 6 4 4 5 3 6 2 7 1 8 76 9 77 11 78 12 81 13 79 14
REMARK SMILES IDX 80 15 9 16 10 17 11 18 12 19 13 20 14 21 75 22 15 23 74 24
REMARK SMILES IDX 16 25 17 26 18 27 68 28 19 29 73 30 67 31 69 32 20 33 72 34
REMARK SMILES IDX 66 35 65 36 21 38 53 39 33 40 52 41 34 42 37 43 51 44 70 45
REMARK SMILES IDX 35 46 36 47 50 49 71 50 38 51 22 52 23 53 31 54 24 55 25 56
REMARK SMILES IDX 29 57 32 58 26 59 27 60 30 61 28 62 54 63 55 64 63 65 56 66
REMARK SMILES IDX 57 67 61 68 64 69 58 70 59 71 62 72 60 73 39 74 40 75 48 76
REMARK SMILES IDX 41 77 42 78 46 79 49 80 43 81 44 82 47 83 45 84
REMARK H PARENT 76 10 69 37 37 48
REMARK Flexibility Score: inf
ROOT
ATOM      1  C   UNL A   1      41.696  19.960  27.057  1.00  0.00     0.274 C 
ENDROOT
BRANCH   1   2
ATOM      2  O   UNL A   1      42.736  19.909  26.052  1.00  0.00    -0.462 OA
BRANCH   2   3
ATOM      3  C   UNL A   1      43.196  18.676  25.702  1.00  0.00     0.306 C 
ATOM      4  O   UNL A   1      42.537  17.645  25.759  1.00  0.00    -0.252 OA
BRANCH   3   5
ATOM      5  C   UNL A   1      44.651  18.707  25.285  1.00  0.00     0.132 C 
BRANCH   5   6
ATOM      6  C   UNL A   1      44.968  19.654  24.133  1.00  0.00     0.112 C 
BRANCH   6   7
ATOM      7  C   UNL A   1      45.495  20.982  24.640  1.00  0.00     0.226 C 
ATOM      8  O   UNL A   1      46.116  21.044  25.694  1.00  0.00    -0.275 OA
ATOM      9  N   UNL A   1      45.146  22.031  23.827  1.00  0.00    -0.301 N 
ATOM     10  H   UNL A   1      44.774  21.836  22.936  1.00  0.00     0.172 HD
BRANCH   9  11
ATOM     11  C   UNL A   1      45.296  23.333  24.208  1.00  0.00     0.212 A 
ATOM     12  N   UNL A   1      46.340  24.122  24.163  1.00  0.00    -0.120 NA
ATOM     13  S   UNL A   1      43.909  24.011  24.945  1.00  0.00    -0.083 S 
ATOM     14  N   UNL A   1      46.086  25.345  24.759  1.00  0.00    -0.145 NA
ATOM     15  C   UNL A   1      44.861  25.409  25.233  1.00  0.00     0.204 A 
ENDBRANCH   9  11
ENDBRANCH   6   7
ENDBRANCH   5   6
ENDBRANCH   3   5
ENDBRANCH   2   3
ENDBRANCH   1   2
BRANCH   1  16
ATOM     16  C   UNL A   1      40.401  20.565  26.505  1.00  0.00     0.275 C 
BRANCH  16  17
ATOM     17  O   UNL A   1      40.536  21.983  26.312  1.00  0.00    -0.458 OA
BRANCH  17  18
ATOM     18  C   UNL A   1      39.366  22.658  26.251  1.00  0.00     0.338 C 
ATOM     19  O   UNL A   1      38.285  22.207  25.914  1.00  0.00    -0.246 OA
BRANCH  18  20
ATOM     20  C   UNL A   1      39.545  24.009  26.808  1.00  0.00     0.060 A 
ATOM     21  C   UNL A   1      40.178  24.972  26.016  1.00  0.00     0.016 A 
ATOM     22  C   UNL A   1      39.153  24.309  28.114  1.00  0.00     0.016 A 
ATOM     23  C   UNL A   1      40.444  26.236  26.534  1.00  0.00     0.010 A 
ATOM     24  C   UNL A   1      39.421  25.579  28.633  1.00  0.00     0.010 A 
ATOM     25  C   UNL A   1      40.089  26.541  27.856  1.00  0.00    -0.014 A 
BRANCH  25  26
ATOM     26  C   UNL A   1      40.519  27.829  28.449  1.00  0.00     0.031 A 
ATOM     27  C   UNL A   1      41.971  28.038  28.773  1.00  0.00     0.074 A 
ATOM     28  C   UNL A   1      39.628  28.815  28.660  1.00  0.00     0.049 A 
ATOM     29  N   UNL A   1      42.559  29.063  29.337  1.00  0.00    -0.248 NA
ATOM     30  C   UNL A   1      42.888  26.943  28.415  1.00  0.00     0.031 C 
ATOM     31  C   UNL A   1      38.200  28.743  28.353  1.00  0.00     0.029 A 
ATOM     32  N   UNL A   1      39.796  30.072  29.186  1.00  0.00    -0.354 N 
ATOM     33  C   UNL A   1      43.907  28.736  29.403  1.00  0.00     0.074 A 
ATOM     34  C   UNL A   1      44.048  27.405  28.855  1.00  0.00     0.031 C 
ATOM     35  C   UNL A   1      37.620  29.902  28.704  1.00  0.00     0.029 A 
ATOM     36  C   UNL A   1      38.628  30.785  29.287  1.00  0.00     0.049 A 
ATOM     37  H   UNL A   1      40.671  30.427  29.464  1.00  0.00     0.167 HD
ATOM     38  C   UNL A   1      44.937  29.487  29.863  1.00  0.00     0.037 A 
ATOM     39  C   UNL A   1      38.399  32.006  29.808  1.00  0.00     0.037 A 
ATOM     40  C   UNL A   1      44.794  30.810  30.410  1.00  0.00     0.049 A 
ATOM     41  C   UNL A   1      39.557  32.801  30.353  1.00  0.00     0.074 A 
ATOM     42  C   UNL A   1      45.768  31.637  30.942  1.00  0.00     0.029 A 
ATOM     43  N   UNL A   1      43.595  31.504  30.486  1.00  0.00    -0.354 N 
ATOM     44  N   UNL A   1      40.827  32.480  30.420  1.00  0.00    -0.248 NA
ATOM     45  C   UNL A   1      39.251  34.137  30.884  1.00  0.00     0.031 C 
ATOM     46  C   UNL A   1      45.154  32.823  31.364  1.00  0.00     0.029 A 
ATOM     47  C   UNL A   1      43.807  32.752  31.052  1.00  0.00     0.049 A 
ATOM     48  H   UNL A   1      42.724  31.162  30.184  1.00  0.00     0.167 HD
ATOM     49  C   UNL A   1      41.473  33.583  30.964  1.00  0.00     0.074 A 
ATOM     50  C   UNL A   1      40.458  34.588  31.195  1.00  0.00     0.031 C 
ATOM     51  C   UNL A   1      42.788  33.749  31.248  1.00  0.00     0.037 A 
BRANCH  38  52
ATOM     52  C   UNL A   1      46.311  28.887  29.804  1.00  0.00     0.064 A 
ATOM     53  C   UNL A   1      46.807  28.092  30.848  1.00  0.00     0.173 A 
ATOM     54  C   UNL A   1      47.125  29.076  28.678  1.00  0.00     0.173 A 
ATOM     55  F   UNL A   1      46.074  27.896  31.954  1.00  0.00    -0.203 F 
ATOM     56  C   UNL A   1      48.076  27.524  30.774  1.00  0.00     0.198 A 
ATOM     57  C   UNL A   1      48.382  28.484  28.596  1.00  0.00     0.198 A 
ATOM     58  F   UNL A   1      46.697  29.827  27.652  1.00  0.00    -0.203 F 
ATOM     59  F   UNL A   1      48.545  26.801  31.801  1.00  0.00    -0.200 F 
ATOM     60  C   UNL A   1      48.859  27.713  29.646  1.00  0.00     0.200 A 
ATOM     61  F   UNL A   1      49.134  28.659  27.500  1.00  0.00    -0.200 F 
ATOM     62  F   UNL A   1      50.076  27.158  29.572  1.00  0.00    -0.200 F 
ENDBRANCH  38  52
BRANCH  39  63
ATOM     63  C   UNL A   1      37.018  32.555  29.852  1.00  0.00     0.064 A 
ATOM     64  C   UNL A   1      36.491  33.285  28.777  1.00  0.00     0.173 A 
ATOM     65  C   UNL A   1      36.214  32.399  30.991  1.00  0.00     0.173 A 
ATOM     66  F   UNL A   1      37.231  33.483  27.676  1.00  0.00    -0.203 F 
ATOM     67  C   UNL A   1      35.227  33.868  28.854  1.00  0.00     0.198 A 
ATOM     68  C   UNL A   1      34.938  32.954  31.053  1.00  0.00     0.198 A 
ATOM     69  F   UNL A   1      36.670  31.709  32.047  1.00  0.00    -0.203 F 
ATOM     70  F   UNL A   1      34.775  34.614  27.838  1.00  0.00    -0.200 F 
ATOM     71  C   UNL A   1      34.450  33.699  29.989  1.00  0.00     0.200 A 
ATOM     72  F   UNL A   1      34.186  32.779  32.148  1.00  0.00    -0.200 F 
ATOM     73  F   UNL A   1      33.238  34.264  30.065  1.00  0.00    -0.200 F 
ENDBRANCH  39  63
BRANCH  51  74
ATOM     74  C   UNL A   1      43.211  35.089  31.776  1.00  0.00     0.064 A 
ATOM     75  C   UNL A   1      43.138  35.405  33.142  1.00  0.00     0.173 A 
ATOM     76  C   UNL A   1      43.712  36.066  30.902  1.00  0.00     0.173 A 
ATOM     77  F   UNL A   1      42.653  34.511  34.016  1.00  0.00    -0.203 F 
ATOM     78  C   UNL A   1      43.515  36.663  33.606  1.00  0.00     0.198 A 
ATOM     79  C   UNL A   1      44.118  37.311  31.374  1.00  0.00     0.198 A 
ATOM     80  F   UNL A   1      43.812  35.811  29.589  1.00  0.00    -0.203 F 
ATOM     81  F   UNL A   1      43.381  36.962  34.904  1.00  0.00    -0.200 F 
ATOM     82  C   UNL A   1      44.009  37.611  32.723  1.00  0.00     0.200 A 
ATOM     83  F   UNL A   1      44.607  38.222  30.522  1.00  0.00    -0.200 F 
ATOM     84  F   UNL A   1      44.371  38.821  33.172  1.00  0.00    -0.200 F 
ENDBRANCH  51  74
ENDBRANCH  25  26
ENDBRANCH  18  20
ENDBRANCH  17  18
ENDBRANCH  16  17
ENDBRANCH   1  16
TORSDOF 14
ENDMDL
MODEL 2
REMARK VINA RESULT:     -10.6      3.892      5.373
REMARK SMILES O=C(CCC(=O)OCCOC(=O)c1ccc(-c2c3nc(c(-c4c(F)c(F)c(F)c(F)c4F)c4ccc([nH]4)c(-c4c(F)c(F)c(F)c(F)c4F)c4nc(c(-c5c(F)c(F)c(F)c(F)c5F)c5ccc2[nH]5)C=C4)C=C3)cc1)Nc1nncs1
REMARK SMILES IDX 8 1 7 2 5 3 6 4 4 5 3 6 2 7 1 8 76 9 77 11 78 12 81 13 79 14
REMARK SMILES IDX 80 15 9 16 10 17 11 18 12 19 13 20 14 21 75 22 15 23 74 24
REMARK SMILES IDX 16 25 17 26 18 27 68 28 19 29 73 30 67 31 69 32 20 33 72 34
REMARK SMILES IDX 66 35 65 36 21 38 53 39 33 40 52 41 34 42 37 43 51 44 70 45
REMARK SMILES IDX 35 46 36 47 50 49 71 50 38 51 22 52 23 53 31 54 24 55 25 56
REMARK SMILES IDX 29 57 32 58 26 59 27 60 30 61 28 62 54 63 55 64 63 65 56 66
REMARK SMILES IDX 57 67 61 68 64 69 58 70 59 71 62 72 60 73 39 74 40 75 48 76
REMARK SMILES IDX 41 77 42 78 46 79 49 80 43 81 44 82 47 83 45 84
REMARK H PARENT 76 10 69 37 37 48
REMARK Flexibility Score: inf
ROOT
ATOM      1  C   UNL A   1      44.146  21.442  25.348  1.00  0.00     0.274 C 
ENDROOT
BRANCH   1   2
ATOM      2  O   UNL A   1      43.687  20.266  24.639  1.00  0.00    -0.462 OA
BRANCH   2   3
ATOM      3  C   UNL A   1      43.646  19.101  25.342  1.00  0.00     0.306 C 
ATOM      4  O   UNL A   1      44.265  18.087  25.047  1.00  0.00    -0.252 OA
BRANCH   3   5
ATOM      5  C   UNL A   1      42.689  19.175  26.513  1.00  0.00     0.132 C 
BRANCH   5   6
ATOM      6  C   UNL A   1      41.219  19.324  26.133  1.00  0.00     0.112 C 
BRANCH   6   7
ATOM      7  C   UNL A   1      40.626  20.594  26.712  1.00  0.00     0.226 C 
ATOM      8  O   UNL A   1      40.624  20.785  27.922  1.00  0.00    -0.275 OA
ATOM      9  N   UNL A   1      40.083  21.406  25.749  1.00  0.00    -0.301 N 
ATOM     10  H   UNL A   1      40.276  21.215  24.803  1.00  0.00     0.172 HD
BRANCH   9  11
ATOM     11  C   UNL A   1      39.283  22.470  26.055  1.00  0.00     0.212 A 
ATOM     12  N   UNL A   1      39.514  23.528  26.791  1.00  0.00    -0.120 NA
ATOM     13  S   UNL A   1      37.690  22.348  25.445  1.00  0.00    -0.083 S 
ATOM     14  N   UNL A   1      38.383  24.314  26.931  1.00  0.00    -0.145 NA
ATOM     15  C   UNL A   1      37.353  23.797  26.300  1.00  0.00     0.204 A 
ENDBRANCH   9  11
ENDBRANCH   6   7
ENDBRANCH   5   6
ENDBRANCH   3   5
ENDBRANCH   2   3
ENDBRANCH   1   2
BRANCH   1  16
ATOM     16  C   UNL A   1      44.560  22.560  24.385  1.00  0.00     0.275 C 
BRANCH  16  17
ATOM     17  O   UNL A   1      43.810  23.760  24.636  1.00  0.00    -0.458 OA
BRANCH  17  18
ATOM     18  C   UNL A   1      44.551  24.811  25.057  1.00  0.00     0.338 C 
ATOM     19  O   UNL A   1      45.623  25.171  24.603  1.00  0.00    -0.246 OA
BRANCH  18  20
ATOM     20  C   UNL A   1      43.795  25.577  26.062  1.00  0.00     0.060 A 
ATOM     21  C   UNL A   1      44.084  26.936  26.212  1.00  0.00     0.016 A 
ATOM     22  C   UNL A   1      42.858  24.954  26.889  1.00  0.00     0.016 A 
ATOM     23  C   UNL A   1      43.454  27.677  27.208  1.00  0.00     0.010 A 
ATOM     24  C   UNL A   1      42.227  25.699  27.889  1.00  0.00     0.010 A 
ATOM     25  C   UNL A   1      42.538  27.058  28.070  1.00  0.00    -0.014 A 
BRANCH  25  26
ATOM     26  C   UNL A   1      41.996  27.813  29.224  1.00  0.00     0.031 A 
ATOM     27  C   UNL A   1      42.698  27.729  30.550  1.00  0.00     0.074 A 
ATOM     28  C   UNL A   1      40.912  28.596  29.079  1.00  0.00     0.049 A 
ATOM     29  N   UNL A   1      42.373  28.265  31.699  1.00  0.00    -0.248 NA
ATOM     30  C   UNL A   1      43.933  26.929  30.588  1.00  0.00     0.031 C 
ATOM     31  C   UNL A   1      40.167  28.786  27.835  1.00  0.00     0.029 A 
ATOM     32  N   UNL A   1      40.246  29.376  29.992  1.00  0.00    -0.354 N 
ATOM     33  C   UNL A   1      43.359  27.868  32.593  1.00  0.00     0.074 A 
ATOM     34  C   UNL A   1      44.274  27.016  31.865  1.00  0.00     0.031 C 
ATOM     35  C   UNL A   1      39.142  29.623  28.064  1.00  0.00     0.029 A 
ATOM     36  C   UNL A   1      39.140  30.003  29.475  1.00  0.00     0.049 A 
ATOM     37  H   UNL A   1      40.535  29.476  30.928  1.00  0.00     0.167 HD
ATOM     38  C   UNL A   1      43.497  28.198  33.900  1.00  0.00     0.037 A 
ATOM     39  C   UNL A   1      38.221  30.781  30.080  1.00  0.00     0.037 A 
ATOM     40  C   UNL A   1      42.583  29.044  34.623  1.00  0.00     0.049 A 
ATOM     41  C   UNL A   1      38.375  31.095  31.545  1.00  0.00     0.074 A 
ATOM     42  C   UNL A   1      42.611  29.404  35.958  1.00  0.00     0.029 A 
ATOM     43  N   UNL A   1      41.480  29.669  34.062  1.00  0.00    -0.354 N 
ATOM     44  N   UNL A   1      39.305  30.707  32.385  1.00  0.00    -0.248 NA
ATOM     45  C   UNL A   1      37.358  31.970  32.145  1.00  0.00     0.031 C 
ATOM     46  C   UNL A   1      41.508  30.228  36.213  1.00  0.00     0.029 A 
ATOM     47  C   UNL A   1      40.821  30.418  35.025  1.00  0.00     0.049 A 
ATOM     48  H   UNL A   1      41.204  29.592  33.121  1.00  0.00     0.167 HD
ATOM     49  C   UNL A   1      39.006  31.317  33.597  1.00  0.00     0.074 A 
ATOM     50  C   UNL A   1      37.817  32.114  33.379  1.00  0.00     0.031 C 
ATOM     51  C   UNL A   1      39.656  31.226  34.783  1.00  0.00     0.037 A 
BRANCH  38  52
ATOM     52  C   UNL A   1      44.676  27.633  34.635  1.00  0.00     0.064 A 
ATOM     53  C   UNL A   1      45.866  28.363  34.779  1.00  0.00     0.173 A 
ATOM     54  C   UNL A   1      44.606  26.367  35.234  1.00  0.00     0.173 A 
ATOM     55  F   UNL A   1      45.989  29.571  34.208  1.00  0.00    -0.203 F 
ATOM     56  C   UNL A   1      46.948  27.838  35.479  1.00  0.00     0.198 A 
ATOM     57  C   UNL A   1      45.681  25.857  35.957  1.00  0.00     0.198 A 
ATOM     58  F   UNL A   1      43.492  25.629  35.127  1.00  0.00    -0.203 F 
ATOM     59  F   UNL A   1      48.088  28.537  35.569  1.00  0.00    -0.200 F 
ATOM     60  C   UNL A   1      46.852  26.590  36.075  1.00  0.00     0.200 A 
ATOM     61  F   UNL A   1      45.583  24.654  36.541  1.00  0.00    -0.200 F 
ATOM     62  F   UNL A   1      47.891  26.089  36.757  1.00  0.00    -0.200 F 
ENDBRANCH  38  52
BRANCH  39  63
ATOM     63  C   UNL A   1      37.064  31.311  29.311  1.00  0.00     0.064 A 
ATOM     64  C   UNL A   1      36.996  32.661  28.941  1.00  0.00     0.173 A 
ATOM     65  C   UNL A   1      35.982  30.486  28.971  1.00  0.00     0.173 A 
ATOM     66  F   UNL A   1      37.994  33.496  29.265  1.00  0.00    -0.203 F 
ATOM     67  C   UNL A   1      35.874  33.174  28.291  1.00  0.00     0.198 A 
ATOM     68  C   UNL A   1      34.876  30.992  28.293  1.00  0.00     0.198 A 
ATOM     69  F   UNL A   1      35.998  29.186  29.301  1.00  0.00    -0.203 F 
ATOM     70  F   UNL A   1      35.806  34.481  28.007  1.00  0.00    -0.200 F 
ATOM     71  C   UNL A   1      34.817  32.338  27.965  1.00  0.00     0.200 A 
ATOM     72  F   UNL A   1      33.861  30.179  27.969  1.00  0.00    -0.200 F 
ATOM     73  F   UNL A   1      33.736  32.832  27.346  1.00  0.00    -0.200 F 
ENDBRANCH  39  63
BRANCH  51  74
ATOM     74  C   UNL A   1      39.132  32.059  35.917  1.00  0.00     0.064 A 
ATOM     75  C   UNL A   1      39.500  33.403  36.082  1.00  0.00     0.173 A 
ATOM     76  C   UNL A   1      38.234  31.505  36.842  1.00  0.00     0.173 A 
ATOM     77  F   UNL A   1      40.367  33.975  35.233  1.00  0.00    -0.203 F 
ATOM     78  C   UNL A   1      39.018  34.149  37.155  1.00  0.00     0.198 A 
ATOM     79  C   UNL A   1      37.729  32.264  37.894  1.00  0.00     0.198 A 
ATOM     80  F   UNL A   1      37.842  30.228  36.723  1.00  0.00    -0.203 F 
ATOM     81  F   UNL A   1      39.430  35.412  37.327  1.00  0.00    -0.200 F 
ATOM     82  C   UNL A   1      38.131  33.581  38.056  1.00  0.00     0.200 A 
ATOM     83  F   UNL A   1      36.861  31.718  38.756  1.00  0.00    -0.200 F 
ATOM     84  F   UNL A   1      37.668  34.301  39.087  1.00  0.00    -0.200 F 
ENDBRANCH  51  74
ENDBRANCH  25  26
ENDBRANCH  18  20
ENDBRANCH  17  18
ENDBRANCH  16  17
ENDBRANCH   1  16
TORSDOF 14
ENDMDL
MODEL 3
REMARK VINA RESULT:     -10.6      6.215     11.689
REMARK SMILES O=C(CCC(=O)OCCOC(=O)c1ccc(-c2c3nc(c(-c4c(F)c(F)c(F)c(F)c4F)c4ccc([nH]4)c(-c4c(F)c(F)c(F)c(F)c4F)c4nc(c(-c5c(F)c(F)c(F)c(F)c5F)c5ccc2[nH]5)C=C4)C=C3)cc1)Nc1nncs1
REMARK SMILES IDX 8 1 7 2 5 3 6 4 4 5 3 6 2 7 1 8 76 9 77 11 78 12 81 13 79 14
REMARK SMILES IDX 80 15 9 16 10 17 11 18 12 19 13 20 14 21 75 22 15 23 74 24
REMARK SMILES IDX 16 25 17 26 18 27 68 28 19 29 73 30 67 31 69 32 20 33 72 34
REMARK SMILES IDX 66 35 65 36 21 38 53 39 33 40 52 41 34 42 37 43 51 44 70 45
REMARK SMILES IDX 35 46 36 47 50 49 71 50 38 51 22 52 23 53 31 54 24 55 25 56
REMARK SMILES IDX 29 57 32 58 26 59 27 60 30 61 28 62 54 63 55 64 63 65 56 66
REMARK SMILES IDX 57 67 61 68 64 69 58 70 59 71 62 72 60 73 39 74 40 75 48 76
REMARK SMILES IDX 41 77 42 78 46 79 49 80 43 81 44 82 47 83 45 84
REMARK H PARENT 76 10 69 37 37 48
REMARK Flexibility Score: inf
ROOT
ATOM      1  C   UNL A   1      31.327  31.868  26.500  1.00  0.00     0.274 C 
ENDROOT
BRANCH   1   2
ATOM      2  O   UNL A   1      32.038  30.716  27.012  1.00  0.00    -0.462 OA
BRANCH   2   3
ATOM      3  C   UNL A   1      31.790  29.521  26.409  1.00  0.00     0.306 C 
ATOM      4  O   UNL A   1      31.791  28.439  26.981  1.00  0.00    -0.252 OA
BRANCH   3   5
ATOM      5  C   UNL A   1      31.566  29.669  24.919  1.00  0.00     0.132 C 
BRANCH   5   6
ATOM      6  C   UNL A   1      30.879  28.483  24.251  1.00  0.00     0.112 C 
BRANCH   6   7
ATOM      7  C   UNL A   1      30.115  28.913  23.013  1.00  0.00     0.226 C 
ATOM      8  O   UNL A   1      30.331  28.380  21.932  1.00  0.00    -0.275 OA
ATOM      9  N   UNL A   1      29.254  29.951  23.263  1.00  0.00    -0.301 N 
ATOM     10  H   UNL A   1      29.062  30.194  24.197  1.00  0.00     0.172 HD
BRANCH   9  11
ATOM     11  C   UNL A   1      28.651  30.658  22.262  1.00  0.00     0.212 A 
ATOM     12  N   UNL A   1      28.083  30.255  21.153  1.00  0.00    -0.120 NA
ATOM     13  S   UNL A   1      28.738  32.356  22.454  1.00  0.00    -0.083 S 
ATOM     14  N   UNL A   1      27.693  31.320  20.359  1.00  0.00    -0.145 NA
ATOM     15  C   UNL A   1      28.002  32.473  20.909  1.00  0.00     0.204 A 
ENDBRANCH   9  11
ENDBRANCH   6   7
ENDBRANCH   5   6
ENDBRANCH   3   5
ENDBRANCH   2   3
ENDBRANCH   1   2
BRANCH   1  16
ATOM     16  C   UNL A   1      32.024  33.179  26.878  1.00  0.00     0.275 C 
BRANCH  16  17
ATOM     17  O   UNL A   1      32.960  32.975  27.949  1.00  0.00    -0.458 OA
BRANCH  17  18
ATOM     18  C   UNL A   1      34.061  33.760  27.894  1.00  0.00     0.338 C 
ATOM     19  O   UNL A   1      34.091  34.948  27.625  1.00  0.00    -0.246 OA
BRANCH  18  20
ATOM     20  C   UNL A   1      35.232  33.002  28.365  1.00  0.00     0.060 A 
ATOM     21  C   UNL A   1      35.029  31.706  28.850  1.00  0.00     0.016 A 
ATOM     22  C   UNL A   1      36.503  33.580  28.389  1.00  0.00     0.016 A 
ATOM     23  C   UNL A   1      36.095  30.987  29.384  1.00  0.00     0.010 A 
ATOM     24  C   UNL A   1      37.572  32.856  28.927  1.00  0.00     0.010 A 
ATOM     25  C   UNL A   1      37.370  31.567  29.448  1.00  0.00    -0.014 A 
BRANCH  25  26
ATOM     26  C   UNL A   1      38.458  30.859  30.162  1.00  0.00     0.031 A 
ATOM     27  C   UNL A   1      38.696  31.156  31.616  1.00  0.00     0.074 A 
ATOM     28  C   UNL A   1      39.201  29.933  29.529  1.00  0.00     0.049 A 
ATOM     29  N   UNL A   1      39.619  30.691  32.420  1.00  0.00    -0.248 NA
ATOM     30  C   UNL A   1      37.770  32.108  32.250  1.00  0.00     0.031 C 
ATOM     31  C   UNL A   1      39.041  29.533  28.131  1.00  0.00     0.029 A 
ATOM     32  N   UNL A   1      40.243  29.162  29.982  1.00  0.00    -0.354 N 
ATOM     33  C   UNL A   1      39.385  31.294  33.650  1.00  0.00     0.074 A 
ATOM     34  C   UNL A   1      38.258  32.185  33.479  1.00  0.00     0.031 C 
ATOM     35  C   UNL A   1      39.958  28.596  27.839  1.00  0.00     0.029 A 
ATOM     36  C   UNL A   1      40.787  28.353  29.017  1.00  0.00     0.049 A 
ATOM     37  H   UNL A   1      40.567  29.187  30.911  1.00  0.00     0.167 HD
ATOM     38  C   UNL A   1      40.042  31.107  34.820  1.00  0.00     0.037 A 
ATOM     39  C   UNL A   1      41.847  27.523  29.076  1.00  0.00     0.037 A 
ATOM     40  C   UNL A   1      41.165  30.222  34.987  1.00  0.00     0.049 A 
ATOM     41  C   UNL A   1      42.586  27.368  30.380  1.00  0.00     0.074 A 
ATOM     42  C   UNL A   1      41.926  29.993  36.120  1.00  0.00     0.029 A 
ATOM     43  N   UNL A   1      41.681  29.410  33.988  1.00  0.00    -0.354 N 
ATOM     44  N   UNL A   1      42.365  27.949  31.535  1.00  0.00    -0.248 NA
ATOM     45  C   UNL A   1      43.717  26.429  30.392  1.00  0.00     0.031 C 
ATOM     46  C   UNL A   1      42.920  29.062  35.800  1.00  0.00     0.029 A 
ATOM     47  C   UNL A   1      42.749  28.676  34.481  1.00  0.00     0.049 A 
ATOM     48  H   UNL A   1      41.341  29.363  33.066  1.00  0.00     0.167 HD
ATOM     49  C   UNL A   1      43.301  27.421  32.415  1.00  0.00     0.074 A 
ATOM     50  C   UNL A   1      44.082  26.461  31.665  1.00  0.00     0.031 C 
ATOM     51  C   UNL A   1      43.496  27.705  33.726  1.00  0.00     0.037 A 
BRANCH  38  52
ATOM     52  C   UNL A   1      39.567  31.885  36.011  1.00  0.00     0.064 A 
ATOM     53  C   UNL A   1      40.163  33.102  36.375  1.00  0.00     0.173 A 
ATOM     54  C   UNL A   1      38.483  31.430  36.776  1.00  0.00     0.173 A 
ATOM     55  F   UNL A   1      41.215  33.570  35.686  1.00  0.00    -0.203 F 
ATOM     56  C   UNL A   1      39.702  33.826  37.471  1.00  0.00     0.198 A 
ATOM     57  C   UNL A   1      38.007  32.171  37.855  1.00  0.00     0.198 A 
ATOM     58  F   UNL A   1      37.878  30.274  36.470  1.00  0.00    -0.203 F 
ATOM     59  F   UNL A   1      40.312  34.966  37.823  1.00  0.00    -0.200 F 
ATOM     60  C   UNL A   1      38.619  33.365  38.204  1.00  0.00     0.200 A 
ATOM     61  F   UNL A   1      36.954  31.729  38.557  1.00  0.00    -0.200 F 
ATOM     62  F   UNL A   1      38.171  34.067  39.254  1.00  0.00    -0.200 F 
ENDBRANCH  38  52
BRANCH  39  63
ATOM     63  C   UNL A   1      42.285  26.779  27.866  1.00  0.00     0.064 A 
ATOM     64  C   UNL A   1      41.848  25.469  27.620  1.00  0.00     0.173 A 
ATOM     65  C   UNL A   1      43.187  27.347  26.955  1.00  0.00     0.173 A 
ATOM     66  F   UNL A   1      41.005  24.873  28.476  1.00  0.00    -0.203 F 
ATOM     67  C   UNL A   1      42.324  24.745  26.528  1.00  0.00     0.198 A 
ATOM     68  C   UNL A   1      43.637  26.633  25.846  1.00  0.00     0.198 A 
ATOM     69  F   UNL A   1      43.636  28.597  27.143  1.00  0.00    -0.203 F 
ATOM     70  F   UNL A   1      41.940  23.474  26.353  1.00  0.00    -0.200 F 
ATOM     71  C   UNL A   1      43.214  25.329  25.640  1.00  0.00     0.200 A 
ATOM     72  F   UNL A   1      44.489  27.205  24.984  1.00  0.00    -0.200 F 
ATOM     73  F   UNL A   1      43.676  24.630  24.595  1.00  0.00    -0.200 F 
ENDBRANCH  39  63
BRANCH  51  74
ATOM     74  C   UNL A   1      44.554  26.920  34.447  1.00  0.00     0.064 A 
ATOM     75  C   UNL A   1      45.880  27.371  34.538  1.00  0.00     0.173 A 
ATOM     76  C   UNL A   1      44.229  25.705  35.069  1.00  0.00     0.173 A 
ATOM     77  F   UNL A   1      46.244  28.520  33.949  1.00  0.00    -0.203 F 
ATOM     78  C   UNL A   1      46.849  26.615  35.193  1.00  0.00     0.198 A 
ATOM     79  C   UNL A   1      45.194  24.968  35.750  1.00  0.00     0.198 A 
ATOM     80  F   UNL A   1      42.974  25.234  35.020  1.00  0.00    -0.203 F 
ATOM     81  F   UNL A   1      48.120  27.037  35.217  1.00  0.00    -0.200 F 
ATOM     82  C   UNL A   1      46.504  25.418  35.802  1.00  0.00     0.200 A 
ATOM     83  F   UNL A   1      44.856  23.818  36.349  1.00  0.00    -0.200 F 
ATOM     84  F   UNL A   1      47.438  24.692  36.431  1.00  0.00    -0.200 F 
ENDBRANCH  51  74
ENDBRANCH  25  26
ENDBRANCH  18  20
ENDBRANCH  17  18
ENDBRANCH  16  17
ENDBRANCH   1  16
TORSDOF 14
ENDMDL
