MODEL 1
REMARK VINA RESULT:     -10.8      0.000      0.000
REMARK SMILES O=C(OCCOC(=O)[C@H]1C[C@](O)(c2ccc(Cl)cc2)[C@@H](c2ccc(Cl)cc2)O1)c1ccc(-c2c3nc(c(-c4c(F)c(F)c(F)c(F)c4F)c4ccc([nH]4)c(-c4c(F)c(F)c(F)c(F)c4F)c4nc(c(-c5c(F)c(F)c(F)c(F)c5F)c5ccc2[nH]5)C=C4)C=C3)cc1
REMARK SMILES IDX 4 1 3 2 2 3 1 4 29 5 30 6 91 7 31 8 90 9 32 10 33 11 34 12
REMARK SMILES IDX 84 13 35 14 89 15 83 16 85 17 36 18 88 19 82 20 81 21 37 23
REMARK SMILES IDX 69 24 49 25 68 26 50 27 53 28 67 29 86 30 51 31 52 32 66 34
REMARK SMILES IDX 87 35 54 36 38 37 39 38 47 39 40 40 41 41 45 42 48 43 42 44
REMARK SMILES IDX 43 45 46 46 44 47 70 48 71 49 79 50 72 51 73 52 77 53 80 54
REMARK SMILES IDX 74 55 75 56 78 57 76 58 55 59 56 60 64 61 57 62 58 63 62 64
REMARK SMILES IDX 65 65 59 66 60 67 63 68 61 69 5 70 6 71 7 72 8 73 9 74 10 75
REMARK SMILES IDX 28 76 11 77 20 78 13 79 14 80 19 81 15 82 18 83 16 84 17 85
REMARK SMILES IDX 12 86 21 88 22 89 27 90 23 91 26 92 24 93 25 94
REMARK H PARENT 85 22 53 33 12 87
REMARK Flexibility Score: inf
ROOT
ATOM      1  C   UNL A   1      34.308  32.699  28.926  1.00  0.00     0.275 C 
ENDROOT
BRANCH   1   2
ATOM      2  O   UNL A   1      34.993  32.075  27.825  1.00  0.00    -0.458 OA
BRANCH   2   3
ATOM      3  C   UNL A   1      34.914  30.737  27.698  1.00  0.00     0.338 C 
ATOM      4  O   UNL A   1      33.894  30.164  27.355  1.00  0.00    -0.246 OA
BRANCH   3   5
ATOM      5  C   UNL A   1      36.211  30.058  27.997  1.00  0.00     0.060 A 
ATOM      6  C   UNL A   1      37.382  30.207  27.251  1.00  0.00     0.016 A 
ATOM      7  C   UNL A   1      36.273  29.341  29.183  1.00  0.00     0.016 A 
ATOM      8  C   UNL A   1      38.596  29.691  27.733  1.00  0.00     0.010 A 
ATOM      9  C   UNL A   1      37.495  28.953  29.723  1.00  0.00     0.010 A 
ATOM     10  C   UNL A   1      38.674  29.083  28.996  1.00  0.00    -0.014 A 
BRANCH  10  11
ATOM     11  C   UNL A   1      39.959  28.555  29.538  1.00  0.00     0.031 A 
ATOM     12  C   UNL A   1      40.630  29.212  30.723  1.00  0.00     0.074 A 
ATOM     13  C   UNL A   1      40.562  27.507  28.938  1.00  0.00     0.049 A 
ATOM     14  N   UNL A   1      41.666  28.805  31.416  1.00  0.00    -0.248 NA
ATOM     15  C   UNL A   1      40.127  30.529  31.146  1.00  0.00     0.031 C 
ATOM     16  C   UNL A   1      40.149  26.898  27.672  1.00  0.00     0.029 A 
ATOM     17  N   UNL A   1      41.641  26.752  29.329  1.00  0.00    -0.354 N 
ATOM     18  C   UNL A   1      41.932  29.821  32.327  1.00  0.00     0.074 A 
ATOM     19  C   UNL A   1      41.048  30.915  32.012  1.00  0.00     0.031 C 
ATOM     20  C   UNL A   1      40.904  25.812  27.439  1.00  0.00     0.029 A 
ATOM     21  C   UNL A   1      41.843  25.641  28.543  1.00  0.00     0.049 A 
ATOM     22  H   UNL A   1      42.213  26.983  30.097  1.00  0.00     0.167 HD
ATOM     23  C   UNL A   1      42.773  29.816  33.390  1.00  0.00     0.037 A 
ATOM     24  C   UNL A   1      42.642  24.574  28.738  1.00  0.00     0.037 A 
ATOM     25  C   UNL A   1      43.581  28.685  33.750  1.00  0.00     0.049 A 
ATOM     26  C   UNL A   1      43.451  24.498  30.007  1.00  0.00     0.074 A 
ATOM     27  C   UNL A   1      44.375  28.500  34.865  1.00  0.00     0.029 A 
ATOM     28  N   UNL A   1      43.673  27.528  32.991  1.00  0.00    -0.354 N 
ATOM     29  N   UNL A   1      43.562  25.380  30.971  1.00  0.00    -0.248 NA
ATOM     30  C   UNL A   1      44.213  23.262  30.235  1.00  0.00     0.031 C 
ATOM     31  C   UNL A   1      44.960  27.231  34.774  1.00  0.00     0.029 A 
ATOM     32  C   UNL A   1      44.507  26.619  33.614  1.00  0.00     0.049 A 
ATOM     33  H   UNL A   1      43.213  27.377  32.133  1.00  0.00     0.167 HD
ATOM     34  C   UNL A   1      44.374  24.794  31.933  1.00  0.00     0.074 A 
ATOM     35  C   UNL A   1      44.714  23.474  31.444  1.00  0.00     0.031 C 
ATOM     36  C   UNL A   1      44.805  25.303  33.114  1.00  0.00     0.037 A 
BRANCH  23  37
ATOM     37  C   UNL A   1      42.793  31.042  34.262  1.00  0.00     0.064 A 
ATOM     38  C   UNL A   1      41.973  31.143  35.399  1.00  0.00     0.173 A 
ATOM     39  C   UNL A   1      43.614  32.136  33.955  1.00  0.00     0.173 A 
ATOM     40  F   UNL A   1      41.161  30.128  35.739  1.00  0.00    -0.203 F 
ATOM     41  C   UNL A   1      41.925  32.312  36.154  1.00  0.00     0.198 A 
ATOM     42  C   UNL A   1      43.594  33.290  34.736  1.00  0.00     0.198 A 
ATOM     43  F   UNL A   1      44.428  32.093  32.890  1.00  0.00    -0.203 F 
ATOM     44  F   UNL A   1      41.069  32.409  37.180  1.00  0.00    -0.200 F 
ATOM     45  C   UNL A   1      42.737  33.384  35.823  1.00  0.00     0.200 A 
ATOM     46  F   UNL A   1      44.391  34.322  34.426  1.00  0.00    -0.200 F 
ATOM     47  F   UNL A   1      42.684  34.512  36.545  1.00  0.00    -0.200 F 
ENDBRANCH  23  37
BRANCH  24  48
ATOM     48  C   UNL A   1      42.590  23.424  27.795  1.00  0.00     0.064 A 
ATOM     49  C   UNL A   1      41.708  22.356  28.021  1.00  0.00     0.173 A 
ATOM     50  C   UNL A   1      43.396  23.369  26.651  1.00  0.00     0.173 A 
ATOM     51  F   UNL A   1      40.921  22.359  29.108  1.00  0.00    -0.203 F 
ATOM     52  C   UNL A   1      41.656  21.265  27.157  1.00  0.00     0.198 A 
ATOM     53  C   UNL A   1      43.326  22.287  25.772  1.00  0.00     0.198 A 
ATOM     54  F   UNL A   1      44.244  24.371  26.377  1.00  0.00    -0.203 F 
ATOM     55  F   UNL A   1      40.831  20.242  27.422  1.00  0.00    -0.200 F 
ATOM     56  C   UNL A   1      42.461  21.233  26.030  1.00  0.00     0.200 A 
ATOM     57  F   UNL A   1      44.094  22.266  24.675  1.00  0.00    -0.200 F 
ATOM     58  F   UNL A   1      42.407  20.186  25.195  1.00  0.00    -0.200 F 
ENDBRANCH  24  48
BRANCH  36  59
ATOM     59  C   UNL A   1      45.659  24.422  33.973  1.00  0.00     0.064 A 
ATOM     60  C   UNL A   1      47.058  24.470  33.901  1.00  0.00     0.173 A 
ATOM     61  C   UNL A   1      45.072  23.568  34.918  1.00  0.00     0.173 A 
ATOM     62  F   UNL A   1      47.662  25.263  33.004  1.00  0.00    -0.203 F 
ATOM     63  C   UNL A   1      47.841  23.677  34.735  1.00  0.00     0.198 A 
ATOM     64  C   UNL A   1      45.859  22.797  35.768  1.00  0.00     0.198 A 
ATOM     65  F   UNL A   1      43.737  23.495  35.027  1.00  0.00    -0.203 F 
ATOM     66  F   UNL A   1      49.176  23.709  34.626  1.00  0.00    -0.200 F 
ATOM     67  C   UNL A   1      47.241  22.848  35.672  1.00  0.00     0.200 A 
ATOM     68  F   UNL A   1      45.279  22.005  36.681  1.00  0.00    -0.200 F 
ATOM     69  F   UNL A   1      47.998  22.094  36.481  1.00  0.00    -0.200 F 
ENDBRANCH  36  59
ENDBRANCH  10  11
ENDBRANCH   3   5
ENDBRANCH   2   3
ENDBRANCH   1   2
BRANCH   1  70
ATOM     70  C   UNL A   1      34.843  32.555  30.365  1.00  0.00     0.274 C 
BRANCH  70  71
ATOM     71  O   UNL A   1      35.037  33.799  31.062  1.00  0.00    -0.460 OA
BRANCH  71  72
ATOM     72  C   UNL A   1      34.755  33.728  32.403  1.00  0.00     0.335 C 
ATOM     73  O   UNL A   1      33.686  33.328  32.852  1.00  0.00    -0.249 OA
BRANCH  72  74
ATOM     74  C   UNL A   1      35.914  34.235  33.284  1.00  0.00     0.232 C 
ATOM     75  C   UNL A   1      36.461  33.148  34.202  1.00  0.00     0.087 C 
ATOM     76  O   UNL A   1      37.022  34.653  32.509  1.00  0.00    -0.355 OA
ATOM     77  C   UNL A   1      37.966  33.438  34.367  1.00  0.00     0.123 C 
ATOM     78  C   UNL A   1      38.247  34.485  33.256  1.00  0.00     0.186 C 
BRANCH  77  79
ATOM     79  C   UNL A   1      38.317  33.846  35.806  1.00  0.00    -0.013 A 
ATOM     80  C   UNL A   1      39.221  34.914  36.000  1.00  0.00     0.008 A 
ATOM     81  C   UNL A   1      37.777  33.251  36.960  1.00  0.00     0.008 A 
ATOM     82  C   UNL A   1      39.534  35.393  37.275  1.00  0.00     0.021 A 
ATOM     83  C   UNL A   1      38.087  33.732  38.241  1.00  0.00     0.021 A 
ATOM     84  C   UNL A   1      38.956  34.806  38.392  1.00  0.00     0.041 A 
ATOM     85  Cl  UNL A   1      39.305  35.412  39.963  1.00  0.00    -0.084 Cl
ENDBRANCH  77  79
BRANCH  77  86
ATOM     86  O   UNL A   1      38.729  32.243  34.124  1.00  0.00    -0.382 OA
ATOM     87  H   UNL A   1      39.652  32.390  34.386  1.00  0.00     0.212 HD
ENDBRANCH  77  86
BRANCH  78  88
ATOM     88  C   UNL A   1      39.338  34.250  32.222  1.00  0.00    -0.016 A 
ATOM     89  C   UNL A   1      39.018  34.109  30.861  1.00  0.00     0.008 A 
ATOM     90  C   UNL A   1      40.691  34.418  32.578  1.00  0.00     0.008 A 
ATOM     91  C   UNL A   1      40.002  34.248  29.877  1.00  0.00     0.021 A 
ATOM     92  C   UNL A   1      41.672  34.568  31.594  1.00  0.00     0.021 A 
ATOM     93  C   UNL A   1      41.318  34.510  30.247  1.00  0.00     0.041 A 
ATOM     94  Cl  UNL A   1      42.497  34.842  29.039  1.00  0.00    -0.084 Cl
ENDBRANCH  78  88
ENDBRANCH  72  74
ENDBRANCH  71  72
ENDBRANCH  70  71
ENDBRANCH   1  70
TORSDOF 14
ENDMDL
MODEL 2
REMARK VINA RESULT:     -10.8      0.101      1.577
REMARK SMILES O=C(OCCOC(=O)[C@H]1C[C@](O)(c2ccc(Cl)cc2)[C@@H](c2ccc(Cl)cc2)O1)c1ccc(-c2c3nc(c(-c4c(F)c(F)c(F)c(F)c4F)c4ccc([nH]4)c(-c4c(F)c(F)c(F)c(F)c4F)c4nc(c(-c5c(F)c(F)c(F)c(F)c5F)c5ccc2[nH]5)C=C4)C=C3)cc1
REMARK SMILES IDX 4 1 3 2 2 3 1 4 29 5 30 6 91 7 31 8 90 9 32 10 33 11 34 12
REMARK SMILES IDX 84 13 35 14 89 15 83 16 85 17 36 18 88 19 82 20 81 21 37 23
REMARK SMILES IDX 69 24 49 25 68 26 50 27 53 28 67 29 86 30 51 31 52 32 66 34
REMARK SMILES IDX 87 35 54 36 38 37 39 38 47 39 40 40 41 41 45 42 48 43 42 44
REMARK SMILES IDX 43 45 46 46 44 47 70 48 71 49 79 50 72 51 73 52 77 53 80 54
REMARK SMILES IDX 74 55 75 56 78 57 76 58 55 59 56 60 64 61 57 62 58 63 62 64
REMARK SMILES IDX 65 65 59 66 60 67 63 68 61 69 5 70 6 71 7 72 8 73 9 74 10 75
REMARK SMILES IDX 28 76 11 77 20 78 13 79 14 80 19 81 15 82 18 83 16 84 17 85
REMARK SMILES IDX 12 86 21 88 22 89 27 90 23 91 26 92 24 93 25 94
REMARK H PARENT 85 22 53 33 12 87
REMARK Flexibility Score: inf
ROOT
ATOM      1  C   UNL A   1      34.410  32.704  28.897  1.00  0.00     0.275 C 
ENDROOT
BRANCH   1   2
ATOM      2  O   UNL A   1      35.007  32.068  27.753  1.00  0.00    -0.458 OA
BRANCH   2   3
ATOM      3  C   UNL A   1      34.926  30.728  27.651  1.00  0.00     0.338 C 
ATOM      4  O   UNL A   1      33.904  30.151  27.320  1.00  0.00    -0.246 OA
BRANCH   3   5
ATOM      5  C   UNL A   1      36.221  30.051  27.961  1.00  0.00     0.060 A 
ATOM      6  C   UNL A   1      37.400  30.208  27.229  1.00  0.00     0.016 A 
ATOM      7  C   UNL A   1      36.272  29.329  29.144  1.00  0.00     0.016 A 
ATOM      8  C   UNL A   1      38.610  29.694  27.721  1.00  0.00     0.010 A 
ATOM      9  C   UNL A   1      37.489  28.942  29.695  1.00  0.00     0.010 A 
ATOM     10  C   UNL A   1      38.677  29.079  28.982  1.00  0.00    -0.014 A 
BRANCH  10  11
ATOM     11  C   UNL A   1      39.957  28.552  29.535  1.00  0.00     0.031 A 
ATOM     12  C   UNL A   1      40.614  29.208  30.729  1.00  0.00     0.074 A 
ATOM     13  C   UNL A   1      40.568  27.508  28.939  1.00  0.00     0.049 A 
ATOM     14  N   UNL A   1      41.644  28.801  31.431  1.00  0.00    -0.248 NA
ATOM     15  C   UNL A   1      40.104  30.523  31.150  1.00  0.00     0.031 C 
ATOM     16  C   UNL A   1      40.169  26.902  27.667  1.00  0.00     0.029 A 
ATOM     17  N   UNL A   1      41.645  26.754  29.338  1.00  0.00    -0.354 N 
ATOM     18  C   UNL A   1      41.899  29.815  32.348  1.00  0.00     0.074 A 
ATOM     19  C   UNL A   1      41.016  30.908  32.026  1.00  0.00     0.031 C 
ATOM     20  C   UNL A   1      40.929  25.817  27.438  1.00  0.00     0.029 A 
ATOM     21  C   UNL A   1      41.857  25.646  28.551  1.00  0.00     0.049 A 
ATOM     22  H   UNL A   1      42.209  26.983  30.112  1.00  0.00     0.167 HD
ATOM     23  C   UNL A   1      42.729  29.809  33.419  1.00  0.00     0.037 A 
ATOM     24  C   UNL A   1      42.656  24.579  28.751  1.00  0.00     0.037 A 
ATOM     25  C   UNL A   1      43.536  28.679  33.784  1.00  0.00     0.049 A 
ATOM     26  C   UNL A   1      43.453  24.502  30.028  1.00  0.00     0.074 A 
ATOM     27  C   UNL A   1      44.319  28.491  34.906  1.00  0.00     0.029 A 
ATOM     28  N   UNL A   1      43.638  27.524  33.022  1.00  0.00    -0.354 N 
ATOM     29  N   UNL A   1      43.552  25.381  30.996  1.00  0.00    -0.248 NA
ATOM     30  C   UNL A   1      44.215  23.267  30.260  1.00  0.00     0.031 C 
ATOM     31  C   UNL A   1      44.908  27.224  34.817  1.00  0.00     0.029 A 
ATOM     32  C   UNL A   1      44.468  26.615  33.651  1.00  0.00     0.049 A 
ATOM     33  H   UNL A   1      43.187  27.374  32.160  1.00  0.00     0.167 HD
ATOM     34  C   UNL A   1      44.356  24.795  31.964  1.00  0.00     0.074 A 
ATOM     35  C   UNL A   1      44.704  23.476  31.475  1.00  0.00     0.031 C 
ATOM     36  C   UNL A   1      44.774  25.301  33.151  1.00  0.00     0.037 A 
BRANCH  23  37
ATOM     37  C   UNL A   1      42.738  31.032  34.294  1.00  0.00     0.064 A 
ATOM     38  C   UNL A   1      41.916  31.122  35.431  1.00  0.00     0.173 A 
ATOM     39  C   UNL A   1      43.550  32.134  33.991  1.00  0.00     0.173 A 
ATOM     40  F   UNL A   1      41.113  30.100  35.767  1.00  0.00    -0.203 F 
ATOM     41  C   UNL A   1      41.857  32.289  36.190  1.00  0.00     0.198 A 
ATOM     42  C   UNL A   1      43.519  33.286  34.776  1.00  0.00     0.198 A 
ATOM     43  F   UNL A   1      44.366  32.101  32.928  1.00  0.00    -0.203 F 
ATOM     44  F   UNL A   1      40.999  32.376  37.215  1.00  0.00    -0.200 F 
ATOM     45  C   UNL A   1      42.660  33.369  35.862  1.00  0.00     0.200 A 
ATOM     46  F   UNL A   1      44.308  34.326  34.470  1.00  0.00    -0.200 F 
ATOM     47  F   UNL A   1      42.597  34.495  36.588  1.00  0.00    -0.200 F 
ENDBRANCH  23  37
BRANCH  24  48
ATOM     48  C   UNL A   1      42.616  23.433  27.804  1.00  0.00     0.064 A 
ATOM     49  C   UNL A   1      43.514  23.367  26.728  1.00  0.00     0.173 A 
ATOM     50  C   UNL A   1      41.704  22.380  27.954  1.00  0.00     0.173 A 
ATOM     51  F   UNL A   1      44.401  24.355  26.536  1.00  0.00    -0.203 F 
ATOM     52  C   UNL A   1      43.482  22.308  25.823  1.00  0.00     0.198 A 
ATOM     53  C   UNL A   1      41.689  21.308  27.061  1.00  0.00     0.198 A 
ATOM     54  F   UNL A   1      40.836  22.385  28.976  1.00  0.00    -0.203 F 
ATOM     55  F   UNL A   1      44.327  22.294  24.782  1.00  0.00    -0.200 F 
ATOM     56  C   UNL A   1      42.573  21.277  25.992  1.00  0.00     0.200 A 
ATOM     57  F   UNL A   1      40.819  20.304  27.236  1.00  0.00    -0.200 F 
ATOM     58  F   UNL A   1      42.546  20.255  25.125  1.00  0.00    -0.200 F 
ENDBRANCH  24  48
BRANCH  36  59
ATOM     59  C   UNL A   1      45.621  24.419  34.015  1.00  0.00     0.064 A 
ATOM     60  C   UNL A   1      45.047  23.506  34.910  1.00  0.00     0.173 A 
ATOM     61  C   UNL A   1      47.019  24.446  33.902  1.00  0.00     0.173 A 
ATOM     62  F   UNL A   1      43.715  23.454  35.060  1.00  0.00    -0.203 F 
ATOM     63  C   UNL A   1      45.845  22.662  35.677  1.00  0.00     0.198 A 
ATOM     64  C   UNL A   1      47.812  23.583  34.650  1.00  0.00     0.198 A 
ATOM     65  F   UNL A   1      47.612  25.299  33.053  1.00  0.00    -0.203 F 
ATOM     66  F   UNL A   1      45.279  21.822  36.554  1.00  0.00    -0.200 F 
ATOM     67  C   UNL A   1      47.225  22.696  35.541  1.00  0.00     0.200 A 
ATOM     68  F   UNL A   1      49.145  23.608  34.509  1.00  0.00    -0.200 F 
ATOM     69  F   UNL A   1      47.991  21.875  36.272  1.00  0.00    -0.200 F 
ENDBRANCH  36  59
ENDBRANCH  10  11
ENDBRANCH   3   5
ENDBRANCH   2   3
ENDBRANCH   1   2
BRANCH   1  70
ATOM     70  C   UNL A   1      35.122  32.689  30.265  1.00  0.00     0.274 C 
BRANCH  70  71
ATOM     71  O   UNL A   1      34.942  33.881  31.051  1.00  0.00    -0.460 OA
BRANCH  71  72
ATOM     72  C   UNL A   1      34.741  33.635  32.386  1.00  0.00     0.335 C 
ATOM     73  O   UNL A   1      33.744  33.078  32.831  1.00  0.00    -0.249 OA
BRANCH  72  74
ATOM     74  C   UNL A   1      35.890  34.162  33.268  1.00  0.00     0.232 C 
ATOM     75  C   UNL A   1      36.449  33.088  34.193  1.00  0.00     0.087 C 
ATOM     76  O   UNL A   1      36.994  34.593  32.496  1.00  0.00    -0.355 OA
ATOM     77  C   UNL A   1      37.949  33.400  34.362  1.00  0.00     0.123 C 
ATOM     78  C   UNL A   1      38.219  34.446  33.247  1.00  0.00     0.186 C 
BRANCH  77  79
ATOM     79  C   UNL A   1      38.289  33.819  35.800  1.00  0.00    -0.013 A 
ATOM     80  C   UNL A   1      39.170  34.907  35.993  1.00  0.00     0.008 A 
ATOM     81  C   UNL A   1      37.761  33.215  36.955  1.00  0.00     0.008 A 
ATOM     82  C   UNL A   1      39.470  35.396  37.268  1.00  0.00     0.021 A 
ATOM     83  C   UNL A   1      38.058  33.705  38.236  1.00  0.00     0.021 A 
ATOM     84  C   UNL A   1      38.903  34.799  38.385  1.00  0.00     0.041 A 
ATOM     85  Cl  UNL A   1      39.237  35.416  39.955  1.00  0.00    -0.084 Cl
ENDBRANCH  77  79
BRANCH  77  86
ATOM     86  O   UNL A   1      38.731  32.216  34.127  1.00  0.00    -0.382 OA
ATOM     87  H   UNL A   1      38.149  31.439  34.128  1.00  0.00     0.212 HD
ENDBRANCH  77  86
BRANCH  78  88
ATOM     88  C   UNL A   1      39.317  34.223  32.219  1.00  0.00    -0.016 A 
ATOM     89  C   UNL A   1      39.004  34.081  30.855  1.00  0.00     0.008 A 
ATOM     90  C   UNL A   1      40.666  34.403  32.581  1.00  0.00     0.008 A 
ATOM     91  C   UNL A   1      39.992  34.231  29.877  1.00  0.00     0.021 A 
ATOM     92  C   UNL A   1      41.651  34.564  31.601  1.00  0.00     0.021 A 
ATOM     93  C   UNL A   1      41.303  34.505  30.253  1.00  0.00     0.041 A 
ATOM     94  Cl  UNL A   1      42.486  34.850  29.051  1.00  0.00    -0.084 Cl
ENDBRANCH  78  88
ENDBRANCH  72  74
ENDBRANCH  71  72
ENDBRANCH  70  71
ENDBRANCH   1  70
TORSDOF 14
ENDMDL
MODEL 3
REMARK VINA RESULT:     -10.6      6.922     14.674
REMARK SMILES O=C(OCCOC(=O)[C@H]1C[C@](O)(c2ccc(Cl)cc2)[C@@H](c2ccc(Cl)cc2)O1)c1ccc(-c2c3nc(c(-c4c(F)c(F)c(F)c(F)c4F)c4ccc([nH]4)c(-c4c(F)c(F)c(F)c(F)c4F)c4nc(c(-c5c(F)c(F)c(F)c(F)c5F)c5ccc2[nH]5)C=C4)C=C3)cc1
REMARK SMILES IDX 4 1 3 2 2 3 1 4 29 5 30 6 91 7 31 8 90 9 32 10 33 11 34 12
REMARK SMILES IDX 84 13 35 14 89 15 83 16 85 17 36 18 88 19 82 20 81 21 37 23
REMARK SMILES IDX 69 24 49 25 68 26 50 27 53 28 67 29 86 30 51 31 52 32 66 34
REMARK SMILES IDX 87 35 54 36 38 37 39 38 47 39 40 40 41 41 45 42 48 43 42 44
REMARK SMILES IDX 43 45 46 46 44 47 70 48 71 49 79 50 72 51 73 52 77 53 80 54
REMARK SMILES IDX 74 55 75 56 78 57 76 58 55 59 56 60 64 61 57 62 58 63 62 64
REMARK SMILES IDX 65 65 59 66 60 67 63 68 61 69 5 70 6 71 7 72 8 73 9 74 10 75
REMARK SMILES IDX 28 76 11 77 20 78 13 79 14 80 19 81 15 82 18 83 16 84 17 85
REMARK SMILES IDX 12 86 21 88 22 89 27 90 23 91 26 92 24 93 25 94
REMARK H PARENT 85 22 53 33 12 87
REMARK Flexibility Score: inf
ROOT
ATOM      1  C   UNL A   1      45.926  21.872  37.727  1.00  0.00     0.275 C 
ENDROOT
BRANCH   1   2
ATOM      2  O   UNL A   1      46.092  22.978  36.822  1.00  0.00    -0.458 OA
BRANCH   2   3
ATOM      3  C   UNL A   1      45.717  24.204  37.234  1.00  0.00     0.338 C 
ATOM      4  O   UNL A   1      46.031  24.661  38.320  1.00  0.00    -0.246 OA
BRANCH   3   5
ATOM      5  C   UNL A   1      44.911  24.930  36.207  1.00  0.00     0.060 A 
ATOM      6  C   UNL A   1      43.554  24.712  35.956  1.00  0.00     0.016 A 
ATOM      7  C   UNL A   1      45.537  25.988  35.566  1.00  0.00     0.016 A 
ATOM      8  C   UNL A   1      42.842  25.587  35.119  1.00  0.00     0.010 A 
ATOM      9  C   UNL A   1      44.803  26.929  34.851  1.00  0.00     0.010 A 
ATOM     10  C   UNL A   1      43.453  26.731  34.579  1.00  0.00    -0.014 A 
BRANCH  10  11
ATOM     11  C   UNL A   1      42.707  27.687  33.713  1.00  0.00     0.031 A 
ATOM     12  C   UNL A   1      42.653  27.495  32.214  1.00  0.00     0.074 A 
ATOM     13  C   UNL A   1      42.110  28.766  34.259  1.00  0.00     0.049 A 
ATOM     14  N   UNL A   1      41.936  28.138  31.324  1.00  0.00    -0.248 NA
ATOM     15  C   UNL A   1      43.571  26.510  31.620  1.00  0.00     0.031 C 
ATOM     16  C   UNL A   1      42.244  29.198  35.652  1.00  0.00     0.029 A 
ATOM     17  N   UNL A   1      41.248  29.686  33.712  1.00  0.00    -0.354 N 
ATOM     18  C   UNL A   1      42.335  27.642  30.088  1.00  0.00     0.074 A 
ATOM     19  C   UNL A   1      43.445  26.755  30.327  1.00  0.00     0.031 C 
ATOM     20  C   UNL A   1      41.423  30.239  35.872  1.00  0.00     0.029 A 
ATOM     21  C   UNL A   1      40.698  30.538  34.641  1.00  0.00     0.049 A 
ATOM     22  H   UNL A   1      41.045  29.731  32.750  1.00  0.00     0.167 HD
ATOM     23  C   UNL A   1      41.774  27.834  28.869  1.00  0.00     0.037 A 
ATOM     24  C   UNL A   1      39.673  31.405  34.524  1.00  0.00     0.037 A 
ATOM     25  C   UNL A   1      40.610  28.647  28.657  1.00  0.00     0.049 A 
ATOM     26  C   UNL A   1      38.946  31.491  33.207  1.00  0.00     0.074 A 
ATOM     27  C   UNL A   1      39.868  28.824  27.505  1.00  0.00     0.029 A 
ATOM     28  N   UNL A   1      40.007  29.407  29.648  1.00  0.00    -0.354 N 
ATOM     29  N   UNL A   1      39.205  30.877  32.078  1.00  0.00    -0.248 NA
ATOM     30  C   UNL A   1      37.760  32.358  33.160  1.00  0.00     0.031 C 
ATOM     31  C   UNL A   1      38.820  29.706  27.797  1.00  0.00     0.029 A 
ATOM     32  C   UNL A   1      38.897  30.054  29.138  1.00  0.00     0.049 A 
ATOM     33  H   UNL A   1      40.324  29.477  30.578  1.00  0.00     0.167 HD
ATOM     34  C   UNL A   1      38.198  31.254  31.198  1.00  0.00     0.074 A 
ATOM     35  C   UNL A   1      37.314  32.136  31.931  1.00  0.00     0.031 C 
ATOM     36  C   UNL A   1      38.022  30.905  29.899  1.00  0.00     0.037 A 
BRANCH  23  37
ATOM     37  C   UNL A   1      42.377  27.093  27.707  1.00  0.00     0.064 A 
ATOM     38  C   UNL A   1      42.052  25.750  27.449  1.00  0.00     0.173 A 
ATOM     39  C   UNL A   1      43.302  27.713  26.855  1.00  0.00     0.173 A 
ATOM     40  F   UNL A   1      41.177  25.104  28.236  1.00  0.00    -0.203 F 
ATOM     41  C   UNL A   1      42.677  25.039  26.428  1.00  0.00     0.198 A 
ATOM     42  C   UNL A   1      43.896  27.010  25.808  1.00  0.00     0.198 A 
ATOM     43  F   UNL A   1      43.640  28.997  27.042  1.00  0.00    -0.203 F 
ATOM     44  F   UNL A   1      42.412  23.736  26.263  1.00  0.00    -0.200 F 
ATOM     45  C   UNL A   1      43.597  25.670  25.607  1.00  0.00     0.200 A 
ATOM     46  F   UNL A   1      44.775  27.624  25.003  1.00  0.00    -0.200 F 
ATOM     47  F   UNL A   1      44.205  24.983  24.630  1.00  0.00    -0.200 F 
ENDBRANCH  23  37
BRANCH  24  48
ATOM     48  C   UNL A   1      39.173  32.132  35.722  1.00  0.00     0.064 A 
ATOM     49  C   UNL A   1      39.596  33.443  35.987  1.00  0.00     0.173 A 
ATOM     50  C   UNL A   1      38.262  31.551  36.614  1.00  0.00     0.173 A 
ATOM     51  F   UNL A   1      40.475  34.040  35.167  1.00  0.00    -0.203 F 
ATOM     52  C   UNL A   1      39.150  34.134  37.111  1.00  0.00     0.198 A 
ATOM     53  C   UNL A   1      37.797  32.253  37.727  1.00  0.00     0.198 A 
ATOM     54  F   UNL A   1      37.812  30.306  36.398  1.00  0.00    -0.203 F 
ATOM     55  F   UNL A   1      39.604  35.371  37.358  1.00  0.00    -0.200 F 
ATOM     56  C   UNL A   1      38.247  33.541  37.978  1.00  0.00     0.200 A 
ATOM     57  F   UNL A   1      36.912  31.682  38.554  1.00  0.00    -0.200 F 
ATOM     58  F   UNL A   1      37.813  34.207  39.057  1.00  0.00    -0.200 F 
ENDBRANCH  24  48
BRANCH  36  59
ATOM     59  C   UNL A   1      36.815  31.448  29.199  1.00  0.00     0.064 A 
ATOM     60  C   UNL A   1      35.709  30.635  28.916  1.00  0.00     0.173 A 
ATOM     61  C   UNL A   1      36.741  32.808  28.863  1.00  0.00     0.173 A 
ATOM     62  F   UNL A   1      35.740  29.327  29.208  1.00  0.00    -0.203 F 
ATOM     63  C   UNL A   1      34.576  31.162  28.303  1.00  0.00     0.198 A 
ATOM     64  C   UNL A   1      35.597  33.337  28.274  1.00  0.00     0.198 A 
ATOM     65  F   UNL A   1      37.773  33.626  29.122  1.00  0.00    -0.203 F 
ATOM     66  F   UNL A   1      33.543  30.361  28.007  1.00  0.00    -0.200 F 
ATOM     67  C   UNL A   1      34.518  32.513  27.990  1.00  0.00     0.200 A 
ATOM     68  F   UNL A   1      35.537  34.644  27.984  1.00  0.00    -0.200 F 
ATOM     69  F   UNL A   1      33.422  33.020  27.409  1.00  0.00    -0.200 F 
ENDBRANCH  36  59
ENDBRANCH  10  11
ENDBRANCH   3   5
ENDBRANCH   2   3
ENDBRANCH   1   2
BRANCH   1  70
ATOM     70  C   UNL A   1      46.195  20.428  37.259  1.00  0.00     0.274 C 
BRANCH  70  71
ATOM     71  O   UNL A   1      45.922  19.415  38.244  1.00  0.00    -0.460 OA
BRANCH  71  72
ATOM     72  C   UNL A   1      47.038  18.990  38.921  1.00  0.00     0.335 C 
ATOM     73  O   UNL A   1      48.151  18.910  38.413  1.00  0.00    -0.249 OA
BRANCH  72  74
ATOM     74  C   UNL A   1      46.735  18.594  40.380  1.00  0.00     0.232 C 
ATOM     75  C   UNL A   1      45.908  19.648  41.106  1.00  0.00     0.087 C 
ATOM     76  O   UNL A   1      45.966  17.408  40.456  1.00  0.00    -0.355 OA
ATOM     77  C   UNL A   1      45.023  18.887  42.113  1.00  0.00     0.123 C 
ATOM     78  C   UNL A   1      45.162  17.410  41.656  1.00  0.00     0.186 C 
BRANCH  77  79
ATOM     79  C   UNL A   1      45.407  19.201  43.566  1.00  0.00    -0.013 A 
ATOM     80  C   UNL A   1      44.565  20.054  44.313  1.00  0.00     0.008 A 
ATOM     81  C   UNL A   1      46.529  18.673  44.229  1.00  0.00     0.008 A 
ATOM     82  C   UNL A   1      44.804  20.329  45.663  1.00  0.00     0.021 A 
ATOM     83  C   UNL A   1      46.771  18.945  45.584  1.00  0.00     0.021 A 
ATOM     84  C   UNL A   1      45.902  19.763  46.297  1.00  0.00     0.041 A 
ATOM     85  Cl  UNL A   1      46.185  20.066  47.965  1.00  0.00    -0.084 Cl
ENDBRANCH  77  79
BRANCH  77  86
ATOM     86  O   UNL A   1      43.655  19.315  41.989  1.00  0.00    -0.382 OA
ATOM     87  H   UNL A   1      43.269  18.936  41.184  1.00  0.00     0.212 HD
ENDBRANCH  77  86
BRANCH  78  88
ATOM     88  C   UNL A   1      43.931  16.574  41.336  1.00  0.00    -0.016 A 
ATOM     89  C   UNL A   1      43.590  16.282  40.003  1.00  0.00     0.008 A 
ATOM     90  C   UNL A   1      43.265  15.881  42.365  1.00  0.00     0.008 A 
ATOM     91  C   UNL A   1      42.697  15.248  39.705  1.00  0.00     0.021 A 
ATOM     92  C   UNL A   1      42.381  14.840  42.065  1.00  0.00     0.021 A 
ATOM     93  C   UNL A   1      42.123  14.510  40.736  1.00  0.00     0.041 A 
ATOM     94  Cl  UNL A   1      41.153  13.137  40.371  1.00  0.00    -0.084 Cl
ENDBRANCH  78  88
ENDBRANCH  72  74
ENDBRANCH  71  72
ENDBRANCH  70  71
ENDBRANCH   1  70
TORSDOF 14
ENDMDL
