MODEL 1
REMARK VINA RESULT:     -11.9      0.000      0.000
REMARK SMILES CC(C)(C)OC(=O)N1[C@@H](C(=O)OCCOC(=O)c2ccc(-c3c4nc(c(-c5c(F)c(F)c(F)c(F)c5F)c5ccc([nH]5)c(-c5c(F)c(F)c(F)c(F)c5F)c5nc(c(-c6c(F)c(F)c(F)c(F)c6F)c6ccc3[nH]6)C=C5)C=C4)cc2)C[C@H]2CCCC[C@@H]21
REMARK SMILES IDX 13 1 12 2 10 3 11 4 9 5 8 6 87 7 81 8 82 9 86 10 83 11 85 12
REMARK SMILES IDX 84 13 6 14 7 15 5 16 2 17 1 18 3 19 4 20 14 21 15 22 16 23
REMARK SMILES IDX 17 24 18 25 19 26 80 27 20 28 79 29 21 30 22 31 23 32 73 33
REMARK SMILES IDX 24 34 78 35 72 36 74 37 25 38 77 39 71 40 70 41 26 43 58 44
REMARK SMILES IDX 38 45 57 46 39 47 42 48 56 49 75 50 40 51 41 52 55 54 76 55
REMARK SMILES IDX 43 56 27 57 28 58 36 59 29 60 30 61 34 62 37 63 31 64 32 65
REMARK SMILES IDX 35 66 33 67 59 68 60 69 68 70 61 71 62 72 66 73 69 74 63 75
REMARK SMILES IDX 64 76 67 77 65 78 44 79 45 80 53 81 46 82 47 83 51 84 54 85
REMARK SMILES IDX 48 86 49 87 52 88 50 89
REMARK H PARENT 74 42 42 53
REMARK Flexibility Score: inf
ROOT
ATOM      1  C   UNL A   1      32.600  29.269  24.586  1.00  0.00     0.274 C 
ENDROOT
BRANCH   1   2
ATOM      2  O   UNL A   1      32.150  27.906  24.409  1.00  0.00    -0.461 OA
BRANCH   2   3
ATOM      3  C   UNL A   1      33.070  27.062  23.862  1.00  0.00     0.329 C 
ATOM      4  O   UNL A   1      33.281  26.973  22.655  1.00  0.00    -0.250 OA
BRANCH   3   5
ATOM      5  C   UNL A   1      33.718  26.126  24.907  1.00  0.00     0.199 C 
ATOM      6  N   UNL A   1      33.758  24.718  24.456  1.00  0.00    -0.291 N 
ATOM      7  C   UNL A   1      32.496  24.080  24.777  1.00  0.00     0.092 C 
ATOM      8  C   UNL A   1      32.719  26.114  26.091  1.00  0.00     0.043 C 
ATOM      9  C   UNL A   1      32.205  24.672  26.158  1.00  0.00     0.014 C 
ATOM     10  C   UNL A   1      32.364  22.561  24.871  1.00  0.00     0.025 C 
ATOM     11  C   UNL A   1      30.740  24.455  26.502  1.00  0.00     0.006 C 
ATOM     12  C   UNL A   1      30.934  22.197  25.297  1.00  0.00     0.002 C 
ATOM     13  C   UNL A   1      30.453  22.947  26.547  1.00  0.00     0.000 C 
BRANCH   6  14
ATOM     14  C   UNL A   1      34.770  24.089  23.768  1.00  0.00     0.411 C 
ATOM     15  O   UNL A   1      34.574  23.460  22.735  1.00  0.00    -0.224 OA
BRANCH  14  16
ATOM     16  O   UNL A   1      35.983  24.188  24.370  1.00  0.00    -0.444 OA
BRANCH  16  17
ATOM     17  C   UNL A   1      36.514  23.086  25.174  1.00  0.00     0.106 C 
ATOM     18  C   UNL A   1      37.646  23.699  26.009  1.00  0.00     0.056 C 
ATOM     19  C   UNL A   1      37.104  22.024  24.246  1.00  0.00     0.056 C 
ATOM     20  C   UNL A   1      35.522  22.429  26.152  1.00  0.00     0.056 C 
ENDBRANCH  16  17
ENDBRANCH  14  16
ENDBRANCH   6  14
ENDBRANCH   3   5
ENDBRANCH   2   3
ENDBRANCH   1   2
BRANCH   1  21
ATOM     21  C   UNL A   1      31.795  30.010  25.653  1.00  0.00     0.275 C 
BRANCH  21  22
ATOM     22  O   UNL A   1      32.486  29.990  26.916  1.00  0.00    -0.458 OA
BRANCH  22  23
ATOM     23  C   UNL A   1      33.116  31.145  27.225  1.00  0.00     0.338 C 
ATOM     24  O   UNL A   1      32.629  32.262  27.249  1.00  0.00    -0.246 OA
BRANCH  23  25
ATOM     25  C   UNL A   1      34.519  30.896  27.590  1.00  0.00     0.060 A 
ATOM     26  C   UNL A   1      34.941  29.589  27.804  1.00  0.00     0.016 A 
ATOM     27  C   UNL A   1      35.341  31.961  27.956  1.00  0.00     0.016 A 
ATOM     28  C   UNL A   1      36.126  29.338  28.485  1.00  0.00     0.010 A 
ATOM     29  C   UNL A   1      36.580  31.702  28.557  1.00  0.00     0.010 A 
ATOM     30  C   UNL A   1      36.965  30.386  28.871  1.00  0.00    -0.014 A 
BRANCH  30  31
ATOM     31  C   UNL A   1      38.198  30.106  29.658  1.00  0.00     0.031 A 
ATOM     32  C   UNL A   1      39.279  29.234  29.079  1.00  0.00     0.074 A 
ATOM     33  C   UNL A   1      38.376  30.657  30.874  1.00  0.00     0.049 A 
ATOM     34  N   UNL A   1      40.298  28.666  29.673  1.00  0.00    -0.248 NA
ATOM     35  C   UNL A   1      39.201  28.959  27.637  1.00  0.00     0.031 C 
ATOM     36  C   UNL A   1      37.472  31.611  31.517  1.00  0.00     0.029 A 
ATOM     37  N   UNL A   1      39.387  30.491  31.790  1.00  0.00    -0.354 N 
ATOM     38  C   UNL A   1      40.945  27.925  28.692  1.00  0.00     0.074 A 
ATOM     39  C   UNL A   1      40.211  28.120  27.460  1.00  0.00     0.031 C 
ATOM     40  C   UNL A   1      37.976  31.961  32.709  1.00  0.00     0.029 A 
ATOM     41  C   UNL A   1      39.177  31.175  32.962  1.00  0.00     0.049 A 
ATOM     42  H   UNL A   1      40.184  29.937  31.623  1.00  0.00     0.167 HD
ATOM     43  C   UNL A   1      42.046  27.144  28.818  1.00  0.00     0.037 A 
ATOM     44  C   UNL A   1      39.835  31.125  34.136  1.00  0.00     0.037 A 
ATOM     45  C   UNL A   1      42.799  27.000  30.036  1.00  0.00     0.049 A 
ATOM     46  C   UNL A   1      41.002  30.190  34.280  1.00  0.00     0.074 A 
ATOM     47  C   UNL A   1      43.914  26.217  30.278  1.00  0.00     0.029 A 
ATOM     48  N   UNL A   1      42.521  27.676  31.216  1.00  0.00    -0.354 N 
ATOM     49  N   UNL A   1      41.546  29.404  33.384  1.00  0.00    -0.248 NA
ATOM     50  C   UNL A   1      41.630  30.116  35.605  1.00  0.00     0.031 C 
ATOM     51  C   UNL A   1      44.288  26.390  31.615  1.00  0.00     0.029 A 
ATOM     52  C   UNL A   1      43.435  27.317  32.192  1.00  0.00     0.049 A 
ATOM     53  H   UNL A   1      41.782  28.314  31.341  1.00  0.00     0.167 HD
ATOM     54  C   UNL A   1      42.589  28.756  34.028  1.00  0.00     0.074 A 
ATOM     55  C   UNL A   1      42.611  29.250  35.390  1.00  0.00     0.031 C 
ATOM     56  C   UNL A   1      43.450  27.833  33.537  1.00  0.00     0.037 A 
BRANCH  43  57
ATOM     57  C   UNL A   1      42.475  26.343  27.624  1.00  0.00     0.064 A 
ATOM     58  C   UNL A   1      43.476  26.782  26.748  1.00  0.00     0.173 A 
ATOM     59  C   UNL A   1      41.899  25.084  27.384  1.00  0.00     0.173 A 
ATOM     60  F   UNL A   1      44.049  27.982  26.924  1.00  0.00    -0.203 F 
ATOM     61  C   UNL A   1      43.873  26.001  25.664  1.00  0.00     0.198 A 
ATOM     62  C   UNL A   1      42.316  24.295  26.316  1.00  0.00     0.198 A 
ATOM     63  F   UNL A   1      40.940  24.613  28.195  1.00  0.00    -0.203 F 
ATOM     64  F   UNL A   1      44.806  26.456  24.817  1.00  0.00    -0.200 F 
ATOM     65  C   UNL A   1      43.299  24.756  25.454  1.00  0.00     0.200 A 
ATOM     66  F   UNL A   1      41.768  23.087  26.122  1.00  0.00    -0.200 F 
ATOM     67  F   UNL A   1      43.688  24.002  24.416  1.00  0.00    -0.200 F 
ENDBRANCH  43  57
BRANCH  44  68
ATOM     68  C   UNL A   1      39.349  31.932  35.285  1.00  0.00     0.064 A 
ATOM     69  C   UNL A   1      39.696  33.282  35.419  1.00  0.00     0.173 A 
ATOM     70  C   UNL A   1      38.517  31.371  36.267  1.00  0.00     0.173 A 
ATOM     71  F   UNL A   1      40.511  33.857  34.523  1.00  0.00    -0.203 F 
ATOM     72  C   UNL A   1      39.233  34.040  36.493  1.00  0.00     0.198 A 
ATOM     73  C   UNL A   1      38.028  32.138  37.322  1.00  0.00     0.198 A 
ATOM     74  F   UNL A   1      38.160  30.081  36.189  1.00  0.00    -0.203 F 
ATOM     75  F   UNL A   1      39.610  35.320  36.620  1.00  0.00    -0.200 F 
ATOM     76  C   UNL A   1      38.391  33.470  37.437  1.00  0.00     0.200 A 
ATOM     77  F   UNL A   1      37.203  31.586  38.222  1.00  0.00    -0.200 F 
ATOM     78  F   UNL A   1      37.936  34.202  38.463  1.00  0.00    -0.200 F 
ENDBRANCH  44  68
BRANCH  56  79
ATOM     79  C   UNL A   1      44.520  27.332  34.460  1.00  0.00     0.064 A 
ATOM     80  C   UNL A   1      45.744  28.001  34.597  1.00  0.00     0.173 A 
ATOM     81  C   UNL A   1      44.296  26.194  35.249  1.00  0.00     0.173 A 
ATOM     82  F   UNL A   1      46.010  29.083  33.851  1.00  0.00    -0.203 F 
ATOM     83  C   UNL A   1      46.714  27.537  35.481  1.00  0.00     0.198 A 
ATOM     84  C   UNL A   1      45.257  25.748  36.149  1.00  0.00     0.198 A 
ATOM     85  F   UNL A   1      43.137  25.523  35.155  1.00  0.00    -0.203 F 
ATOM     86  F   UNL A   1      47.893  28.168  35.571  1.00  0.00    -0.200 F 
ATOM     87  C   UNL A   1      46.467  26.416  36.262  1.00  0.00     0.200 A 
ATOM     88  F   UNL A   1      45.013  24.672  36.910  1.00  0.00    -0.200 F 
ATOM     89  F   UNL A   1      47.399  25.977  37.118  1.00  0.00    -0.200 F 
ENDBRANCH  56  79
ENDBRANCH  30  31
ENDBRANCH  23  25
ENDBRANCH  22  23
ENDBRANCH  21  22
ENDBRANCH   1  21
TORSDOF 14
ENDMDL
MODEL 2
REMARK VINA RESULT:     -11.6      1.180      2.595
REMARK SMILES CC(C)(C)OC(=O)N1[C@@H](C(=O)OCCOC(=O)c2ccc(-c3c4nc(c(-c5c(F)c(F)c(F)c(F)c5F)c5ccc([nH]5)c(-c5c(F)c(F)c(F)c(F)c5F)c5nc(c(-c6c(F)c(F)c(F)c(F)c6F)c6ccc3[nH]6)C=C5)C=C4)cc2)C[C@H]2CCCC[C@@H]21
REMARK SMILES IDX 13 1 12 2 10 3 11 4 9 5 8 6 87 7 81 8 82 9 86 10 83 11 85 12
REMARK SMILES IDX 84 13 6 14 7 15 5 16 2 17 1 18 3 19 4 20 14 21 15 22 16 23
REMARK SMILES IDX 17 24 18 25 19 26 80 27 20 28 79 29 21 30 22 31 23 32 73 33
REMARK SMILES IDX 24 34 78 35 72 36 74 37 25 38 77 39 71 40 70 41 26 43 58 44
REMARK SMILES IDX 38 45 57 46 39 47 42 48 56 49 75 50 40 51 41 52 55 54 76 55
REMARK SMILES IDX 43 56 27 57 28 58 36 59 29 60 30 61 34 62 37 63 31 64 32 65
REMARK SMILES IDX 35 66 33 67 59 68 60 69 68 70 61 71 62 72 66 73 69 74 63 75
REMARK SMILES IDX 64 76 67 77 65 78 44 79 45 80 53 81 46 82 47 83 51 84 54 85
REMARK SMILES IDX 48 86 49 87 52 88 50 89
REMARK H PARENT 74 42 42 53
REMARK Flexibility Score: inf
ROOT
ATOM      1  C   UNL A   1      32.128  28.082  27.283  1.00  0.00     0.274 C 
ENDROOT
BRANCH   1   2
ATOM      2  O   UNL A   1      31.027  27.205  26.950  1.00  0.00    -0.461 OA
BRANCH   2   3
ATOM      3  C   UNL A   1      31.383  25.926  26.642  1.00  0.00     0.329 C 
ATOM      4  O   UNL A   1      30.678  24.947  26.876  1.00  0.00    -0.250 OA
BRANCH   3   5
ATOM      5  C   UNL A   1      32.826  25.821  26.099  1.00  0.00     0.199 C 
ATOM      6  N   UNL A   1      32.875  25.837  24.621  1.00  0.00    -0.291 N 
ATOM      7  C   UNL A   1      32.670  24.490  24.123  1.00  0.00     0.092 C 
ATOM      8  C   UNL A   1      33.281  24.388  26.475  1.00  0.00     0.043 C 
ATOM      9  C   UNL A   1      33.478  23.673  25.135  1.00  0.00     0.014 C 
ATOM     10  C   UNL A   1      33.106  24.076  22.718  1.00  0.00     0.025 C 
ATOM     11  C   UNL A   1      33.069  22.211  25.043  1.00  0.00     0.006 C 
ATOM     12  C   UNL A   1      32.824  22.581  22.516  1.00  0.00     0.002 C 
ATOM     13  C   UNL A   1      33.382  21.690  23.633  1.00  0.00     0.000 C 
BRANCH   6  14
ATOM     14  C   UNL A   1      33.009  26.933  23.800  1.00  0.00     0.411 C 
ATOM     15  O   UNL A   1      34.027  27.155  23.156  1.00  0.00    -0.224 OA
BRANCH  14  16
ATOM     16  O   UNL A   1      31.935  27.764  23.818  1.00  0.00    -0.444 OA
BRANCH  16  17
ATOM     17  C   UNL A   1      30.830  27.583  22.875  1.00  0.00     0.106 C 
ATOM     18  C   UNL A   1      30.485  28.993  22.375  1.00  0.00     0.056 C 
ATOM     19  C   UNL A   1      29.622  27.012  23.617  1.00  0.00     0.056 C 
ATOM     20  C   UNL A   1      31.138  26.718  21.638  1.00  0.00     0.056 C 
ENDBRANCH  16  17
ENDBRANCH  14  16
ENDBRANCH   6  14
ENDBRANCH   3   5
ENDBRANCH   2   3
ENDBRANCH   1   2
BRANCH   1  21
ATOM     21  C   UNL A   1      31.821  29.544  26.963  1.00  0.00     0.275 C 
BRANCH  21  22
ATOM     22  O   UNL A   1      32.987  30.207  26.441  1.00  0.00    -0.458 OA
BRANCH  22  23
ATOM     23  C   UNL A   1      33.470  31.190  27.233  1.00  0.00     0.338 C 
ATOM     24  O   UNL A   1      32.870  32.176  27.627  1.00  0.00    -0.246 OA
BRANCH  23  25
ATOM     25  C   UNL A   1      34.860  30.913  27.627  1.00  0.00     0.060 A 
ATOM     26  C   UNL A   1      35.247  29.598  27.860  1.00  0.00     0.016 A 
ATOM     27  C   UNL A   1      35.700  31.961  27.998  1.00  0.00     0.016 A 
ATOM     28  C   UNL A   1      36.414  29.326  28.565  1.00  0.00     0.010 A 
ATOM     29  C   UNL A   1      36.921  31.680  28.624  1.00  0.00     0.010 A 
ATOM     30  C   UNL A   1      37.269  30.358  28.957  1.00  0.00    -0.014 A 
BRANCH  30  31
ATOM     31  C   UNL A   1      38.480  30.057  29.769  1.00  0.00     0.031 A 
ATOM     32  C   UNL A   1      39.559  29.168  29.212  1.00  0.00     0.074 A 
ATOM     33  C   UNL A   1      38.642  30.603  30.990  1.00  0.00     0.049 A 
ATOM     34  N   UNL A   1      40.556  28.583  29.827  1.00  0.00    -0.248 NA
ATOM     35  C   UNL A   1      39.507  28.897  27.768  1.00  0.00     0.031 C 
ATOM     36  C   UNL A   1      37.740  31.571  31.616  1.00  0.00     0.029 A 
ATOM     37  N   UNL A   1      39.630  30.420  31.927  1.00  0.00    -0.354 N 
ATOM     38  C   UNL A   1      41.212  27.833  28.858  1.00  0.00     0.074 A 
ATOM     39  C   UNL A   1      40.507  28.041  27.611  1.00  0.00     0.031 C 
ATOM     40  C   UNL A   1      38.225  31.912  32.818  1.00  0.00     0.029 A 
ATOM     41  C   UNL A   1      39.407  31.106  33.095  1.00  0.00     0.049 A 
ATOM     42  H   UNL A   1      40.422  29.853  31.775  1.00  0.00     0.167 HD
ATOM     43  C   UNL A   1      42.297  27.035  29.005  1.00  0.00     0.037 A 
ATOM     44  C   UNL A   1      40.039  31.043  34.282  1.00  0.00     0.037 A 
ATOM     45  C   UNL A   1      43.022  26.877  30.239  1.00  0.00     0.049 A 
ATOM     46  C   UNL A   1      41.187  30.090  34.449  1.00  0.00     0.074 A 
ATOM     47  C   UNL A   1      44.119  26.075  30.503  1.00  0.00     0.029 A 
ATOM     48  N   UNL A   1      42.730  27.555  31.414  1.00  0.00    -0.354 N 
ATOM     49  N   UNL A   1      41.738  29.296  33.564  1.00  0.00    -0.248 NA
ATOM     50  C   UNL A   1      41.786  30.003  35.788  1.00  0.00     0.031 C 
ATOM     51  C   UNL A   1      44.468  26.241  31.849  1.00  0.00     0.029 A 
ATOM     52  C   UNL A   1      43.617  27.180  32.409  1.00  0.00     0.049 A 
ATOM     53  H   UNL A   1      41.999  28.205  31.524  1.00  0.00     0.167 HD
ATOM     54  C   UNL A   1      42.757  28.630  34.229  1.00  0.00     0.074 A 
ATOM     55  C   UNL A   1      42.757  29.122  35.592  1.00  0.00     0.031 C 
ATOM     56  C   UNL A   1      43.613  27.694  33.755  1.00  0.00     0.037 A 
BRANCH  43  57
ATOM     57  C   UNL A   1      42.739  26.228  27.820  1.00  0.00     0.064 A 
ATOM     58  C   UNL A   1      42.199  24.968  27.528  1.00  0.00     0.173 A 
ATOM     59  C   UNL A   1      43.691  26.754  26.932  1.00  0.00     0.173 A 
ATOM     60  F   UNL A   1      41.296  24.414  28.351  1.00  0.00    -0.203 F 
ATOM     61  C   UNL A   1      42.610  24.256  26.402  1.00  0.00     0.198 A 
ATOM     62  C   UNL A   1      44.081  26.052  25.795  1.00  0.00     0.198 A 
ATOM     63  F   UNL A   1      44.236  27.959  27.161  1.00  0.00    -0.203 F 
ATOM     64  F   UNL A   1      42.108  23.037  26.163  1.00  0.00    -0.200 F 
ATOM     65  C   UNL A   1      43.543  24.802  25.534  1.00  0.00     0.200 A 
ATOM     66  F   UNL A   1      44.974  26.587  24.951  1.00  0.00    -0.200 F 
ATOM     67  F   UNL A   1      43.930  24.119  24.447  1.00  0.00    -0.200 F 
ENDBRANCH  43  57
BRANCH  44  68
ATOM     68  C   UNL A   1      39.542  31.857  35.423  1.00  0.00     0.064 A 
ATOM     69  C   UNL A   1      39.984  33.171  35.621  1.00  0.00     0.173 A 
ATOM     70  C   UNL A   1      38.605  31.339  36.331  1.00  0.00     0.173 A 
ATOM     71  F   UNL A   1      40.900  33.701  34.797  1.00  0.00    -0.203 F 
ATOM     72  C   UNL A   1      39.511  33.935  36.685  1.00  0.00     0.198 A 
ATOM     73  C   UNL A   1      38.108  32.115  37.375  1.00  0.00     0.198 A 
ATOM     74  F   UNL A   1      38.153  30.084  36.190  1.00  0.00    -0.203 F 
ATOM     75  F   UNL A   1      39.978  35.177  36.876  1.00  0.00    -0.200 F 
ATOM     76  C   UNL A   1      38.566  33.410  37.555  1.00  0.00     0.200 A 
ATOM     77  F   UNL A   1      37.184  31.608  38.202  1.00  0.00    -0.200 F 
ATOM     78  F   UNL A   1      38.102  34.150  38.572  1.00  0.00    -0.200 F 
ENDBRANCH  44  68
BRANCH  56  79
ATOM     79  C   UNL A   1      44.654  27.175  34.699  1.00  0.00     0.064 A 
ATOM     80  C   UNL A   1      45.886  27.823  34.862  1.00  0.00     0.173 A 
ATOM     81  C   UNL A   1      44.394  26.040  35.482  1.00  0.00     0.173 A 
ATOM     82  F   UNL A   1      46.186  28.900  34.122  1.00  0.00    -0.203 F 
ATOM     83  C   UNL A   1      46.830  27.342  35.766  1.00  0.00     0.198 A 
ATOM     84  C   UNL A   1      45.329  25.578  36.402  1.00  0.00     0.198 A 
ATOM     85  F   UNL A   1      43.227  25.390  35.364  1.00  0.00    -0.203 F 
ATOM     86  F   UNL A   1      48.017  27.953  35.880  1.00  0.00    -0.200 F 
ATOM     87  C   UNL A   1      46.548  26.225  36.540  1.00  0.00     0.200 A 
ATOM     88  F   UNL A   1      45.051  24.505  37.157  1.00  0.00    -0.200 F 
ATOM     89  F   UNL A   1      47.454  25.770  37.415  1.00  0.00    -0.200 F 
ENDBRANCH  56  79
ENDBRANCH  30  31
ENDBRANCH  23  25
ENDBRANCH  22  23
ENDBRANCH  21  22
ENDBRANCH   1  21
TORSDOF 14
ENDMDL
MODEL 3
REMARK VINA RESULT:     -11.6      1.132      2.541
REMARK SMILES CC(C)(C)OC(=O)N1[C@@H](C(=O)OCCOC(=O)c2ccc(-c3c4nc(c(-c5c(F)c(F)c(F)c(F)c5F)c5ccc([nH]5)c(-c5c(F)c(F)c(F)c(F)c5F)c5nc(c(-c6c(F)c(F)c(F)c(F)c6F)c6ccc3[nH]6)C=C5)C=C4)cc2)C[C@H]2CCCC[C@@H]21
REMARK SMILES IDX 13 1 12 2 10 3 11 4 9 5 8 6 87 7 81 8 82 9 86 10 83 11 85 12
REMARK SMILES IDX 84 13 6 14 7 15 5 16 2 17 1 18 3 19 4 20 14 21 15 22 16 23
REMARK SMILES IDX 17 24 18 25 19 26 80 27 20 28 79 29 21 30 22 31 23 32 73 33
REMARK SMILES IDX 24 34 78 35 72 36 74 37 25 38 77 39 71 40 70 41 26 43 58 44
REMARK SMILES IDX 38 45 57 46 39 47 42 48 56 49 75 50 40 51 41 52 55 54 76 55
REMARK SMILES IDX 43 56 27 57 28 58 36 59 29 60 30 61 34 62 37 63 31 64 32 65
REMARK SMILES IDX 35 66 33 67 59 68 60 69 68 70 61 71 62 72 66 73 69 74 63 75
REMARK SMILES IDX 64 76 67 77 65 78 44 79 45 80 53 81 46 82 47 83 51 84 54 85
REMARK SMILES IDX 48 86 49 87 52 88 50 89
REMARK H PARENT 74 42 42 53
REMARK Flexibility Score: inf
ROOT
ATOM      1  C   UNL A   1      31.459  28.312  25.073  1.00  0.00     0.274 C 
ENDROOT
BRANCH   1   2
ATOM      2  O   UNL A   1      30.754  27.111  25.462  1.00  0.00    -0.461 OA
BRANCH   2   3
ATOM      3  C   UNL A   1      31.524  26.160  26.062  1.00  0.00     0.329 C 
ATOM      4  O   UNL A   1      31.402  25.826  27.238  1.00  0.00    -0.250 OA
BRANCH   3   5
ATOM      5  C   UNL A   1      32.661  25.648  25.150  1.00  0.00     0.199 C 
ATOM      6  N   UNL A   1      32.318  24.372  24.484  1.00  0.00    -0.291 N 
ATOM      7  C   UNL A   1      32.636  23.271  25.372  1.00  0.00     0.092 C 
ATOM      8  C   UNL A   1      33.802  25.267  26.126  1.00  0.00     0.043 C 
ATOM      9  C   UNL A   1      33.957  23.751  25.979  1.00  0.00     0.014 C 
ATOM     10  C   UNL A   1      32.840  21.849  24.849  1.00  0.00     0.025 C 
ATOM     11  C   UNL A   1      34.259  22.942  27.232  1.00  0.00     0.006 C 
ATOM     12  C   UNL A   1      33.235  20.929  26.013  1.00  0.00     0.002 C 
ATOM     13  C   UNL A   1      34.405  21.462  26.851  1.00  0.00     0.000 C 
BRANCH   6  14
ATOM     14  C   UNL A   1      31.719  24.205  23.256  1.00  0.00     0.411 C 
ATOM     15  O   UNL A   1      30.584  23.762  23.130  1.00  0.00    -0.224 OA
BRANCH  14  16
ATOM     16  O   UNL A   1      32.522  24.524  22.209  1.00  0.00    -0.444 OA
BRANCH  16  17
ATOM     17  C   UNL A   1      32.444  25.843  21.577  1.00  0.00     0.106 C 
ATOM     18  C   UNL A   1      32.528  25.578  20.068  1.00  0.00     0.056 C 
ATOM     19  C   UNL A   1      33.653  26.676  22.001  1.00  0.00     0.056 C 
ATOM     20  C   UNL A   1      31.149  26.635  21.835  1.00  0.00     0.056 C 
ENDBRANCH  16  17
ENDBRANCH  14  16
ENDBRANCH   6  14
ENDBRANCH   3   5
ENDBRANCH   2   3
ENDBRANCH   1   2
BRANCH   1  21
ATOM     21  C   UNL A   1      31.803  29.196  26.271  1.00  0.00     0.275 C 
BRANCH  21  22
ATOM     22  O   UNL A   1      32.906  30.067  25.960  1.00  0.00    -0.458 OA
BRANCH  22  23
ATOM     23  C   UNL A   1      33.250  30.910  26.958  1.00  0.00     0.338 C 
ATOM     24  O   UNL A   1      32.532  31.728  27.507  1.00  0.00    -0.246 OA
BRANCH  23  25
ATOM     25  C   UNL A   1      34.647  30.697  27.368  1.00  0.00     0.060 A 
ATOM     26  C   UNL A   1      35.087  29.403  27.623  1.00  0.00     0.016 A 
ATOM     27  C   UNL A   1      35.438  31.785  27.733  1.00  0.00     0.016 A 
ATOM     28  C   UNL A   1      36.258  29.190  28.341  1.00  0.00     0.010 A 
ATOM     29  C   UNL A   1      36.664  31.564  28.373  1.00  0.00     0.010 A 
ATOM     30  C   UNL A   1      37.065  30.263  28.727  1.00  0.00    -0.014 A 
BRANCH  30  31
ATOM     31  C   UNL A   1      38.280  30.025  29.553  1.00  0.00     0.031 A 
ATOM     32  C   UNL A   1      39.398  29.169  29.020  1.00  0.00     0.074 A 
ATOM     33  C   UNL A   1      38.410  30.598  30.765  1.00  0.00     0.049 A 
ATOM     34  N   UNL A   1      40.412  28.634  29.653  1.00  0.00    -0.248 NA
ATOM     35  C   UNL A   1      39.368  28.869  27.582  1.00  0.00     0.031 C 
ATOM     36  C   UNL A   1      37.466  31.541  31.366  1.00  0.00     0.029 A 
ATOM     37  N   UNL A   1      39.397  30.472  31.712  1.00  0.00    -0.354 N 
ATOM     38  C   UNL A   1      41.104  27.893  28.704  1.00  0.00     0.074 A 
ATOM     39  C   UNL A   1      40.402  28.051  27.448  1.00  0.00     0.031 C 
ATOM     40  C   UNL A   1      37.927  31.922  32.565  1.00  0.00     0.029 A 
ATOM     41  C   UNL A   1      39.138  31.169  32.866  1.00  0.00     0.049 A 
ATOM     42  H   UNL A   1      40.211  29.934  31.577  1.00  0.00     0.167 HD
ATOM     43  C   UNL A   1      42.218  27.141  28.874  1.00  0.00     0.037 A 
ATOM     44  C   UNL A   1      39.762  31.153  34.059  1.00  0.00     0.037 A 
ATOM     45  C   UNL A   1      42.939  27.034  30.116  1.00  0.00     0.049 A 
ATOM     46  C   UNL A   1      40.945  30.248  34.252  1.00  0.00     0.074 A 
ATOM     47  C   UNL A   1      44.064  26.281  30.403  1.00  0.00     0.029 A 
ATOM     48  N   UNL A   1      42.611  27.722  31.276  1.00  0.00    -0.354 N 
ATOM     49  N   UNL A   1      41.533  29.461  33.386  1.00  0.00    -0.248 NA
ATOM     50  C   UNL A   1      41.536  30.210  35.596  1.00  0.00     0.031 C 
ATOM     51  C   UNL A   1      44.395  26.484  31.748  1.00  0.00     0.029 A 
ATOM     52  C   UNL A   1      43.504  27.400  32.284  1.00  0.00     0.049 A 
ATOM     53  H   UNL A   1      41.854  28.344  31.369  1.00  0.00     0.167 HD
ATOM     54  C   UNL A   1      42.572  28.848  34.071  1.00  0.00     0.074 A 
ATOM     55  C   UNL A   1      42.542  29.364  35.424  1.00  0.00     0.031 C 
ATOM     56  C   UNL A   1      43.468  27.937  33.620  1.00  0.00     0.037 A 
BRANCH  43  57
ATOM     57  C   UNL A   1      42.701  26.331  27.707  1.00  0.00     0.064 A 
ATOM     58  C   UNL A   1      42.180  25.065  27.407  1.00  0.00     0.173 A 
ATOM     59  C   UNL A   1      43.676  26.860  26.845  1.00  0.00     0.173 A 
ATOM     60  F   UNL A   1      41.256  24.509  28.205  1.00  0.00    -0.203 F 
ATOM     61  C   UNL A   1      42.629  24.350  26.298  1.00  0.00     0.198 A 
ATOM     62  C   UNL A   1      44.104  26.154  25.724  1.00  0.00     0.198 A 
ATOM     63  F   UNL A   1      44.205  28.069  27.083  1.00  0.00    -0.203 F 
ATOM     64  F   UNL A   1      42.144  23.126  26.050  1.00  0.00    -0.200 F 
ATOM     65  C   UNL A   1      43.584  24.898  25.454  1.00  0.00     0.200 A 
ATOM     66  F   UNL A   1      45.018  26.691  24.904  1.00  0.00    -0.200 F 
ATOM     67  F   UNL A   1      44.008  24.212  24.383  1.00  0.00    -0.200 F 
ENDBRANCH  43  57
BRANCH  44  68
ATOM     68  C   UNL A   1      39.224  31.967  35.181  1.00  0.00     0.064 A 
ATOM     69  C   UNL A   1      38.450  31.384  36.191  1.00  0.00     0.173 A 
ATOM     70  C   UNL A   1      39.485  33.343  35.270  1.00  0.00     0.173 A 
ATOM     71  F   UNL A   1      38.148  30.078  36.136  1.00  0.00    -0.203 F 
ATOM     72  C   UNL A   1      37.953  32.146  37.246  1.00  0.00     0.198 A 
ATOM     73  C   UNL A   1      39.016  34.098  36.342  1.00  0.00     0.198 A 
ATOM     74  F   UNL A   1      40.217  33.952  34.325  1.00  0.00    -0.203 F 
ATOM     75  F   UNL A   1      37.181  31.573  38.180  1.00  0.00    -0.200 F 
ATOM     76  C   UNL A   1      38.246  33.500  37.326  1.00  0.00     0.200 A 
ATOM     77  F   UNL A   1      39.315  35.402  36.422  1.00  0.00    -0.200 F 
ATOM     78  F   UNL A   1      37.778  34.231  38.347  1.00  0.00    -0.200 F 
ENDBRANCH  44  68
BRANCH  56  79
ATOM     79  C   UNL A   1      44.521  27.477  34.582  1.00  0.00     0.064 A 
ATOM     80  C   UNL A   1      45.728  28.173  34.738  1.00  0.00     0.173 A 
ATOM     81  C   UNL A   1      44.298  26.350  35.387  1.00  0.00     0.173 A 
ATOM     82  F   UNL A   1      45.994  29.245  33.977  1.00  0.00    -0.203 F 
ATOM     83  C   UNL A   1      46.682  27.746  35.657  1.00  0.00     0.198 A 
ATOM     84  C   UNL A   1      45.243  25.942  36.322  1.00  0.00     0.198 A 
ATOM     85  F   UNL A   1      43.155  25.655  35.276  1.00  0.00    -0.203 F 
ATOM     86  F   UNL A   1      47.846  28.402  35.766  1.00  0.00    -0.200 F 
ATOM     87  C   UNL A   1      46.436  26.636  36.454  1.00  0.00     0.200 A 
ATOM     88  F   UNL A   1      44.999  24.876  37.098  1.00  0.00    -0.200 F 
ATOM     89  F   UNL A   1      47.352  26.233  37.344  1.00  0.00    -0.200 F 
ENDBRANCH  56  79
ENDBRANCH  30  31
ENDBRANCH  23  25
ENDBRANCH  22  23
ENDBRANCH  21  22
ENDBRANCH   1  21
TORSDOF 14
ENDMDL
