MODEL 1
REMARK VINA RESULT:     -11.6      0.000      0.000
REMARK SMILES C[C@@H](Nc1cccc(C(=O)OCCOC(=O)c2ccc(-c3c4nc(c(-c5c(F)c(F)c(F)c(F)c5F)c5ccc([nH]5)c(-c5c(F)c(F)c(F)c(F)c5F)c5nc(c(-c6c(F)c(F)c(F)c(F)c6F)c6ccc3[nH]6)C=C5)C=C4)cc2)c1)C1CC[NH+](C)CC1
REMARK SMILES IDX 12 1 11 2 9 3 10 4 8 5 4 6 5 7 80 8 6 9 7 10 3 11 2 13 1 14
REMARK SMILES IDX 81 15 82 16 87 17 83 18 86 19 84 20 85 21 13 23 14 24 15 25
REMARK SMILES IDX 16 26 17 27 18 28 79 29 19 30 78 31 20 32 21 33 22 34 72 35
REMARK SMILES IDX 23 36 77 37 71 38 73 39 24 40 76 41 70 42 69 43 25 45 57 46
REMARK SMILES IDX 37 47 56 48 38 49 41 50 55 51 74 52 39 53 40 54 54 56 75 57
REMARK SMILES IDX 42 58 26 59 27 60 35 61 28 62 29 63 33 64 36 65 30 66 31 67
REMARK SMILES IDX 34 68 32 69 58 70 59 71 67 72 60 73 61 74 65 75 68 76 62 77
REMARK SMILES IDX 63 78 66 79 64 80 43 81 44 82 52 83 45 84 46 85 50 86 53 87
REMARK SMILES IDX 47 88 48 89 51 90 49 91
REMARK H PARENT 3 12 84 22 73 44 41 55
REMARK Flexibility Score: inf
ROOT
ATOM      1  C   UNL A   1      33.873  35.260  28.738  1.00  0.00     0.275 C 
ENDROOT
BRANCH   1   2
ATOM      2  O   UNL A   1      33.605  33.869  29.008  1.00  0.00    -0.458 OA
BRANCH   2   3
ATOM      3  C   UNL A   1      33.032  33.175  27.994  1.00  0.00     0.338 C 
ATOM      4  O   UNL A   1      32.149  33.574  27.251  1.00  0.00    -0.246 OA
BRANCH   3   5
ATOM      5  C   UNL A   1      33.653  31.835  27.843  1.00  0.00     0.062 A 
ATOM      6  C   UNL A   1      33.668  29.662  26.788  1.00  0.00     0.035 A 
ATOM      7  C   UNL A   1      34.975  29.462  27.250  1.00  0.00     0.026 A 
ATOM      8  C   UNL A   1      32.970  30.794  27.213  1.00  0.00     0.041 A 
ATOM      9  C   UNL A   1      35.638  30.453  27.965  1.00  0.00     0.003 A 
ATOM     10  C   UNL A   1      34.999  31.666  28.195  1.00  0.00     0.016 A 
BRANCH   6  11
ATOM     11  N   UNL A   1      33.220  28.864  25.755  1.00  0.00    -0.382 N 
ATOM     12  H   UNL A   1      33.881  28.608  25.072  1.00  0.00     0.160 HD
BRANCH  11  13
ATOM     13  C   UNL A   1      31.845  28.357  25.575  1.00  0.00     0.079 C 
ATOM     14  C   UNL A   1      31.559  27.465  26.788  1.00  0.00     0.031 C 
BRANCH  13  15
ATOM     15  C   UNL A   1      31.568  27.666  24.187  1.00  0.00     0.022 C 
ATOM     16  C   UNL A   1      31.657  28.682  23.036  1.00  0.00     0.067 C 
ATOM     17  C   UNL A   1      30.306  26.810  24.024  1.00  0.00     0.067 C 
ATOM     18  C   UNL A   1      30.372  29.479  22.880  1.00  0.00     0.262 C 
ATOM     19  C   UNL A   1      29.040  27.596  23.686  1.00  0.00     0.262 C 
ATOM     20  N   UNL A   1      29.245  28.580  22.615  1.00  0.00    -0.337 N 
ATOM     21  C   UNL A   1      28.021  29.351  22.398  1.00  0.00     0.332 C 
ATOM     22  H   UNL A   1      29.475  28.056  21.771  1.00  0.00     0.347 HD
ENDBRANCH  13  15
ENDBRANCH  11  13
ENDBRANCH   6  11
ENDBRANCH   3   5
ENDBRANCH   2   3
ENDBRANCH   1   2
BRANCH   1  23
ATOM     23  C   UNL A   1      32.902  36.149  29.513  1.00  0.00     0.275 C 
BRANCH  23  24
ATOM     24  O   UNL A   1      32.350  35.416  30.621  1.00  0.00    -0.458 OA
BRANCH  24  25
ATOM     25  C   UNL A   1      32.616  35.908  31.850  1.00  0.00     0.338 C 
ATOM     26  O   UNL A   1      32.061  36.828  32.431  1.00  0.00    -0.246 OA
BRANCH  25  27
ATOM     27  C   UNL A   1      33.711  35.132  32.450  1.00  0.00     0.060 A 
ATOM     28  C   UNL A   1      34.987  35.688  32.494  1.00  0.00     0.016 A 
ATOM     29  C   UNL A   1      33.507  33.821  32.866  1.00  0.00     0.016 A 
ATOM     30  C   UNL A   1      36.081  34.932  32.899  1.00  0.00     0.010 A 
ATOM     31  C   UNL A   1      34.593  33.079  33.341  1.00  0.00     0.010 A 
ATOM     32  C   UNL A   1      35.895  33.619  33.338  1.00  0.00    -0.014 A 
BRANCH  32  33
ATOM     33  C   UNL A   1      37.057  32.781  33.725  1.00  0.00     0.031 A 
ATOM     34  C   UNL A   1      37.685  32.977  35.076  1.00  0.00     0.074 A 
ATOM     35  C   UNL A   1      37.551  31.848  32.889  1.00  0.00     0.049 A 
ATOM     36  N   UNL A   1      38.840  32.558  35.523  1.00  0.00    -0.248 NA
ATOM     37  C   UNL A   1      36.908  33.759  36.050  1.00  0.00     0.031 C 
ATOM     38  C   UNL A   1      36.989  31.490  31.587  1.00  0.00     0.029 A 
ATOM     39  N   UNL A   1      38.650  31.034  33.012  1.00  0.00    -0.354 N 
ATOM     40  C   UNL A   1      38.961  33.086  36.802  1.00  0.00     0.074 A 
ATOM     41  C   UNL A   1      37.754  33.838  37.069  1.00  0.00     0.031 C 
ATOM     42  C   UNL A   1      37.737  30.521  31.037  1.00  0.00     0.029 A 
ATOM     43  C   UNL A   1      38.878  30.252  31.907  1.00  0.00     0.049 A 
ATOM     44  H   UNL A   1      39.219  31.011  33.816  1.00  0.00     0.167 HD
ATOM     45  C   UNL A   1      39.996  32.961  37.664  1.00  0.00     0.037 A 
ATOM     46  C   UNL A   1      39.917  29.451  31.603  1.00  0.00     0.037 A 
ATOM     47  C   UNL A   1      41.166  32.162  37.413  1.00  0.00     0.049 A 
ATOM     48  C   UNL A   1      41.069  29.347  32.565  1.00  0.00     0.074 A 
ATOM     49  C   UNL A   1      42.277  31.977  38.217  1.00  0.00     0.029 A 
ATOM     50  N   UNL A   1      41.361  31.393  36.275  1.00  0.00    -0.354 N 
ATOM     51  N   UNL A   1      41.227  29.924  33.731  1.00  0.00    -0.248 NA
ATOM     52  C   UNL A   1      42.199  28.499  32.158  1.00  0.00     0.031 C 
ATOM     53  C   UNL A   1      43.155  31.111  37.555  1.00  0.00     0.029 A 
ATOM     54  C   UNL A   1      42.575  30.731  36.356  1.00  0.00     0.049 A 
ATOM     55  H   UNL A   1      40.731  31.328  35.522  1.00  0.00     0.167 HD
ATOM     56  C   UNL A   1      42.461  29.503  34.202  1.00  0.00     0.074 A 
ATOM     57  C   UNL A   1      43.008  28.609  33.202  1.00  0.00     0.031 C 
ATOM     58  C   UNL A   1      43.089  29.832  35.357  1.00  0.00     0.037 A 
BRANCH  45  59
ATOM     59  C   UNL A   1      39.932  33.743  38.940  1.00  0.00     0.064 A 
ATOM     60  C   UNL A   1      39.267  33.262  40.076  1.00  0.00     0.173 A 
ATOM     61  C   UNL A   1      40.578  34.987  39.033  1.00  0.00     0.173 A 
ATOM     62  F   UNL A   1      38.620  32.088  40.030  1.00  0.00    -0.203 F 
ATOM     63  C   UNL A   1      39.235  34.004  41.254  1.00  0.00     0.198 A 
ATOM     64  C   UNL A   1      40.565  35.715  40.219  1.00  0.00     0.198 A 
ATOM     65  F   UNL A   1      41.230  35.490  37.974  1.00  0.00    -0.203 F 
ATOM     66  F   UNL A   1      38.562  33.543  42.317  1.00  0.00    -0.200 F 
ATOM     67  C   UNL A   1      39.889  35.226  41.326  1.00  0.00     0.200 A 
ATOM     68  F   UNL A   1      41.205  36.891  40.288  1.00  0.00    -0.200 F 
ATOM     69  F   UNL A   1      39.863  35.936  42.462  1.00  0.00    -0.200 F 
ENDBRANCH  45  59
BRANCH  46  70
ATOM     70  C   UNL A   1      39.938  28.725  30.307  1.00  0.00     0.064 A 
ATOM     71  C   UNL A   1      40.530  29.294  29.173  1.00  0.00     0.173 A 
ATOM     72  C   UNL A   1      39.374  27.447  30.179  1.00  0.00     0.173 A 
ATOM     73  F   UNL A   1      41.058  30.525  29.239  1.00  0.00    -0.203 F 
ATOM     74  C   UNL A   1      40.554  28.614  27.957  1.00  0.00     0.198 A 
ATOM     75  C   UNL A   1      39.420  26.758  28.969  1.00  0.00     0.198 A 
ATOM     76  F   UNL A   1      38.789  26.862  31.235  1.00  0.00    -0.203 F 
ATOM     77  F   UNL A   1      41.094  29.196  26.878  1.00  0.00    -0.200 F 
ATOM     78  C   UNL A   1      40.006  27.344  27.858  1.00  0.00     0.200 A 
ATOM     79  F   UNL A   1      38.901  25.526  28.882  1.00  0.00    -0.200 F 
ATOM     80  F   UNL A   1      40.037  26.688  26.690  1.00  0.00    -0.200 F 
ENDBRANCH  46  70
BRANCH  58  81
ATOM     81  C   UNL A   1      44.417  29.191  35.621  1.00  0.00     0.064 A 
ATOM     82  C   UNL A   1      45.615  29.798  35.220  1.00  0.00     0.173 A 
ATOM     83  C   UNL A   1      44.490  27.983  36.330  1.00  0.00     0.173 A 
ATOM     84  F   UNL A   1      45.592  30.946  34.528  1.00  0.00    -0.203 F 
ATOM     85  C   UNL A   1      46.843  29.208  35.509  1.00  0.00     0.198 A 
ATOM     86  C   UNL A   1      45.719  27.407  36.634  1.00  0.00     0.198 A 
ATOM     87  F   UNL A   1      43.368  27.369  36.737  1.00  0.00    -0.203 F 
ATOM     88  F   UNL A   1      47.977  29.787  35.091  1.00  0.00    -0.200 F 
ATOM     89  C   UNL A   1      46.894  28.018  36.220  1.00  0.00     0.200 A 
ATOM     90  F   UNL A   1      45.768  26.261  37.327  1.00  0.00    -0.200 F 
ATOM     91  F   UNL A   1      48.077  27.456  36.502  1.00  0.00    -0.200 F 
ENDBRANCH  58  81
ENDBRANCH  32  33
ENDBRANCH  25  27
ENDBRANCH  24  25
ENDBRANCH  23  24
ENDBRANCH   1  23
TORSDOF 14
ENDMDL
MODEL 2
REMARK VINA RESULT:     -11.5      4.860      9.605
REMARK SMILES C[C@@H](Nc1cccc(C(=O)OCCOC(=O)c2ccc(-c3c4nc(c(-c5c(F)c(F)c(F)c(F)c5F)c5ccc([nH]5)c(-c5c(F)c(F)c(F)c(F)c5F)c5nc(c(-c6c(F)c(F)c(F)c(F)c6F)c6ccc3[nH]6)C=C5)C=C4)cc2)c1)C1CC[NH+](C)CC1
REMARK SMILES IDX 12 1 11 2 9 3 10 4 8 5 4 6 5 7 80 8 6 9 7 10 3 11 2 13 1 14
REMARK SMILES IDX 81 15 82 16 87 17 83 18 86 19 84 20 85 21 13 23 14 24 15 25
REMARK SMILES IDX 16 26 17 27 18 28 79 29 19 30 78 31 20 32 21 33 22 34 72 35
REMARK SMILES IDX 23 36 77 37 71 38 73 39 24 40 76 41 70 42 69 43 25 45 57 46
REMARK SMILES IDX 37 47 56 48 38 49 41 50 55 51 74 52 39 53 40 54 54 56 75 57
REMARK SMILES IDX 42 58 26 59 27 60 35 61 28 62 29 63 33 64 36 65 30 66 31 67
REMARK SMILES IDX 34 68 32 69 58 70 59 71 67 72 60 73 61 74 65 75 68 76 62 77
REMARK SMILES IDX 63 78 66 79 64 80 43 81 44 82 52 83 45 84 46 85 50 86 53 87
REMARK SMILES IDX 47 88 48 89 51 90 49 91
REMARK H PARENT 3 12 84 22 73 44 41 55
REMARK Flexibility Score: inf
ROOT
ATOM      1  C   UNL A   1      42.252  20.200  26.280  1.00  0.00     0.275 C 
ENDROOT
BRANCH   1   2
ATOM      2  O   UNL A   1      41.010  20.850  26.616  1.00  0.00    -0.458 OA
BRANCH   2   3
ATOM      3  C   UNL A   1      39.906  20.364  25.995  1.00  0.00     0.338 C 
ATOM      4  O   UNL A   1      39.687  19.196  25.717  1.00  0.00    -0.246 OA
BRANCH   3   5
ATOM      5  C   UNL A   1      38.925  21.444  25.722  1.00  0.00     0.062 A 
ATOM      6  C   UNL A   1      36.727  22.110  24.973  1.00  0.00     0.035 A 
ATOM      7  C   UNL A   1      36.933  23.375  25.538  1.00  0.00     0.026 A 
ATOM      8  C   UNL A   1      37.788  21.202  24.950  1.00  0.00     0.041 A 
ATOM      9  C   UNL A   1      38.104  23.666  26.228  1.00  0.00     0.003 A 
ATOM     10  C   UNL A   1      39.065  22.673  26.381  1.00  0.00     0.016 A 
BRANCH   6  11
ATOM     11  N   UNL A   1      35.431  21.736  24.684  1.00  0.00    -0.382 N 
ATOM     12  H   UNL A   1      35.309  21.069  23.970  1.00  0.00     0.160 HD
BRANCH  11  13
ATOM     13  C   UNL A   1      34.208  22.240  25.342  1.00  0.00     0.079 C 
ATOM     14  C   UNL A   1      33.827  21.189  26.391  1.00  0.00     0.031 C 
BRANCH  13  15
ATOM     15  C   UNL A   1      33.037  22.625  24.362  1.00  0.00     0.022 C 
ATOM     16  C   UNL A   1      33.586  23.118  23.012  1.00  0.00     0.067 C 
ATOM     17  C   UNL A   1      31.942  23.581  24.854  1.00  0.00     0.067 C 
ATOM     18  C   UNL A   1      34.003  24.579  23.067  1.00  0.00     0.262 C 
ATOM     19  C   UNL A   1      32.291  25.064  24.740  1.00  0.00     0.262 C 
ATOM     20  N   UNL A   1      32.862  25.421  23.435  1.00  0.00    -0.337 N 
ATOM     21  C   UNL A   1      33.246  26.832  23.422  1.00  0.00     0.332 C 
ATOM     22  H   UNL A   1      32.135  25.257  22.739  1.00  0.00     0.347 HD
ENDBRANCH  13  15
ENDBRANCH  11  13
ENDBRANCH   6  11
ENDBRANCH   3   5
ENDBRANCH   2   3
ENDBRANCH   1   2
BRANCH   1  23
ATOM     23  C   UNL A   1      43.255  21.216  25.737  1.00  0.00     0.275 C 
BRANCH  23  24
ATOM     24  O   UNL A   1      42.556  22.374  25.244  1.00  0.00    -0.458 OA
BRANCH  24  25
ATOM     25  C   UNL A   1      43.285  23.506  25.136  1.00  0.00     0.338 C 
ATOM     26  O   UNL A   1      44.228  23.727  24.392  1.00  0.00    -0.246 OA
BRANCH  25  27
ATOM     27  C   UNL A   1      42.750  24.510  26.067  1.00  0.00     0.060 A 
ATOM     28  C   UNL A   1      43.033  25.855  25.844  1.00  0.00     0.016 A 
ATOM     29  C   UNL A   1      42.069  24.122  27.215  1.00  0.00     0.016 A 
ATOM     30  C   UNL A   1      42.691  26.822  26.782  1.00  0.00     0.010 A 
ATOM     31  C   UNL A   1      41.661  25.099  28.130  1.00  0.00     0.010 A 
ATOM     32  C   UNL A   1      41.991  26.455  27.934  1.00  0.00    -0.014 A 
BRANCH  32  33
ATOM     33  C   UNL A   1      41.662  27.466  28.971  1.00  0.00     0.031 A 
ATOM     34  C   UNL A   1      42.529  27.573  30.192  1.00  0.00     0.074 A 
ATOM     35  C   UNL A   1      40.604  28.287  28.829  1.00  0.00     0.049 A 
ATOM     36  N   UNL A   1      42.296  28.182  31.326  1.00  0.00    -0.248 NA
ATOM     37  C   UNL A   1      43.832  26.893  30.130  1.00  0.00     0.031 C 
ATOM     38  C   UNL A   1      39.729  28.354  27.659  1.00  0.00     0.029 A 
ATOM     39  N   UNL A   1      40.082  29.222  29.689  1.00  0.00    -0.354 N 
ATOM     40  C   UNL A   1      43.387  27.898  32.135  1.00  0.00     0.074 A 
ATOM     41  C   UNL A   1      44.294  27.080  31.359  1.00  0.00     0.031 C 
ATOM     42  C   UNL A   1      38.788  29.287  27.867  1.00  0.00     0.029 A 
ATOM     43  C   UNL A   1      38.939  29.821  29.217  1.00  0.00     0.049 A 
ATOM     44  H   UNL A   1      40.486  29.442  30.559  1.00  0.00     0.167 HD
ATOM     45  C   UNL A   1      43.600  28.279  33.416  1.00  0.00     0.037 A 
ATOM     46  C   UNL A   1      38.081  30.663  29.823  1.00  0.00     0.037 A 
ATOM     47  C   UNL A   1      42.721  29.141  34.160  1.00  0.00     0.049 A 
ATOM     48  C   UNL A   1      38.323  31.052  31.255  1.00  0.00     0.074 A 
ATOM     49  C   UNL A   1      42.839  29.579  35.468  1.00  0.00     0.029 A 
ATOM     50  N   UNL A   1      41.570  29.719  33.647  1.00  0.00    -0.354 N 
ATOM     51  N   UNL A   1      39.304  30.705  32.052  1.00  0.00    -0.248 NA
ATOM     52  C   UNL A   1      37.325  31.932  31.881  1.00  0.00     0.031 C 
ATOM     53  C   UNL A   1      41.747  30.405  35.752  1.00  0.00     0.029 A 
ATOM     54  C   UNL A   1      40.967  30.509  34.612  1.00  0.00     0.049 A 
ATOM     55  H   UNL A   1      41.230  29.587  32.733  1.00  0.00     0.167 HD
ATOM     56  C   UNL A   1      39.051  31.329  33.264  1.00  0.00     0.074 A 
ATOM     57  C   UNL A   1      37.830  32.090  33.097  1.00  0.00     0.031 C 
ATOM     58  C   UNL A   1      39.763  31.272  34.416  1.00  0.00     0.037 A 
BRANCH  45  59
ATOM     59  C   UNL A   1      44.806  27.726  34.112  1.00  0.00     0.064 A 
ATOM     60  C   UNL A   1      44.778  26.499  34.789  1.00  0.00     0.173 A 
ATOM     61  C   UNL A   1      46.022  28.428  34.071  1.00  0.00     0.173 A 
ATOM     62  F   UNL A   1      43.635  25.801  34.870  1.00  0.00    -0.203 F 
ATOM     63  C   UNL A   1      45.918  26.002  35.415  1.00  0.00     0.198 A 
ATOM     64  C   UNL A   1      47.165  27.916  34.678  1.00  0.00     0.198 A 
ATOM     65  F   UNL A   1      46.101  29.606  33.434  1.00  0.00    -0.203 F 
ATOM     66  F   UNL A   1      45.860  24.845  36.089  1.00  0.00    -0.200 F 
ATOM     67  C   UNL A   1      47.112  26.707  35.353  1.00  0.00     0.200 A 
ATOM     68  F   UNL A   1      48.319  28.595  34.609  1.00  0.00    -0.200 F 
ATOM     69  F   UNL A   1      48.209  26.223  35.951  1.00  0.00    -0.200 F 
ENDBRANCH  45  59
BRANCH  46  70
ATOM     70  C   UNL A   1      36.885  31.153  29.091  1.00  0.00     0.064 A 
ATOM     71  C   UNL A   1      35.804  30.301  28.827  1.00  0.00     0.173 A 
ATOM     72  C   UNL A   1      36.794  32.481  28.648  1.00  0.00     0.173 A 
ATOM     73  F   UNL A   1      35.856  29.016  29.206  1.00  0.00    -0.203 F 
ATOM     74  C   UNL A   1      34.679  30.759  28.143  1.00  0.00     0.198 A 
ATOM     75  C   UNL A   1      35.658  32.944  27.988  1.00  0.00     0.198 A 
ATOM     76  F   UNL A   1      37.805  33.334  28.872  1.00  0.00    -0.203 F 
ATOM     77  F   UNL A   1      33.675  29.915  27.871  1.00  0.00    -0.200 F 
ATOM     78  C   UNL A   1      34.604  32.081  27.731  1.00  0.00     0.200 A 
ATOM     79  F   UNL A   1      35.585  34.225  27.603  1.00  0.00    -0.200 F 
ATOM     80  F   UNL A   1      33.518  32.522  27.082  1.00  0.00    -0.200 F 
ENDBRANCH  46  70
BRANCH  58  81
ATOM     81  C   UNL A   1      39.265  32.086  35.570  1.00  0.00     0.064 A 
ATOM     82  C   UNL A   1      38.454  31.524  36.566  1.00  0.00     0.173 A 
ATOM     83  C   UNL A   1      39.647  33.429  35.706  1.00  0.00     0.173 A 
ATOM     84  F   UNL A   1      38.052  30.248  36.468  1.00  0.00    -0.203 F 
ATOM     85  C   UNL A   1      38.032  32.283  37.653  1.00  0.00     0.198 A 
ATOM     86  C   UNL A   1      39.240  34.178  36.805  1.00  0.00     0.198 A 
ATOM     87  F   UNL A   1      40.426  34.006  34.779  1.00  0.00    -0.203 F 
ATOM     88  F   UNL A   1      37.232  31.737  38.580  1.00  0.00    -0.200 F 
ATOM     89  C   UNL A   1      38.430  33.607  37.775  1.00  0.00     0.200 A 
ATOM     90  F   UNL A   1      39.631  35.455  36.925  1.00  0.00    -0.200 F 
ATOM     91  F   UNL A   1      38.027  34.334  38.826  1.00  0.00    -0.200 F 
ENDBRANCH  58  81
ENDBRANCH  32  33
ENDBRANCH  25  27
ENDBRANCH  24  25
ENDBRANCH  23  24
ENDBRANCH   1  23
TORSDOF 14
ENDMDL
MODEL 3
REMARK VINA RESULT:     -11.5      3.073      8.831
REMARK SMILES C[C@@H](Nc1cccc(C(=O)OCCOC(=O)c2ccc(-c3c4nc(c(-c5c(F)c(F)c(F)c(F)c5F)c5ccc([nH]5)c(-c5c(F)c(F)c(F)c(F)c5F)c5nc(c(-c6c(F)c(F)c(F)c(F)c6F)c6ccc3[nH]6)C=C5)C=C4)cc2)c1)C1CC[NH+](C)CC1
REMARK SMILES IDX 12 1 11 2 9 3 10 4 8 5 4 6 5 7 80 8 6 9 7 10 3 11 2 13 1 14
REMARK SMILES IDX 81 15 82 16 87 17 83 18 86 19 84 20 85 21 13 23 14 24 15 25
REMARK SMILES IDX 16 26 17 27 18 28 79 29 19 30 78 31 20 32 21 33 22 34 72 35
REMARK SMILES IDX 23 36 77 37 71 38 73 39 24 40 76 41 70 42 69 43 25 45 57 46
REMARK SMILES IDX 37 47 56 48 38 49 41 50 55 51 74 52 39 53 40 54 54 56 75 57
REMARK SMILES IDX 42 58 26 59 27 60 35 61 28 62 29 63 33 64 36 65 30 66 31 67
REMARK SMILES IDX 34 68 32 69 58 70 59 71 67 72 60 73 61 74 65 75 68 76 62 77
REMARK SMILES IDX 63 78 66 79 64 80 43 81 44 82 52 83 45 84 46 85 50 86 53 87
REMARK SMILES IDX 47 88 48 89 51 90 49 91
REMARK H PARENT 3 12 84 22 73 44 41 55
REMARK Flexibility Score: inf
ROOT
ATOM      1  C   UNL A   1      31.376  29.597  24.690  1.00  0.00     0.275 C 
ENDROOT
BRANCH   1   2
ATOM      2  O   UNL A   1      30.220  29.919  23.890  1.00  0.00    -0.458 OA
BRANCH   2   3
ATOM      3  C   UNL A   1      30.114  29.251  22.715  1.00  0.00     0.338 C 
ATOM      4  O   UNL A   1      29.945  29.748  21.613  1.00  0.00    -0.246 OA
BRANCH   3   5
ATOM      5  C   UNL A   1      30.284  27.789  22.911  1.00  0.00     0.062 A 
ATOM      6  C   UNL A   1      31.741  25.867  23.028  1.00  0.00     0.035 A 
ATOM      7  C   UNL A   1      30.707  25.137  23.627  1.00  0.00     0.026 A 
ATOM      8  C   UNL A   1      31.468  27.150  22.547  1.00  0.00     0.041 A 
ATOM      9  C   UNL A   1      29.483  25.733  23.909  1.00  0.00     0.003 A 
ATOM     10  C   UNL A   1      29.302  27.080  23.616  1.00  0.00     0.016 A 
BRANCH   6  11
ATOM     11  N   UNL A   1      33.028  25.386  23.154  1.00  0.00    -0.382 N 
ATOM     12  H   UNL A   1      33.718  25.805  22.591  1.00  0.00     0.160 HD
BRANCH  11  13
ATOM     13  C   UNL A   1      33.471  24.300  24.053  1.00  0.00     0.079 C 
ATOM     14  C   UNL A   1      34.419  24.951  25.068  1.00  0.00     0.031 C 
BRANCH  13  15
ATOM     15  C   UNL A   1      34.072  23.039  23.326  1.00  0.00     0.022 C 
ATOM     16  C   UNL A   1      32.956  22.105  22.828  1.00  0.00     0.067 C 
ATOM     17  C   UNL A   1      35.153  22.217  24.039  1.00  0.00     0.067 C 
ATOM     18  C   UNL A   1      32.434  21.202  23.934  1.00  0.00     0.262 C 
ATOM     19  C   UNL A   1      34.620  21.178  25.023  1.00  0.00     0.262 C 
ATOM     20  N   UNL A   1      33.519  20.378  24.473  1.00  0.00    -0.337 N 
ATOM     21  C   UNL A   1      33.003  19.461  25.490  1.00  0.00     0.332 C 
ATOM     22  H   UNL A   1      33.902  19.844  23.693  1.00  0.00     0.347 HD
ENDBRANCH  13  15
ENDBRANCH  11  13
ENDBRANCH   6  11
ENDBRANCH   3   5
ENDBRANCH   2   3
ENDBRANCH   1   2
BRANCH   1  23
ATOM     23  C   UNL A   1      31.487  30.554  25.875  1.00  0.00     0.275 C 
BRANCH  23  24
ATOM     24  O   UNL A   1      32.798  30.452  26.461  1.00  0.00    -0.458 OA
BRANCH  24  25
ATOM     25  C   UNL A   1      33.239  31.542  27.124  1.00  0.00     0.338 C 
ATOM     26  O   UNL A   1      32.671  32.613  27.275  1.00  0.00    -0.246 OA
BRANCH  25  27
ATOM     27  C   UNL A   1      34.560  31.253  27.699  1.00  0.00     0.060 A 
ATOM     28  C   UNL A   1      34.856  29.948  28.087  1.00  0.00     0.016 A 
ATOM     29  C   UNL A   1      35.461  32.278  27.959  1.00  0.00     0.016 A 
ATOM     30  C   UNL A   1      36.023  29.658  28.784  1.00  0.00     0.010 A 
ATOM     31  C   UNL A   1      36.670  31.980  28.597  1.00  0.00     0.010 A 
ATOM     32  C   UNL A   1      36.951  30.671  29.038  1.00  0.00    -0.014 A 
BRANCH  32  33
ATOM     33  C   UNL A   1      38.178  30.390  29.824  1.00  0.00     0.031 A 
ATOM     34  C   UNL A   1      39.243  29.512  29.233  1.00  0.00     0.074 A 
ATOM     35  C   UNL A   1      38.351  30.913  31.053  1.00  0.00     0.049 A 
ATOM     36  N   UNL A   1      40.256  28.926  29.817  1.00  0.00    -0.248 NA
ATOM     37  C   UNL A   1      39.147  29.251  27.788  1.00  0.00     0.031 C 
ATOM     38  C   UNL A   1      37.443  31.850  31.714  1.00  0.00     0.029 A 
ATOM     39  N   UNL A   1      39.355  30.720  31.969  1.00  0.00    -0.354 N 
ATOM     40  C   UNL A   1      40.874  28.171  28.829  1.00  0.00     0.074 A 
ATOM     41  C   UNL A   1      40.136  28.387  27.603  1.00  0.00     0.031 C 
ATOM     42  C   UNL A   1      37.937  32.160  32.923  1.00  0.00     0.029 A 
ATOM     43  C   UNL A   1      39.147  31.379  33.156  1.00  0.00     0.049 A 
ATOM     44  H   UNL A   1      40.149  30.164  31.793  1.00  0.00     0.167 HD
ATOM     45  C   UNL A   1      41.951  27.361  28.945  1.00  0.00     0.037 A 
ATOM     46  C   UNL A   1      39.824  31.318  34.319  1.00  0.00     0.037 A 
ATOM     47  C   UNL A   1      42.713  27.198  30.155  1.00  0.00     0.049 A 
ATOM     48  C   UNL A   1      41.003  30.392  34.434  1.00  0.00     0.074 A 
ATOM     49  C   UNL A   1      43.816  26.393  30.383  1.00  0.00     0.029 A 
ATOM     50  N   UNL A   1      42.462  27.878  31.338  1.00  0.00    -0.354 N 
ATOM     51  N   UNL A   1      41.526  29.604  33.528  1.00  0.00    -0.248 NA
ATOM     52  C   UNL A   1      41.670  30.327  35.743  1.00  0.00     0.031 C 
ATOM     53  C   UNL A   1      44.219  26.571  31.710  1.00  0.00     0.029 A 
ATOM     54  C   UNL A   1      43.389  27.511  32.299  1.00  0.00     0.049 A 
ATOM     55  H   UNL A   1      41.733  28.524  31.475  1.00  0.00     0.167 HD
ATOM     56  C   UNL A   1      42.588  28.961  34.147  1.00  0.00     0.074 A 
ATOM     57  C   UNL A   1      42.645  29.461  35.505  1.00  0.00     0.031 C 
ATOM     58  C   UNL A   1      43.437  28.035  33.638  1.00  0.00     0.037 A 
BRANCH  45  59
ATOM     59  C   UNL A   1      42.342  26.551  27.748  1.00  0.00     0.064 A 
ATOM     60  C   UNL A   1      43.308  26.992  26.834  1.00  0.00     0.173 A 
ATOM     61  C   UNL A   1      41.755  25.293  27.530  1.00  0.00     0.173 A 
ATOM     62  F   UNL A   1      43.883  28.195  26.989  1.00  0.00    -0.203 F 
ATOM     63  C   UNL A   1      43.662  26.212  25.736  1.00  0.00     0.198 A 
ATOM     64  C   UNL A   1      42.129  24.506  26.445  1.00  0.00     0.198 A 
ATOM     65  F   UNL A   1      40.826  24.826  28.377  1.00  0.00    -0.203 F 
ATOM     66  F   UNL A   1      44.561  26.669  24.853  1.00  0.00    -0.200 F 
ATOM     67  C   UNL A   1      43.077  24.968  25.546  1.00  0.00     0.200 A 
ATOM     68  F   UNL A   1      41.569  23.301  26.269  1.00  0.00    -0.200 F 
ATOM     69  F   UNL A   1      43.424  24.217  24.492  1.00  0.00    -0.200 F 
ENDBRANCH  45  59
BRANCH  46  70
ATOM     70  C   UNL A   1      39.368  32.122  35.482  1.00  0.00     0.064 A 
ATOM     71  C   UNL A   1      39.782  33.450  35.647  1.00  0.00     0.173 A 
ATOM     72  C   UNL A   1      38.504  31.582  36.447  1.00  0.00     0.173 A 
ATOM     73  F   UNL A   1      40.629  34.001  34.766  1.00  0.00    -0.203 F 
ATOM     74  C   UNL A   1      39.353  34.206  36.736  1.00  0.00     0.198 A 
ATOM     75  C   UNL A   1      38.056  32.347  37.521  1.00  0.00     0.198 A 
ATOM     76  F   UNL A   1      38.084  30.313  36.338  1.00  0.00    -0.203 F 
ATOM     77  F   UNL A   1      39.793  35.463  36.889  1.00  0.00    -0.200 F 
ATOM     78  C   UNL A   1      38.484  33.657  37.667  1.00  0.00     0.200 A 
ATOM     79  F   UNL A   1      37.207  31.816  38.411  1.00  0.00    -0.200 F 
ATOM     80  F   UNL A   1      38.066  34.389  38.709  1.00  0.00    -0.200 F 
ENDBRANCH  46  70
BRANCH  58  81
ATOM     81  C   UNL A   1      44.524  27.535  34.539  1.00  0.00     0.064 A 
ATOM     82  C   UNL A   1      45.751  28.205  34.648  1.00  0.00     0.173 A 
ATOM     83  C   UNL A   1      44.313  26.403  35.341  1.00  0.00     0.173 A 
ATOM     84  F   UNL A   1      46.001  29.282  33.889  1.00  0.00    -0.203 F 
ATOM     85  C   UNL A   1      46.736  27.749  35.519  1.00  0.00     0.198 A 
ATOM     86  C   UNL A   1      45.292  25.963  36.225  1.00  0.00     0.198 A 
ATOM     87  F   UNL A   1      43.152  25.734  35.272  1.00  0.00    -0.203 F 
ATOM     88  F   UNL A   1      47.914  28.384  35.587  1.00  0.00    -0.200 F 
ATOM     89  C   UNL A   1      46.503  26.634  36.312  1.00  0.00     0.200 A 
ATOM     90  F   UNL A   1      45.064  24.890  36.995  1.00  0.00    -0.200 F 
ATOM     91  F   UNL A   1      47.450  26.201  37.155  1.00  0.00    -0.200 F 
ENDBRANCH  58  81
ENDBRANCH  32  33
ENDBRANCH  25  27
ENDBRANCH  24  25
ENDBRANCH  23  24
ENDBRANCH   1  23
TORSDOF 14
ENDMDL
