MODEL 1
REMARK VINA RESULT:     -11.6      0.000      0.000
REMARK SMILES CCOc1cc(OCC)cc(-c2ccc([C@@H](C)C(=O)OCCOC(=O)c3ccc(-c4c5nc(c(-c6c(F)c(F)c(F)c(F)c6F)c6ccc([nH]6)c(-c6c(F)c(F)c(F)c(F)c6F)c6nc(c(-c7c(F)c(F)c(F)c(F)c7F)c7ccc4[nH]7)C=C6)C=C5)cc3)cc2)c1
REMARK SMILES IDX 21 1 20 2 18 3 19 4 16 5 17 6 15 7 12 8 13 9 90 10 14 11
REMARK SMILES IDX 89 12 11 13 4 14 5 15 91 16 6 17 10 18 3 19 2 20 1 21 7 22
REMARK SMILES IDX 8 23 9 24 22 25 23 26 24 27 25 28 26 29 27 30 88 31 28 32
REMARK SMILES IDX 87 33 29 34 30 35 31 36 81 37 32 38 86 39 80 40 82 41 33 42
REMARK SMILES IDX 85 43 79 44 78 45 34 47 66 48 46 49 65 50 47 51 50 52 64 53
REMARK SMILES IDX 83 54 48 55 49 56 63 58 84 59 51 60 35 61 36 62 44 63 37 64
REMARK SMILES IDX 38 65 42 66 45 67 39 68 40 69 43 70 41 71 67 72 68 73 76 74
REMARK SMILES IDX 69 75 70 76 74 77 77 78 71 79 72 80 75 81 73 82 52 83 53 84
REMARK SMILES IDX 61 85 54 86 55 87 59 88 62 89 56 90 57 91 60 92 58 93
REMARK H PARENT 82 46 50 57
REMARK Flexibility Score: inf
ROOT
ATOM      1  C   UNL A   1      36.463  20.052  24.986  1.00  0.00     0.274 C 
ENDROOT
BRANCH   1   2
ATOM      2  O   UNL A   1      35.990  21.391  25.229  1.00  0.00    -0.462 OA
BRANCH   2   3
ATOM      3  C   UNL A   1      34.879  21.786  24.554  1.00  0.00     0.313 C 
ATOM      4  O   UNL A   1      33.760  21.311  24.725  1.00  0.00    -0.252 OA
BRANCH   3   5
ATOM      5  C   UNL A   1      35.153  22.855  23.503  1.00  0.00     0.126 C 
ATOM      6  C   UNL A   1      36.652  22.954  23.232  1.00  0.00     0.025 C 
BRANCH   5   7
ATOM      7  C   UNL A   1      34.523  24.214  23.769  1.00  0.00    -0.034 A 
ATOM      8  C   UNL A   1      33.315  26.721  24.319  1.00  0.00    -0.018 A 
ATOM      9  C   UNL A   1      33.258  26.153  23.038  1.00  0.00     0.009 A 
ATOM     10  C   UNL A   1      34.007  26.026  25.318  1.00  0.00     0.009 A 
ATOM     11  C   UNL A   1      33.845  24.917  22.767  1.00  0.00     0.005 A 
ATOM     12  C   UNL A   1      34.595  24.787  25.049  1.00  0.00     0.005 A 
BRANCH   8  13
ATOM     13  C   UNL A   1      32.607  27.975  24.607  1.00  0.00    -0.011 A 
ATOM     14  C   UNL A   1      30.756  29.506  24.299  1.00  0.00     0.123 A 
ATOM     15  C   UNL A   1      31.312  30.389  25.224  1.00  0.00     0.092 A 
ATOM     16  C   UNL A   1      31.407  28.316  23.975  1.00  0.00     0.055 A 
ATOM     17  C   UNL A   1      32.522  30.081  25.845  1.00  0.00     0.123 A 
ATOM     18  C   UNL A   1      33.155  28.878  25.535  1.00  0.00     0.055 A 
BRANCH  14  19
ATOM     19  O   UNL A   1      29.624  29.895  23.635  1.00  0.00    -0.494 OA
BRANCH  19  20
ATOM     20  C   UNL A   1      29.064  28.863  22.815  1.00  0.00     0.226 C 
ATOM     21  C   UNL A   1      27.568  28.724  23.052  1.00  0.00     0.049 C 
ENDBRANCH  19  20
ENDBRANCH  14  19
BRANCH  17  22
ATOM     22  O   UNL A   1      32.986  31.001  26.747  1.00  0.00    -0.494 OA
BRANCH  22  23
ATOM     23  C   UNL A   1      33.775  30.520  27.839  1.00  0.00     0.226 C 
ATOM     24  C   UNL A   1      35.247  30.848  27.650  1.00  0.00     0.049 C 
ENDBRANCH  22  23
ENDBRANCH  17  22
ENDBRANCH   8  13
ENDBRANCH   5   7
ENDBRANCH   3   5
ENDBRANCH   2   3
ENDBRANCH   1   2
BRANCH   1  25
ATOM     25  C   UNL A   1      37.987  19.970  25.104  1.00  0.00     0.275 C 
BRANCH  25  26
ATOM     26  O   UNL A   1      38.526  21.190  25.647  1.00  0.00    -0.458 OA
BRANCH  26  27
ATOM     27  C   UNL A   1      39.660  21.043  26.368  1.00  0.00     0.338 C 
ATOM     28  O   UNL A   1      40.324  20.032  26.515  1.00  0.00    -0.246 OA
BRANCH  27  29
ATOM     29  C   UNL A   1      40.080  22.346  26.900  1.00  0.00     0.060 A 
ATOM     30  C   UNL A   1      39.507  23.491  26.347  1.00  0.00     0.016 A 
ATOM     31  C   UNL A   1      41.107  22.449  27.838  1.00  0.00     0.016 A 
ATOM     32  C   UNL A   1      39.984  24.751  26.692  1.00  0.00     0.010 A 
ATOM     33  C   UNL A   1      41.579  23.715  28.197  1.00  0.00     0.010 A 
ATOM     34  C   UNL A   1      41.039  24.871  27.603  1.00  0.00    -0.014 A 
BRANCH  34  35
ATOM     35  C   UNL A   1      41.630  26.207  27.853  1.00  0.00     0.031 A 
ATOM     36  C   UNL A   1      42.986  26.534  27.295  1.00  0.00     0.074 A 
ATOM     37  C   UNL A   1      40.934  27.139  28.529  1.00  0.00     0.049 A 
ATOM     38  N   UNL A   1      43.694  27.628  27.422  1.00  0.00    -0.248 NA
ATOM     39  C   UNL A   1      43.631  25.491  26.485  1.00  0.00     0.031 C 
ATOM     40  C   UNL A   1      39.591  26.954  29.078  1.00  0.00     0.029 A 
ATOM     41  N   UNL A   1      41.260  28.429  28.862  1.00  0.00    -0.354 N 
ATOM     42  C   UNL A   1      44.873  27.398  26.726  1.00  0.00     0.074 A 
ATOM     43  C   UNL A   1      44.794  26.055  26.192  1.00  0.00     0.031 C 
ATOM     44  C   UNL A   1      39.204  28.093  29.675  1.00  0.00     0.029 A 
ATOM     45  C   UNL A   1      40.284  29.073  29.580  1.00  0.00     0.049 A 
ATOM     46  H   UNL A   1      42.112  28.852  28.609  1.00  0.00     0.167 HD
ATOM     47  C   UNL A   1      45.924  28.233  26.547  1.00  0.00     0.037 A 
ATOM     48  C   UNL A   1      40.270  30.309  30.113  1.00  0.00     0.037 A 
ATOM     49  C   UNL A   1      45.994  29.575  27.063  1.00  0.00     0.049 A 
ATOM     50  C   UNL A   1      41.463  31.208  29.921  1.00  0.00     0.074 A 
ATOM     51  C   UNL A   1      47.019  30.497  26.942  1.00  0.00     0.029 A 
ATOM     52  N   UNL A   1      44.989  30.189  27.796  1.00  0.00    -0.354 N 
ATOM     53  N   UNL A   1      42.578  30.976  29.274  1.00  0.00    -0.248 NA
ATOM     54  C   UNL A   1      41.389  32.542  30.533  1.00  0.00     0.031 C 
ATOM     55  C   UNL A   1      46.647  31.659  27.626  1.00  0.00     0.029 A 
ATOM     56  C   UNL A   1      45.373  31.475  28.140  1.00  0.00     0.049 A 
ATOM     57  H   UNL A   1      44.131  29.773  28.037  1.00  0.00     0.167 HD
ATOM     58  C   UNL A   1      43.328  32.139  29.377  1.00  0.00     0.074 A 
ATOM     59  C   UNL A   1      42.535  33.081  30.139  1.00  0.00     0.031 C 
ATOM     60  C   UNL A   1      44.564  32.403  28.887  1.00  0.00     0.037 A 
BRANCH  47  61
ATOM     61  C   UNL A   1      47.098  27.706  25.777  1.00  0.00     0.064 A 
ATOM     62  C   UNL A   1      48.176  27.077  26.417  1.00  0.00     0.173 A 
ATOM     63  C   UNL A   1      47.134  27.812  24.379  1.00  0.00     0.173 A 
ATOM     64  F   UNL A   1      48.195  26.966  27.755  1.00  0.00    -0.203 F 
ATOM     65  C   UNL A   1      49.257  26.591  25.686  1.00  0.00     0.198 A 
ATOM     66  C   UNL A   1      48.205  27.306  23.649  1.00  0.00     0.198 A 
ATOM     67  F   UNL A   1      46.127  28.405  23.720  1.00  0.00    -0.203 F 
ATOM     68  F   UNL A   1      50.295  26.031  26.321  1.00  0.00    -0.200 F 
ATOM     69  C   UNL A   1      49.269  26.701  24.303  1.00  0.00     0.200 A 
ATOM     70  F   UNL A   1      48.211  27.405  22.313  1.00  0.00    -0.200 F 
ATOM     71  F   UNL A   1      50.308  26.231  23.601  1.00  0.00    -0.200 F 
ENDBRANCH  47  61
BRANCH  48  72
ATOM     72  C   UNL A   1      39.087  30.770  30.881  1.00  0.00     0.064 A 
ATOM     73  C   UNL A   1      38.054  31.483  30.257  1.00  0.00     0.173 A 
ATOM     74  C   UNL A   1      38.968  30.513  32.255  1.00  0.00     0.173 A 
ATOM     75  F   UNL A   1      38.136  31.774  28.951  1.00  0.00    -0.203 F 
ATOM     76  C   UNL A   1      36.954  31.935  30.982  1.00  0.00     0.198 A 
ATOM     77  C   UNL A   1      37.856  30.943  32.973  1.00  0.00     0.198 A 
ATOM     78  F   UNL A   1      39.931  29.836  32.897  1.00  0.00    -0.203 F 
ATOM     79  F   UNL A   1      36.000  32.651  30.371  1.00  0.00    -0.200 F 
ATOM     80  C   UNL A   1      36.852  31.660  32.338  1.00  0.00     0.200 A 
ATOM     81  F   UNL A   1      37.757  30.667  34.281  1.00  0.00    -0.200 F 
ATOM     82  F   UNL A   1      35.792  32.092  33.034  1.00  0.00    -0.200 F 
ENDBRANCH  48  72
BRANCH  60  83
ATOM     83  C   UNL A   1      45.115  33.778  29.124  1.00  0.00     0.064 A 
ATOM     84  C   UNL A   1      45.895  34.073  30.250  1.00  0.00     0.173 A 
ATOM     85  C   UNL A   1      44.878  34.805  28.197  1.00  0.00     0.173 A 
ATOM     86  F   UNL A   1      46.137  33.128  31.171  1.00  0.00    -0.203 F 
ATOM     87  C   UNL A   1      46.399  35.354  30.454  1.00  0.00     0.198 A 
ATOM     88  C   UNL A   1      45.403  36.078  28.392  1.00  0.00     0.198 A 
ATOM     89  F   UNL A   1      44.141  34.571  27.102  1.00  0.00    -0.203 F 
ATOM     90  F   UNL A   1      47.106  35.627  31.560  1.00  0.00    -0.200 F 
ATOM     91  C   UNL A   1      46.157  36.355  29.522  1.00  0.00     0.200 A 
ATOM     92  F   UNL A   1      45.176  37.041  27.488  1.00  0.00    -0.200 F 
ATOM     93  F   UNL A   1      46.643  37.587  29.720  1.00  0.00    -0.200 F 
ENDBRANCH  60  83
ENDBRANCH  34  35
ENDBRANCH  27  29
ENDBRANCH  26  27
ENDBRANCH  25  26
ENDBRANCH   1  25
TORSDOF 17
ENDMDL
MODEL 2
REMARK VINA RESULT:     -11.6      5.559     11.292
REMARK SMILES CCOc1cc(OCC)cc(-c2ccc([C@@H](C)C(=O)OCCOC(=O)c3ccc(-c4c5nc(c(-c6c(F)c(F)c(F)c(F)c6F)c6ccc([nH]6)c(-c6c(F)c(F)c(F)c(F)c6F)c6nc(c(-c7c(F)c(F)c(F)c(F)c7F)c7ccc4[nH]7)C=C6)C=C5)cc3)cc2)c1
REMARK SMILES IDX 21 1 20 2 18 3 19 4 16 5 17 6 15 7 12 8 13 9 90 10 14 11
REMARK SMILES IDX 89 12 11 13 4 14 5 15 91 16 6 17 10 18 3 19 2 20 1 21 7 22
REMARK SMILES IDX 8 23 9 24 22 25 23 26 24 27 25 28 26 29 27 30 88 31 28 32
REMARK SMILES IDX 87 33 29 34 30 35 31 36 81 37 32 38 86 39 80 40 82 41 33 42
REMARK SMILES IDX 85 43 79 44 78 45 34 47 66 48 46 49 65 50 47 51 50 52 64 53
REMARK SMILES IDX 83 54 48 55 49 56 63 58 84 59 51 60 35 61 36 62 44 63 37 64
REMARK SMILES IDX 38 65 42 66 45 67 39 68 40 69 43 70 41 71 67 72 68 73 76 74
REMARK SMILES IDX 69 75 70 76 74 77 77 78 71 79 72 80 75 81 73 82 52 83 53 84
REMARK SMILES IDX 61 85 54 86 55 87 59 88 62 89 56 90 57 91 60 92 58 93
REMARK H PARENT 82 46 50 57
REMARK Flexibility Score: inf
ROOT
ATOM      1  C   UNL A   1      33.263  34.824  28.816  1.00  0.00     0.274 C 
ENDROOT
BRANCH   1   2
ATOM      2  O   UNL A   1      34.544  34.207  29.046  1.00  0.00    -0.462 OA
BRANCH   2   3
ATOM      3  C   UNL A   1      34.541  32.949  29.559  1.00  0.00     0.313 C 
ATOM      4  O   UNL A   1      34.051  32.644  30.642  1.00  0.00    -0.252 OA
BRANCH   3   5
ATOM      5  C   UNL A   1      35.261  31.932  28.681  1.00  0.00     0.126 C 
ATOM      6  C   UNL A   1      36.327  32.627  27.837  1.00  0.00     0.025 C 
BRANCH   5   7
ATOM      7  C   UNL A   1      34.362  31.030  27.849  1.00  0.00    -0.034 A 
ATOM      8  C   UNL A   1      32.638  29.352  26.346  1.00  0.00    -0.018 A 
ATOM      9  C   UNL A   1      33.964  28.979  26.611  1.00  0.00     0.009 A 
ATOM     10  C   UNL A   1      32.193  30.589  26.825  1.00  0.00     0.009 A 
ATOM     11  C   UNL A   1      34.812  29.800  27.356  1.00  0.00     0.005 A 
ATOM     12  C   UNL A   1      33.040  31.412  27.573  1.00  0.00     0.005 A 
BRANCH   8  13
ATOM     13  C   UNL A   1      31.735  28.431  25.645  1.00  0.00    -0.011 A 
ATOM     14  C   UNL A   1      30.407  26.408  25.532  1.00  0.00     0.123 A 
ATOM     15  C   UNL A   1      29.998  26.730  24.238  1.00  0.00     0.092 A 
ATOM     16  C   UNL A   1      31.285  27.240  26.226  1.00  0.00     0.055 A 
ATOM     17  C   UNL A   1      30.457  27.899  23.630  1.00  0.00     0.123 A 
ATOM     18  C   UNL A   1      31.315  28.738  24.339  1.00  0.00     0.055 A 
BRANCH  14  19
ATOM     19  O   UNL A   1      30.020  25.201  26.050  1.00  0.00    -0.494 OA
BRANCH  19  20
ATOM     20  C   UNL A   1      30.952  24.146  25.788  1.00  0.00     0.226 C 
ATOM     21  C   UNL A   1      30.656  22.926  26.646  1.00  0.00     0.049 C 
ENDBRANCH  19  20
ENDBRANCH  14  19
BRANCH  17  22
ATOM     22  O   UNL A   1      29.994  28.138  22.364  1.00  0.00    -0.494 OA
BRANCH  22  23
ATOM     23  C   UNL A   1      29.550  29.464  22.060  1.00  0.00     0.226 C 
ATOM     24  C   UNL A   1      28.126  29.697  22.539  1.00  0.00     0.049 C 
ENDBRANCH  22  23
ENDBRANCH  17  22
ENDBRANCH   8  13
ENDBRANCH   5   7
ENDBRANCH   3   5
ENDBRANCH   2   3
ENDBRANCH   1   2
BRANCH   1  25
ATOM     25  C   UNL A   1      32.950  35.873  29.886  1.00  0.00     0.275 C 
BRANCH  25  26
ATOM     26  O   UNL A   1      32.427  35.252  31.075  1.00  0.00    -0.458 OA
BRANCH  26  27
ATOM     27  C   UNL A   1      32.759  35.864  32.233  1.00  0.00     0.338 C 
ATOM     28  O   UNL A   1      32.170  36.773  32.792  1.00  0.00    -0.246 OA
BRANCH  27  29
ATOM     29  C   UNL A   1      33.923  35.197  32.829  1.00  0.00     0.060 A 
ATOM     30  C   UNL A   1      35.183  35.747  32.592  1.00  0.00     0.016 A 
ATOM     31  C   UNL A   1      33.795  33.983  33.506  1.00  0.00     0.016 A 
ATOM     32  C   UNL A   1      36.330  35.071  32.990  1.00  0.00     0.010 A 
ATOM     33  C   UNL A   1      34.948  33.308  33.919  1.00  0.00     0.010 A 
ATOM     34  C   UNL A   1      36.222  33.834  33.636  1.00  0.00    -0.014 A 
BRANCH  34  35
ATOM     35  C   UNL A   1      37.452  33.060  33.926  1.00  0.00     0.031 A 
ATOM     36  C   UNL A   1      38.185  33.290  35.218  1.00  0.00     0.074 A 
ATOM     37  C   UNL A   1      37.879  32.120  33.065  1.00  0.00     0.049 A 
ATOM     38  N   UNL A   1      39.293  32.744  35.652  1.00  0.00    -0.248 NA
ATOM     39  C   UNL A   1      37.592  34.266  36.144  1.00  0.00     0.031 C 
ATOM     40  C   UNL A   1      37.224  31.774  31.803  1.00  0.00     0.029 A 
ATOM     41  N   UNL A   1      38.960  31.278  33.126  1.00  0.00    -0.354 N 
ATOM     42  C   UNL A   1      39.539  33.322  36.891  1.00  0.00     0.074 A 
ATOM     43  C   UNL A   1      38.475  34.273  37.132  1.00  0.00     0.031 C 
ATOM     44  C   UNL A   1      37.916  30.787  31.210  1.00  0.00     0.029 A 
ATOM     45  C   UNL A   1      39.078  30.457  32.033  1.00  0.00     0.049 A 
ATOM     46  H   UNL A   1      39.592  31.266  33.881  1.00  0.00     0.167 HD
ATOM     47  C   UNL A   1      40.558  33.077  37.748  1.00  0.00     0.037 A 
ATOM     48  C   UNL A   1      40.024  29.551  31.726  1.00  0.00     0.037 A 
ATOM     49  C   UNL A   1      41.606  32.118  37.514  1.00  0.00     0.049 A 
ATOM     50  C   UNL A   1      41.161  29.317  32.685  1.00  0.00     0.074 A 
ATOM     51  C   UNL A   1      42.687  31.804  38.319  1.00  0.00     0.029 A 
ATOM     52  N   UNL A   1      41.696  31.311  36.390  1.00  0.00    -0.354 N 
ATOM     53  N   UNL A   1      41.392  29.878  33.846  1.00  0.00    -0.248 NA
ATOM     54  C   UNL A   1      42.166  28.320  32.289  1.00  0.00     0.031 C 
ATOM     55  C   UNL A   1      43.448  30.827  37.668  1.00  0.00     0.029 A 
ATOM     56  C   UNL A   1      42.819  30.504  36.476  1.00  0.00     0.049 A 
ATOM     57  H   UNL A   1      41.058  31.312  35.641  1.00  0.00     0.167 HD
ATOM     58  C   UNL A   1      42.551  29.288  34.331  1.00  0.00     0.074 A 
ATOM     59  C   UNL A   1      42.969  28.315  33.344  1.00  0.00     0.031 C 
ATOM     60  C   UNL A   1      43.211  29.531  35.490  1.00  0.00     0.037 A 
BRANCH  47  61
ATOM     61  C   UNL A   1      40.602  33.882  39.012  1.00  0.00     0.064 A 
ATOM     62  C   UNL A   1      41.320  35.083  39.096  1.00  0.00     0.173 A 
ATOM     63  C   UNL A   1      39.895  33.457  40.147  1.00  0.00     0.173 A 
ATOM     64  F   UNL A   1      42.025  35.523  38.041  1.00  0.00    -0.203 F 
ATOM     65  C   UNL A   1      41.348  35.820  40.277  1.00  0.00     0.198 A 
ATOM     66  C   UNL A   1      39.906  34.207  41.320  1.00  0.00     0.198 A 
ATOM     67  F   UNL A   1      39.191  32.316  40.118  1.00  0.00    -0.203 F 
ATOM     68  F   UNL A   1      42.075  36.943  40.348  1.00  0.00    -0.200 F 
ATOM     69  C   UNL A   1      40.637  35.384  41.386  1.00  0.00     0.200 A 
ATOM     70  F   UNL A   1      39.212  33.790  42.388  1.00  0.00    -0.200 F 
ATOM     71  F   UNL A   1      40.661  36.095  42.522  1.00  0.00    -0.200 F 
ENDBRANCH  47  61
BRANCH  48  72
ATOM     72  C   UNL A   1      39.939  28.796  30.451  1.00  0.00     0.064 A 
ATOM     73  C   UNL A   1      40.442  29.333  29.258  1.00  0.00     0.173 A 
ATOM     74  C   UNL A   1      39.349  27.524  30.398  1.00  0.00     0.173 A 
ATOM     75  F   UNL A   1      40.992  30.556  29.255  1.00  0.00    -0.203 F 
ATOM     76  C   UNL A   1      40.343  28.633  28.058  1.00  0.00     0.198 A 
ATOM     77  C   UNL A   1      39.274  26.815  29.202  1.00  0.00     0.198 A 
ATOM     78  F   UNL A   1      38.852  26.968  31.513  1.00  0.00    -0.203 F 
ATOM     79  F   UNL A   1      40.793  29.187  26.923  1.00  0.00    -0.200 F 
ATOM     80  C   UNL A   1      39.765  27.373  28.031  1.00  0.00     0.200 A 
ATOM     81  F   UNL A   1      38.723  25.593  29.183  1.00  0.00    -0.200 F 
ATOM     82  F   UNL A   1      39.673  26.699  26.877  1.00  0.00    -0.200 F 
ENDBRANCH  48  72
BRANCH  60  83
ATOM     83  C   UNL A   1      44.429  28.702  35.770  1.00  0.00     0.064 A 
ATOM     84  C   UNL A   1      45.705  29.108  35.356  1.00  0.00     0.173 A 
ATOM     85  C   UNL A   1      44.318  27.500  36.485  1.00  0.00     0.173 A 
ATOM     86  F   UNL A   1      45.860  30.242  34.657  1.00  0.00    -0.203 F 
ATOM     87  C   UNL A   1      46.825  28.326  35.626  1.00  0.00     0.198 A 
ATOM     88  C   UNL A   1      45.442  26.733  36.773  1.00  0.00     0.198 A 
ATOM     89  F   UNL A   1      43.119  27.072  36.906  1.00  0.00    -0.203 F 
ATOM     90  F   UNL A   1      48.031  28.709  35.182  1.00  0.00    -0.200 F 
ATOM     91  C   UNL A   1      46.694  27.142  36.338  1.00  0.00     0.200 A 
ATOM     92  F   UNL A   1      45.316  25.594  37.469  1.00  0.00    -0.200 F 
ATOM     93  F   UNL A   1      47.773  26.391  36.597  1.00  0.00    -0.200 F 
ENDBRANCH  60  83
ENDBRANCH  34  35
ENDBRANCH  27  29
ENDBRANCH  26  27
ENDBRANCH  25  26
ENDBRANCH   1  25
TORSDOF 17
ENDMDL
MODEL 3
REMARK VINA RESULT:     -11.5      3.918     10.136
REMARK SMILES CCOc1cc(OCC)cc(-c2ccc([C@@H](C)C(=O)OCCOC(=O)c3ccc(-c4c5nc(c(-c6c(F)c(F)c(F)c(F)c6F)c6ccc([nH]6)c(-c6c(F)c(F)c(F)c(F)c6F)c6nc(c(-c7c(F)c(F)c(F)c(F)c7F)c7ccc4[nH]7)C=C6)C=C5)cc3)cc2)c1
REMARK SMILES IDX 21 1 20 2 18 3 19 4 16 5 17 6 15 7 12 8 13 9 90 10 14 11
REMARK SMILES IDX 89 12 11 13 4 14 5 15 91 16 6 17 10 18 3 19 2 20 1 21 7 22
REMARK SMILES IDX 8 23 9 24 22 25 23 26 24 27 25 28 26 29 27 30 88 31 28 32
REMARK SMILES IDX 87 33 29 34 30 35 31 36 81 37 32 38 86 39 80 40 82 41 33 42
REMARK SMILES IDX 85 43 79 44 78 45 34 47 66 48 46 49 65 50 47 51 50 52 64 53
REMARK SMILES IDX 83 54 48 55 49 56 63 58 84 59 51 60 35 61 36 62 44 63 37 64
REMARK SMILES IDX 38 65 42 66 45 67 39 68 40 69 43 70 41 71 67 72 68 73 76 74
REMARK SMILES IDX 69 75 70 76 74 77 77 78 71 79 72 80 75 81 73 82 52 83 53 84
REMARK SMILES IDX 61 85 54 86 55 87 59 88 62 89 56 90 57 91 60 92 58 93
REMARK H PARENT 82 46 50 57
REMARK Flexibility Score: inf
ROOT
ATOM      1  C   UNL A   1      31.179  30.082  24.989  1.00  0.00     0.274 C 
ENDROOT
BRANCH   1   2
ATOM      2  O   UNL A   1      31.024  28.660  24.818  1.00  0.00    -0.462 OA
BRANCH   2   3
ATOM      3  C   UNL A   1      31.544  28.114  23.687  1.00  0.00     0.313 C 
ATOM      4  O   UNL A   1      30.874  27.717  22.739  1.00  0.00    -0.252 OA
BRANCH   3   5
ATOM      5  C   UNL A   1      33.063  27.981  23.717  1.00  0.00     0.126 C 
ATOM      6  C   UNL A   1      33.673  28.645  22.485  1.00  0.00     0.025 C 
BRANCH   5   7
ATOM      7  C   UNL A   1      33.594  26.573  23.937  1.00  0.00    -0.034 A 
ATOM      8  C   UNL A   1      34.527  23.922  24.320  1.00  0.00    -0.018 A 
ATOM      9  C   UNL A   1      34.500  24.841  25.379  1.00  0.00     0.009 A 
ATOM     10  C   UNL A   1      34.103  24.355  23.059  1.00  0.00     0.009 A 
ATOM     11  C   UNL A   1      34.034  26.144  25.194  1.00  0.00     0.005 A 
ATOM     12  C   UNL A   1      33.635  25.659  22.872  1.00  0.00     0.005 A 
BRANCH   8  13
ATOM     13  C   UNL A   1      34.929  22.529  24.557  1.00  0.00    -0.011 A 
ATOM     14  C   UNL A   1      34.425  20.177  24.848  1.00  0.00     0.123 A 
ATOM     15  C   UNL A   1      35.781  19.891  25.002  1.00  0.00     0.092 A 
ATOM     16  C   UNL A   1      33.996  21.490  24.647  1.00  0.00     0.055 A 
ATOM     17  C   UNL A   1      36.724  20.916  24.942  1.00  0.00     0.123 A 
ATOM     18  C   UNL A   1      36.291  22.222  24.717  1.00  0.00     0.055 A 
BRANCH  14  19
ATOM     19  O   UNL A   1      33.526  19.159  25.019  1.00  0.00    -0.494 OA
BRANCH  19  20
ATOM     20  C   UNL A   1      33.593  18.164  23.991  1.00  0.00     0.226 C 
ATOM     21  C   UNL A   1      32.528  18.396  22.932  1.00  0.00     0.049 C 
ENDBRANCH  19  20
ENDBRANCH  14  19
BRANCH  17  22
ATOM     22  O   UNL A   1      38.032  20.539  25.093  1.00  0.00    -0.494 OA
BRANCH  22  23
ATOM     23  C   UNL A   1      38.914  21.453  25.751  1.00  0.00     0.226 C 
ATOM     24  C   UNL A   1      40.101  20.732  26.371  1.00  0.00     0.049 C 
ENDBRANCH  22  23
ENDBRANCH  17  22
ENDBRANCH   8  13
ENDBRANCH   5   7
ENDBRANCH   3   5
ENDBRANCH   2   3
ENDBRANCH   1   2
BRANCH   1  25
ATOM     25  C   UNL A   1      31.672  30.422  26.398  1.00  0.00     0.275 C 
BRANCH  25  26
ATOM     26  O   UNL A   1      33.108  30.521  26.429  1.00  0.00    -0.458 OA
BRANCH  26  27
ATOM     27  C   UNL A   1      33.596  31.484  27.242  1.00  0.00     0.338 C 
ATOM     28  O   UNL A   1      33.034  32.495  27.623  1.00  0.00    -0.246 OA
BRANCH  27  29
ATOM     29  C   UNL A   1      34.927  31.093  27.727  1.00  0.00     0.060 A 
ATOM     30  C   UNL A   1      35.146  29.746  28.015  1.00  0.00     0.016 A 
ATOM     31  C   UNL A   1      35.903  32.048  28.012  1.00  0.00     0.016 A 
ATOM     32  C   UNL A   1      36.326  29.343  28.630  1.00  0.00     0.010 A 
ATOM     33  C   UNL A   1      37.097  31.643  28.618  1.00  0.00     0.010 A 
ATOM     34  C   UNL A   1      37.301  30.292  28.958  1.00  0.00    -0.014 A 
BRANCH  34  35
ATOM     35  C   UNL A   1      38.488  29.870  29.739  1.00  0.00     0.031 A 
ATOM     36  C   UNL A   1      38.667  30.372  31.144  1.00  0.00     0.074 A 
ATOM     37  C   UNL A   1      39.370  29.002  29.213  1.00  0.00     0.049 A 
ATOM     38  N   UNL A   1      39.644  30.151  31.986  1.00  0.00    -0.248 NA
ATOM     39  C   UNL A   1      37.602  31.238  31.672  1.00  0.00     0.031 C 
ATOM     40  C   UNL A   1      39.277  28.411  27.878  1.00  0.00     0.029 A 
ATOM     41  N   UNL A   1      40.514  28.461  29.743  1.00  0.00    -0.354 N 
ATOM     42  C   UNL A   1      39.323  30.863  33.133  1.00  0.00     0.074 A 
ATOM     43  C   UNL A   1      38.069  31.539  32.875  1.00  0.00     0.031 C 
ATOM     44  C   UNL A   1      40.319  27.583  27.695  1.00  0.00     0.029 A 
ATOM     45  C   UNL A   1      41.167  27.614  28.885  1.00  0.00     0.049 A 
ATOM     46  H   UNL A   1      40.834  28.662  30.651  1.00  0.00     0.167 HD
ATOM     47  C   UNL A   1      40.012  30.944  34.296  1.00  0.00     0.037 A 
ATOM     48  C   UNL A   1      42.328  26.949  29.037  1.00  0.00     0.037 A 
ATOM     49  C   UNL A   1      41.251  30.258  34.559  1.00  0.00     0.049 A 
ATOM     50  C   UNL A   1      43.087  27.077  30.331  1.00  0.00     0.074 A 
ATOM     51  C   UNL A   1      42.028  30.283  35.702  1.00  0.00     0.029 A 
ATOM     52  N   UNL A   1      41.888  29.416  33.660  1.00  0.00    -0.354 N 
ATOM     53  N   UNL A   1      42.782  27.764  31.404  1.00  0.00    -0.248 NA
ATOM     54  C   UNL A   1      44.349  26.331  30.433  1.00  0.00     0.031 C 
ATOM     55  C   UNL A   1      43.152  29.478  35.486  1.00  0.00     0.029 A 
ATOM     56  C   UNL A   1      43.053  28.920  34.221  1.00  0.00     0.049 A 
ATOM     57  H   UNL A   1      41.562  29.203  32.756  1.00  0.00     0.167 HD
ATOM     58  C   UNL A   1      43.798  27.517  32.316  1.00  0.00     0.074 A 
ATOM     59  C   UNL A   1      44.723  26.605  31.675  1.00  0.00     0.031 C 
ATOM     60  C   UNL A   1      43.954  28.002  33.572  1.00  0.00     0.037 A 
BRANCH  47  61
ATOM     61  C   UNL A   1      39.450  31.829  35.369  1.00  0.00     0.064 A 
ATOM     62  C   UNL A   1      39.805  33.181  35.469  1.00  0.00     0.173 A 
ATOM     63  C   UNL A   1      38.526  31.320  36.294  1.00  0.00     0.173 A 
ATOM     64  F   UNL A   1      40.698  33.709  34.617  1.00  0.00    -0.203 F 
ATOM     65  C   UNL A   1      39.271  33.989  36.470  1.00  0.00     0.198 A 
ATOM     66  C   UNL A   1      37.976  32.136  37.280  1.00  0.00     0.198 A 
ATOM     67  F   UNL A   1      38.153  30.033  36.240  1.00  0.00    -0.203 F 
ATOM     68  F   UNL A   1      39.656  35.268  36.573  1.00  0.00    -0.200 F 
ATOM     69  C   UNL A   1      38.354  33.467  37.371  1.00  0.00     0.200 A 
ATOM     70  F   UNL A   1      37.084  31.633  38.144  1.00  0.00    -0.200 F 
ATOM     71  F   UNL A   1      37.838  34.246  38.331  1.00  0.00    -0.200 F 
ENDBRANCH  47  61
BRANCH  48  72
ATOM     72  C   UNL A   1      42.845  26.101  27.934  1.00  0.00     0.064 A 
ATOM     73  C   UNL A   1      42.489  24.750  27.832  1.00  0.00     0.173 A 
ATOM     74  C   UNL A   1      43.711  26.624  26.961  1.00  0.00     0.173 A 
ATOM     75  F   UNL A   1      41.683  24.200  28.753  1.00  0.00    -0.203 F 
ATOM     76  C   UNL A   1      42.991  23.949  26.810  1.00  0.00     0.198 A 
ATOM     77  C   UNL A   1      44.192  25.829  25.925  1.00  0.00     0.198 A 
ATOM     78  F   UNL A   1      44.083  27.912  27.017  1.00  0.00    -0.203 F 
ATOM     79  F   UNL A   1      42.668  22.649  26.759  1.00  0.00    -0.200 F 
ATOM     80  C   UNL A   1      43.838  24.490  25.853  1.00  0.00     0.200 A 
ATOM     81  F   UNL A   1      45.003  26.358  24.998  1.00  0.00    -0.200 F 
ATOM     82  F   UNL A   1      44.318  23.720  24.868  1.00  0.00    -0.200 F 
ENDBRANCH  48  72
BRANCH  60  83
ATOM     83  C   UNL A   1      45.144  27.524  34.349  1.00  0.00     0.064 A 
ATOM     84  C   UNL A   1      46.373  28.194  34.297  1.00  0.00     0.173 A 
ATOM     85  C   UNL A   1      45.043  26.394  35.175  1.00  0.00     0.173 A 
ATOM     86  F   UNL A   1      46.523  29.270  33.510  1.00  0.00    -0.203 F 
ATOM     87  C   UNL A   1      47.468  27.736  35.025  1.00  0.00     0.198 A 
ATOM     88  C   UNL A   1      46.132  25.952  35.920  1.00  0.00     0.198 A 
ATOM     89  F   UNL A   1      43.886  25.721  35.262  1.00  0.00    -0.203 F 
ATOM     90  F   UNL A   1      48.648  28.365  34.927  1.00  0.00    -0.200 F 
ATOM     91  C   UNL A   1      47.345  26.619  35.840  1.00  0.00     0.200 A 
ATOM     92  F   UNL A   1      46.009  24.879  36.713  1.00  0.00    -0.200 F 
ATOM     93  F   UNL A   1      48.400  26.180  36.540  1.00  0.00    -0.200 F 
ENDBRANCH  60  83
ENDBRANCH  34  35
ENDBRANCH  27  29
ENDBRANCH  26  27
ENDBRANCH  25  26
ENDBRANCH   1  25
TORSDOF 17
ENDMDL
