MODEL 1
REMARK VINA RESULT:     -12.2      0.000      0.000
REMARK SMILES CC1(C)CC2=NC(=O)[C@H](C(=O)OCCOC(=O)c3ccc(-c4c5nc(c(-c6c(F)c(F)c(F)c(F)c6F)c6ccc([nH]6)c(-c6c(F)c(F)c(F)c(F)c6F)c6nc(c(-c7c(F)c(F)c(F)c(F)c7F)c7ccc4[nH]7)C=C6)C=C5)cc3)C=C2CS1
REMARK SMILES IDX 14 1 13 2 12 3 10 4 11 5 9 6 1 7 2 8 3 9 4 10 84 11 5 12
REMARK SMILES IDX 83 13 6 14 82 15 7 16 81 17 8 18 15 19 16 20 17 21 18 22
REMARK SMILES IDX 19 23 80 24 20 25 79 26 21 27 22 28 23 29 73 30 24 31 78 32
REMARK SMILES IDX 72 33 74 34 25 35 77 36 71 37 70 38 26 40 58 41 38 42 57 43
REMARK SMILES IDX 39 44 42 45 56 46 75 47 40 48 41 49 55 51 76 52 43 53 27 54
REMARK SMILES IDX 28 55 36 56 29 57 30 58 34 59 37 60 31 61 32 62 35 63 33 64
REMARK SMILES IDX 59 65 60 66 68 67 61 68 62 69 66 70 69 71 63 72 64 73 67 74
REMARK SMILES IDX 65 75 44 76 45 77 53 78 46 79 47 80 51 81 54 82 48 83 49 84
REMARK SMILES IDX 52 85 50 86
REMARK H PARENT 74 39 42 50
REMARK Flexibility Score: inf
ROOT
ATOM      1  C   UNL A   1      31.506  30.447  25.788  1.00  0.00     0.275 C 
ENDROOT
BRANCH   1   2
ATOM      2  C   UNL A   1      31.242  29.487  24.626  1.00  0.00     0.274 C 
BRANCH   2   3
ATOM      3  O   UNL A   1      32.424  28.742  24.269  1.00  0.00    -0.461 OA
BRANCH   3   4
ATOM      4  C   UNL A   1      32.373  27.395  24.459  1.00  0.00     0.322 C 
ATOM      5  O   UNL A   1      31.981  26.591  23.621  1.00  0.00    -0.251 OA
BRANCH   4   6
ATOM      6  C   UNL A   1      32.883  27.004  25.836  1.00  0.00     0.213 C 
ATOM      7  C   UNL A   1      33.258  20.347  25.856  1.00  0.00     0.023 C 
ATOM      8  C   UNL A   1      33.449  21.818  25.444  1.00  0.00     0.016 C 
ATOM      9  C   UNL A   1      33.121  21.948  23.949  1.00  0.00     0.023 C 
ATOM     10  C   UNL A   1      32.555  22.708  26.304  1.00  0.00     0.074 C 
ATOM     11  S   UNL A   1      35.189  22.241  25.818  1.00  0.00    -0.150 SA
ATOM     12  C   UNL A   1      32.741  24.217  26.180  1.00  0.00     0.049 C 
ATOM     13  C   UNL A   1      35.202  23.950  25.275  1.00  0.00     0.107 C 
ATOM     14  N   UNL A   1      31.724  24.921  26.569  1.00  0.00    -0.217 NA
ATOM     15  C   UNL A   1      34.049  24.780  25.738  1.00  0.00    -0.019 C 
ATOM     16  C   UNL A   1      31.777  26.297  26.589  1.00  0.00     0.264 C 
ATOM     17  C   UNL A   1      34.093  26.123  25.672  1.00  0.00     0.004 C 
ATOM     18  O   UNL A   1      30.908  26.960  27.152  1.00  0.00    -0.271 OA
ENDBRANCH   4   6
ENDBRANCH   3   4
ENDBRANCH   2   3
ENDBRANCH   1   2
BRANCH   1  19
ATOM     19  O   UNL A   1      32.888  30.417  26.195  1.00  0.00    -0.458 OA
BRANCH  19  20
ATOM     20  C   UNL A   1      33.281  31.452  26.967  1.00  0.00     0.338 C 
ATOM     21  O   UNL A   1      32.648  32.452  27.260  1.00  0.00    -0.246 OA
BRANCH  20  22
ATOM     22  C   UNL A   1      34.592  31.157  27.563  1.00  0.00     0.060 A 
ATOM     23  C   UNL A   1      34.846  29.835  27.920  1.00  0.00     0.016 A 
ATOM     24  C   UNL A   1      35.495  32.166  27.897  1.00  0.00     0.016 A 
ATOM     25  C   UNL A   1      35.965  29.520  28.680  1.00  0.00     0.010 A 
ATOM     26  C   UNL A   1      36.660  31.836  28.604  1.00  0.00     0.010 A 
ATOM     27  C   UNL A   1      36.892  30.513  29.024  1.00  0.00    -0.014 A 
BRANCH  27  28
ATOM     28  C   UNL A   1      38.078  30.139  29.839  1.00  0.00     0.031 A 
ATOM     29  C   UNL A   1      39.157  29.265  29.261  1.00  0.00     0.074 A 
ATOM     30  C   UNL A   1      38.220  30.640  31.081  1.00  0.00     0.049 A 
ATOM     31  N   UNL A   1      40.221  28.774  29.845  1.00  0.00    -0.248 NA
ATOM     32  C   UNL A   1      39.025  28.893  27.844  1.00  0.00     0.031 C 
ATOM     33  C   UNL A   1      37.271  31.534  31.745  1.00  0.00     0.029 A 
ATOM     34  N   UNL A   1      39.228  30.484  32.000  1.00  0.00    -0.354 N 
ATOM     35  C   UNL A   1      40.855  27.996  28.886  1.00  0.00     0.074 A 
ATOM     36  C   UNL A   1      40.067  28.090  27.675  1.00  0.00     0.031 C 
ATOM     37  C   UNL A   1      37.758  31.881  32.947  1.00  0.00     0.029 A 
ATOM     38  C   UNL A   1      39.019  31.180  33.167  1.00  0.00     0.049 A 
ATOM     39  H   UNL A   1      40.024  29.928  31.839  1.00  0.00     0.167 HD
ATOM     40  C   UNL A   1      41.988  27.264  29.009  1.00  0.00     0.037 A 
ATOM     41  C   UNL A   1      39.745  31.225  34.300  1.00  0.00     0.037 A 
ATOM     42  C   UNL A   1      42.808  27.216  30.190  1.00  0.00     0.049 A 
ATOM     43  C   UNL A   1      40.999  30.405  34.407  1.00  0.00     0.074 A 
ATOM     44  C   UNL A   1      43.988  26.522  30.393  1.00  0.00     0.029 A 
ATOM     45  N   UNL A   1      42.542  27.906  31.362  1.00  0.00    -0.354 N 
ATOM     46  N   UNL A   1      41.558  29.632  33.509  1.00  0.00    -0.248 NA
ATOM     47  C   UNL A   1      41.705  30.440  35.695  1.00  0.00     0.031 C 
ATOM     48  C   UNL A   1      44.425  26.772  31.700  1.00  0.00     0.029 A 
ATOM     49  C   UNL A   1      43.528  27.641  32.299  1.00  0.00     0.049 A 
ATOM     50  H   UNL A   1      41.767  28.495  31.508  1.00  0.00     0.167 HD
ATOM     51  C   UNL A   1      42.674  29.083  34.123  1.00  0.00     0.074 A 
ATOM     52  C   UNL A   1      42.732  29.633  35.461  1.00  0.00     0.031 C 
ATOM     53  C   UNL A   1      43.562  28.189  33.628  1.00  0.00     0.037 A 
BRANCH  40  54
ATOM     54  C   UNL A   1      42.399  26.420  27.843  1.00  0.00     0.064 A 
ATOM     55  C   UNL A   1      41.857  25.146  27.625  1.00  0.00     0.173 A 
ATOM     56  C   UNL A   1      43.305  26.926  26.899  1.00  0.00     0.173 A 
ATOM     57  F   UNL A   1      40.999  24.619  28.508  1.00  0.00    -0.203 F 
ATOM     58  C   UNL A   1      42.214  24.404  26.502  1.00  0.00     0.198 A 
ATOM     59  C   UNL A   1      43.648  26.188  25.770  1.00  0.00     0.198 A 
ATOM     60  F   UNL A   1      43.848  28.141  27.067  1.00  0.00    -0.203 F 
ATOM     61  F   UNL A   1      41.702  23.180  26.319  1.00  0.00    -0.200 F 
ATOM     62  C   UNL A   1      43.104  24.927  25.573  1.00  0.00     0.200 A 
ATOM     63  F   UNL A   1      44.503  26.696  24.872  1.00  0.00    -0.200 F 
ATOM     64  F   UNL A   1      43.439  24.215  24.489  1.00  0.00    -0.200 F 
ENDBRANCH  40  54
BRANCH  41  65
ATOM     65  C   UNL A   1      39.276  32.046  35.444  1.00  0.00     0.064 A 
ATOM     66  C   UNL A   1      38.465  31.494  36.444  1.00  0.00     0.173 A 
ATOM     67  C   UNL A   1      39.628  33.398  35.556  1.00  0.00     0.173 A 
ATOM     68  F   UNL A   1      38.081  30.212  36.362  1.00  0.00    -0.203 F 
ATOM     69  C   UNL A   1      38.017  32.269  37.512  1.00  0.00     0.198 A 
ATOM     70  C   UNL A   1      39.200  34.165  36.637  1.00  0.00     0.198 A 
ATOM     71  F   UNL A   1      40.400  33.972  34.621  1.00  0.00    -0.203 F 
ATOM     72  F   UNL A   1      37.215  31.728  38.438  1.00  0.00    -0.200 F 
ATOM     73  C   UNL A   1      38.390  33.601  37.611  1.00  0.00     0.200 A 
ATOM     74  F   UNL A   1      39.570  35.449  36.734  1.00  0.00    -0.200 F 
ATOM     75  F   UNL A   1      37.963  34.344  38.641  1.00  0.00    -0.200 F 
ENDBRANCH  41  65
BRANCH  53  76
ATOM     76  C   UNL A   1      44.659  27.744  34.543  1.00  0.00     0.064 A 
ATOM     77  C   UNL A   1      44.509  26.606  35.349  1.00  0.00     0.173 A 
ATOM     78  C   UNL A   1      45.877  28.436  34.592  1.00  0.00     0.173 A 
ATOM     79  F   UNL A   1      43.354  25.925  35.344  1.00  0.00    -0.203 F 
ATOM     80  C   UNL A   1      45.539  26.186  36.185  1.00  0.00     0.198 A 
ATOM     81  C   UNL A   1      46.910  28.003  35.417  1.00  0.00     0.198 A 
ATOM     82  F   UNL A   1      46.065  29.529  33.836  1.00  0.00    -0.203 F 
ATOM     83  F   UNL A   1      45.365  25.114  36.972  1.00  0.00    -0.200 F 
ATOM     84  C   UNL A   1      46.739  26.881  36.216  1.00  0.00     0.200 A 
ATOM     85  F   UNL A   1      48.071  28.672  35.444  1.00  0.00    -0.200 F 
ATOM     86  F   UNL A   1      47.729  26.473  37.022  1.00  0.00    -0.200 F 
ENDBRANCH  53  76
ENDBRANCH  27  28
ENDBRANCH  20  22
ENDBRANCH  19  20
ENDBRANCH   1  19
TORSDOF 11
ENDMDL
MODEL 2
REMARK VINA RESULT:     -12.1      0.284      1.662
REMARK SMILES CC1(C)CC2=NC(=O)[C@H](C(=O)OCCOC(=O)c3ccc(-c4c5nc(c(-c6c(F)c(F)c(F)c(F)c6F)c6ccc([nH]6)c(-c6c(F)c(F)c(F)c(F)c6F)c6nc(c(-c7c(F)c(F)c(F)c(F)c7F)c7ccc4[nH]7)C=C6)C=C5)cc3)C=C2CS1
REMARK SMILES IDX 14 1 13 2 12 3 10 4 11 5 9 6 1 7 2 8 3 9 4 10 84 11 5 12
REMARK SMILES IDX 83 13 6 14 82 15 7 16 81 17 8 18 15 19 16 20 17 21 18 22
REMARK SMILES IDX 19 23 80 24 20 25 79 26 21 27 22 28 23 29 73 30 24 31 78 32
REMARK SMILES IDX 72 33 74 34 25 35 77 36 71 37 70 38 26 40 58 41 38 42 57 43
REMARK SMILES IDX 39 44 42 45 56 46 75 47 40 48 41 49 55 51 76 52 43 53 27 54
REMARK SMILES IDX 28 55 36 56 29 57 30 58 34 59 37 60 31 61 32 62 35 63 33 64
REMARK SMILES IDX 59 65 60 66 68 67 61 68 62 69 66 70 69 71 63 72 64 73 67 74
REMARK SMILES IDX 65 75 44 76 45 77 53 78 46 79 47 80 51 81 54 82 48 83 49 84
REMARK SMILES IDX 52 85 50 86
REMARK H PARENT 74 39 42 50
REMARK Flexibility Score: inf
ROOT
ATOM      1  C   UNL A   1      31.404  30.707  25.785  1.00  0.00     0.275 C 
ENDROOT
BRANCH   1   2
ATOM      2  C   UNL A   1      31.173  29.661  24.692  1.00  0.00     0.274 C 
BRANCH   2   3
ATOM      3  O   UNL A   1      32.389  28.959  24.360  1.00  0.00    -0.461 OA
BRANCH   3   4
ATOM      4  C   UNL A   1      32.337  27.599  24.414  1.00  0.00     0.322 C 
ATOM      5  O   UNL A   1      31.902  26.886  23.516  1.00  0.00    -0.251 OA
BRANCH   4   6
ATOM      6  C   UNL A   1      32.907  27.067  25.718  1.00  0.00     0.213 C 
ATOM      7  C   UNL A   1      32.727  20.418  25.251  1.00  0.00     0.023 C 
ATOM      8  C   UNL A   1      33.010  21.897  24.928  1.00  0.00     0.016 C 
ATOM      9  C   UNL A   1      32.592  22.164  23.475  1.00  0.00     0.023 C 
ATOM     10  C   UNL A   1      32.255  22.787  25.912  1.00  0.00     0.074 C 
ATOM     11  S   UNL A   1      34.801  22.154  25.198  1.00  0.00    -0.150 SA
ATOM     12  C   UNL A   1      32.557  24.282  25.879  1.00  0.00     0.049 C 
ATOM     13  C   UNL A   1      34.919  23.892  24.775  1.00  0.00     0.107 C 
ATOM     14  N   UNL A   1      31.633  25.033  26.391  1.00  0.00    -0.217 NA
ATOM     15  C   UNL A   1      33.874  24.773  25.380  1.00  0.00    -0.019 C 
ATOM     16  C   UNL A   1      31.801  26.395  26.501  1.00  0.00     0.264 C 
ATOM     17  C   UNL A   1      34.025  26.109  25.403  1.00  0.00     0.004 C 
ATOM     18  O   UNL A   1      31.031  27.080  27.173  1.00  0.00    -0.271 OA
ENDBRANCH   4   6
ENDBRANCH   3   4
ENDBRANCH   2   3
ENDBRANCH   1   2
BRANCH   1  19
ATOM     19  O   UNL A   1      32.659  30.498  26.462  1.00  0.00    -0.458 OA
BRANCH  19  20
ATOM     20  C   UNL A   1      33.171  31.588  27.072  1.00  0.00     0.338 C 
ATOM     21  O   UNL A   1      32.636  32.669  27.247  1.00  0.00    -0.246 OA
BRANCH  20  22
ATOM     22  C   UNL A   1      34.477  31.259  27.660  1.00  0.00     0.060 A 
ATOM     23  C   UNL A   1      34.706  29.929  28.001  1.00  0.00     0.016 A 
ATOM     24  C   UNL A   1      35.401  32.247  28.002  1.00  0.00     0.016 A 
ATOM     25  C   UNL A   1      35.822  29.584  28.753  1.00  0.00     0.010 A 
ATOM     26  C   UNL A   1      36.561  31.886  28.701  1.00  0.00     0.010 A 
ATOM     27  C   UNL A   1      36.769  30.554  29.105  1.00  0.00    -0.014 A 
BRANCH  27  28
ATOM     28  C   UNL A   1      37.950  30.147  29.911  1.00  0.00     0.031 A 
ATOM     29  C   UNL A   1      39.020  29.277  29.313  1.00  0.00     0.074 A 
ATOM     30  C   UNL A   1      38.097  30.616  31.166  1.00  0.00     0.049 A 
ATOM     31  N   UNL A   1      40.079  28.760  29.885  1.00  0.00    -0.248 NA
ATOM     32  C   UNL A   1      38.885  28.940  27.888  1.00  0.00     0.031 C 
ATOM     33  C   UNL A   1      37.156  31.504  31.851  1.00  0.00     0.029 A 
ATOM     34  N   UNL A   1      39.101  30.427  32.082  1.00  0.00    -0.354 N 
ATOM     35  C   UNL A   1      40.705  27.999  28.908  1.00  0.00     0.074 A 
ATOM     36  C   UNL A   1      39.919  28.131  27.699  1.00  0.00     0.031 C 
ATOM     37  C   UNL A   1      37.646  31.816  33.061  1.00  0.00     0.029 A 
ATOM     38  C   UNL A   1      38.899  31.097  33.264  1.00  0.00     0.049 A 
ATOM     39  H   UNL A   1      39.892  29.867  31.908  1.00  0.00     0.167 HD
ATOM     40  C   UNL A   1      41.830  27.252  29.014  1.00  0.00     0.037 A 
ATOM     41  C   UNL A   1      39.625  31.106  34.399  1.00  0.00     0.037 A 
ATOM     42  C   UNL A   1      42.648  27.167  30.194  1.00  0.00     0.049 A 
ATOM     43  C   UNL A   1      40.869  30.270  34.487  1.00  0.00     0.074 A 
ATOM     44  C   UNL A   1      43.821  26.455  30.381  1.00  0.00     0.029 A 
ATOM     45  N   UNL A   1      42.389  27.830  31.382  1.00  0.00    -0.354 N 
ATOM     46  N   UNL A   1      41.421  29.513  33.570  1.00  0.00    -0.248 NA
ATOM     47  C   UNL A   1      41.575  30.266  35.776  1.00  0.00     0.031 C 
ATOM     48  C   UNL A   1      44.259  26.668  31.693  1.00  0.00     0.029 A 
ATOM     49  C   UNL A   1      43.371  27.532  32.313  1.00  0.00     0.049 A 
ATOM     50  H   UNL A   1      41.620  28.424  31.542  1.00  0.00     0.167 HD
ATOM     51  C   UNL A   1      42.530  28.938  34.172  1.00  0.00     0.074 A 
ATOM     52  C   UNL A   1      42.593  29.454  35.523  1.00  0.00     0.031 C 
ATOM     53  C   UNL A   1      43.409  28.046  33.655  1.00  0.00     0.037 A 
BRANCH  40  54
ATOM     54  C   UNL A   1      42.233  26.432  27.828  1.00  0.00     0.064 A 
ATOM     55  C   UNL A   1      43.212  26.869  26.926  1.00  0.00     0.173 A 
ATOM     56  C   UNL A   1      41.668  25.163  27.631  1.00  0.00     0.173 A 
ATOM     57  F   UNL A   1      43.767  28.080  27.068  1.00  0.00    -0.203 F 
ATOM     58  C   UNL A   1      43.609  26.063  25.862  1.00  0.00     0.198 A 
ATOM     59  C   UNL A   1      42.079  24.354  26.576  1.00  0.00     0.198 A 
ATOM     60  F   UNL A   1      40.728  24.704  28.470  1.00  0.00    -0.203 F 
ATOM     61  F   UNL A   1      44.533  26.504  24.997  1.00  0.00    -0.200 F 
ATOM     62  C   UNL A   1      43.047  24.805  25.691  1.00  0.00     0.200 A 
ATOM     63  F   UNL A   1      41.539  23.138  26.415  1.00  0.00    -0.200 F 
ATOM     64  F   UNL A   1      43.438  24.028  24.672  1.00  0.00    -0.200 F 
ENDBRANCH  40  54
BRANCH  41  65
ATOM     65  C   UNL A   1      39.163  31.904  35.562  1.00  0.00     0.064 A 
ATOM     66  C   UNL A   1      39.570  33.233  35.734  1.00  0.00     0.173 A 
ATOM     67  C   UNL A   1      38.308  31.350  36.526  1.00  0.00     0.173 A 
ATOM     68  F   UNL A   1      40.409  33.795  34.851  1.00  0.00    -0.203 F 
ATOM     69  C   UNL A   1      39.144  33.977  36.832  1.00  0.00     0.198 A 
ATOM     70  C   UNL A   1      37.863  32.102  37.610  1.00  0.00     0.198 A 
ATOM     71  F   UNL A   1      37.895  30.079  36.406  1.00  0.00    -0.203 F 
ATOM     72  F   UNL A   1      39.573  35.236  36.992  1.00  0.00    -0.200 F 
ATOM     73  C   UNL A   1      38.286  33.413  37.765  1.00  0.00     0.200 A 
ATOM     74  F   UNL A   1      37.027  31.556  38.503  1.00  0.00    -0.200 F 
ATOM     75  F   UNL A   1      37.872  34.131  38.818  1.00  0.00    -0.200 F 
ENDBRANCH  41  65
BRANCH  53  76
ATOM     76  C   UNL A   1      44.501  27.567  34.559  1.00  0.00     0.064 A 
ATOM     77  C   UNL A   1      44.345  26.403  35.324  1.00  0.00     0.173 A 
ATOM     78  C   UNL A   1      45.720  28.256  34.640  1.00  0.00     0.173 A 
ATOM     79  F   UNL A   1      43.189  25.724  35.289  1.00  0.00    -0.203 F 
ATOM     80  C   UNL A   1      45.369  25.951  36.151  1.00  0.00     0.198 A 
ATOM     81  C   UNL A   1      46.747  27.791  35.455  1.00  0.00     0.198 A 
ATOM     82  F   UNL A   1      45.913  29.374  33.924  1.00  0.00    -0.203 F 
ATOM     83  F   UNL A   1      45.189  24.852  36.898  1.00  0.00    -0.200 F 
ATOM     84  C   UNL A   1      46.570  26.642  36.212  1.00  0.00     0.200 A 
ATOM     85  F   UNL A   1      47.909  28.457  35.511  1.00  0.00    -0.200 F 
ATOM     86  F   UNL A   1      47.555  26.205  37.009  1.00  0.00    -0.200 F 
ENDBRANCH  53  76
ENDBRANCH  27  28
ENDBRANCH  20  22
ENDBRANCH  19  20
ENDBRANCH   1  19
TORSDOF 11
ENDMDL
MODEL 3
REMARK VINA RESULT:     -12.1      0.395      1.225
REMARK SMILES CC1(C)CC2=NC(=O)[C@H](C(=O)OCCOC(=O)c3ccc(-c4c5nc(c(-c6c(F)c(F)c(F)c(F)c6F)c6ccc([nH]6)c(-c6c(F)c(F)c(F)c(F)c6F)c6nc(c(-c7c(F)c(F)c(F)c(F)c7F)c7ccc4[nH]7)C=C6)C=C5)cc3)C=C2CS1
REMARK SMILES IDX 14 1 13 2 12 3 10 4 11 5 9 6 1 7 2 8 3 9 4 10 84 11 5 12
REMARK SMILES IDX 83 13 6 14 82 15 7 16 81 17 8 18 15 19 16 20 17 21 18 22
REMARK SMILES IDX 19 23 80 24 20 25 79 26 21 27 22 28 23 29 73 30 24 31 78 32
REMARK SMILES IDX 72 33 74 34 25 35 77 36 71 37 70 38 26 40 58 41 38 42 57 43
REMARK SMILES IDX 39 44 42 45 56 46 75 47 40 48 41 49 55 51 76 52 43 53 27 54
REMARK SMILES IDX 28 55 36 56 29 57 30 58 34 59 37 60 31 61 32 62 35 63 33 64
REMARK SMILES IDX 59 65 60 66 68 67 61 68 62 69 66 70 69 71 63 72 64 73 67 74
REMARK SMILES IDX 65 75 44 76 45 77 53 78 46 79 47 80 51 81 54 82 48 83 49 84
REMARK SMILES IDX 52 85 50 86
REMARK H PARENT 74 39 42 50
REMARK Flexibility Score: inf
ROOT
ATOM      1  C   UNL A   1      31.584  30.349  25.566  1.00  0.00     0.275 C 
ENDROOT
BRANCH   1   2
ATOM      2  C   UNL A   1      31.411  29.214  24.554  1.00  0.00     0.274 C 
BRANCH   2   3
ATOM      3  O   UNL A   1      32.652  28.518  24.315  1.00  0.00    -0.461 OA
BRANCH   3   4
ATOM      4  C   UNL A   1      32.587  27.158  24.275  1.00  0.00     0.322 C 
ATOM      5  O   UNL A   1      32.246  26.509  23.291  1.00  0.00    -0.251 OA
BRANCH   4   6
ATOM      6  C   UNL A   1      33.008  26.537  25.596  1.00  0.00     0.213 C 
ATOM      7  C   UNL A   1      32.526  19.937  24.784  1.00  0.00     0.023 C 
ATOM      8  C   UNL A   1      32.914  21.410  24.560  1.00  0.00     0.016 C 
ATOM      9  C   UNL A   1      32.642  21.765  23.092  1.00  0.00     0.023 C 
ATOM     10  C   UNL A   1      32.121  22.296  25.518  1.00  0.00     0.074 C 
ATOM     11  S   UNL A   1      34.684  21.554  24.999  1.00  0.00    -0.150 SA
ATOM     12  C   UNL A   1      32.501  23.771  25.586  1.00  0.00     0.049 C 
ATOM     13  C   UNL A   1      34.929  23.300  24.674  1.00  0.00     0.107 C 
ATOM     14  N   UNL A   1      31.575  24.549  26.053  1.00  0.00    -0.217 NA
ATOM     15  C   UNL A   1      33.881  24.210  25.229  1.00  0.00    -0.019 C 
ATOM     16  C   UNL A   1      31.803  25.893  26.245  1.00  0.00     0.264 C 
ATOM     17  C   UNL A   1      34.099  25.533  25.332  1.00  0.00     0.004 C 
ATOM     18  O   UNL A   1      31.012  26.589  26.880  1.00  0.00    -0.271 OA
ENDBRANCH   4   6
ENDBRANCH   3   4
ENDBRANCH   2   3
ENDBRANCH   1   2
BRANCH   1  19
ATOM     19  O   UNL A   1      32.743  30.145  26.398  1.00  0.00    -0.458 OA
BRANCH  19  20
ATOM     20  C   UNL A   1      33.188  31.244  27.042  1.00  0.00     0.338 C 
ATOM     21  O   UNL A   1      32.596  32.293  27.231  1.00  0.00    -0.246 OA
BRANCH  20  22
ATOM     22  C   UNL A   1      34.499  30.968  27.646  1.00  0.00     0.060 A 
ATOM     23  C   UNL A   1      34.778  29.648  27.989  1.00  0.00     0.016 A 
ATOM     24  C   UNL A   1      35.378  31.991  28.000  1.00  0.00     0.016 A 
ATOM     25  C   UNL A   1      35.897  29.347  28.755  1.00  0.00     0.010 A 
ATOM     26  C   UNL A   1      36.544  31.677  28.713  1.00  0.00     0.010 A 
ATOM     27  C   UNL A   1      36.799  30.354  29.119  1.00  0.00    -0.014 A 
BRANCH  27  28
ATOM     28  C   UNL A   1      37.986  29.995  29.940  1.00  0.00     0.031 A 
ATOM     29  C   UNL A   1      39.078  29.133  29.368  1.00  0.00     0.074 A 
ATOM     30  C   UNL A   1      38.117  30.498  31.182  1.00  0.00     0.049 A 
ATOM     31  N   UNL A   1      40.145  28.655  29.957  1.00  0.00    -0.248 NA
ATOM     32  C   UNL A   1      38.957  28.758  27.951  1.00  0.00     0.031 C 
ATOM     33  C   UNL A   1      37.154  31.382  31.842  1.00  0.00     0.029 A 
ATOM     34  N   UNL A   1      39.121  30.355  32.107  1.00  0.00    -0.354 N 
ATOM     35  C   UNL A   1      40.793  27.884  29.002  1.00  0.00     0.074 A 
ATOM     36  C   UNL A   1      40.009  27.968  27.787  1.00  0.00     0.031 C 
ATOM     37  C   UNL A   1      37.631  31.735  33.045  1.00  0.00     0.029 A 
ATOM     38  C   UNL A   1      38.899  31.050  33.271  1.00  0.00     0.049 A 
ATOM     39  H   UNL A   1      39.925  29.809  31.950  1.00  0.00     0.167 HD
ATOM     40  C   UNL A   1      41.933  27.166  29.131  1.00  0.00     0.037 A 
ATOM     41  C   UNL A   1      39.619  31.104  34.408  1.00  0.00     0.037 A 
ATOM     42  C   UNL A   1      42.749  27.129  30.315  1.00  0.00     0.049 A 
ATOM     43  C   UNL A   1      40.882  30.299  34.522  1.00  0.00     0.074 A 
ATOM     44  C   UNL A   1      43.936  26.448  30.525  1.00  0.00     0.029 A 
ATOM     45  N   UNL A   1      42.469  27.816  31.486  1.00  0.00    -0.354 N 
ATOM     46  N   UNL A   1      41.455  29.532  33.627  1.00  0.00    -0.248 NA
ATOM     47  C   UNL A   1      41.582  30.343  35.813  1.00  0.00     0.031 C 
ATOM     48  C   UNL A   1      44.364  26.705  31.833  1.00  0.00     0.029 A 
ATOM     49  C   UNL A   1      43.454  27.564  32.428  1.00  0.00     0.049 A 
ATOM     50  H   UNL A   1      41.687  28.396  31.627  1.00  0.00     0.167 HD
ATOM     51  C   UNL A   1      42.574  28.997  34.247  1.00  0.00     0.074 A 
ATOM     52  C   UNL A   1      42.619  29.549  35.584  1.00  0.00     0.031 C 
ATOM     53  C   UNL A   1      43.475  28.113  33.757  1.00  0.00     0.037 A 
BRANCH  40  54
ATOM     54  C   UNL A   1      42.360  26.326  27.967  1.00  0.00     0.064 A 
ATOM     55  C   UNL A   1      41.839  25.044  27.751  1.00  0.00     0.173 A 
ATOM     56  C   UNL A   1      43.261  26.844  27.024  1.00  0.00     0.173 A 
ATOM     57  F   UNL A   1      40.986  24.505  28.633  1.00  0.00    -0.203 F 
ATOM     58  C   UNL A   1      42.210  24.305  26.630  1.00  0.00     0.198 A 
ATOM     59  C   UNL A   1      43.617  26.109  25.898  1.00  0.00     0.198 A 
ATOM     60  F   UNL A   1      43.785  28.067  27.191  1.00  0.00    -0.203 F 
ATOM     61  F   UNL A   1      41.717  23.072  26.448  1.00  0.00    -0.200 F 
ATOM     62  C   UNL A   1      43.093  24.839  25.702  1.00  0.00     0.200 A 
ATOM     63  F   UNL A   1      44.467  26.628  25.001  1.00  0.00    -0.200 F 
ATOM     64  F   UNL A   1      43.441  24.130  24.620  1.00  0.00    -0.200 F 
ENDBRANCH  40  54
BRANCH  41  65
ATOM     65  C   UNL A   1      39.135  31.920  35.549  1.00  0.00     0.064 A 
ATOM     66  C   UNL A   1      39.495  33.268  35.677  1.00  0.00     0.173 A 
ATOM     67  C   UNL A   1      38.305  31.366  36.534  1.00  0.00     0.173 A 
ATOM     68  F   UNL A   1      40.309  33.832  34.773  1.00  0.00    -0.203 F 
ATOM     69  C   UNL A   1      39.048  34.030  36.754  1.00  0.00     0.198 A 
ATOM     70  C   UNL A   1      37.839  32.135  37.597  1.00  0.00     0.198 A 
ATOM     71  F   UNL A   1      37.937  30.078  36.456  1.00  0.00    -0.203 F 
ATOM     72  F   UNL A   1      39.432  35.308  36.873  1.00  0.00    -0.200 F 
ATOM     73  C   UNL A   1      38.215  33.465  37.709  1.00  0.00     0.200 A 
ATOM     74  F   UNL A   1      37.027  31.588  38.512  1.00  0.00    -0.200 F 
ATOM     75  F   UNL A   1      37.780  34.200  38.742  1.00  0.00    -0.200 F 
ENDBRANCH  41  65
BRANCH  53  76
ATOM     76  C   UNL A   1      44.573  27.681  34.677  1.00  0.00     0.064 A 
ATOM     77  C   UNL A   1      44.435  26.540  35.479  1.00  0.00     0.173 A 
ATOM     78  C   UNL A   1      45.781  28.391  34.735  1.00  0.00     0.173 A 
ATOM     79  F   UNL A   1      43.290  25.843  35.467  1.00  0.00    -0.203 F 
ATOM     80  C   UNL A   1      45.465  26.132  36.321  1.00  0.00     0.198 A 
ATOM     81  C   UNL A   1      46.815  27.970  35.565  1.00  0.00     0.198 A 
ATOM     82  F   UNL A   1      45.957  29.488  33.982  1.00  0.00    -0.203 F 
ATOM     83  F   UNL A   1      45.302  25.057  37.105  1.00  0.00    -0.200 F 
ATOM     84  C   UNL A   1      46.655  26.844  36.360  1.00  0.00     0.200 A 
ATOM     85  F   UNL A   1      47.966  28.656  35.600  1.00  0.00    -0.200 F 
ATOM     86  F   UNL A   1      47.646  26.449  37.171  1.00  0.00    -0.200 F 
ENDBRANCH  53  76
ENDBRANCH  27  28
ENDBRANCH  20  22
ENDBRANCH  19  20
ENDBRANCH   1  19
TORSDOF 11
ENDMDL
