MODEL 1
REMARK VINA RESULT:     -11.5      0.000      0.000
REMARK SMILES O=C(OCCOC(=O)[C@@H]1CCC(=O)N1C(=O)/C=C/c1ccccc1)c1ccc(-c2c3nc(c(-c4c(F)c(F)c(F)c(F)c4F)c4ccc([nH]4)c(-c4c(F)c(F)c(F)c(F)c4F)c4nc(c(-c5c(F)c(F)c(F)c(F)c5F)c5ccc2[nH]5)C=C4)C=C3)cc1
REMARK SMILES IDX 5 1 4 2 3 3 2 4 1 5 25 6 26 7 87 8 27 9 86 10 28 11 29 12
REMARK SMILES IDX 30 13 80 14 31 15 85 16 79 17 81 18 32 19 84 20 78 21 77 22
REMARK SMILES IDX 33 24 65 25 45 26 64 27 46 28 49 29 63 30 82 31 47 32 48 33
REMARK SMILES IDX 62 35 83 36 50 37 34 38 35 39 43 40 36 41 37 42 41 43 44 44
REMARK SMILES IDX 38 45 39 46 42 47 40 48 66 49 67 50 75 51 68 52 69 53 73 54
REMARK SMILES IDX 76 55 70 56 71 57 74 58 72 59 51 60 52 61 60 62 53 63 54 64
REMARK SMILES IDX 58 65 61 66 55 67 56 68 59 69 57 70 6 71 7 72 8 73 9 74
REMARK SMILES IDX 10 75 14 76 11 77 12 78 13 79 15 80 16 81 17 82 18 83 19 84
REMARK SMILES IDX 20 85 24 86 21 87 23 88 22 89
REMARK H PARENT 81 23 49 34
REMARK Flexibility Score: inf
ROOT
ATOM      1  C   UNL A   1      31.784  29.627  26.947  1.00  0.00     0.274 C 
ENDROOT
BRANCH   1   2
ATOM      2  C   UNL A   1      32.256  30.924  26.291  1.00  0.00     0.275 C 
BRANCH   2   3
ATOM      3  O   UNL A   1      32.438  32.000  27.230  1.00  0.00    -0.458 OA
BRANCH   3   4
ATOM      4  C   UNL A   1      33.563  32.653  27.604  1.00  0.00     0.338 C 
ATOM      5  O   UNL A   1      33.675  33.842  27.309  1.00  0.00    -0.246 OA
BRANCH   4   6
ATOM      6  C   UNL A   1      34.766  31.982  28.200  1.00  0.00     0.060 A 
ATOM      7  C   UNL A   1      34.869  30.650  28.600  1.00  0.00     0.016 A 
ATOM      8  C   UNL A   1      35.910  32.791  28.340  1.00  0.00     0.016 A 
ATOM      9  C   UNL A   1      36.088  30.116  29.033  1.00  0.00     0.010 A 
ATOM     10  C   UNL A   1      37.142  32.259  28.734  1.00  0.00     0.010 A 
ATOM     11  C   UNL A   1      37.232  30.914  29.098  1.00  0.00    -0.014 A 
BRANCH  11  12
ATOM     12  C   UNL A   1      38.452  30.389  29.750  1.00  0.00     0.031 A 
ATOM     13  C   UNL A   1      38.726  30.817  31.165  1.00  0.00     0.074 A 
ATOM     14  C   UNL A   1      39.260  29.514  29.123  1.00  0.00     0.049 A 
ATOM     15  N   UNL A   1      39.693  30.463  31.971  1.00  0.00    -0.248 NA
ATOM     16  C   UNL A   1      37.780  31.782  31.749  1.00  0.00     0.031 C 
ATOM     17  C   UNL A   1      39.079  29.016  27.760  1.00  0.00     0.029 A 
ATOM     18  N   UNL A   1      40.393  28.877  29.563  1.00  0.00    -0.354 N 
ATOM     19  C   UNL A   1      39.464  31.158  33.150  1.00  0.00     0.074 A 
ATOM     20  C   UNL A   1      38.315  32.007  32.936  1.00  0.00     0.031 C 
ATOM     21  C   UNL A   1      40.060  28.140  27.479  1.00  0.00     0.029 A 
ATOM     22  C   UNL A   1      40.943  28.022  28.637  1.00  0.00     0.049 A 
ATOM     23  H   UNL A   1      40.777  29.018  30.459  1.00  0.00     0.167 HD
ATOM     24  C   UNL A   1      40.131  31.071  34.324  1.00  0.00     0.037 A 
ATOM     25  C   UNL A   1      42.028  27.230  28.730  1.00  0.00     0.037 A 
ATOM     26  C   UNL A   1      41.266  30.222  34.535  1.00  0.00     0.049 A 
ATOM     27  C   UNL A   1      42.788  27.191  30.034  1.00  0.00     0.074 A 
ATOM     28  C   UNL A   1      42.028  30.060  35.676  1.00  0.00     0.029 A 
ATOM     29  N   UNL A   1      41.806  29.388  33.565  1.00  0.00    -0.354 N 
ATOM     30  N   UNL A   1      42.538  27.819  31.158  1.00  0.00    -0.248 NA
ATOM     31  C   UNL A   1      43.973  26.323  30.086  1.00  0.00     0.031 C 
ATOM     32  C   UNL A   1      43.052  29.150  35.386  1.00  0.00     0.029 A 
ATOM     33  C   UNL A   1      42.900  28.715  34.077  1.00  0.00     0.049 A 
ATOM     34  H   UNL A   1      41.459  29.289  32.648  1.00  0.00     0.167 HD
ATOM     35  C   UNL A   1      43.509  27.397  32.059  1.00  0.00     0.074 A 
ATOM     36  C   UNL A   1      44.346  26.449  31.352  1.00  0.00     0.031 C 
ATOM     37  C   UNL A   1      43.697  27.760  33.352  1.00  0.00     0.037 A 
BRANCH  24  38
ATOM     38  C   UNL A   1      39.634  31.935  35.446  1.00  0.00     0.064 A 
ATOM     39  C   UNL A   1      40.166  33.214  35.674  1.00  0.00     0.173 A 
ATOM     40  C   UNL A   1      38.660  31.459  36.334  1.00  0.00     0.173 A 
ATOM     41  F   UNL A   1      41.122  33.702  34.869  1.00  0.00    -0.203 F 
ATOM     42  C   UNL A   1      39.773  33.966  36.779  1.00  0.00     0.198 A 
ATOM     43  C   UNL A   1      38.248  32.226  37.419  1.00  0.00     0.198 A 
ATOM     44  F   UNL A   1      38.125  30.241  36.162  1.00  0.00    -0.203 F 
ATOM     45  F   UNL A   1      40.351  35.151  37.021  1.00  0.00    -0.200 F 
ATOM     46  C   UNL A   1      38.814  33.472  37.649  1.00  0.00     0.200 A 
ATOM     47  F   UNL A   1      37.318  31.749  38.260  1.00  0.00    -0.200 F 
ATOM     48  F   UNL A   1      38.448  34.189  38.721  1.00  0.00    -0.200 F 
ENDBRANCH  24  38
BRANCH  25  49
ATOM     49  C   UNL A   1      42.455  26.389  27.578  1.00  0.00     0.064 A 
ATOM     50  C   UNL A   1      41.889  25.125  27.354  1.00  0.00     0.173 A 
ATOM     51  C   UNL A   1      43.465  26.811  26.701  1.00  0.00     0.173 A 
ATOM     52  F   UNL A   1      40.937  24.664  28.176  1.00  0.00    -0.203 F 
ATOM     53  C   UNL A   1      42.339  24.305  26.319  1.00  0.00     0.198 A 
ATOM     54  C   UNL A   1      43.896  26.002  25.651  1.00  0.00     0.198 A 
ATOM     55  F   UNL A   1      44.042  28.011  26.869  1.00  0.00    -0.203 F 
ATOM     56  F   UNL A   1      41.821  23.078  26.167  1.00  0.00    -0.200 F 
ATOM     57  C   UNL A   1      43.340  24.745  25.467  1.00  0.00     0.200 A 
ATOM     58  F   UNL A   1      44.861  26.433  24.827  1.00  0.00    -0.200 F 
ATOM     59  F   UNL A   1      43.781  23.952  24.480  1.00  0.00    -0.200 F 
ENDBRANCH  25  49
BRANCH  37  60
ATOM     60  C   UNL A   1      44.819  27.102  34.097  1.00  0.00     0.064 A 
ATOM     61  C   UNL A   1      46.105  27.660  34.129  1.00  0.00     0.173 A 
ATOM     62  C   UNL A   1      44.584  25.942  34.852  1.00  0.00     0.173 A 
ATOM     63  F   UNL A   1      46.381  28.761  33.414  1.00  0.00    -0.203 F 
ATOM     64  C   UNL A   1      47.120  27.070  34.876  1.00  0.00     0.198 A 
ATOM     65  C   UNL A   1      45.593  25.373  35.620  1.00  0.00     0.198 A 
ATOM     66  F   UNL A   1      43.366  25.377  34.860  1.00  0.00    -0.203 F 
ATOM     67  F   UNL A   1      48.352  27.599  34.865  1.00  0.00    -0.200 F 
ATOM     68  C   UNL A   1      46.861  25.933  35.628  1.00  0.00     0.200 A 
ATOM     69  F   UNL A   1      45.337  24.284  36.360  1.00  0.00    -0.200 F 
ATOM     70  F   UNL A   1      47.836  25.378  36.361  1.00  0.00    -0.200 F 
ENDBRANCH  37  60
ENDBRANCH  11  12
ENDBRANCH   4   6
ENDBRANCH   3   4
ENDBRANCH   2   3
ENDBRANCH   1   2
BRANCH   1  71
ATOM     71  O   UNL A   1      32.486  28.492  26.418  1.00  0.00    -0.461 OA
BRANCH  71  72
ATOM     72  C   UNL A   1      32.158  28.106  25.154  1.00  0.00     0.329 C 
ATOM     73  O   UNL A   1      31.016  27.965  24.734  1.00  0.00    -0.250 OA
BRANCH  72  74
ATOM     74  C   UNL A   1      33.416  27.897  24.308  1.00  0.00     0.204 C 
ATOM     75  C   UNL A   1      33.456  28.931  23.192  1.00  0.00     0.047 C 
ATOM     76  N   UNL A   1      33.316  26.633  23.603  1.00  0.00    -0.265 N 
ATOM     77  C   UNL A   1      34.118  28.200  22.055  1.00  0.00     0.103 C 
ATOM     78  C   UNL A   1      33.568  26.817  22.228  1.00  0.00     0.230 C 
ATOM     79  O   UNL A   1      33.430  26.039  21.299  1.00  0.00    -0.274 OA
BRANCH  76  80
ATOM     80  C   UNL A   1      33.314  25.457  24.343  1.00  0.00     0.253 C 
ATOM     81  O   UNL A   1      32.309  24.766  24.499  1.00  0.00    -0.269 OA
BRANCH  80  82
ATOM     82  C   UNL A   1      34.620  24.989  24.845  1.00  0.00     0.072 C 
ATOM     83  C   UNL A   1      35.252  23.949  24.283  1.00  0.00     0.014 C 
BRANCH  83  84
ATOM     84  C   UNL A   1      36.379  23.226  24.895  1.00  0.00    -0.025 A 
ATOM     85  C   UNL A   1      37.219  23.936  25.767  1.00  0.00     0.008 A 
ATOM     86  C   UNL A   1      36.716  21.904  24.576  1.00  0.00     0.008 A 
ATOM     87  C   UNL A   1      38.370  23.344  26.294  1.00  0.00     0.001 A 
ATOM     88  C   UNL A   1      37.869  21.314  25.101  1.00  0.00     0.001 A 
ATOM     89  C   UNL A   1      38.697  22.034  25.957  1.00  0.00     0.000 A 
ENDBRANCH  83  84
ENDBRANCH  80  82
ENDBRANCH  76  80
ENDBRANCH  72  74
ENDBRANCH  71  72
ENDBRANCH   1  71
TORSDOF 14
ENDMDL
MODEL 2
REMARK VINA RESULT:     -11.5      4.079      9.300
REMARK SMILES O=C(OCCOC(=O)[C@@H]1CCC(=O)N1C(=O)/C=C/c1ccccc1)c1ccc(-c2c3nc(c(-c4c(F)c(F)c(F)c(F)c4F)c4ccc([nH]4)c(-c4c(F)c(F)c(F)c(F)c4F)c4nc(c(-c5c(F)c(F)c(F)c(F)c5F)c5ccc2[nH]5)C=C4)C=C3)cc1
REMARK SMILES IDX 5 1 4 2 3 3 2 4 1 5 25 6 26 7 87 8 27 9 86 10 28 11 29 12
REMARK SMILES IDX 30 13 80 14 31 15 85 16 79 17 81 18 32 19 84 20 78 21 77 22
REMARK SMILES IDX 33 24 65 25 45 26 64 27 46 28 49 29 63 30 82 31 47 32 48 33
REMARK SMILES IDX 62 35 83 36 50 37 34 38 35 39 43 40 36 41 37 42 41 43 44 44
REMARK SMILES IDX 38 45 39 46 42 47 40 48 66 49 67 50 75 51 68 52 69 53 73 54
REMARK SMILES IDX 76 55 70 56 71 57 74 58 72 59 51 60 52 61 60 62 53 63 54 64
REMARK SMILES IDX 58 65 61 66 55 67 56 68 59 69 57 70 6 71 7 72 8 73 9 74
REMARK SMILES IDX 10 75 14 76 11 77 12 78 13 79 15 80 16 81 17 82 18 83 19 84
REMARK SMILES IDX 20 85 24 86 21 87 23 88 22 89
REMARK H PARENT 81 23 49 34
REMARK Flexibility Score: inf
ROOT
ATOM      1  C   UNL A   1      36.847  22.293  23.776  1.00  0.00     0.274 C 
ENDROOT
BRANCH   1   2
ATOM      2  C   UNL A   1      37.598  21.543  24.874  1.00  0.00     0.275 C 
BRANCH   2   3
ATOM      3  O   UNL A   1      38.014  22.393  25.960  1.00  0.00    -0.458 OA
BRANCH   3   4
ATOM      4  C   UNL A   1      39.255  22.736  26.375  1.00  0.00     0.338 C 
ATOM      5  O   UNL A   1      40.095  21.846  26.508  1.00  0.00    -0.246 OA
BRANCH   4   6
ATOM      6  C   UNL A   1      39.633  24.107  26.855  1.00  0.00     0.060 A 
ATOM      7  C   UNL A   1      40.230  25.121  26.107  1.00  0.00     0.016 A 
ATOM      8  C   UNL A   1      39.319  24.391  28.199  1.00  0.00     0.016 A 
ATOM      9  C   UNL A   1      40.424  26.399  26.644  1.00  0.00     0.010 A 
ATOM     10  C   UNL A   1      39.472  25.674  28.733  1.00  0.00     0.010 A 
ATOM     11  C   UNL A   1      40.042  26.686  27.956  1.00  0.00    -0.014 A 
BRANCH  11  12
ATOM     12  C   UNL A   1      40.440  27.972  28.569  1.00  0.00     0.031 A 
ATOM     13  C   UNL A   1      41.903  28.195  28.835  1.00  0.00     0.074 A 
ATOM     14  C   UNL A   1      39.536  28.936  28.825  1.00  0.00     0.049 A 
ATOM     15  N   UNL A   1      42.513  29.247  29.314  1.00  0.00    -0.248 NA
ATOM     16  C   UNL A   1      42.801  27.070  28.522  1.00  0.00     0.031 C 
ATOM     17  C   UNL A   1      38.097  28.836  28.586  1.00  0.00     0.029 A 
ATOM     18  N   UNL A   1      39.703  30.200  29.332  1.00  0.00    -0.354 N 
ATOM     19  C   UNL A   1      43.859  28.909  29.354  1.00  0.00     0.074 A 
ATOM     20  C   UNL A   1      43.972  27.535  28.921  1.00  0.00     0.031 C 
ATOM     21  C   UNL A   1      37.512  29.996  28.936  1.00  0.00     0.029 A 
ATOM     22  C   UNL A   1      38.533  30.916  29.430  1.00  0.00     0.049 A 
ATOM     23  H   UNL A   1      40.579  30.561  29.600  1.00  0.00     0.167 HD
ATOM     24  C   UNL A   1      44.915  29.685  29.687  1.00  0.00     0.037 A 
ATOM     25  C   UNL A   1      38.325  32.176  29.859  1.00  0.00     0.037 A 
ATOM     26  C   UNL A   1      44.798  31.050  30.109  1.00  0.00     0.049 A 
ATOM     27  C   UNL A   1      39.515  33.005  30.278  1.00  0.00     0.074 A 
ATOM     28  C   UNL A   1      45.796  31.930  30.482  1.00  0.00     0.029 A 
ATOM     29  N   UNL A   1      43.594  31.733  30.216  1.00  0.00    -0.354 N 
ATOM     30  N   UNL A   1      40.789  32.691  30.269  1.00  0.00    -0.248 NA
ATOM     31  C   UNL A   1      39.240  34.369  30.751  1.00  0.00     0.031 C 
ATOM     32  C   UNL A   1      45.191  33.138  30.848  1.00  0.00     0.029 A 
ATOM     33  C   UNL A   1      43.821  33.022  30.662  1.00  0.00     0.049 A 
ATOM     34  H   UNL A   1      42.709  31.355  30.005  1.00  0.00     0.167 HD
ATOM     35  C   UNL A   1      41.468  33.825  30.700  1.00  0.00     0.074 A 
ATOM     36  C   UNL A   1      40.464  34.839  30.951  1.00  0.00     0.031 C 
ATOM     37  C   UNL A   1      42.799  34.014  30.878  1.00  0.00     0.037 A 
BRANCH  24  38
ATOM     38  C   UNL A   1      46.270  29.047  29.610  1.00  0.00     0.064 A 
ATOM     39  C   UNL A   1      47.025  29.074  28.426  1.00  0.00     0.173 A 
ATOM     40  C   UNL A   1      46.795  28.355  30.710  1.00  0.00     0.173 A 
ATOM     41  F   UNL A   1      46.552  29.699  27.337  1.00  0.00    -0.203 F 
ATOM     42  C   UNL A   1      48.235  28.390  28.333  1.00  0.00     0.198 A 
ATOM     43  C   UNL A   1      48.019  27.698  30.622  1.00  0.00     0.198 A 
ATOM     44  F   UNL A   1      46.110  28.295  31.861  1.00  0.00    -0.203 F 
ATOM     45  F   UNL A   1      48.900  28.364  27.170  1.00  0.00    -0.200 F 
ATOM     46  C   UNL A   1      48.731  27.705  29.432  1.00  0.00     0.200 A 
ATOM     47  F   UNL A   1      48.500  27.037  31.685  1.00  0.00    -0.200 F 
ATOM     48  F   UNL A   1      49.887  27.034  29.336  1.00  0.00    -0.200 F 
ENDBRANCH  24  38
BRANCH  25  49
ATOM     49  C   UNL A   1      36.951  32.747  29.896  1.00  0.00     0.064 A 
ATOM     50  C   UNL A   1      36.393  33.367  28.768  1.00  0.00     0.173 A 
ATOM     51  C   UNL A   1      36.183  32.725  31.070  1.00  0.00     0.173 A 
ATOM     52  F   UNL A   1      37.094  33.437  27.628  1.00  0.00    -0.203 F 
ATOM     53  C   UNL A   1      35.136  33.968  28.822  1.00  0.00     0.198 A 
ATOM     54  C   UNL A   1      34.915  33.303  31.115  1.00  0.00     0.198 A 
ATOM     55  F   UNL A   1      36.668  32.147  32.179  1.00  0.00    -0.203 F 
ATOM     56  F   UNL A   1      34.654  34.605  27.745  1.00  0.00    -0.200 F 
ATOM     57  C   UNL A   1      34.397  33.934  29.995  1.00  0.00     0.200 A 
ATOM     58  F   UNL A   1      34.203  33.264  32.249  1.00  0.00    -0.200 F 
ATOM     59  F   UNL A   1      33.194  34.522  30.049  1.00  0.00    -0.200 F 
ENDBRANCH  25  49
BRANCH  37  60
ATOM     60  C   UNL A   1      43.250  35.373  31.322  1.00  0.00     0.064 A 
ATOM     61  C   UNL A   1      43.598  36.369  30.399  1.00  0.00     0.173 A 
ATOM     62  C   UNL A   1      43.260  35.703  32.686  1.00  0.00     0.173 A 
ATOM     63  F   UNL A   1      43.615  36.096  29.085  1.00  0.00    -0.203 F 
ATOM     64  C   UNL A   1      43.956  37.644  30.827  1.00  0.00     0.198 A 
ATOM     65  C   UNL A   1      43.590  36.987  33.107  1.00  0.00     0.198 A 
ATOM     66  F   UNL A   1      42.926  34.786  33.607  1.00  0.00    -0.203 F 
ATOM     67  F   UNL A   1      44.319  38.572  29.930  1.00  0.00    -0.200 F 
ATOM     68  C   UNL A   1      43.942  37.954  32.179  1.00  0.00     0.200 A 
ATOM     69  F   UNL A   1      43.560  37.291  34.413  1.00  0.00    -0.200 F 
ATOM     70  F   UNL A   1      44.270  39.188  32.586  1.00  0.00    -0.200 F 
ENDBRANCH  37  60
ENDBRANCH  11  12
ENDBRANCH   4   6
ENDBRANCH   3   4
ENDBRANCH   2   3
ENDBRANCH   1   2
BRANCH   1  71
ATOM     71  O   UNL A   1      35.872  23.189  24.330  1.00  0.00    -0.461 OA
BRANCH  71  72
ATOM     72  C   UNL A   1      34.704  22.632  24.757  1.00  0.00     0.329 C 
ATOM     73  O   UNL A   1      34.037  21.823  24.125  1.00  0.00    -0.250 OA
BRANCH  72  74
ATOM     74  C   UNL A   1      34.347  23.132  26.158  1.00  0.00     0.204 C 
ATOM     75  C   UNL A   1      34.201  21.947  27.101  1.00  0.00     0.047 C 
ATOM     76  N   UNL A   1      33.020  23.720  26.134  1.00  0.00    -0.265 N 
ATOM     77  C   UNL A   1      33.126  22.386  28.059  1.00  0.00     0.103 C 
ATOM     78  C   UNL A   1      32.221  23.167  27.156  1.00  0.00     0.230 C 
ATOM     79  O   UNL A   1      31.024  23.285  27.360  1.00  0.00    -0.274 OA
BRANCH  76  80
ATOM     80  C   UNL A   1      32.818  24.878  25.395  1.00  0.00     0.253 C 
ATOM     81  O   UNL A   1      32.177  24.900  24.346  1.00  0.00    -0.269 OA
BRANCH  80  82
ATOM     82  C   UNL A   1      33.307  26.136  25.990  1.00  0.00     0.072 C 
ATOM     83  C   UNL A   1      32.468  27.016  26.553  1.00  0.00     0.014 C 
BRANCH  83  84
ATOM     84  C   UNL A   1      32.813  28.408  26.884  1.00  0.00    -0.025 A 
ATOM     85  C   UNL A   1      31.810  29.381  26.759  1.00  0.00     0.008 A 
ATOM     86  C   UNL A   1      34.108  28.826  27.217  1.00  0.00     0.008 A 
ATOM     87  C   UNL A   1      32.097  30.735  26.948  1.00  0.00     0.001 A 
ATOM     88  C   UNL A   1      34.396  30.181  27.404  1.00  0.00     0.001 A 
ATOM     89  C   UNL A   1      33.392  31.135  27.266  1.00  0.00     0.000 A 
ENDBRANCH  83  84
ENDBRANCH  80  82
ENDBRANCH  76  80
ENDBRANCH  72  74
ENDBRANCH  71  72
ENDBRANCH   1  71
TORSDOF 14
ENDMDL
MODEL 3
REMARK VINA RESULT:     -11.5      1.928      3.051
REMARK SMILES O=C(OCCOC(=O)[C@@H]1CCC(=O)N1C(=O)/C=C/c1ccccc1)c1ccc(-c2c3nc(c(-c4c(F)c(F)c(F)c(F)c4F)c4ccc([nH]4)c(-c4c(F)c(F)c(F)c(F)c4F)c4nc(c(-c5c(F)c(F)c(F)c(F)c5F)c5ccc2[nH]5)C=C4)C=C3)cc1
REMARK SMILES IDX 5 1 4 2 3 3 2 4 1 5 25 6 26 7 87 8 27 9 86 10 28 11 29 12
REMARK SMILES IDX 30 13 80 14 31 15 85 16 79 17 81 18 32 19 84 20 78 21 77 22
REMARK SMILES IDX 33 24 65 25 45 26 64 27 46 28 49 29 63 30 82 31 47 32 48 33
REMARK SMILES IDX 62 35 83 36 50 37 34 38 35 39 43 40 36 41 37 42 41 43 44 44
REMARK SMILES IDX 38 45 39 46 42 47 40 48 66 49 67 50 75 51 68 52 69 53 73 54
REMARK SMILES IDX 76 55 70 56 71 57 74 58 72 59 51 60 52 61 60 62 53 63 54 64
REMARK SMILES IDX 58 65 61 66 55 67 56 68 59 69 57 70 6 71 7 72 8 73 9 74
REMARK SMILES IDX 10 75 14 76 11 77 12 78 13 79 15 80 16 81 17 82 18 83 19 84
REMARK SMILES IDX 20 85 24 86 21 87 23 88 22 89
REMARK H PARENT 81 23 49 34
REMARK Flexibility Score: inf
ROOT
ATOM      1  C   UNL A   1      31.589  29.011  27.269  1.00  0.00     0.274 C 
ENDROOT
BRANCH   1   2
ATOM      2  C   UNL A   1      32.227  30.327  26.827  1.00  0.00     0.275 C 
BRANCH   2   3
ATOM      3  O   UNL A   1      33.667  30.291  26.837  1.00  0.00    -0.458 OA
BRANCH   3   4
ATOM      4  C   UNL A   1      34.551  30.945  27.626  1.00  0.00     0.338 C 
ATOM      5  O   UNL A   1      34.401  32.154  27.796  1.00  0.00    -0.246 OA
BRANCH   4   6
ATOM      6  C   UNL A   1      35.809  30.331  28.167  1.00  0.00     0.060 A 
ATOM      7  C   UNL A   1      35.969  29.702  29.402  1.00  0.00     0.016 A 
ATOM      8  C   UNL A   1      36.929  30.381  27.315  1.00  0.00     0.016 A 
ATOM      9  C   UNL A   1      37.168  29.064  29.740  1.00  0.00     0.010 A 
ATOM     10  C   UNL A   1      38.118  29.714  27.626  1.00  0.00     0.010 A 
ATOM     11  C   UNL A   1      38.248  29.061  28.854  1.00  0.00    -0.014 A 
BRANCH  11  12
ATOM     12  C   UNL A   1      39.565  28.564  29.309  1.00  0.00     0.031 A 
ATOM     13  C   UNL A   1      40.249  29.316  30.416  1.00  0.00     0.074 A 
ATOM     14  C   UNL A   1      40.108  27.446  28.793  1.00  0.00     0.049 A 
ATOM     15  N   UNL A   1      41.377  29.060  31.026  1.00  0.00    -0.248 NA
ATOM     16  C   UNL A   1      39.566  30.528  30.900  1.00  0.00     0.031 C 
ATOM     17  C   UNL A   1      39.523  26.628  27.731  1.00  0.00     0.029 A 
ATOM     18  N   UNL A   1      41.276  26.798  29.108  1.00  0.00    -0.354 N 
ATOM     19  C   UNL A   1      41.531  30.074  31.961  1.00  0.00     0.074 A 
ATOM     20  C   UNL A   1      40.424  30.987  31.794  1.00  0.00     0.031 C 
ATOM     21  C   UNL A   1      40.329  25.579  27.491  1.00  0.00     0.029 A 
ATOM     22  C   UNL A   1      41.490  25.655  28.374  1.00  0.00     0.049 A 
ATOM     23  H   UNL A   1      41.902  27.120  29.796  1.00  0.00     0.167 HD
ATOM     24  C   UNL A   1      42.491  30.214  32.903  1.00  0.00     0.037 A 
ATOM     25  C   UNL A   1      42.505  24.771  28.429  1.00  0.00     0.037 A 
ATOM     26  C   UNL A   1      43.584  29.302  33.070  1.00  0.00     0.049 A 
ATOM     27  C   UNL A   1      43.594  24.979  29.453  1.00  0.00     0.074 A 
ATOM     28  C   UNL A   1      44.621  29.348  33.981  1.00  0.00     0.029 A 
ATOM     29  N   UNL A   1      43.776  28.167  32.293  1.00  0.00    -0.354 N 
ATOM     30  N   UNL A   1      43.708  25.917  30.363  1.00  0.00    -0.248 NA
ATOM     31  C   UNL A   1      44.688  23.998  29.468  1.00  0.00     0.031 C 
ATOM     32  C   UNL A   1      45.463  28.258  33.733  1.00  0.00     0.029 A 
ATOM     33  C   UNL A   1      44.925  27.511  32.695  1.00  0.00     0.049 A 
ATOM     34  H   UNL A   1      43.183  27.874  31.563  1.00  0.00     0.167 HD
ATOM     35  C   UNL A   1      44.862  25.621  31.079  1.00  0.00     0.074 A 
ATOM     36  C   UNL A   1      45.407  24.408  30.504  1.00  0.00     0.031 C 
ATOM     37  C   UNL A   1      45.425  26.290  32.115  1.00  0.00     0.037 A 
BRANCH  24  38
ATOM     38  C   UNL A   1      42.383  31.411  33.801  1.00  0.00     0.064 A 
ATOM     39  C   UNL A   1      41.644  31.366  34.995  1.00  0.00     0.173 A 
ATOM     40  C   UNL A   1      42.974  32.630  33.438  1.00  0.00     0.173 A 
ATOM     41  F   UNL A   1      41.036  30.231  35.370  1.00  0.00    -0.203 F 
ATOM     42  C   UNL A   1      41.464  32.511  35.768  1.00  0.00     0.198 A 
ATOM     43  C   UNL A   1      42.816  33.763  34.230  1.00  0.00     0.198 A 
ATOM     44  F   UNL A   1      43.684  32.726  32.305  1.00  0.00    -0.203 F 
ATOM     45  F   UNL A   1      40.690  32.463  36.862  1.00  0.00    -0.200 F 
ATOM     46  C   UNL A   1      42.051  33.707  35.386  1.00  0.00     0.200 A 
ATOM     47  F   UNL A   1      43.386  34.920  33.861  1.00  0.00    -0.200 F 
ATOM     48  F   UNL A   1      41.863  34.811  36.122  1.00  0.00    -0.200 F 
ENDBRANCH  24  38
BRANCH  25  49
ATOM     49  C   UNL A   1      42.539  23.598  27.513  1.00  0.00     0.064 A 
ATOM     50  C   UNL A   1      42.023  22.355  27.908  1.00  0.00     0.173 A 
ATOM     51  C   UNL A   1      43.125  23.681  26.241  1.00  0.00     0.173 A 
ATOM     52  F   UNL A   1      41.474  22.214  29.123  1.00  0.00    -0.203 F 
ATOM     53  C   UNL A   1      42.120  21.235  27.081  1.00  0.00     0.198 A 
ATOM     54  C   UNL A   1      43.198  22.569  25.404  1.00  0.00     0.198 A 
ATOM     55  F   UNL A   1      43.635  24.845  25.812  1.00  0.00    -0.203 F 
ATOM     56  F   UNL A   1      41.672  20.048  27.510  1.00  0.00    -0.200 F 
ATOM     57  C   UNL A   1      42.705  21.344  25.829  1.00  0.00     0.200 A 
ATOM     58  F   UNL A   1      43.761  22.679  24.193  1.00  0.00    -0.200 F 
ATOM     59  F   UNL A   1      42.809  20.266  25.039  1.00  0.00    -0.200 F 
ENDBRANCH  25  49
BRANCH  37  60
ATOM     60  C   UNL A   1      46.667  25.707  32.721  1.00  0.00     0.064 A 
ATOM     61  C   UNL A   1      46.605  24.797  33.786  1.00  0.00     0.173 A 
ATOM     62  C   UNL A   1      47.925  26.003  32.176  1.00  0.00     0.173 A 
ATOM     63  F   UNL A   1      45.425  24.493  34.348  1.00  0.00    -0.203 F 
ATOM     64  C   UNL A   1      47.763  24.218  34.296  1.00  0.00     0.198 A 
ATOM     65  C   UNL A   1      49.077  25.399  32.670  1.00  0.00     0.198 A 
ATOM     66  F   UNL A   1      48.034  26.860  31.149  1.00  0.00    -0.203 F 
ATOM     67  F   UNL A   1      47.686  23.377  35.338  1.00  0.00    -0.200 F 
ATOM     68  C   UNL A   1      48.996  24.511  33.731  1.00  0.00     0.200 A 
ATOM     69  F   UNL A   1      50.266  25.670  32.113  1.00  0.00    -0.200 F 
ATOM     70  F   UNL A   1      50.107  23.937  34.214  1.00  0.00    -0.200 F 
ENDBRANCH  37  60
ENDBRANCH  11  12
ENDBRANCH   4   6
ENDBRANCH   3   4
ENDBRANCH   2   3
ENDBRANCH   1   2
BRANCH   1  71
ATOM     71  O   UNL A   1      32.224  27.887  26.639  1.00  0.00    -0.461 OA
BRANCH  71  72
ATOM     72  C   UNL A   1      31.994  27.726  25.305  1.00  0.00     0.329 C 
ATOM     73  O   UNL A   1      30.889  27.693  24.779  1.00  0.00    -0.250 OA
BRANCH  72  74
ATOM     74  C   UNL A   1      33.314  27.621  24.538  1.00  0.00     0.204 C 
ATOM     75  C   UNL A   1      33.405  28.752  23.525  1.00  0.00     0.047 C 
ATOM     76  N   UNL A   1      33.299  26.424  23.719  1.00  0.00    -0.265 N 
ATOM     77  C   UNL A   1      34.166  28.141  22.378  1.00  0.00     0.103 C 
ATOM     78  C   UNL A   1      33.642  26.737  22.388  1.00  0.00     0.230 C 
ATOM     79  O   UNL A   1      33.591  26.043  21.386  1.00  0.00    -0.274 OA
BRANCH  76  80
ATOM     80  C   UNL A   1      33.277  25.187  24.350  1.00  0.00     0.253 C 
ATOM     81  O   UNL A   1      32.280  24.468  24.379  1.00  0.00    -0.269 OA
BRANCH  80  82
ATOM     82  C   UNL A   1      34.558  24.696  24.892  1.00  0.00     0.072 C 
ATOM     83  C   UNL A   1      35.416  23.998  24.134  1.00  0.00     0.014 C 
BRANCH  83  84
ATOM     84  C   UNL A   1      36.547  23.216  24.658  1.00  0.00    -0.025 A 
ATOM     85  C   UNL A   1      36.664  21.877  24.254  1.00  0.00     0.008 A 
ATOM     86  C   UNL A   1      37.451  23.704  25.611  1.00  0.00     0.008 A 
ATOM     87  C   UNL A   1      37.646  21.046  24.797  1.00  0.00     0.001 A 
ATOM     88  C   UNL A   1      38.432  22.871  26.157  1.00  0.00     0.001 A 
ATOM     89  C   UNL A   1      38.528  21.543  25.752  1.00  0.00     0.000 A 
ENDBRANCH  83  84
ENDBRANCH  80  82
ENDBRANCH  76  80
ENDBRANCH  72  74
ENDBRANCH  71  72
ENDBRANCH   1  71
TORSDOF 14
ENDMDL
