MODEL 1
REMARK VINA RESULT:     -10.6      0.000      0.000
REMARK SMILES CCC1(CC)C[NH+](C2(C(=O)OCCOC(=O)c3ccc(-c4c5nc(c(-c6c(F)c(F)c(F)c(F)c6F)c6ccc([nH]6)c(-c6c(F)c(F)c(F)c(F)c6F)c6nc(c(-c7c(F)c(F)c(F)c(F)c7F)c7ccc4[nH]7)C=C6)C=C5)cc3)CC2)C1
REMARK SMILES IDX 12 1 11 2 9 3 10 4 8 5 80 6 81 7 7 8 3 9 6 10 82 11 2 13
REMARK SMILES IDX 1 14 4 15 5 16 13 17 14 18 15 19 16 20 17 21 18 22 79 23
REMARK SMILES IDX 19 24 78 25 20 26 21 27 22 28 72 29 23 30 77 31 71 32 73 33
REMARK SMILES IDX 24 34 76 35 70 36 69 37 25 39 57 40 37 41 56 42 38 43 41 44
REMARK SMILES IDX 55 45 74 46 39 47 40 48 54 50 75 51 42 52 26 53 27 54 35 55
REMARK SMILES IDX 28 56 29 57 33 58 36 59 30 60 31 61 34 62 32 63 58 64 59 65
REMARK SMILES IDX 67 66 60 67 61 68 65 69 68 70 62 71 63 72 66 73 64 74 43 75
REMARK SMILES IDX 44 76 52 77 45 78 46 79 50 80 53 81 47 82 48 83 51 84 49 85
REMARK H PARENT 7 12 73 38 41 49
REMARK Flexibility Score: inf
ROOT
ATOM      1  C   UNL A   1      35.169  21.261  26.107  1.00  0.00     0.274 C 
ENDROOT
BRANCH   1   2
ATOM      2  O   UNL A   1      34.632  22.559  25.798  1.00  0.00    -0.457 OA
BRANCH   2   3
ATOM      3  C   UNL A   1      33.375  22.589  25.265  1.00  0.00     0.368 C 
ATOM      4  O   UNL A   1      32.467  21.822  25.531  1.00  0.00    -0.245 OA
BRANCH   3   5
ATOM      5  C   UNL A   1      33.209  23.728  24.271  1.00  0.00     0.196 C 
ATOM      6  C   UNL A   1      33.294  23.344  22.801  1.00  0.00     0.088 C 
ATOM      7  C   UNL A   1      34.404  24.131  23.421  1.00  0.00     0.088 C 
BRANCH   5   8
ATOM      8  N   UNL A   1      32.222  24.716  24.777  1.00  0.00    -0.319 N 
ATOM      9  C   UNL A   1      32.479  26.634  25.685  1.00  0.00     0.068 C 
ATOM     10  C   UNL A   1      32.281  25.163  26.164  1.00  0.00     0.276 C 
ATOM     11  C   UNL A   1      32.219  26.076  24.250  1.00  0.00     0.276 C 
ATOM     12  H   UNL A   1      31.461  24.093  24.506  1.00  0.00     0.349 HD
BRANCH   9  13
ATOM     13  C   UNL A   1      31.376  27.606  26.147  1.00  0.00     0.015 C 
ATOM     14  C   UNL A   1      31.464  27.940  27.629  1.00  0.00     0.005 C 
ENDBRANCH   9  13
BRANCH   9  15
ATOM     15  C   UNL A   1      33.916  27.132  25.920  1.00  0.00     0.015 C 
ATOM     16  C   UNL A   1      34.063  28.632  25.733  1.00  0.00     0.005 C 
ENDBRANCH   9  15
ENDBRANCH   5   8
ENDBRANCH   3   5
ENDBRANCH   2   3
ENDBRANCH   1   2
BRANCH   1  17
ATOM     17  C   UNL A   1      36.176  20.863  25.033  1.00  0.00     0.275 C 
BRANCH  17  18
ATOM     18  O   UNL A   1      37.258  21.812  25.022  1.00  0.00    -0.458 OA
BRANCH  18  19
ATOM     19  C   UNL A   1      38.380  21.418  25.664  1.00  0.00     0.338 C 
ATOM     20  O   UNL A   1      38.884  20.308  25.677  1.00  0.00    -0.246 OA
BRANCH  19  21
ATOM     21  C   UNL A   1      38.969  22.558  26.382  1.00  0.00     0.060 A 
ATOM     22  C   UNL A   1      38.482  23.839  26.146  1.00  0.00     0.016 A 
ATOM     23  C   UNL A   1      40.124  22.376  27.141  1.00  0.00     0.016 A 
ATOM     24  C   UNL A   1      39.233  24.944  26.540  1.00  0.00     0.010 A 
ATOM     25  C   UNL A   1      40.797  23.491  27.653  1.00  0.00     0.010 A 
ATOM     26  C   UNL A   1      40.392  24.796  27.316  1.00  0.00    -0.014 A 
BRANCH  26  27
ATOM     27  C   UNL A   1      41.191  25.987  27.744  1.00  0.00     0.031 A 
ATOM     28  C   UNL A   1      40.577  27.052  28.622  1.00  0.00     0.074 A 
ATOM     29  C   UNL A   1      42.474  26.131  27.353  1.00  0.00     0.049 A 
ATOM     30  N   UNL A   1      41.019  28.254  28.905  1.00  0.00    -0.248 NA
ATOM     31  C   UNL A   1      39.286  26.734  29.252  1.00  0.00     0.031 C 
ATOM     32  C   UNL A   1      43.228  25.175  26.541  1.00  0.00     0.029 A 
ATOM     33  N   UNL A   1      43.379  27.141  27.589  1.00  0.00    -0.354 N 
ATOM     34  C   UNL A   1      40.029  28.858  29.672  1.00  0.00     0.074 A 
ATOM     35  C   UNL A   1      38.965  27.887  29.820  1.00  0.00     0.031 C 
ATOM     36  C   UNL A   1      44.486  25.611  26.393  1.00  0.00     0.029 A 
ATOM     37  C   UNL A   1      44.598  26.935  26.991  1.00  0.00     0.049 A 
ATOM     38  H   UNL A   1      43.171  27.934  28.134  1.00  0.00     0.167 HD
ATOM     39  C   UNL A   1      40.009  30.108  30.197  1.00  0.00     0.037 A 
ATOM     40  C   UNL A   1      45.674  27.738  26.875  1.00  0.00     0.037 A 
ATOM     41  C   UNL A   1      41.106  31.041  30.120  1.00  0.00     0.049 A 
ATOM     42  C   UNL A   1      45.623  29.122  27.452  1.00  0.00     0.074 A 
ATOM     43  C   UNL A   1      41.196  32.314  30.659  1.00  0.00     0.029 A 
ATOM     44  N   UNL A   1      42.311  30.796  29.480  1.00  0.00    -0.354 N 
ATOM     45  N   UNL A   1      44.658  29.706  28.117  1.00  0.00    -0.248 NA
ATOM     46  C   UNL A   1      46.805  29.970  27.240  1.00  0.00     0.031 C 
ATOM     47  C   UNL A   1      42.438  32.855  30.309  1.00  0.00     0.029 A 
ATOM     48  C   UNL A   1      43.143  31.900  29.597  1.00  0.00     0.049 A 
ATOM     49  H   UNL A   1      42.543  29.961  29.012  1.00  0.00     0.167 HD
ATOM     50  C   UNL A   1      45.115  30.982  28.410  1.00  0.00     0.074 A 
ATOM     51  C   UNL A   1      46.456  31.080  27.873  1.00  0.00     0.031 C 
ATOM     52  C   UNL A   1      44.477  31.986  29.059  1.00  0.00     0.037 A 
BRANCH  39  53
ATOM     53  C   UNL A   1      38.751  30.570  30.878  1.00  0.00     0.064 A 
ATOM     54  C   UNL A   1      38.598  30.547  32.271  1.00  0.00     0.173 A 
ATOM     55  C   UNL A   1      37.701  31.112  30.115  1.00  0.00     0.173 A 
ATOM     56  F   UNL A   1      39.565  30.034  33.047  1.00  0.00    -0.203 F 
ATOM     57  C   UNL A   1      37.436  31.027  32.873  1.00  0.00     0.198 A 
ATOM     58  C   UNL A   1      36.555  31.619  30.722  1.00  0.00     0.198 A 
ATOM     59  F   UNL A   1      37.798  31.170  28.778  1.00  0.00    -0.203 F 
ATOM     60  F   UNL A   1      37.297  30.957  34.205  1.00  0.00    -0.200 F 
ATOM     61  C   UNL A   1      36.420  31.570  32.100  1.00  0.00     0.200 A 
ATOM     62  F   UNL A   1      35.584  32.159  29.973  1.00  0.00    -0.200 F 
ATOM     63  F   UNL A   1      35.311  32.044  32.684  1.00  0.00    -0.200 F 
ENDBRANCH  39  53
BRANCH  40  64
ATOM     64  C   UNL A   1      46.868  27.266  26.124  1.00  0.00     0.064 A 
ATOM     65  C   UNL A   1      47.019  27.540  24.758  1.00  0.00     0.173 A 
ATOM     66  C   UNL A   1      47.891  26.545  26.761  1.00  0.00     0.173 A 
ATOM     67  F   UNL A   1      46.056  28.200  24.098  1.00  0.00    -0.203 F 
ATOM     68  C   UNL A   1      48.142  27.106  24.057  1.00  0.00     0.198 A 
ATOM     69  C   UNL A   1      49.030  26.145  26.067  1.00  0.00     0.198 A 
ATOM     70  F   UNL A   1      47.795  26.253  28.066  1.00  0.00    -0.203 F 
ATOM     71  F   UNL A   1      48.241  27.344  22.742  1.00  0.00    -0.200 F 
ATOM     72  C   UNL A   1      49.151  26.419  24.715  1.00  0.00     0.200 A 
ATOM     73  F   UNL A   1      50.010  25.498  26.713  1.00  0.00    -0.200 F 
ATOM     74  F   UNL A   1      50.238  26.016  24.043  1.00  0.00    -0.200 F 
ENDBRANCH  40  64
BRANCH  52  75
ATOM     75  C   UNL A   1      45.237  33.264  29.255  1.00  0.00     0.064 A 
ATOM     76  C   UNL A   1      46.062  33.466  30.371  1.00  0.00     0.173 A 
ATOM     77  C   UNL A   1      45.152  34.293  28.305  1.00  0.00     0.173 A 
ATOM     78  F   UNL A   1      46.163  32.520  31.317  1.00  0.00    -0.203 F 
ATOM     79  C   UNL A   1      46.750  34.664  30.544  1.00  0.00     0.198 A 
ATOM     80  C   UNL A   1      45.864  35.478  28.467  1.00  0.00     0.198 A 
ATOM     81  F   UNL A   1      44.380  34.147  27.218  1.00  0.00    -0.203 F 
ATOM     82  F   UNL A   1      47.491  34.856  31.645  1.00  0.00    -0.200 F 
ATOM     83  C   UNL A   1      46.656  35.666  29.589  1.00  0.00     0.200 A 
ATOM     84  F   UNL A   1      45.781  36.441  27.538  1.00  0.00    -0.200 F 
ATOM     85  F   UNL A   1      47.320  36.818  29.757  1.00  0.00    -0.200 F 
ENDBRANCH  52  75
ENDBRANCH  26  27
ENDBRANCH  19  21
ENDBRANCH  18  19
ENDBRANCH  17  18
ENDBRANCH   1  17
TORSDOF 14
ENDMDL
MODEL 2
REMARK VINA RESULT:     -10.4      0.837      2.429
REMARK SMILES CCC1(CC)C[NH+](C2(C(=O)OCCOC(=O)c3ccc(-c4c5nc(c(-c6c(F)c(F)c(F)c(F)c6F)c6ccc([nH]6)c(-c6c(F)c(F)c(F)c(F)c6F)c6nc(c(-c7c(F)c(F)c(F)c(F)c7F)c7ccc4[nH]7)C=C6)C=C5)cc3)CC2)C1
REMARK SMILES IDX 12 1 11 2 9 3 10 4 8 5 80 6 81 7 7 8 3 9 6 10 82 11 2 13
REMARK SMILES IDX 1 14 4 15 5 16 13 17 14 18 15 19 16 20 17 21 18 22 79 23
REMARK SMILES IDX 19 24 78 25 20 26 21 27 22 28 72 29 23 30 77 31 71 32 73 33
REMARK SMILES IDX 24 34 76 35 70 36 69 37 25 39 57 40 37 41 56 42 38 43 41 44
REMARK SMILES IDX 55 45 74 46 39 47 40 48 54 50 75 51 42 52 26 53 27 54 35 55
REMARK SMILES IDX 28 56 29 57 33 58 36 59 30 60 31 61 34 62 32 63 58 64 59 65
REMARK SMILES IDX 67 66 60 67 61 68 65 69 68 70 62 71 63 72 66 73 64 74 43 75
REMARK SMILES IDX 44 76 52 77 45 78 46 79 50 80 53 81 47 82 48 83 51 84 49 85
REMARK H PARENT 7 12 73 38 41 49
REMARK Flexibility Score: inf
ROOT
ATOM      1  C   UNL A   1      35.740  20.348  25.047  1.00  0.00     0.274 C 
ENDROOT
BRANCH   1   2
ATOM      2  O   UNL A   1      34.864  21.361  24.522  1.00  0.00    -0.457 OA
BRANCH   2   3
ATOM      3  C   UNL A   1      33.664  21.518  25.157  1.00  0.00     0.368 C 
ATOM      4  O   UNL A   1      32.715  20.757  25.091  1.00  0.00    -0.245 OA
BRANCH   3   5
ATOM      5  C   UNL A   1      33.631  22.784  25.997  1.00  0.00     0.196 C 
ATOM      6  C   UNL A   1      34.033  22.624  27.456  1.00  0.00     0.088 C 
ATOM      7  C   UNL A   1      32.603  22.889  27.113  1.00  0.00     0.088 C 
BRANCH   5   8
ATOM      8  N   UNL A   1      34.046  23.956  25.184  1.00  0.00    -0.319 N 
ATOM      9  C   UNL A   1      32.986  25.716  24.595  1.00  0.00     0.068 C 
ATOM     10  C   UNL A   1      33.299  24.315  23.985  1.00  0.00     0.276 C 
ATOM     11  C   UNL A   1      33.955  25.300  25.745  1.00  0.00     0.276 C 
ATOM     12  H   UNL A   1      34.972  23.546  25.067  1.00  0.00     0.349 HD
BRANCH   9  13
ATOM     13  C   UNL A   1      33.524  26.902  23.771  1.00  0.00     0.015 C 
ATOM     14  C   UNL A   1      32.439  27.611  22.975  1.00  0.00     0.005 C 
ENDBRANCH   9  13
BRANCH   9  15
ATOM     15  C   UNL A   1      31.513  25.846  25.023  1.00  0.00     0.015 C 
ATOM     16  C   UNL A   1      31.329  26.698  26.267  1.00  0.00     0.005 C 
ENDBRANCH   9  15
ENDBRANCH   5   8
ENDBRANCH   3   5
ENDBRANCH   2   3
ENDBRANCH   1   2
BRANCH   1  17
ATOM     17  C   UNL A   1      37.185  20.716  24.725  1.00  0.00     0.275 C 
BRANCH  17  18
ATOM     18  O   UNL A   1      37.677  21.629  25.723  1.00  0.00    -0.458 OA
BRANCH  18  19
ATOM     19  C   UNL A   1      38.961  21.438  26.098  1.00  0.00     0.338 C 
ATOM     20  O   UNL A   1      39.639  20.434  25.963  1.00  0.00    -0.246 OA
BRANCH  19  21
ATOM     21  C   UNL A   1      39.485  22.665  26.718  1.00  0.00     0.060 A 
ATOM     22  C   UNL A   1      39.007  23.900  26.297  1.00  0.00     0.016 A 
ATOM     23  C   UNL A   1      40.583  22.592  27.575  1.00  0.00     0.016 A 
ATOM     24  C   UNL A   1      39.717  25.057  26.612  1.00  0.00     0.010 A 
ATOM     25  C   UNL A   1      41.206  23.771  27.999  1.00  0.00     0.010 A 
ATOM     26  C   UNL A   1      40.817  25.020  27.482  1.00  0.00    -0.014 A 
BRANCH  26  27
ATOM     27  C   UNL A   1      41.572  26.267  27.823  1.00  0.00     0.031 A 
ATOM     28  C   UNL A   1      40.932  27.353  28.656  1.00  0.00     0.074 A 
ATOM     29  C   UNL A   1      42.839  26.443  27.393  1.00  0.00     0.049 A 
ATOM     30  N   UNL A   1      41.326  28.586  28.861  1.00  0.00    -0.248 NA
ATOM     31  C   UNL A   1      39.670  27.015  29.335  1.00  0.00     0.031 C 
ATOM     32  C   UNL A   1      43.615  25.475  26.617  1.00  0.00     0.029 A 
ATOM     33  N   UNL A   1      43.703  27.502  27.550  1.00  0.00    -0.354 N 
ATOM     34  C   UNL A   1      40.328  29.190  29.617  1.00  0.00     0.074 A 
ATOM     35  C   UNL A   1      39.311  28.184  29.846  1.00  0.00     0.031 C 
ATOM     36  C   UNL A   1      44.849  25.956  26.413  1.00  0.00     0.029 A 
ATOM     37  C   UNL A   1      44.917  27.315  26.934  1.00  0.00     0.049 A 
ATOM     38  H   UNL A   1      43.473  28.315  28.055  1.00  0.00     0.167 HD
ATOM     39  C   UNL A   1      40.265  30.465  30.072  1.00  0.00     0.037 A 
ATOM     40  C   UNL A   1      45.953  28.155  26.747  1.00  0.00     0.037 A 
ATOM     41  C   UNL A   1      41.318  31.438  29.916  1.00  0.00     0.049 A 
ATOM     42  C   UNL A   1      45.855  29.566  27.248  1.00  0.00     0.074 A 
ATOM     43  C   UNL A   1      41.364  32.743  30.381  1.00  0.00     0.029 A 
ATOM     44  N   UNL A   1      42.518  31.209  29.261  1.00  0.00    -0.354 N 
ATOM     45  N   UNL A   1      44.879  30.145  27.903  1.00  0.00    -0.248 NA
ATOM     46  C   UNL A   1      46.993  30.450  26.960  1.00  0.00     0.031 C 
ATOM     47  C   UNL A   1      42.572  33.315  29.971  1.00  0.00     0.029 A 
ATOM     48  C   UNL A   1      43.303  32.353  29.296  1.00  0.00     0.049 A 
ATOM     49  H   UNL A   1      42.775  30.360  28.835  1.00  0.00     0.167 HD
ATOM     50  C   UNL A   1      45.287  31.454  28.114  1.00  0.00     0.074 A 
ATOM     51  C   UNL A   1      46.610  31.579  27.539  1.00  0.00     0.031 C 
ATOM     52  C   UNL A   1      44.619  32.465  28.722  1.00  0.00     0.037 A 
BRANCH  39  53
ATOM     53  C   UNL A   1      39.003  30.911  30.757  1.00  0.00     0.064 A 
ATOM     54  C   UNL A   1      37.908  31.428  30.051  1.00  0.00     0.173 A 
ATOM     55  C   UNL A   1      38.868  30.752  32.148  1.00  0.00     0.173 A 
ATOM     56  F   UNL A   1      37.984  31.609  28.725  1.00  0.00    -0.203 F 
ATOM     57  C   UNL A   1      36.735  31.789  30.713  1.00  0.00     0.198 A 
ATOM     58  C   UNL A   1      37.683  31.084  32.800  1.00  0.00     0.198 A 
ATOM     59  F   UNL A   1      39.880  30.252  32.872  1.00  0.00    -0.203 F 
ATOM     60  F   UNL A   1      35.715  32.318  30.022  1.00  0.00    -0.200 F 
ATOM     61  C   UNL A   1      36.620  31.609  32.083  1.00  0.00     0.200 A 
ATOM     62  F   UNL A   1      37.570  30.891  34.122  1.00  0.00    -0.200 F 
ATOM     63  F   UNL A   1      35.485  31.943  32.713  1.00  0.00    -0.200 F 
ENDBRANCH  39  53
BRANCH  40  64
ATOM     64  C   UNL A   1      47.149  27.693  25.994  1.00  0.00     0.064 A 
ATOM     65  C   UNL A   1      48.273  27.187  26.661  1.00  0.00     0.173 A 
ATOM     66  C   UNL A   1      47.187  27.731  24.591  1.00  0.00     0.173 A 
ATOM     67  F   UNL A   1      48.297  27.156  28.002  1.00  0.00    -0.203 F 
ATOM     68  C   UNL A   1      49.390  26.744  25.956  1.00  0.00     0.198 A 
ATOM     69  C   UNL A   1      48.289  27.254  23.887  1.00  0.00     0.198 A 
ATOM     70  F   UNL A   1      46.140  28.208  23.904  1.00  0.00    -0.203 F 
ATOM     71  F   UNL A   1      50.468  26.305  26.620  1.00  0.00    -0.200 F 
ATOM     72  C   UNL A   1      49.393  26.767  24.569  1.00  0.00     0.200 A 
ATOM     73  F   UNL A   1      48.278  27.261  22.546  1.00  0.00    -0.200 F 
ATOM     74  F   UNL A   1      50.460  26.327  23.892  1.00  0.00    -0.200 F 
ENDBRANCH  40  64
BRANCH  52  75
ATOM     75  C   UNL A   1      45.326  33.783  28.827  1.00  0.00     0.064 A 
ATOM     76  C   UNL A   1      45.172  34.781  27.854  1.00  0.00     0.173 A 
ATOM     77  C   UNL A   1      46.156  34.059  29.926  1.00  0.00     0.173 A 
ATOM     78  F   UNL A   1      44.404  34.560  26.776  1.00  0.00    -0.203 F 
ATOM     79  C   UNL A   1      45.846  35.995  27.960  1.00  0.00     0.198 A 
ATOM     80  C   UNL A   1      46.806  35.284  30.043  1.00  0.00     0.198 A 
ATOM     81  F   UNL A   1      46.333  33.139  30.886  1.00  0.00    -0.203 F 
ATOM     82  F   UNL A   1      45.726  36.913  26.991  1.00  0.00    -0.200 F 
ATOM     83  C   UNL A   1      46.657  36.247  29.057  1.00  0.00     0.200 A 
ATOM     84  F   UNL A   1      47.579  35.531  31.109  1.00  0.00    -0.200 F 
ATOM     85  F   UNL A   1      47.304  37.416  29.158  1.00  0.00    -0.200 F 
ENDBRANCH  52  75
ENDBRANCH  26  27
ENDBRANCH  19  21
ENDBRANCH  18  19
ENDBRANCH  17  18
ENDBRANCH   1  17
TORSDOF 14
ENDMDL
MODEL 3
REMARK VINA RESULT:     -10.4      4.512      8.164
REMARK SMILES CCC1(CC)C[NH+](C2(C(=O)OCCOC(=O)c3ccc(-c4c5nc(c(-c6c(F)c(F)c(F)c(F)c6F)c6ccc([nH]6)c(-c6c(F)c(F)c(F)c(F)c6F)c6nc(c(-c7c(F)c(F)c(F)c(F)c7F)c7ccc4[nH]7)C=C6)C=C5)cc3)CC2)C1
REMARK SMILES IDX 12 1 11 2 9 3 10 4 8 5 80 6 81 7 7 8 3 9 6 10 82 11 2 13
REMARK SMILES IDX 1 14 4 15 5 16 13 17 14 18 15 19 16 20 17 21 18 22 79 23
REMARK SMILES IDX 19 24 78 25 20 26 21 27 22 28 72 29 23 30 77 31 71 32 73 33
REMARK SMILES IDX 24 34 76 35 70 36 69 37 25 39 57 40 37 41 56 42 38 43 41 44
REMARK SMILES IDX 55 45 74 46 39 47 40 48 54 50 75 51 42 52 26 53 27 54 35 55
REMARK SMILES IDX 28 56 29 57 33 58 36 59 30 60 31 61 34 62 32 63 58 64 59 65
REMARK SMILES IDX 67 66 60 67 61 68 65 69 68 70 62 71 63 72 66 73 64 74 43 75
REMARK SMILES IDX 44 76 52 77 45 78 46 79 50 80 53 81 47 82 48 83 51 84 49 85
REMARK H PARENT 7 12 73 38 41 49
REMARK Flexibility Score: inf
ROOT
ATOM      1  C   UNL A   1      33.518  34.227  28.213  1.00  0.00     0.274 C 
ENDROOT
BRANCH   1   2
ATOM      2  O   UNL A   1      32.654  34.711  29.256  1.00  0.00    -0.457 OA
BRANCH   2   3
ATOM      3  C   UNL A   1      33.113  35.769  29.987  1.00  0.00     0.368 C 
ATOM      4  O   UNL A   1      33.242  36.912  29.587  1.00  0.00    -0.245 OA
BRANCH   3   5
ATOM      5  C   UNL A   1      33.453  35.367  31.413  1.00  0.00     0.196 C 
ATOM      6  C   UNL A   1      32.477  35.831  32.484  1.00  0.00     0.088 C 
ATOM      7  C   UNL A   1      33.833  36.455  32.404  1.00  0.00     0.088 C 
BRANCH   5   8
ATOM      8  N   UNL A   1      34.073  34.017  31.436  1.00  0.00    -0.319 N 
ATOM      9  C   UNL A   1      35.661  33.210  32.617  1.00  0.00     0.068 C 
ATOM     10  C   UNL A   1      35.506  33.867  31.211  1.00  0.00     0.276 C 
ATOM     11  C   UNL A   1      34.102  33.251  32.676  1.00  0.00     0.276 C 
ATOM     12  H   UNL A   1      33.438  33.714  30.697  1.00  0.00     0.349 HD
BRANCH   9  13
ATOM     13  C   UNL A   1      36.212  31.771  32.587  1.00  0.00     0.015 C 
ATOM     14  C   UNL A   1      37.536  31.629  33.323  1.00  0.00     0.005 C 
ENDBRANCH   9  13
BRANCH   9  15
ATOM     15  C   UNL A   1      36.358  34.145  33.621  1.00  0.00     0.015 C 
ATOM     16  C   UNL A   1      35.615  34.259  34.941  1.00  0.00     0.005 C 
ENDBRANCH   9  15
ENDBRANCH   5   8
ENDBRANCH   3   5
ENDBRANCH   2   3
ENDBRANCH   1   2
BRANCH   1  17
ATOM     17  C   UNL A   1      33.219  32.754  27.954  1.00  0.00     0.275 C 
BRANCH  17  18
ATOM     18  O   UNL A   1      34.333  31.957  28.397  1.00  0.00    -0.458 OA
BRANCH  18  19
ATOM     19  C   UNL A   1      34.334  30.675  27.969  1.00  0.00     0.338 C 
ATOM     20  O   UNL A   1      33.415  30.054  27.464  1.00  0.00    -0.246 OA
BRANCH  19  21
ATOM     21  C   UNL A   1      35.662  30.081  28.182  1.00  0.00     0.060 A 
ATOM     22  C   UNL A   1      36.022  29.655  29.456  1.00  0.00     0.016 A 
ATOM     23  C   UNL A   1      36.611  30.123  27.162  1.00  0.00     0.016 A 
ATOM     24  C   UNL A   1      37.364  29.414  29.747  1.00  0.00     0.010 A 
ATOM     25  C   UNL A   1      37.932  29.745  27.432  1.00  0.00     0.010 A 
ATOM     26  C   UNL A   1      38.341  29.436  28.742  1.00  0.00    -0.014 A 
BRANCH  26  27
ATOM     27  C   UNL A   1      39.779  29.169  29.059  1.00  0.00     0.031 A 
ATOM     28  C   UNL A   1      40.605  30.187  29.809  1.00  0.00     0.074 A 
ATOM     29  C   UNL A   1      40.363  28.012  28.682  1.00  0.00     0.049 A 
ATOM     30  N   UNL A   1      41.905  30.245  29.974  1.00  0.00    -0.248 NA
ATOM     31  C   UNL A   1      39.879  31.299  30.442  1.00  0.00     0.031 C 
ATOM     32  C   UNL A   1      39.696  26.909  27.990  1.00  0.00     0.029 A 
ATOM     33  N   UNL A   1      41.657  27.568  28.830  1.00  0.00    -0.354 N 
ATOM     34  C   UNL A   1      42.154  31.433  30.653  1.00  0.00     0.074 A 
ATOM     35  C   UNL A   1      40.870  32.062  30.880  1.00  0.00     0.031 C 
ATOM     36  C   UNL A   1      40.561  25.900  27.823  1.00  0.00     0.029 A 
ATOM     37  C   UNL A   1      41.876  26.327  28.282  1.00  0.00     0.049 A 
ATOM     38  H   UNL A   1      42.358  28.089  29.285  1.00  0.00     0.167 HD
ATOM     39  C   UNL A   1      43.345  31.950  31.044  1.00  0.00     0.037 A 
ATOM     40  C   UNL A   1      43.013  25.626  28.104  1.00  0.00     0.037 A 
ATOM     41  C   UNL A   1      44.613  31.281  30.892  1.00  0.00     0.049 A 
ATOM     42  C   UNL A   1      44.320  26.226  28.533  1.00  0.00     0.074 A 
ATOM     43  C   UNL A   1      45.868  31.707  31.297  1.00  0.00     0.029 A 
ATOM     44  N   UNL A   1      44.787  30.036  30.306  1.00  0.00    -0.354 N 
ATOM     45  N   UNL A   1      44.551  27.377  29.113  1.00  0.00    -0.248 NA
ATOM     46  C   UNL A   1      45.530  25.438  28.258  1.00  0.00     0.031 C 
ATOM     47  C   UNL A   1      46.805  30.740  30.918  1.00  0.00     0.029 A 
ATOM     48  C   UNL A   1      46.130  29.688  30.325  1.00  0.00     0.049 A 
ATOM     49  H   UNL A   1      44.064  29.482  29.933  1.00  0.00     0.167 HD
ATOM     50  C   UNL A   1      45.926  27.449  29.281  1.00  0.00     0.074 A 
ATOM     51  C   UNL A   1      46.477  26.214  28.764  1.00  0.00     0.031 C 
ATOM     52  C   UNL A   1      46.666  28.454  29.809  1.00  0.00     0.037 A 
BRANCH  39  53
ATOM     53  C   UNL A   1      43.355  33.328  31.646  1.00  0.00     0.064 A 
ATOM     54  C   UNL A   1      43.472  34.488  30.868  1.00  0.00     0.173 A 
ATOM     55  C   UNL A   1      43.174  33.487  33.032  1.00  0.00     0.173 A 
ATOM     56  F   UNL A   1      43.652  34.395  29.542  1.00  0.00    -0.203 F 
ATOM     57  C   UNL A   1      43.430  35.752  31.454  1.00  0.00     0.198 A 
ATOM     58  C   UNL A   1      43.102  34.752  33.610  1.00  0.00     0.198 A 
ATOM     59  F   UNL A   1      43.046  32.412  33.824  1.00  0.00    -0.203 F 
ATOM     60  F   UNL A   1      43.583  36.846  30.693  1.00  0.00    -0.200 F 
ATOM     61  C   UNL A   1      43.236  35.883  32.821  1.00  0.00     0.200 A 
ATOM     62  F   UNL A   1      42.897  34.875  34.928  1.00  0.00    -0.200 F 
ATOM     63  F   UNL A   1      43.182  37.101  33.379  1.00  0.00    -0.200 F 
ENDBRANCH  39  53
BRANCH  40  64
ATOM     64  C   UNL A   1      42.964  24.301  27.432  1.00  0.00     0.064 A 
ATOM     65  C   UNL A   1      42.620  23.142  28.141  1.00  0.00     0.173 A 
ATOM     66  C   UNL A   1      43.243  24.168  26.062  1.00  0.00     0.173 A 
ATOM     67  F   UNL A   1      42.372  23.213  29.457  1.00  0.00    -0.203 F 
ATOM     68  C   UNL A   1      42.564  21.902  27.509  1.00  0.00     0.198 A 
ATOM     69  C   UNL A   1      43.150  22.934  25.424  1.00  0.00     0.198 A 
ATOM     70  F   UNL A   1      43.580  25.244  25.337  1.00  0.00    -0.203 F 
ATOM     71  F   UNL A   1      42.274  20.803  28.219  1.00  0.00    -0.200 F 
ATOM     72  C   UNL A   1      42.818  21.800  26.149  1.00  0.00     0.200 A 
ATOM     73  F   UNL A   1      43.378  22.845  24.106  1.00  0.00    -0.200 F 
ATOM     74  F   UNL A   1      42.748  20.610  25.539  1.00  0.00    -0.200 F 
ENDBRANCH  40  64
BRANCH  52  75
ATOM     75  C   UNL A   1      48.149  28.242  29.885  1.00  0.00     0.064 A 
ATOM     76  C   UNL A   1      48.749  27.638  31.000  1.00  0.00     0.173 A 
ATOM     77  C   UNL A   1      48.979  28.632  28.823  1.00  0.00     0.173 A 
ATOM     78  F   UNL A   1      48.002  27.264  32.049  1.00  0.00    -0.203 F 
ATOM     79  C   UNL A   1      50.130  27.461  31.061  1.00  0.00     0.198 A 
ATOM     80  C   UNL A   1      50.354  28.427  28.875  1.00  0.00     0.198 A 
ATOM     81  F   UNL A   1      48.453  29.210  27.732  1.00  0.00    -0.203 F 
ATOM     82  F   UNL A   1      50.687  26.930  32.159  1.00  0.00    -0.200 F 
ATOM     83  C   UNL A   1      50.929  27.849  29.996  1.00  0.00     0.200 A 
ATOM     84  F   UNL A   1      51.125  28.792  27.841  1.00  0.00    -0.200 F 
ATOM     85  F   UNL A   1      52.257  27.676  30.056  1.00  0.00    -0.200 F 
ENDBRANCH  52  75
ENDBRANCH  26  27
ENDBRANCH  19  21
ENDBRANCH  18  19
ENDBRANCH  17  18
ENDBRANCH   1  17
TORSDOF 14
ENDMDL
