MODEL 1
REMARK VINA RESULT:     -10.4      0.000      0.000
REMARK SMILES Cn1cc(C(=O)OCCOC(=O)c2ccc(-c3c4nc(c(-c5c(F)c(F)c(F)c(F)c5F)c5ccc([nH]5)c(-c5c(F)c(F)c(F)c(F)c5F)c5nc(c(-c6c(F)c(F)c(F)c(F)c6F)c6ccc3[nH]6)C=C5)C=C4)cc2)c(C(F)F)n1
REMARK SMILES IDX 9 1 8 2 7 3 5 4 6 5 4 6 1 7 2 8 3 9 80 10 76 11 77 12 78 13
REMARK SMILES IDX 79 14 10 15 11 16 12 17 13 18 14 19 75 20 15 21 74 22 16 23
REMARK SMILES IDX 17 24 18 25 68 26 19 27 73 28 67 29 69 30 20 31 72 32 66 33
REMARK SMILES IDX 65 34 21 36 53 37 33 38 52 39 34 40 37 41 51 42 70 43 35 44
REMARK SMILES IDX 36 45 50 47 71 48 38 49 22 50 23 51 31 52 24 53 25 54 29 55
REMARK SMILES IDX 32 56 26 57 27 58 30 59 28 60 54 61 55 62 63 63 56 64 57 65
REMARK SMILES IDX 61 66 64 67 58 68 59 69 62 70 60 71 39 72 40 73 48 74 41 75
REMARK SMILES IDX 42 76 46 77 49 78 43 79 44 80 47 81 45 82
REMARK H PARENT 69 35 37 46
REMARK Flexibility Score: inf
ROOT
ATOM      1  C   UNL A   1      32.827  36.141  29.705  1.00  0.00     0.275 C 
ENDROOT
BRANCH   1   2
ATOM      2  C   UNL A   1      33.805  35.249  28.936  1.00  0.00     0.275 C 
BRANCH   2   3
ATOM      3  O   UNL A   1      33.531  33.850  29.150  1.00  0.00    -0.458 OA
BRANCH   3   4
ATOM      4  C   UNL A   1      33.104  33.134  28.070  1.00  0.00     0.341 C 
ATOM      5  O   UNL A   1      32.172  33.457  27.346  1.00  0.00    -0.246 OA
BRANCH   4   6
ATOM      6  C   UNL A   1      33.898  31.941  27.825  1.00  0.00     0.107 A 
ATOM      7  C   UNL A   1      36.871  29.908  27.561  1.00  0.00     0.173 C 
ATOM      8  N   UNL A   1      35.566  30.523  27.604  1.00  0.00    -0.274 N 
ATOM      9  C   UNL A   1      35.266  31.799  27.973  1.00  0.00     0.124 A 
ATOM     10  N   UNL A   1      34.496  29.812  27.230  1.00  0.00    -0.171 NA
ATOM     11  C   UNL A   1      33.458  30.659  27.364  1.00  0.00     0.143 A 
BRANCH  11  12
ATOM     12  C   UNL A   1      32.070  30.226  26.987  1.00  0.00     0.394 C 
ATOM     13  F   UNL A   1      31.722  30.727  25.765  1.00  0.00    -0.203 F 
ATOM     14  F   UNL A   1      31.967  28.871  26.879  1.00  0.00    -0.203 F 
ENDBRANCH  11  12
ENDBRANCH   4   6
ENDBRANCH   3   4
ENDBRANCH   2   3
ENDBRANCH   1   2
BRANCH   1  15
ATOM     15  O   UNL A   1      32.287  35.443  30.843  1.00  0.00    -0.458 OA
BRANCH  15  16
ATOM     16  C   UNL A   1      32.663  35.916  32.053  1.00  0.00     0.338 C 
ATOM     17  O   UNL A   1      32.089  36.741  32.741  1.00  0.00    -0.246 OA
BRANCH  16  18
ATOM     18  C   UNL A   1      33.801  35.120  32.538  1.00  0.00     0.060 A 
ATOM     19  C   UNL A   1      35.057  35.720  32.475  1.00  0.00     0.016 A 
ATOM     20  C   UNL A   1      33.669  33.802  32.979  1.00  0.00     0.016 A 
ATOM     21  C   UNL A   1      36.188  35.022  32.877  1.00  0.00     0.010 A 
ATOM     22  C   UNL A   1      34.814  33.094  33.374  1.00  0.00     0.010 A 
ATOM     23  C   UNL A   1      36.082  33.703  33.325  1.00  0.00    -0.014 A 
BRANCH  23  24
ATOM     24  C   UNL A   1      37.334  32.964  33.625  1.00  0.00     0.031 A 
ATOM     25  C   UNL A   1      38.015  33.170  34.946  1.00  0.00     0.074 A 
ATOM     26  C   UNL A   1      37.787  32.015  32.783  1.00  0.00     0.049 A 
ATOM     27  N   UNL A   1      39.140  32.669  35.389  1.00  0.00    -0.248 NA
ATOM     28  C   UNL A   1      37.326  34.049  35.904  1.00  0.00     0.031 C 
ATOM     29  C   UNL A   1      37.143  31.622  31.530  1.00  0.00     0.029 A 
ATOM     30  N   UNL A   1      38.882  31.191  32.869  1.00  0.00    -0.354 N 
ATOM     31  C   UNL A   1      39.305  33.187  36.666  1.00  0.00     0.074 A 
ATOM     32  C   UNL A   1      38.169  34.046  36.925  1.00  0.00     0.031 C 
ATOM     33  C   UNL A   1      37.848  30.625  30.970  1.00  0.00     0.029 A 
ATOM     34  C   UNL A   1      39.029  30.355  31.789  1.00  0.00     0.049 A 
ATOM     35  H   UNL A   1      39.504  31.200  33.631  1.00  0.00     0.167 HD
ATOM     36  C   UNL A   1      40.315  32.964  37.541  1.00  0.00     0.037 A 
ATOM     37  C   UNL A   1      40.022  29.499  31.476  1.00  0.00     0.037 A 
ATOM     38  C   UNL A   1      41.430  32.089  37.290  1.00  0.00     0.049 A 
ATOM     39  C   UNL A   1      41.194  29.360  32.414  1.00  0.00     0.074 A 
ATOM     40  C   UNL A   1      42.517  31.821  38.103  1.00  0.00     0.029 A 
ATOM     41  N   UNL A   1      41.597  31.332  36.139  1.00  0.00    -0.354 N 
ATOM     42  N   UNL A   1      41.385  29.907  33.590  1.00  0.00    -0.248 NA
ATOM     43  C   UNL A   1      42.299  28.498  31.971  1.00  0.00     0.031 C 
ATOM     44  C   UNL A   1      43.368  30.943  37.422  1.00  0.00     0.029 A 
ATOM     45  C   UNL A   1      42.783  30.619  36.209  1.00  0.00     0.049 A 
ATOM     46  H   UNL A   1      40.964  31.304  35.384  1.00  0.00     0.167 HD
ATOM     47  C   UNL A   1      42.615  29.442  34.034  1.00  0.00     0.074 A 
ATOM     48  C   UNL A   1      43.119  28.551  33.011  1.00  0.00     0.031 C 
ATOM     49  C   UNL A   1      43.271  29.731  35.185  1.00  0.00     0.037 A 
BRANCH  36  50
ATOM     50  C   UNL A   1      40.292  33.730  38.830  1.00  0.00     0.064 A 
ATOM     51  C   UNL A   1      41.033  34.906  39.012  1.00  0.00     0.173 A 
ATOM     52  C   UNL A   1      39.489  33.286  39.892  1.00  0.00     0.173 A 
ATOM     53  F   UNL A   1      41.829  35.363  38.034  1.00  0.00    -0.203 F 
ATOM     54  C   UNL A   1      40.987  35.598  40.221  1.00  0.00     0.198 A 
ATOM     55  C   UNL A   1      39.424  33.996  41.087  1.00  0.00     0.198 A 
ATOM     56  F   UNL A   1      38.759  32.167  39.767  1.00  0.00    -0.203 F 
ATOM     57  F   UNL A   1      41.738  36.696  40.391  1.00  0.00    -0.200 F 
ATOM     58  C   UNL A   1      40.177  35.147  41.254  1.00  0.00     0.200 A 
ATOM     59  F   UNL A   1      38.632  33.564  42.078  1.00  0.00    -0.200 F 
ATOM     60  F   UNL A   1      40.131  35.818  42.412  1.00  0.00    -0.200 F 
ENDBRANCH  36  50
BRANCH  37  61
ATOM     61  C   UNL A   1      39.993  28.755  30.188  1.00  0.00     0.064 A 
ATOM     62  C   UNL A   1      39.411  27.483  30.091  1.00  0.00     0.173 A 
ATOM     63  C   UNL A   1      40.591  29.285  29.034  1.00  0.00     0.173 A 
ATOM     64  F   UNL A   1      38.859  26.915  31.172  1.00  0.00    -0.203 F 
ATOM     65  C   UNL A   1      39.445  26.765  28.897  1.00  0.00     0.198 A 
ATOM     66  C   UNL A   1      40.594  28.582  27.832  1.00  0.00     0.198 A 
ATOM     67  F   UNL A   1      41.174  30.492  29.073  1.00  0.00    -0.203 F 
ATOM     68  F   UNL A   1      38.936  25.526  28.846  1.00  0.00    -0.200 F 
ATOM     69  C   UNL A   1      40.030  27.317  27.767  1.00  0.00     0.200 A 
ATOM     70  F   UNL A   1      41.153  29.124  26.742  1.00  0.00    -0.200 F 
ATOM     71  F   UNL A   1      40.066  26.625  26.620  1.00  0.00    -0.200 F 
ENDBRANCH  37  61
BRANCH  49  72
ATOM     72  C   UNL A   1      44.594  29.056  35.415  1.00  0.00     0.064 A 
ATOM     73  C   UNL A   1      44.681  27.803  36.038  1.00  0.00     0.173 A 
ATOM     74  C   UNL A   1      45.784  29.652  34.968  1.00  0.00     0.173 A 
ATOM     75  F   UNL A   1      43.575  27.197  36.497  1.00  0.00    -0.203 F 
ATOM     76  C   UNL A   1      45.914  27.182  36.228  1.00  0.00     0.198 A 
ATOM     77  C   UNL A   1      47.011  29.013  35.131  1.00  0.00     0.198 A 
ATOM     78  F   UNL A   1      45.755  30.846  34.359  1.00  0.00    -0.203 F 
ATOM     79  F   UNL A   1      45.978  26.006  36.867  1.00  0.00    -0.200 F 
ATOM     80  C   UNL A   1      47.075  27.783  35.767  1.00  0.00     0.200 A 
ATOM     81  F   UNL A   1      48.130  29.589  34.672  1.00  0.00    -0.200 F 
ATOM     82  F   UNL A   1      48.259  27.179  35.942  1.00  0.00    -0.200 F 
ENDBRANCH  49  72
ENDBRANCH  23  24
ENDBRANCH  16  18
ENDBRANCH  15  16
ENDBRANCH   1  15
TORSDOF 12
ENDMDL
MODEL 2
REMARK VINA RESULT:     -10.3      8.101     13.542
REMARK SMILES Cn1cc(C(=O)OCCOC(=O)c2ccc(-c3c4nc(c(-c5c(F)c(F)c(F)c(F)c5F)c5ccc([nH]5)c(-c5c(F)c(F)c(F)c(F)c5F)c5nc(c(-c6c(F)c(F)c(F)c(F)c6F)c6ccc3[nH]6)C=C5)C=C4)cc2)c(C(F)F)n1
REMARK SMILES IDX 9 1 8 2 7 3 5 4 6 5 4 6 1 7 2 8 3 9 80 10 76 11 77 12 78 13
REMARK SMILES IDX 79 14 10 15 11 16 12 17 13 18 14 19 75 20 15 21 74 22 16 23
REMARK SMILES IDX 17 24 18 25 68 26 19 27 73 28 67 29 69 30 20 31 72 32 66 33
REMARK SMILES IDX 65 34 21 36 53 37 33 38 52 39 34 40 37 41 51 42 70 43 35 44
REMARK SMILES IDX 36 45 50 47 71 48 38 49 22 50 23 51 31 52 24 53 25 54 29 55
REMARK SMILES IDX 32 56 26 57 27 58 30 59 28 60 54 61 55 62 63 63 56 64 57 65
REMARK SMILES IDX 61 66 64 67 58 68 59 69 62 70 60 71 39 72 40 73 48 74 41 75
REMARK SMILES IDX 42 76 46 77 49 78 43 79 44 80 47 81 45 82
REMARK H PARENT 69 35 37 46
REMARK Flexibility Score: inf
ROOT
ATOM      1  C   UNL A   1      43.190  18.445  25.766  1.00  0.00     0.275 C 
ENDROOT
BRANCH   1   2
ATOM      2  C   UNL A   1      42.356  19.301  26.723  1.00  0.00     0.275 C 
BRANCH   2   3
ATOM      3  O   UNL A   1      41.671  20.363  26.028  1.00  0.00    -0.458 OA
BRANCH   3   4
ATOM      4  C   UNL A   1      40.315  20.255  25.922  1.00  0.00     0.341 C 
ATOM      5  O   UNL A   1      39.716  19.212  25.690  1.00  0.00    -0.246 OA
BRANCH   4   6
ATOM      6  C   UNL A   1      39.621  21.510  26.154  1.00  0.00     0.107 A 
ATOM      7  C   UNL A   1      38.976  24.744  27.628  1.00  0.00     0.173 C 
ATOM      8  N   UNL A   1      39.039  23.493  26.911  1.00  0.00    -0.274 N 
ATOM      9  C   UNL A   1      40.004  22.537  26.999  1.00  0.00     0.124 A 
ATOM     10  N   UNL A   1      38.050  23.174  26.068  1.00  0.00    -0.171 NA
ATOM     11  C   UNL A   1      38.389  21.964  25.585  1.00  0.00     0.143 A 
BRANCH  11  12
ATOM     12  C   UNL A   1      37.481  21.248  24.625  1.00  0.00     0.394 C 
ATOM     13  F   UNL A   1      36.997  20.100  25.183  1.00  0.00    -0.203 F 
ATOM     14  F   UNL A   1      36.389  21.994  24.298  1.00  0.00    -0.203 F 
ENDBRANCH  11  12
ENDBRANCH   4   6
ENDBRANCH   3   4
ENDBRANCH   2   3
ENDBRANCH   1   2
BRANCH   1  15
ATOM     15  O   UNL A   1      43.422  19.144  24.528  1.00  0.00    -0.458 OA
BRANCH  15  16
ATOM     16  C   UNL A   1      44.713  19.446  24.260  1.00  0.00     0.338 C 
ATOM     17  O   UNL A   1      45.538  18.751  23.693  1.00  0.00    -0.246 OA
BRANCH  16  18
ATOM     18  C   UNL A   1      44.942  20.864  24.577  1.00  0.00     0.060 A 
ATOM     19  C   UNL A   1      45.536  21.141  25.807  1.00  0.00     0.016 A 
ATOM     20  C   UNL A   1      44.531  21.902  23.741  1.00  0.00     0.016 A 
ATOM     21  C   UNL A   1      45.752  22.456  26.200  1.00  0.00     0.010 A 
ATOM     22  C   UNL A   1      44.738  23.230  24.145  1.00  0.00     0.010 A 
ATOM     23  C   UNL A   1      45.353  23.513  25.379  1.00  0.00    -0.014 A 
BRANCH  23  24
ATOM     24  C   UNL A   1      45.494  24.895  25.901  1.00  0.00     0.031 A 
ATOM     25  C   UNL A   1      46.810  25.604  25.765  1.00  0.00     0.074 A 
ATOM     26  C   UNL A   1      44.422  25.563  26.370  1.00  0.00     0.049 A 
ATOM     27  N   UNL A   1      47.164  26.788  26.197  1.00  0.00    -0.248 NA
ATOM     28  C   UNL A   1      47.863  24.889  25.030  1.00  0.00     0.031 C 
ATOM     29  C   UNL A   1      43.060  25.034  26.430  1.00  0.00     0.029 A 
ATOM     30  N   UNL A   1      44.308  26.840  26.861  1.00  0.00    -0.354 N 
ATOM     31  C   UNL A   1      48.486  26.950  25.806  1.00  0.00     0.074 A 
ATOM     32  C   UNL A   1      48.873  25.743  25.107  1.00  0.00     0.031 C 
ATOM     33  C   UNL A   1      42.245  25.984  26.918  1.00  0.00     0.029 A 
ATOM     34  C   UNL A   1      43.036  27.162  27.269  1.00  0.00     0.049 A 
ATOM     35  H   UNL A   1      45.066  27.466  26.917  1.00  0.00     0.167 HD
ATOM     36  C   UNL A   1      49.301  28.012  26.012  1.00  0.00     0.037 A 
ATOM     37  C   UNL A   1      42.572  28.265  27.889  1.00  0.00     0.037 A 
ATOM     38  C   UNL A   1      48.905  29.222  26.685  1.00  0.00     0.049 A 
ATOM     39  C   UNL A   1      43.529  29.383  28.213  1.00  0.00     0.074 A 
ATOM     40  C   UNL A   1      49.669  30.341  26.968  1.00  0.00     0.029 A 
ATOM     41  N   UNL A   1      47.632  29.474  27.174  1.00  0.00    -0.354 N 
ATOM     42  N   UNL A   1      44.797  29.505  27.906  1.00  0.00    -0.248 NA
ATOM     43  C   UNL A   1      42.992  30.511  28.988  1.00  0.00     0.031 C 
ATOM     44  C   UNL A   1      48.872  31.248  27.674  1.00  0.00     0.029 A 
ATOM     45  C   UNL A   1      47.596  30.719  27.782  1.00  0.00     0.049 A 
ATOM     46  H   UNL A   1      46.866  28.859  27.099  1.00  0.00     0.167 HD
ATOM     47  C   UNL A   1      45.203  30.725  28.430  1.00  0.00     0.074 A 
ATOM     48  C   UNL A   1      44.042  31.317  29.058  1.00  0.00     0.031 C 
ATOM     49  C   UNL A   1      46.431  31.300  28.399  1.00  0.00     0.037 A 
BRANCH  36  50
ATOM     50  C   UNL A   1      50.725  27.887  25.559  1.00  0.00     0.064 A 
ATOM     51  C   UNL A   1      51.767  27.586  26.447  1.00  0.00     0.173 A 
ATOM     52  C   UNL A   1      51.043  28.047  24.202  1.00  0.00     0.173 A 
ATOM     53  F   UNL A   1      51.518  27.440  27.758  1.00  0.00    -0.203 F 
ATOM     54  C   UNL A   1      53.080  27.471  25.995  1.00  0.00     0.198 A 
ATOM     55  C   UNL A   1      52.351  27.903  23.749  1.00  0.00     0.198 A 
ATOM     56  F   UNL A   1      50.082  28.334  23.310  1.00  0.00    -0.203 F 
ATOM     57  F   UNL A   1      54.068  27.227  26.867  1.00  0.00    -0.200 F 
ATOM     58  C   UNL A   1      53.370  27.622  24.647  1.00  0.00     0.200 A 
ATOM     59  F   UNL A   1      52.626  28.038  22.444  1.00  0.00    -0.200 F 
ATOM     60  F   UNL A   1      54.632  27.505  24.214  1.00  0.00    -0.200 F 
ENDBRANCH  36  50
BRANCH  37  61
ATOM     61  C   UNL A   1      41.147  28.344  28.310  1.00  0.00     0.064 A 
ATOM     62  C   UNL A   1      40.166  28.896  27.473  1.00  0.00     0.173 A 
ATOM     63  C   UNL A   1      40.744  27.909  29.582  1.00  0.00     0.173 A 
ATOM     64  F   UNL A   1      40.504  29.360  26.261  1.00  0.00    -0.203 F 
ATOM     65  C   UNL A   1      38.846  29.026  27.900  1.00  0.00     0.198 A 
ATOM     66  C   UNL A   1      39.418  28.007  29.994  1.00  0.00     0.198 A 
ATOM     67  F   UNL A   1      41.642  27.385  30.429  1.00  0.00    -0.203 F 
ATOM     68  F   UNL A   1      37.940  29.613  27.104  1.00  0.00    -0.200 F 
ATOM     69  C   UNL A   1      38.471  28.575  29.157  1.00  0.00     0.200 A 
ATOM     70  F   UNL A   1      39.060  27.562  31.207  1.00  0.00    -0.200 F 
ATOM     71  F   UNL A   1      37.202  28.704  29.568  1.00  0.00    -0.200 F 
ENDBRANCH  37  61
BRANCH  49  72
ATOM     72  C   UNL A   1      46.576  32.653  29.035  1.00  0.00     0.064 A 
ATOM     73  C   UNL A   1      46.329  33.833  28.320  1.00  0.00     0.173 A 
ATOM     74  C   UNL A   1      46.927  32.768  30.390  1.00  0.00     0.173 A 
ATOM     75  F   UNL A   1      46.006  33.780  27.018  1.00  0.00    -0.203 F 
ATOM     76  C   UNL A   1      46.451  35.080  28.929  1.00  0.00     0.198 A 
ATOM     77  C   UNL A   1      47.017  34.015  31.004  1.00  0.00     0.198 A 
ATOM     78  F   UNL A   1      47.167  31.670  31.122  1.00  0.00    -0.203 F 
ATOM     79  F   UNL A   1      46.255  36.196  28.214  1.00  0.00    -0.200 F 
ATOM     80  C   UNL A   1      46.786  35.169  30.272  1.00  0.00     0.200 A 
ATOM     81  F   UNL A   1      47.326  34.098  32.305  1.00  0.00    -0.200 F 
ATOM     82  F   UNL A   1      46.893  36.369  30.860  1.00  0.00    -0.200 F 
ENDBRANCH  49  72
ENDBRANCH  23  24
ENDBRANCH  16  18
ENDBRANCH  15  16
ENDBRANCH   1  15
TORSDOF 12
ENDMDL
MODEL 3
REMARK VINA RESULT:     -10.3      3.208      8.835
REMARK SMILES Cn1cc(C(=O)OCCOC(=O)c2ccc(-c3c4nc(c(-c5c(F)c(F)c(F)c(F)c5F)c5ccc([nH]5)c(-c5c(F)c(F)c(F)c(F)c5F)c5nc(c(-c6c(F)c(F)c(F)c(F)c6F)c6ccc3[nH]6)C=C5)C=C4)cc2)c(C(F)F)n1
REMARK SMILES IDX 9 1 8 2 7 3 5 4 6 5 4 6 1 7 2 8 3 9 80 10 76 11 77 12 78 13
REMARK SMILES IDX 79 14 10 15 11 16 12 17 13 18 14 19 75 20 15 21 74 22 16 23
REMARK SMILES IDX 17 24 18 25 68 26 19 27 73 28 67 29 69 30 20 31 72 32 66 33
REMARK SMILES IDX 65 34 21 36 53 37 33 38 52 39 34 40 37 41 51 42 70 43 35 44
REMARK SMILES IDX 36 45 50 47 71 48 38 49 22 50 23 51 31 52 24 53 25 54 29 55
REMARK SMILES IDX 32 56 26 57 27 58 30 59 28 60 54 61 55 62 63 63 56 64 57 65
REMARK SMILES IDX 61 66 64 67 58 68 59 69 62 70 60 71 39 72 40 73 48 74 41 75
REMARK SMILES IDX 42 76 46 77 49 78 43 79 44 80 47 81 45 82
REMARK H PARENT 69 35 37 46
REMARK Flexibility Score: inf
ROOT
ATOM      1  C   UNL A   1      31.750  29.833  26.305  1.00  0.00     0.275 C 
ENDROOT
BRANCH   1   2
ATOM      2  C   UNL A   1      31.239  29.485  24.905  1.00  0.00     0.275 C 
BRANCH   2   3
ATOM      3  O   UNL A   1      31.063  28.064  24.739  1.00  0.00    -0.458 OA
BRANCH   3   4
ATOM      4  C   UNL A   1      30.736  27.626  23.489  1.00  0.00     0.341 C 
ATOM      5  O   UNL A   1      29.729  27.958  22.877  1.00  0.00    -0.246 OA
BRANCH   4   6
ATOM      6  C   UNL A   1      31.732  26.737  22.916  1.00  0.00     0.107 A 
ATOM      7  C   UNL A   1      33.203  23.613  21.858  1.00  0.00     0.173 C 
ATOM      8  N   UNL A   1      32.814  24.961  22.198  1.00  0.00    -0.274 N 
ATOM      9  C   UNL A   1      31.634  25.368  22.742  1.00  0.00     0.124 A 
ATOM     10  N   UNL A   1      33.680  25.960  21.996  1.00  0.00    -0.171 NA
ATOM     11  C   UNL A   1      33.036  27.063  22.423  1.00  0.00     0.143 A 
BRANCH  11  12
ATOM     12  C   UNL A   1      33.720  28.401  22.397  1.00  0.00     0.394 C 
ATOM     13  F   UNL A   1      34.138  28.754  23.648  1.00  0.00    -0.203 F 
ATOM     14  F   UNL A   1      34.839  28.390  21.619  1.00  0.00    -0.203 F 
ENDBRANCH  11  12
ENDBRANCH   4   6
ENDBRANCH   3   4
ENDBRANCH   2   3
ENDBRANCH   1   2
BRANCH   1  15
ATOM     15  O   UNL A   1      33.135  30.223  26.260  1.00  0.00    -0.458 OA
BRANCH  15  16
ATOM     16  C   UNL A   1      33.465  31.298  27.011  1.00  0.00     0.338 C 
ATOM     17  O   UNL A   1      32.782  32.279  27.249  1.00  0.00    -0.246 OA
BRANCH  16  18
ATOM     18  C   UNL A   1      34.737  31.022  27.697  1.00  0.00     0.060 A 
ATOM     19  C   UNL A   1      34.937  29.716  28.141  1.00  0.00     0.016 A 
ATOM     20  C   UNL A   1      35.683  32.013  27.965  1.00  0.00     0.016 A 
ATOM     21  C   UNL A   1      36.094  29.381  28.832  1.00  0.00     0.010 A 
ATOM     22  C   UNL A   1      36.846  31.675  28.675  1.00  0.00     0.010 A 
ATOM     23  C   UNL A   1      37.058  30.354  29.111  1.00  0.00    -0.014 A 
BRANCH  23  24
ATOM     24  C   UNL A   1      38.214  29.970  29.958  1.00  0.00     0.031 A 
ATOM     25  C   UNL A   1      39.286  29.088  29.387  1.00  0.00     0.074 A 
ATOM     26  C   UNL A   1      38.378  30.511  31.181  1.00  0.00     0.049 A 
ATOM     27  N   UNL A   1      40.350  28.591  29.966  1.00  0.00    -0.248 NA
ATOM     28  C   UNL A   1      39.149  28.731  27.967  1.00  0.00     0.031 C 
ATOM     29  C   UNL A   1      37.478  31.485  31.798  1.00  0.00     0.029 A 
ATOM     30  N   UNL A   1      39.372  30.336  32.111  1.00  0.00    -0.354 N 
ATOM     31  C   UNL A   1      40.996  27.846  28.990  1.00  0.00     0.074 A 
ATOM     32  C   UNL A   1      40.203  27.950  27.783  1.00  0.00     0.031 C 
ATOM     33  C   UNL A   1      37.969  31.832  33.000  1.00  0.00     0.029 A 
ATOM     34  C   UNL A   1      39.178  31.054  33.266  1.00  0.00     0.049 A 
ATOM     35  H   UNL A   1      40.150  29.751  31.965  1.00  0.00     0.167 HD
ATOM     36  C   UNL A   1      42.147  27.139  29.094  1.00  0.00     0.037 A 
ATOM     37  C   UNL A   1      39.874  31.055  34.420  1.00  0.00     0.037 A 
ATOM     38  C   UNL A   1      42.946  27.059  30.288  1.00  0.00     0.049 A 
ATOM     39  C   UNL A   1      41.085  30.167  34.548  1.00  0.00     0.074 A 
ATOM     40  C   UNL A   1      44.113  26.344  30.500  1.00  0.00     0.029 A 
ATOM     41  N   UNL A   1      42.664  27.722  31.474  1.00  0.00    -0.354 N 
ATOM     42  N   UNL A   1      41.654  29.406  33.646  1.00  0.00    -0.248 NA
ATOM     43  C   UNL A   1      41.739  30.123  35.864  1.00  0.00     0.031 C 
ATOM     44  C   UNL A   1      44.508  26.533  31.828  1.00  0.00     0.029 A 
ATOM     45  C   UNL A   1      43.620  27.411  32.429  1.00  0.00     0.049 A 
ATOM     46  H   UNL A   1      41.899  28.326  31.616  1.00  0.00     0.167 HD
ATOM     47  C   UNL A   1      42.740  28.811  34.275  1.00  0.00     0.074 A 
ATOM     48  C   UNL A   1      42.764  29.315  35.632  1.00  0.00     0.031 C 
ATOM     49  C   UNL A   1      43.635  27.924  33.775  1.00  0.00     0.037 A 
BRANCH  36  50
ATOM     50  C   UNL A   1      42.578  26.343  27.898  1.00  0.00     0.064 A 
ATOM     51  C   UNL A   1      43.525  26.825  26.984  1.00  0.00     0.173 A 
ATOM     52  C   UNL A   1      42.048  25.062  27.684  1.00  0.00     0.173 A 
ATOM     53  F   UNL A   1      44.049  28.050  27.134  1.00  0.00    -0.203 F 
ATOM     54  C   UNL A   1      43.909  26.059  25.885  1.00  0.00     0.198 A 
ATOM     55  C   UNL A   1      42.456  24.288  26.601  1.00  0.00     0.198 A 
ATOM     56  F   UNL A   1      41.140  24.554  28.532  1.00  0.00    -0.203 F 
ATOM     57  F   UNL A   1      44.782  26.556  24.997  1.00  0.00    -0.200 F 
ATOM     58  C   UNL A   1      43.381  24.790  25.699  1.00  0.00     0.200 A 
ATOM     59  F   UNL A   1      41.952  23.058  26.431  1.00  0.00    -0.200 F 
ATOM     60  F   UNL A   1      43.756  24.054  24.645  1.00  0.00    -0.200 F 
ENDBRANCH  36  50
BRANCH  37  61
ATOM     61  C   UNL A   1      39.410  31.871  35.575  1.00  0.00     0.064 A 
ATOM     62  C   UNL A   1      38.503  31.359  36.514  1.00  0.00     0.173 A 
ATOM     63  C   UNL A   1      39.831  33.200  35.737  1.00  0.00     0.173 A 
ATOM     64  F   UNL A   1      38.040  30.107  36.385  1.00  0.00    -0.203 F 
ATOM     65  C   UNL A   1      38.022  32.150  37.556  1.00  0.00     0.198 A 
ATOM     66  C   UNL A   1      39.377  33.978  36.798  1.00  0.00     0.198 A 
ATOM     67  F   UNL A   1      40.687  33.745  34.861  1.00  0.00    -0.203 F 
ATOM     68  F   UNL A   1      37.109  31.656  38.404  1.00  0.00    -0.200 F 
ATOM     69  C   UNL A   1      38.464  33.456  37.702  1.00  0.00     0.200 A 
ATOM     70  F   UNL A   1      39.815  35.237  36.939  1.00  0.00    -0.200 F 
ATOM     71  F   UNL A   1      37.999  34.218  38.702  1.00  0.00    -0.200 F 
ENDBRANCH  37  61
BRANCH  49  72
ATOM     72  C   UNL A   1      44.734  27.461  34.689  1.00  0.00     0.064 A 
ATOM     73  C   UNL A   1      44.604  26.302  35.468  1.00  0.00     0.173 A 
ATOM     74  C   UNL A   1      45.948  28.162  34.753  1.00  0.00     0.173 A 
ATOM     75  F   UNL A   1      43.458  25.603  35.454  1.00  0.00    -0.203 F 
ATOM     76  C   UNL A   1      45.639  25.875  36.297  1.00  0.00     0.198 A 
ATOM     77  C   UNL A   1      46.993  27.715  35.559  1.00  0.00     0.198 A 
ATOM     78  F   UNL A   1      46.127  29.272  34.022  1.00  0.00    -0.203 F 
ATOM     79  F   UNL A   1      45.475  24.791  37.067  1.00  0.00    -0.200 F 
ATOM     80  C   UNL A   1      46.835  26.577  36.335  1.00  0.00     0.200 A 
ATOM     81  F   UNL A   1      48.152  28.386  35.583  1.00  0.00    -0.200 F 
ATOM     82  F   UNL A   1      47.834  26.160  37.125  1.00  0.00    -0.200 F 
ENDBRANCH  49  72
ENDBRANCH  23  24
ENDBRANCH  16  18
ENDBRANCH  15  16
ENDBRANCH   1  15
TORSDOF 12
ENDMDL
