MODEL 1
REMARK VINA RESULT:     -13.8      0.000      0.000
REMARK SMILES O=C(OCCOC(=O)c1ccc(-c2c3nc(c(-c4c(F)c(F)c(F)c(F)c4F)c4ccc([nH]4)c(-c4c(F)c(F)c(F)c(F)c4F)c4nc(c(-c5c(F)c(F)c(F)c(F)c5F)c5ccc2[nH]5)C=C4)C=C3)cc1)c1ccc(NC(=O)[C@@H]2CC=CC[C@H]2C(=O)Nc2cccc([N+](=O)[O-])c2)cc1
REMARK SMILES IDX 3 1 2 2 1 3 72 4 73 5 98 6 74 7 97 8 75 9 76 10 77 11 78 13
REMARK SMILES IDX 79 14 80 15 84 16 81 17 83 18 82 19 85 20 86 21 87 22 88 24
REMARK SMILES IDX 89 25 96 26 90 27 92 28 91 29 93 30 94 31 95 32 4 33 5 34
REMARK SMILES IDX 6 35 7 36 8 37 9 38 10 39 71 40 11 41 70 42 12 43 13 44
REMARK SMILES IDX 14 45 64 46 15 47 69 48 63 49 65 50 16 51 68 52 62 53 61 54
REMARK SMILES IDX 17 56 49 57 29 58 48 59 30 60 33 61 47 62 66 63 31 64 32 65
REMARK SMILES IDX 46 67 67 68 34 69 18 70 19 71 27 72 20 73 21 74 25 75 28 76
REMARK SMILES IDX 22 77 23 78 26 79 24 80 50 81 51 82 59 83 52 84 53 85 57 86
REMARK SMILES IDX 60 87 54 88 55 89 58 90 56 91 35 92 36 93 44 94 37 95 38 96
REMARK SMILES IDX 42 97 45 98 39 99 40 100 43 101 41 102
REMARK H PARENT 76 12 87 23 65 55 33 66
REMARK Flexibility Score: inf
ROOT
ATOM      1  O   UNL A   1      32.494  30.185  27.231  1.00  0.00    -0.458 OA
ENDROOT
BRANCH   1   2
ATOM      2  C   UNL A   1      33.516  29.405  26.782  1.00  0.00     0.338 C 
ATOM      3  O   UNL A   1      34.680  29.765  26.936  1.00  0.00    -0.246 OA
BRANCH   2   4
ATOM      4  C   UNL A   1      33.244  28.239  25.883  1.00  0.00     0.060 A 
ATOM      5  C   UNL A   1      33.586  28.221  24.549  1.00  0.00     0.018 A 
ATOM      6  C   UNL A   1      32.710  27.053  26.412  1.00  0.00     0.018 A 
ATOM      7  C   UNL A   1      33.573  27.051  23.815  1.00  0.00     0.027 A 
ATOM      8  C   UNL A   1      32.559  25.901  25.608  1.00  0.00     0.027 A 
ATOM      9  C   UNL A   1      33.007  25.895  24.287  1.00  0.00     0.041 A 
BRANCH   9  10
ATOM     10  N   UNL A   1      32.875  24.749  23.496  1.00  0.00    -0.326 N 
ATOM     11  C   UNL A   1      33.436  23.508  23.526  1.00  0.00     0.228 C 
ATOM     12  H   UNL A   1      32.236  24.864  22.756  1.00  0.00     0.169 HD
ATOM     13  O   UNL A   1      33.001  22.705  22.686  1.00  0.00    -0.274 OA
BRANCH  11  14
ATOM     14  C   UNL A   1      34.522  23.000  24.496  1.00  0.00     0.095 C 
ATOM     15  C   UNL A   1      35.894  23.609  24.144  1.00  0.00     0.041 C 
ATOM     16  C   UNL A   1      34.459  21.499  24.853  1.00  0.00     0.095 C 
ATOM     17  C   UNL A   1      37.101  22.761  24.396  1.00  0.00    -0.030 C 
ATOM     18  C   UNL A   1      35.790  20.782  25.188  1.00  0.00     0.041 C 
ATOM     19  C   UNL A   1      37.053  21.506  24.851  1.00  0.00    -0.030 C 
BRANCH  16  20
ATOM     20  C   UNL A   1      33.327  21.155  25.832  1.00  0.00     0.228 C 
ATOM     21  O   UNL A   1      32.997  21.996  26.678  1.00  0.00    -0.274 OA
ATOM     22  N   UNL A   1      32.580  20.014  25.761  1.00  0.00    -0.326 N 
ATOM     23  H   UNL A   1      31.797  19.990  26.358  1.00  0.00     0.169 HD
BRANCH  22  24
ATOM     24  C   UNL A   1      32.759  18.879  24.969  1.00  0.00     0.048 A 
ATOM     25  C   UNL A   1      32.463  18.967  23.607  1.00  0.00     0.026 A 
ATOM     26  C   UNL A   1      33.232  17.682  25.495  1.00  0.00     0.111 A 
ATOM     27  C   UNL A   1      32.781  17.906  22.755  1.00  0.00     0.009 A 
ATOM     28  C   UNL A   1      33.578  16.634  24.641  1.00  0.00     0.271 A 
ATOM     29  C   UNL A   1      33.366  16.744  23.265  1.00  0.00     0.086 A 
BRANCH  28  30
ATOM     30  N   UNL A   1      34.205  15.431  25.201  1.00  0.00     0.062 N 
ATOM     31  O   UNL A   1      33.478  14.451  25.414  1.00  0.00    -0.258 OA
ATOM     32  O   UNL A   1      35.427  15.458  25.404  1.00  0.00    -0.258 OA
ENDBRANCH  28  30
ENDBRANCH  22  24
ENDBRANCH  16  20
ENDBRANCH  11  14
ENDBRANCH   9  10
ENDBRANCH   2   4
ENDBRANCH   1   2
BRANCH   1  33
ATOM     33  C   UNL A   1      31.713  31.118  26.449  1.00  0.00     0.275 C 
BRANCH  33  34
ATOM     34  C   UNL A   1      31.712  32.543  27.057  1.00  0.00     0.275 C 
BRANCH  34  35
ATOM     35  O   UNL A   1      32.963  33.246  26.889  1.00  0.00    -0.458 OA
BRANCH  35  36
ATOM     36  C   UNL A   1      33.447  33.871  27.995  1.00  0.00     0.338 C 
ATOM     37  O   UNL A   1      32.931  34.818  28.564  1.00  0.00    -0.246 OA
BRANCH  36  38
ATOM     38  C   UNL A   1      34.625  33.141  28.537  1.00  0.00     0.060 A 
ATOM     39  C   UNL A   1      34.393  32.065  29.404  1.00  0.00     0.016 A 
ATOM     40  C   UNL A   1      35.941  33.475  28.208  1.00  0.00     0.016 A 
ATOM     41  C   UNL A   1      35.463  31.338  29.951  1.00  0.00     0.010 A 
ATOM     42  C   UNL A   1      37.008  32.727  28.738  1.00  0.00     0.010 A 
ATOM     43  C   UNL A   1      36.789  31.662  29.633  1.00  0.00    -0.014 A 
BRANCH  43  44
ATOM     44  C   UNL A   1      37.946  30.981  30.298  1.00  0.00     0.031 A 
ATOM     45  C   UNL A   1      38.322  31.357  31.710  1.00  0.00     0.074 A 
ATOM     46  C   UNL A   1      38.698  30.053  29.670  1.00  0.00     0.049 A 
ATOM     47  N   UNL A   1      39.311  30.922  32.455  1.00  0.00    -0.248 NA
ATOM     48  C   UNL A   1      37.477  32.364  32.369  1.00  0.00     0.031 C 
ATOM     49  C   UNL A   1      38.479  29.563  28.314  1.00  0.00     0.029 A 
ATOM     50  N   UNL A   1      39.820  29.370  30.087  1.00  0.00    -0.354 N 
ATOM     51  C   UNL A   1      39.211  31.609  33.657  1.00  0.00     0.074 A 
ATOM     52  C   UNL A   1      38.107  32.535  33.520  1.00  0.00     0.031 C 
ATOM     53  C   UNL A   1      39.454  28.697  27.991  1.00  0.00     0.029 A 
ATOM     54  C   UNL A   1      40.371  28.561  29.122  1.00  0.00     0.049 A 
ATOM     55  H   UNL A   1      40.194  29.455  30.995  1.00  0.00     0.167 HD
ATOM     56  C   UNL A   1      39.940  31.465  34.790  1.00  0.00     0.037 A 
ATOM     57  C   UNL A   1      41.485  27.797  29.137  1.00  0.00     0.037 A 
ATOM     58  C   UNL A   1      41.018  30.528  34.966  1.00  0.00     0.049 A 
ATOM     59  C   UNL A   1      42.313  27.682  30.392  1.00  0.00     0.074 A 
ATOM     60  C   UNL A   1      41.740  30.255  36.114  1.00  0.00     0.029 A 
ATOM     61  N   UNL A   1      41.537  29.723  33.965  1.00  0.00    -0.354 N 
ATOM     62  N   UNL A   1      42.136  28.254  31.556  1.00  0.00    -0.248 NA
ATOM     63  C   UNL A   1      43.487  26.793  30.340  1.00  0.00     0.031 C 
ATOM     64  C   UNL A   1      42.732  29.322  35.797  1.00  0.00     0.029 A 
ATOM     65  C   UNL A   1      42.594  28.976  34.463  1.00  0.00     0.049 A 
ATOM     66  H   UNL A   1      41.205  29.686  33.040  1.00  0.00     0.167 HD
ATOM     67  C   UNL A   1      43.141  27.764  32.383  1.00  0.00     0.074 A 
ATOM     68  C   UNL A   1      43.930  26.849  31.589  1.00  0.00     0.031 C 
ATOM     69  C   UNL A   1      43.373  28.046  33.687  1.00  0.00     0.037 A 
BRANCH  56  70
ATOM     70  C   UNL A   1      39.584  32.350  35.946  1.00  0.00     0.064 A 
ATOM     71  C   UNL A   1      38.548  32.018  36.833  1.00  0.00     0.173 A 
ATOM     72  C   UNL A   1      40.292  33.538  36.177  1.00  0.00     0.173 A 
ATOM     73  F   UNL A   1      37.835  30.895  36.649  1.00  0.00    -0.203 F 
ATOM     74  C   UNL A   1      38.205  32.865  37.882  1.00  0.00     0.198 A 
ATOM     75  C   UNL A   1      39.968  34.367  37.247  1.00  0.00     0.198 A 
ATOM     76  F   UNL A   1      41.300  33.895  35.367  1.00  0.00    -0.203 F 
ATOM     77  F   UNL A   1      37.171  32.558  38.677  1.00  0.00    -0.200 F 
ATOM     78  C   UNL A   1      38.917  34.036  38.091  1.00  0.00     0.200 A 
ATOM     79  F   UNL A   1      40.666  35.492  37.458  1.00  0.00    -0.200 F 
ATOM     80  F   UNL A   1      38.585  34.853  39.099  1.00  0.00    -0.200 F 
ENDBRANCH  56  70
BRANCH  57  81
ATOM     81  C   UNL A   1      41.886  27.051  27.914  1.00  0.00     0.064 A 
ATOM     82  C   UNL A   1      41.540  25.703  27.743  1.00  0.00     0.173 A 
ATOM     83  C   UNL A   1      42.652  27.662  26.912  1.00  0.00     0.173 A 
ATOM     84  F   UNL A   1      40.832  25.068  28.687  1.00  0.00    -0.203 F 
ATOM     85  C   UNL A   1      41.964  24.990  26.623  1.00  0.00     0.198 A 
ATOM     86  C   UNL A   1      43.056  26.953  25.783  1.00  0.00     0.198 A 
ATOM     87  F   UNL A   1      43.007  28.949  27.030  1.00  0.00    -0.203 F 
ATOM     88  F   UNL A   1      41.659  23.690  26.504  1.00  0.00    -0.200 F 
ATOM     89  C   UNL A   1      42.718  25.616  25.642  1.00  0.00     0.200 A 
ATOM     90  F   UNL A   1      43.778  27.564  24.833  1.00  0.00    -0.200 F 
ATOM     91  F   UNL A   1      43.127  24.928  24.567  1.00  0.00    -0.200 F 
ENDBRANCH  57  81
BRANCH  69  92
ATOM     92  C   UNL A   1      44.497  27.329  34.381  1.00  0.00     0.064 A 
ATOM     93  C   UNL A   1      45.774  27.895  34.500  1.00  0.00     0.173 A 
ATOM     94  C   UNL A   1      44.266  26.095  35.010  1.00  0.00     0.173 A 
ATOM     95  F   UNL A   1      46.052  29.064  33.905  1.00  0.00    -0.203 F 
ATOM     96  C   UNL A   1      46.779  27.250  35.219  1.00  0.00     0.198 A 
ATOM     97  C   UNL A   1      45.264  25.466  35.750  1.00  0.00     0.198 A 
ATOM     98  F   UNL A   1      43.060  25.512  34.932  1.00  0.00    -0.203 F 
ATOM     99  F   UNL A   1      48.000  27.797  35.298  1.00  0.00    -0.200 F 
ATOM    100  C   UNL A   1      46.521  26.043  35.851  1.00  0.00     0.200 A 
ATOM    101  F   UNL A   1      45.007  24.307  36.372  1.00  0.00    -0.200 F 
ATOM    102  F   UNL A   1      47.482  25.436  36.560  1.00  0.00    -0.200 F 
ENDBRANCH  69  92
ENDBRANCH  43  44
ENDBRANCH  36  38
ENDBRANCH  35  36
ENDBRANCH  34  35
ENDBRANCH  33  34
ENDBRANCH   1  33
TORSDOF 16
ENDMDL
MODEL 2
REMARK VINA RESULT:     -13.5      0.595      6.864
REMARK SMILES O=C(OCCOC(=O)c1ccc(-c2c3nc(c(-c4c(F)c(F)c(F)c(F)c4F)c4ccc([nH]4)c(-c4c(F)c(F)c(F)c(F)c4F)c4nc(c(-c5c(F)c(F)c(F)c(F)c5F)c5ccc2[nH]5)C=C4)C=C3)cc1)c1ccc(NC(=O)[C@@H]2CC=CC[C@H]2C(=O)Nc2cccc([N+](=O)[O-])c2)cc1
REMARK SMILES IDX 3 1 2 2 1 3 72 4 73 5 98 6 74 7 97 8 75 9 76 10 77 11 78 13
REMARK SMILES IDX 79 14 80 15 84 16 81 17 83 18 82 19 85 20 86 21 87 22 88 24
REMARK SMILES IDX 89 25 96 26 90 27 92 28 91 29 93 30 94 31 95 32 4 33 5 34
REMARK SMILES IDX 6 35 7 36 8 37 9 38 10 39 71 40 11 41 70 42 12 43 13 44
REMARK SMILES IDX 14 45 64 46 15 47 69 48 63 49 65 50 16 51 68 52 62 53 61 54
REMARK SMILES IDX 17 56 49 57 29 58 48 59 30 60 33 61 47 62 66 63 31 64 32 65
REMARK SMILES IDX 46 67 67 68 34 69 18 70 19 71 27 72 20 73 21 74 25 75 28 76
REMARK SMILES IDX 22 77 23 78 26 79 24 80 50 81 51 82 59 83 52 84 53 85 57 86
REMARK SMILES IDX 60 87 54 88 55 89 58 90 56 91 35 92 36 93 44 94 37 95 38 96
REMARK SMILES IDX 42 97 45 98 39 99 40 100 43 101 41 102
REMARK H PARENT 76 12 87 23 65 55 33 66
REMARK Flexibility Score: inf
ROOT
ATOM      1  O   UNL A   1      33.202  30.653  26.483  1.00  0.00    -0.458 OA
ENDROOT
BRANCH   1   2
ATOM      2  C   UNL A   1      33.718  29.417  26.728  1.00  0.00     0.338 C 
ATOM      3  O   UNL A   1      34.619  29.278  27.551  1.00  0.00    -0.246 OA
BRANCH   2   4
ATOM      4  C   UNL A   1      33.385  28.263  25.835  1.00  0.00     0.060 A 
ATOM      5  C   UNL A   1      33.646  28.257  24.483  1.00  0.00     0.018 A 
ATOM      6  C   UNL A   1      32.875  27.075  26.384  1.00  0.00     0.018 A 
ATOM      7  C   UNL A   1      33.581  27.094  23.739  1.00  0.00     0.027 A 
ATOM      8  C   UNL A   1      32.667  25.933  25.579  1.00  0.00     0.027 A 
ATOM      9  C   UNL A   1      33.035  25.937  24.234  1.00  0.00     0.041 A 
BRANCH   9  10
ATOM     10  N   UNL A   1      32.847  24.800  23.440  1.00  0.00    -0.326 N 
ATOM     11  C   UNL A   1      33.366  23.540  23.454  1.00  0.00     0.228 C 
ATOM     12  H   UNL A   1      32.199  24.941  22.714  1.00  0.00     0.169 HD
ATOM     13  O   UNL A   1      32.887  22.757  22.620  1.00  0.00    -0.274 OA
BRANCH  11  14
ATOM     14  C   UNL A   1      34.452  22.990  24.401  1.00  0.00     0.095 C 
ATOM     15  C   UNL A   1      35.826  23.606  24.068  1.00  0.00     0.041 C 
ATOM     16  C   UNL A   1      34.382  21.476  24.699  1.00  0.00     0.095 C 
ATOM     17  C   UNL A   1      37.029  22.743  24.283  1.00  0.00    -0.030 C 
ATOM     18  C   UNL A   1      35.711  20.741  25.002  1.00  0.00     0.041 C 
ATOM     19  C   UNL A   1      36.976  21.471  24.690  1.00  0.00    -0.030 C 
BRANCH  16  20
ATOM     20  C   UNL A   1      33.252  21.100  25.667  1.00  0.00     0.228 C 
ATOM     21  O   UNL A   1      32.878  21.937  26.499  1.00  0.00    -0.274 OA
ATOM     22  N   UNL A   1      32.550  19.930  25.600  1.00  0.00    -0.326 N 
ATOM     23  H   UNL A   1      31.761  19.883  26.187  1.00  0.00     0.169 HD
BRANCH  22  24
ATOM     24  C   UNL A   1      32.784  18.794  24.825  1.00  0.00     0.048 A 
ATOM     25  C   UNL A   1      32.529  18.862  23.454  1.00  0.00     0.026 A 
ATOM     26  C   UNL A   1      33.272  17.615  25.377  1.00  0.00     0.111 A 
ATOM     27  C   UNL A   1      32.901  17.803  22.622  1.00  0.00     0.009 A 
ATOM     28  C   UNL A   1      33.672  16.569  24.543  1.00  0.00     0.271 A 
ATOM     29  C   UNL A   1      33.500  16.662  23.160  1.00  0.00     0.086 A 
BRANCH  28  30
ATOM     30  N   UNL A   1      34.313  15.388  25.133  1.00  0.00     0.062 N 
ATOM     31  O   UNL A   1      35.526  15.454  25.376  1.00  0.00    -0.258 OA
ATOM     32  O   UNL A   1      33.599  14.406  25.379  1.00  0.00    -0.258 OA
ENDBRANCH  28  30
ENDBRANCH  22  24
ENDBRANCH  16  20
ENDBRANCH  11  14
ENDBRANCH   9  10
ENDBRANCH   2   4
ENDBRANCH   1   2
BRANCH   1  33
ATOM     33  C   UNL A   1      31.868  31.110  26.805  1.00  0.00     0.275 C 
BRANCH  33  34
ATOM     34  C   UNL A   1      31.777  32.653  26.898  1.00  0.00     0.275 C 
BRANCH  34  35
ATOM     35  O   UNL A   1      33.064  33.312  26.874  1.00  0.00    -0.458 OA
BRANCH  35  36
ATOM     36  C   UNL A   1      33.404  33.992  28.001  1.00  0.00     0.338 C 
ATOM     37  O   UNL A   1      32.768  34.901  28.507  1.00  0.00    -0.246 OA
BRANCH  36  38
ATOM     38  C   UNL A   1      34.592  33.371  28.650  1.00  0.00     0.060 A 
ATOM     39  C   UNL A   1      34.396  32.215  29.416  1.00  0.00     0.016 A 
ATOM     40  C   UNL A   1      35.883  33.885  28.513  1.00  0.00     0.016 A 
ATOM     41  C   UNL A   1      35.476  31.584  30.055  1.00  0.00     0.010 A 
ATOM     42  C   UNL A   1      36.966  33.234  29.134  1.00  0.00     0.010 A 
ATOM     43  C   UNL A   1      36.778  32.088  29.931  1.00  0.00    -0.014 A 
BRANCH  43  44
ATOM     44  C   UNL A   1      37.924  31.504  30.701  1.00  0.00     0.031 A 
ATOM     45  C   UNL A   1      38.784  30.440  30.065  1.00  0.00     0.074 A 
ATOM     46  C   UNL A   1      38.207  31.872  31.967  1.00  0.00     0.049 A 
ATOM     47  N   UNL A   1      39.796  29.773  30.569  1.00  0.00    -0.248 NA
ATOM     48  C   UNL A   1      38.455  30.069  28.681  1.00  0.00     0.031 C 
ATOM     49  C   UNL A   1      37.492  32.885  32.734  1.00  0.00     0.029 A 
ATOM     50  N   UNL A   1      39.165  31.413  32.846  1.00  0.00    -0.354 N 
ATOM     51  C   UNL A   1      40.211  28.903  29.570  1.00  0.00     0.074 A 
ATOM     52  C   UNL A   1      39.303  29.079  28.457  1.00  0.00     0.031 C 
ATOM     53  C   UNL A   1      37.999  32.944  33.977  1.00  0.00     0.029 A 
ATOM     54  C   UNL A   1      39.086  31.974  34.099  1.00  0.00     0.049 A 
ATOM     55  H   UNL A   1      39.844  30.744  32.598  1.00  0.00     0.167 HD
ATOM     56  C   UNL A   1      41.271  28.059  29.555  1.00  0.00     0.037 A 
ATOM     57  C   UNL A   1      39.800  31.738  35.220  1.00  0.00     0.037 A 
ATOM     58  C   UNL A   1      42.210  27.892  30.632  1.00  0.00     0.049 A 
ATOM     59  C   UNL A   1      40.949  30.760  35.201  1.00  0.00     0.074 A 
ATOM     60  C   UNL A   1      43.365  27.129  30.655  1.00  0.00     0.029 A 
ATOM     61  N   UNL A   1      42.097  28.484  31.879  1.00  0.00    -0.354 N 
ATOM     62  N   UNL A   1      41.398  30.030  34.212  1.00  0.00    -0.248 NA
ATOM     63  C   UNL A   1      41.707  30.594  36.454  1.00  0.00     0.031 C 
ATOM     64  C   UNL A   1      43.924  27.217  31.934  1.00  0.00     0.029 A 
ATOM     65  C   UNL A   1      43.144  28.076  32.691  1.00  0.00     0.049 A 
ATOM     66  H   UNL A   1      41.380  29.103  32.148  1.00  0.00     0.167 HD
ATOM     67  C   UNL A   1      42.509  29.355  34.705  1.00  0.00     0.074 A 
ATOM     68  C   UNL A   1      42.669  29.758  36.084  1.00  0.00     0.031 C 
ATOM     69  C   UNL A   1      43.325  28.488  34.059  1.00  0.00     0.037 A 
BRANCH  56  70
ATOM     70  C   UNL A   1      41.477  27.246  28.312  1.00  0.00     0.064 A 
ATOM     71  C   UNL A   1      40.791  26.039  28.103  1.00  0.00     0.173 A 
ATOM     72  C   UNL A   1      42.360  27.682  27.314  1.00  0.00     0.173 A 
ATOM     73  F   UNL A   1      39.941  25.575  29.034  1.00  0.00    -0.203 F 
ATOM     74  C   UNL A   1      41.016  25.276  26.961  1.00  0.00     0.198 A 
ATOM     75  C   UNL A   1      42.558  26.933  26.159  1.00  0.00     0.198 A 
ATOM     76  F   UNL A   1      43.030  28.835  27.460  1.00  0.00    -0.203 F 
ATOM     77  F   UNL A   1      40.398  24.097  26.814  1.00  0.00    -0.200 F 
ATOM     78  C   UNL A   1      41.896  25.725  25.989  1.00  0.00     0.200 A 
ATOM     79  F   UNL A   1      43.398  27.374  25.211  1.00  0.00    -0.200 F 
ATOM     80  F   UNL A   1      42.115  24.989  24.891  1.00  0.00    -0.200 F 
ENDBRANCH  56  70
BRANCH  57  81
ATOM     81  C   UNL A   1      39.464  32.460  36.476  1.00  0.00     0.064 A 
ATOM     82  C   UNL A   1      38.454  31.995  37.330  1.00  0.00     0.173 A 
ATOM     83  C   UNL A   1      40.122  33.648  36.827  1.00  0.00     0.173 A 
ATOM     84  F   UNL A   1      37.778  30.879  37.023  1.00  0.00    -0.203 F 
ATOM     85  C   UNL A   1      38.102  32.703  38.478  1.00  0.00     0.198 A 
ATOM     86  C   UNL A   1      39.783  34.342  37.986  1.00  0.00     0.198 A 
ATOM     87  F   UNL A   1      41.095  34.132  36.043  1.00  0.00    -0.203 F 
ATOM     88  F   UNL A   1      37.102  32.262  39.255  1.00  0.00    -0.200 F 
ATOM     89  C   UNL A   1      38.768  33.874  38.808  1.00  0.00     0.200 A 
ATOM     90  F   UNL A   1      40.435  35.469  38.306  1.00  0.00    -0.200 F 
ATOM     91  F   UNL A   1      38.427  34.554  39.910  1.00  0.00    -0.200 F 
ENDBRANCH  57  81
BRANCH  69  92
ATOM     92  C   UNL A   1      44.509  27.937  34.803  1.00  0.00     0.064 A 
ATOM     93  C   UNL A   1      45.734  28.616  34.853  1.00  0.00     0.173 A 
ATOM     94  C   UNL A   1      44.386  26.752  35.547  1.00  0.00     0.173 A 
ATOM     95  F   UNL A   1      45.910  29.744  34.148  1.00  0.00    -0.203 F 
ATOM     96  C   UNL A   1      46.793  28.129  35.617  1.00  0.00     0.198 A 
ATOM     97  C   UNL A   1      45.437  26.282  36.330  1.00  0.00     0.198 A 
ATOM     98  F   UNL A   1      43.233  26.065  35.538  1.00  0.00    -0.203 F 
ATOM     99  F   UNL A   1      47.964  28.781  35.629  1.00  0.00    -0.200 F 
ATOM    100  C   UNL A   1      46.640  26.969  36.362  1.00  0.00     0.200 A 
ATOM    101  F   UNL A   1      45.281  25.169  37.061  1.00  0.00    -0.200 F 
ATOM    102  F   UNL A   1      47.653  26.515  37.113  1.00  0.00    -0.200 F 
ENDBRANCH  69  92
ENDBRANCH  43  44
ENDBRANCH  36  38
ENDBRANCH  35  36
ENDBRANCH  34  35
ENDBRANCH  33  34
ENDBRANCH   1  33
TORSDOF 16
ENDMDL
MODEL 3
REMARK VINA RESULT:     -13.5      3.138      8.920
REMARK SMILES O=C(OCCOC(=O)c1ccc(-c2c3nc(c(-c4c(F)c(F)c(F)c(F)c4F)c4ccc([nH]4)c(-c4c(F)c(F)c(F)c(F)c4F)c4nc(c(-c5c(F)c(F)c(F)c(F)c5F)c5ccc2[nH]5)C=C4)C=C3)cc1)c1ccc(NC(=O)[C@@H]2CC=CC[C@H]2C(=O)Nc2cccc([N+](=O)[O-])c2)cc1
REMARK SMILES IDX 3 1 2 2 1 3 72 4 73 5 98 6 74 7 97 8 75 9 76 10 77 11 78 13
REMARK SMILES IDX 79 14 80 15 84 16 81 17 83 18 82 19 85 20 86 21 87 22 88 24
REMARK SMILES IDX 89 25 96 26 90 27 92 28 91 29 93 30 94 31 95 32 4 33 5 34
REMARK SMILES IDX 6 35 7 36 8 37 9 38 10 39 71 40 11 41 70 42 12 43 13 44
REMARK SMILES IDX 14 45 64 46 15 47 69 48 63 49 65 50 16 51 68 52 62 53 61 54
REMARK SMILES IDX 17 56 49 57 29 58 48 59 30 60 33 61 47 62 66 63 31 64 32 65
REMARK SMILES IDX 46 67 67 68 34 69 18 70 19 71 27 72 20 73 21 74 25 75 28 76
REMARK SMILES IDX 22 77 23 78 26 79 24 80 50 81 51 82 59 83 52 84 53 85 57 86
REMARK SMILES IDX 60 87 54 88 55 89 58 90 56 91 35 92 36 93 44 94 37 95 38 96
REMARK SMILES IDX 42 97 45 98 39 99 40 100 43 101 41 102
REMARK H PARENT 76 12 87 23 65 55 33 66
REMARK Flexibility Score: inf
ROOT
ATOM      1  O   UNL A   1      41.500  20.886  25.872  1.00  0.00    -0.458 OA
ENDROOT
BRANCH   1   2
ATOM      2  C   UNL A   1      40.614  21.321  26.810  1.00  0.00     0.338 C 
ATOM      3  O   UNL A   1      40.731  20.965  27.980  1.00  0.00    -0.246 OA
BRANCH   2   4
ATOM      4  C   UNL A   1      39.356  22.021  26.401  1.00  0.00     0.060 A 
ATOM      5  C   UNL A   1      38.988  23.255  26.891  1.00  0.00     0.018 A 
ATOM      6  C   UNL A   1      38.540  21.472  25.399  1.00  0.00     0.018 A 
ATOM      7  C   UNL A   1      37.978  23.993  26.305  1.00  0.00     0.027 A 
ATOM      8  C   UNL A   1      37.414  22.173  24.912  1.00  0.00     0.027 A 
ATOM      9  C   UNL A   1      37.132  23.462  25.366  1.00  0.00     0.041 A 
BRANCH   9  10
ATOM     10  N   UNL A   1      36.028  24.165  24.871  1.00  0.00    -0.326 N 
ATOM     11  C   UNL A   1      34.688  23.917  24.830  1.00  0.00     0.228 C 
ATOM     12  H   UNL A   1      36.272  25.027  24.464  1.00  0.00     0.169 HD
ATOM     13  O   UNL A   1      33.990  24.835  24.373  1.00  0.00    -0.274 OA
BRANCH  11  14
ATOM     14  C   UNL A   1      33.962  22.643  25.307  1.00  0.00     0.095 C 
ATOM     15  C   UNL A   1      34.435  21.414  24.505  1.00  0.00     0.041 C 
ATOM     16  C   UNL A   1      32.451  22.795  25.589  1.00  0.00     0.095 C 
ATOM     17  C   UNL A   1      33.428  20.336  24.254  1.00  0.00    -0.030 C 
ATOM     18  C   UNL A   1      31.551  21.553  25.376  1.00  0.00     0.041 C 
ATOM     19  C   UNL A   1      32.148  20.402  24.634  1.00  0.00    -0.030 C 
BRANCH  16  20
ATOM     20  C   UNL A   1      32.150  23.539  26.898  1.00  0.00     0.228 C 
ATOM     21  O   UNL A   1      32.397  22.976  27.972  1.00  0.00    -0.274 OA
ATOM     22  N   UNL A   1      31.725  24.836  26.956  1.00  0.00    -0.326 N 
ATOM     23  H   UNL A   1      31.710  25.231  27.857  1.00  0.00     0.169 HD
BRANCH  22  24
ATOM     24  C   UNL A   1      31.308  25.684  25.929  1.00  0.00     0.048 A 
ATOM     25  C   UNL A   1      30.357  25.211  25.022  1.00  0.00     0.026 A 
ATOM     26  C   UNL A   1      31.802  26.977  25.797  1.00  0.00     0.111 A 
ATOM     27  C   UNL A   1      29.798  26.080  24.081  1.00  0.00     0.009 A 
ATOM     28  C   UNL A   1      31.222  27.854  24.878  1.00  0.00     0.271 A 
ATOM     29  C   UNL A   1      30.208  27.413  24.023  1.00  0.00     0.086 A 
BRANCH  28  30
ATOM     30  N   UNL A   1      31.661  29.254  24.849  1.00  0.00     0.062 N 
ATOM     31  O   UNL A   1      32.878  29.475  24.917  1.00  0.00    -0.258 OA
ATOM     32  O   UNL A   1      30.792  30.129  24.732  1.00  0.00    -0.258 OA
ENDBRANCH  28  30
ENDBRANCH  22  24
ENDBRANCH  16  20
ENDBRANCH  11  14
ENDBRANCH   9  10
ENDBRANCH   2   4
ENDBRANCH   1   2
BRANCH   1  33
ATOM     33  C   UNL A   1      42.923  20.700  26.051  1.00  0.00     0.275 C 
BRANCH  33  34
ATOM     34  C   UNL A   1      43.760  21.559  25.071  1.00  0.00     0.275 C 
BRANCH  34  35
ATOM     35  O   UNL A   1      43.159  22.837  24.760  1.00  0.00    -0.458 OA
BRANCH  35  36
ATOM     36  C   UNL A   1      43.944  23.928  24.964  1.00  0.00     0.338 C 
ATOM     37  O   UNL A   1      44.928  24.232  24.310  1.00  0.00    -0.246 OA
BRANCH  36  38
ATOM     38  C   UNL A   1      43.352  24.816  26.001  1.00  0.00     0.060 A 
ATOM     39  C   UNL A   1      43.787  26.146  26.058  1.00  0.00     0.016 A 
ATOM     40  C   UNL A   1      42.377  24.381  26.903  1.00  0.00     0.016 A 
ATOM     41  C   UNL A   1      43.268  27.033  27.015  1.00  0.00     0.010 A 
ATOM     42  C   UNL A   1      41.842  25.280  27.843  1.00  0.00     0.010 A 
ATOM     43  C   UNL A   1      42.292  26.612  27.929  1.00  0.00    -0.014 A 
BRANCH  43  44
ATOM     44  C   UNL A   1      41.814  27.504  29.035  1.00  0.00     0.031 A 
ATOM     45  C   UNL A   1      42.504  27.464  30.377  1.00  0.00     0.074 A 
ATOM     46  C   UNL A   1      40.759  28.332  28.892  1.00  0.00     0.049 A 
ATOM     47  N   UNL A   1      42.225  28.119  31.479  1.00  0.00    -0.248 NA
ATOM     48  C   UNL A   1      43.656  26.558  30.495  1.00  0.00     0.031 C 
ATOM     49  C   UNL A   1      39.980  28.507  27.672  1.00  0.00     0.029 A 
ATOM     50  N   UNL A   1      40.142  29.170  29.797  1.00  0.00    -0.354 N 
ATOM     51  C   UNL A   1      43.157  27.696  32.417  1.00  0.00     0.074 A 
ATOM     52  C   UNL A   1      43.966  26.682  31.776  1.00  0.00     0.031 C 
ATOM     53  C   UNL A   1      38.965  29.356  27.909  1.00  0.00     0.029 A 
ATOM     54  C   UNL A   1      39.023  29.796  29.302  1.00  0.00     0.049 A 
ATOM     55  H   UNL A   1      40.474  29.307  30.714  1.00  0.00     0.167 HD
ATOM     56  C   UNL A   1      43.354  28.131  33.685  1.00  0.00     0.037 A 
ATOM     57  C   UNL A   1      38.139  30.627  29.895  1.00  0.00     0.037 A 
ATOM     58  C   UNL A   1      42.589  29.162  34.334  1.00  0.00     0.049 A 
ATOM     59  C   UNL A   1      38.346  31.067  31.323  1.00  0.00     0.074 A 
ATOM     60  C   UNL A   1      42.791  29.725  35.582  1.00  0.00     0.029 A 
ATOM     61  N   UNL A   1      41.470  29.774  33.794  1.00  0.00    -0.354 N 
ATOM     62  N   UNL A   1      39.300  30.742  32.159  1.00  0.00    -0.248 NA
ATOM     63  C   UNL A   1      37.362  32.011  31.882  1.00  0.00     0.031 C 
ATOM     64  C   UNL A   1      41.762  30.642  35.821  1.00  0.00     0.029 A 
ATOM     65  C   UNL A   1      40.950  30.686  34.700  1.00  0.00     0.049 A 
ATOM     66  H   UNL A   1      41.099  29.590  32.901  1.00  0.00     0.167 HD
ATOM     67  C   UNL A   1      39.058  31.469  33.320  1.00  0.00     0.074 A 
ATOM     68  C   UNL A   1      37.866  32.253  33.086  1.00  0.00     0.031 C 
ATOM     69  C   UNL A   1      39.776  31.488  34.468  1.00  0.00     0.037 A 
BRANCH  56  70
ATOM     70  C   UNL A   1      44.463  27.485  34.462  1.00  0.00     0.064 A 
ATOM     71  C   UNL A   1      45.771  27.993  34.433  1.00  0.00     0.173 A 
ATOM     72  C   UNL A   1      44.213  26.354  35.252  1.00  0.00     0.173 A 
ATOM     73  F   UNL A   1      46.061  29.069  33.684  1.00  0.00    -0.203 F 
ATOM     74  C   UNL A   1      46.798  27.365  35.131  1.00  0.00     0.198 A 
ATOM     75  C   UNL A   1      45.236  25.748  35.975  1.00  0.00     0.198 A 
ATOM     76  F   UNL A   1      42.977  25.838  35.324  1.00  0.00    -0.203 F 
ATOM     77  F   UNL A   1      48.051  27.830  35.037  1.00  0.00    -0.200 F 
ATOM     78  C   UNL A   1      46.529  26.246  35.903  1.00  0.00     0.200 A 
ATOM     79  F   UNL A   1      44.973  24.674  36.733  1.00  0.00    -0.200 F 
ATOM     80  F   UNL A   1      47.518  25.639  36.573  1.00  0.00    -0.200 F 
ENDBRANCH  56  70
BRANCH  57  81
ATOM     81  C   UNL A   1      36.965  31.127  29.130  1.00  0.00     0.064 A 
ATOM     82  C   UNL A   1      36.910  32.450  28.671  1.00  0.00     0.173 A 
ATOM     83  C   UNL A   1      35.862  30.299  28.874  1.00  0.00     0.173 A 
ATOM     84  F   UNL A   1      37.928  33.287  28.916  1.00  0.00    -0.203 F 
ATOM     85  C   UNL A   1      35.786  32.932  28.003  1.00  0.00     0.198 A 
ATOM     86  C   UNL A   1      34.749  30.777  28.187  1.00  0.00     0.198 A 
ATOM     87  F   UNL A   1      35.868  29.025  29.293  1.00  0.00    -0.203 F 
ATOM     88  F   UNL A   1      35.738  34.214  27.614  1.00  0.00    -0.200 F 
ATOM     89  C   UNL A   1      34.708  32.095  27.758  1.00  0.00     0.200 A 
ATOM     90  F   UNL A   1      33.712  29.962  27.945  1.00  0.00    -0.200 F 
ATOM     91  F   UNL A   1      33.627  32.560  27.117  1.00  0.00    -0.200 F 
ENDBRANCH  57  81
BRANCH  69  92
ATOM     92  C   UNL A   1      39.339  32.417  35.565  1.00  0.00     0.064 A 
ATOM     93  C   UNL A   1      38.495  31.995  36.601  1.00  0.00     0.173 A 
ATOM     94  C   UNL A   1      39.844  33.727  35.625  1.00  0.00     0.173 A 
ATOM     95  F   UNL A   1      37.972  30.760  36.585  1.00  0.00    -0.203 F 
ATOM     96  C   UNL A   1      38.168  32.849  37.653  1.00  0.00     0.198 A 
ATOM     97  C   UNL A   1      39.537  34.569  36.691  1.00  0.00     0.198 A 
ATOM     98  F   UNL A   1      40.660  34.180  34.662  1.00  0.00    -0.203 F 
ATOM     99  F   UNL A   1      37.338  32.432  38.620  1.00  0.00    -0.200 F 
ATOM    100  C   UNL A   1      38.697  34.130  37.702  1.00  0.00     0.200 A 
ATOM    101  F   UNL A   1      40.062  35.801  36.743  1.00  0.00    -0.200 F 
ATOM    102  F   UNL A   1      38.399  34.941  38.726  1.00  0.00    -0.200 F 
ENDBRANCH  69  92
ENDBRANCH  43  44
ENDBRANCH  36  38
ENDBRANCH  35  36
ENDBRANCH  34  35
ENDBRANCH  33  34
ENDBRANCH   1  33
TORSDOF 16
ENDMDL
