MODEL 1
REMARK VINA RESULT:     -12.2      0.000      0.000
REMARK SMILES COc1cc(OC)cc(-c2ccc([C@@H](C)C(=O)OCCOC(=O)c3ccc(-c4c5nc(c(-c6c(F)c(F)c(F)c(F)c6F)c6ccc([nH]6)c(-c6c(F)c(F)c(F)c(F)c6F)c6nc(c(-c7c(F)c(F)c(F)c(F)c7F)c7ccc4[nH]7)C=C6)C=C5)cc3)cc2F)c1
REMARK SMILES IDX 19 1 18 2 16 3 17 4 14 5 15 6 13 7 10 8 11 9 88 10 12 11
REMARK SMILES IDX 87 12 89 13 9 14 3 15 4 16 90 17 5 18 8 19 2 20 1 21 6 22
REMARK SMILES IDX 7 23 20 24 21 25 22 26 23 27 24 28 25 29 86 30 26 31 85 32
REMARK SMILES IDX 27 33 28 34 29 35 79 36 30 37 84 38 78 39 80 40 31 41 83 42
REMARK SMILES IDX 77 43 76 44 32 46 64 47 44 48 63 49 45 50 48 51 62 52 81 53
REMARK SMILES IDX 46 54 47 55 61 57 82 58 49 59 33 60 34 61 42 62 35 63 36 64
REMARK SMILES IDX 40 65 43 66 37 67 38 68 41 69 39 70 65 71 66 72 74 73 67 74
REMARK SMILES IDX 68 75 72 76 75 77 69 78 70 79 73 80 71 81 50 82 51 83 59 84
REMARK SMILES IDX 52 85 53 86 57 87 60 88 54 89 55 90 58 91 56 92
REMARK H PARENT 80 45 48 56
REMARK Flexibility Score: inf
ROOT
ATOM      1  C   UNL A   1      31.628  29.004  25.772  1.00  0.00     0.274 C 
ENDROOT
BRANCH   1   2
ATOM      2  O   UNL A   1      30.865  29.092  24.554  1.00  0.00    -0.462 OA
BRANCH   2   3
ATOM      3  C   UNL A   1      31.398  28.505  23.450  1.00  0.00     0.313 C 
ATOM      4  O   UNL A   1      32.354  28.950  22.822  1.00  0.00    -0.252 OA
BRANCH   3   5
ATOM      5  C   UNL A   1      30.666  27.240  23.023  1.00  0.00     0.126 C 
ATOM      6  C   UNL A   1      29.215  27.290  23.496  1.00  0.00     0.025 C 
BRANCH   5   7
ATOM      7  C   UNL A   1      31.354  25.930  23.379  1.00  0.00    -0.031 A 
ATOM      8  C   UNL A   1      32.595  23.438  23.979  1.00  0.00     0.018 A 
ATOM      9  C   UNL A   1      31.885  24.154  24.958  1.00  0.00     0.012 A 
ATOM     10  C   UNL A   1      32.704  24.019  22.711  1.00  0.00     0.131 A 
ATOM     11  C   UNL A   1      31.270  25.375  24.663  1.00  0.00     0.005 A 
ATOM     12  C   UNL A   1      32.094  25.238  22.408  1.00  0.00     0.044 A 
ATOM     13  F   UNL A   1      33.366  23.385  21.730  1.00  0.00    -0.206 F 
BRANCH   8  14
ATOM     14  C   UNL A   1      33.116  22.093  24.271  1.00  0.00    -0.008 A 
ATOM     15  C   UNL A   1      32.836  19.688  24.521  1.00  0.00     0.123 A 
ATOM     16  C   UNL A   1      34.178  19.578  24.896  1.00  0.00     0.092 A 
ATOM     17  C   UNL A   1      32.306  20.945  24.218  1.00  0.00     0.055 A 
ATOM     18  C   UNL A   1      35.000  20.702  24.960  1.00  0.00     0.123 A 
ATOM     19  C   UNL A   1      34.468  21.948  24.639  1.00  0.00     0.055 A 
BRANCH  15  20
ATOM     20  O   UNL A   1      32.152  18.504  24.517  1.00  0.00    -0.497 OA
ATOM     21  C   UNL A   1      32.573  17.517  25.449  1.00  0.00     0.278 C 
ENDBRANCH  15  20
BRANCH  18  22
ATOM     22  O   UNL A   1      36.292  20.462  25.343  1.00  0.00    -0.497 OA
ATOM     23  C   UNL A   1      37.300  21.231  24.700  1.00  0.00     0.278 C 
ENDBRANCH  18  22
ENDBRANCH   8  14
ENDBRANCH   5   7
ENDBRANCH   3   5
ENDBRANCH   2   3
ENDBRANCH   1   2
BRANCH   1  24
ATOM     24  C   UNL A   1      31.813  30.385  26.406  1.00  0.00     0.275 C 
BRANCH  24  25
ATOM     25  O   UNL A   1      33.188  30.806  26.339  1.00  0.00    -0.458 OA
BRANCH  25  26
ATOM     26  C   UNL A   1      33.549  31.741  27.247  1.00  0.00     0.338 C 
ATOM     27  O   UNL A   1      32.913  32.713  27.610  1.00  0.00    -0.246 OA
BRANCH  26  28
ATOM     28  C   UNL A   1      34.838  31.365  27.843  1.00  0.00     0.060 A 
ATOM     29  C   UNL A   1      35.004  30.058  28.309  1.00  0.00     0.016 A 
ATOM     30  C   UNL A   1      35.837  32.321  28.027  1.00  0.00     0.016 A 
ATOM     31  C   UNL A   1      36.169  29.700  28.982  1.00  0.00     0.010 A 
ATOM     32  C   UNL A   1      37.007  31.960  28.696  1.00  0.00     0.010 A 
ATOM     33  C   UNL A   1      37.171  30.653  29.192  1.00  0.00    -0.014 A 
BRANCH  33  34
ATOM     34  C   UNL A   1      38.369  30.316  29.995  1.00  0.00     0.031 A 
ATOM     35  C   UNL A   1      39.389  29.371  29.431  1.00  0.00     0.074 A 
ATOM     36  C   UNL A   1      38.532  30.842  31.222  1.00  0.00     0.049 A 
ATOM     37  N   UNL A   1      40.416  28.812  30.017  1.00  0.00    -0.248 NA
ATOM     38  C   UNL A   1      39.226  29.002  28.016  1.00  0.00     0.031 C 
ATOM     39  C   UNL A   1      37.639  31.816  31.847  1.00  0.00     0.029 A 
ATOM     40  N   UNL A   1      39.501  30.615  32.166  1.00  0.00    -0.354 N 
ATOM     41  C   UNL A   1      41.005  28.006  29.054  1.00  0.00     0.074 A 
ATOM     42  C   UNL A   1      40.219  28.141  27.847  1.00  0.00     0.031 C 
ATOM     43  C   UNL A   1      38.094  32.095  33.080  1.00  0.00     0.029 A 
ATOM     44  C   UNL A   1      39.278  31.280  33.346  1.00  0.00     0.049 A 
ATOM     45  H   UNL A   1      40.280  30.033  32.013  1.00  0.00     0.167 HD
ATOM     46  C   UNL A   1      42.103  27.222  29.173  1.00  0.00     0.037 A 
ATOM     47  C   UNL A   1      39.934  31.207  34.519  1.00  0.00     0.037 A 
ATOM     48  C   UNL A   1      42.888  27.107  30.373  1.00  0.00     0.049 A 
ATOM     49  C   UNL A   1      41.116  30.284  34.644  1.00  0.00     0.074 A 
ATOM     50  C   UNL A   1      44.015  26.336  30.599  1.00  0.00     0.029 A 
ATOM     51  N   UNL A   1      42.627  27.792  31.551  1.00  0.00    -0.354 N 
ATOM     52  N   UNL A   1      41.653  29.502  33.740  1.00  0.00    -0.248 NA
ATOM     53  C   UNL A   1      41.779  30.227  35.955  1.00  0.00     0.031 C 
ATOM     54  C   UNL A   1      44.419  26.531  31.925  1.00  0.00     0.029 A 
ATOM     55  C   UNL A   1      43.567  27.454  32.511  1.00  0.00     0.049 A 
ATOM     56  H   UNL A   1      41.886  28.425  31.685  1.00  0.00     0.167 HD
ATOM     57  C   UNL A   1      42.730  28.884  34.359  1.00  0.00     0.074 A 
ATOM     58  C   UNL A   1      42.774  29.383  35.718  1.00  0.00     0.031 C 
ATOM     59  C   UNL A   1      43.605  27.983  33.849  1.00  0.00     0.037 A 
BRANCH  46  60
ATOM     60  C   UNL A   1      42.502  26.403  27.983  1.00  0.00     0.064 A 
ATOM     61  C   UNL A   1      41.976  25.123  27.759  1.00  0.00     0.173 A 
ATOM     62  C   UNL A   1      43.396  26.922  27.035  1.00  0.00     0.173 A 
ATOM     63  F   UNL A   1      41.129  24.577  28.645  1.00  0.00    -0.203 F 
ATOM     64  C   UNL A   1      42.346  24.384  26.639  1.00  0.00     0.198 A 
ATOM     65  C   UNL A   1      43.745  26.191  25.904  1.00  0.00     0.198 A 
ATOM     66  F   UNL A   1      43.925  28.144  27.202  1.00  0.00    -0.203 F 
ATOM     67  F   UNL A   1      41.861  23.147  26.463  1.00  0.00    -0.200 F 
ATOM     68  C   UNL A   1      43.224  24.920  25.708  1.00  0.00     0.200 A 
ATOM     69  F   UNL A   1      44.587  26.715  25.001  1.00  0.00    -0.200 F 
ATOM     70  F   UNL A   1      43.574  24.210  24.627  1.00  0.00    -0.200 F 
ENDBRANCH  46  60
BRANCH  47  71
ATOM     71  C   UNL A   1      39.471  32.013  35.678  1.00  0.00     0.064 A 
ATOM     72  C   UNL A   1      40.002  33.285  35.929  1.00  0.00     0.173 A 
ATOM     73  C   UNL A   1      38.493  31.527  36.558  1.00  0.00     0.173 A 
ATOM     74  F   UNL A   1      40.958  33.781  35.129  1.00  0.00    -0.203 F 
ATOM     75  C   UNL A   1      39.582  34.035  37.025  1.00  0.00     0.198 A 
ATOM     76  C   UNL A   1      38.055  32.289  37.639  1.00  0.00     0.198 A 
ATOM     77  F   UNL A   1      37.955  30.314  36.362  1.00  0.00    -0.203 F 
ATOM     78  F   UNL A   1      40.135  35.232  37.266  1.00  0.00    -0.200 F 
ATOM     79  C   UNL A   1      38.604  33.540  37.875  1.00  0.00     0.200 A 
ATOM     80  F   UNL A   1      37.103  31.811  38.451  1.00  0.00    -0.200 F 
ATOM     81  F   UNL A   1      38.198  34.265  38.926  1.00  0.00    -0.200 F 
ENDBRANCH  47  71
BRANCH  59  82
ATOM     82  C   UNL A   1      44.717  27.520  34.742  1.00  0.00     0.064 A 
ATOM     83  C   UNL A   1      45.925  28.226  34.837  1.00  0.00     0.173 A 
ATOM     84  C   UNL A   1      44.544  26.392  35.556  1.00  0.00     0.173 A 
ATOM     85  F   UNL A   1      46.141  29.302  34.066  1.00  0.00    -0.203 F 
ATOM     86  C   UNL A   1      46.926  27.809  35.709  1.00  0.00     0.198 A 
ATOM     87  C   UNL A   1      45.538  25.992  36.443  1.00  0.00     0.198 A 
ATOM     88  F   UNL A   1      43.403  25.688  35.503  1.00  0.00    -0.203 F 
ATOM     89  F   UNL A   1      48.086  28.479  35.765  1.00  0.00    -0.200 F 
ATOM     90  C   UNL A   1      46.729  26.698  36.517  1.00  0.00     0.200 A 
ATOM     91  F   UNL A   1      45.343  24.925  37.231  1.00  0.00    -0.200 F 
ATOM     92  F   UNL A   1      47.690  26.306  37.364  1.00  0.00    -0.200 F 
ENDBRANCH  59  82
ENDBRANCH  33  34
ENDBRANCH  26  28
ENDBRANCH  25  26
ENDBRANCH  24  25
ENDBRANCH   1  24
TORSDOF 15
ENDMDL
MODEL 2
REMARK VINA RESULT:     -12.2      5.000     10.278
REMARK SMILES COc1cc(OC)cc(-c2ccc([C@@H](C)C(=O)OCCOC(=O)c3ccc(-c4c5nc(c(-c6c(F)c(F)c(F)c(F)c6F)c6ccc([nH]6)c(-c6c(F)c(F)c(F)c(F)c6F)c6nc(c(-c7c(F)c(F)c(F)c(F)c7F)c7ccc4[nH]7)C=C6)C=C5)cc3)cc2F)c1
REMARK SMILES IDX 19 1 18 2 16 3 17 4 14 5 15 6 13 7 10 8 11 9 88 10 12 11
REMARK SMILES IDX 87 12 89 13 9 14 3 15 4 16 90 17 5 18 8 19 2 20 1 21 6 22
REMARK SMILES IDX 7 23 20 24 21 25 22 26 23 27 24 28 25 29 86 30 26 31 85 32
REMARK SMILES IDX 27 33 28 34 29 35 79 36 30 37 84 38 78 39 80 40 31 41 83 42
REMARK SMILES IDX 77 43 76 44 32 46 64 47 44 48 63 49 45 50 48 51 62 52 81 53
REMARK SMILES IDX 46 54 47 55 61 57 82 58 49 59 33 60 34 61 42 62 35 63 36 64
REMARK SMILES IDX 40 65 43 66 37 67 38 68 41 69 39 70 65 71 66 72 74 73 67 74
REMARK SMILES IDX 68 75 72 76 75 77 69 78 70 79 73 80 71 81 50 82 51 83 59 84
REMARK SMILES IDX 52 85 53 86 57 87 60 88 54 89 55 90 58 91 56 92
REMARK H PARENT 80 45 48 56
REMARK Flexibility Score: inf
ROOT
ATOM      1  C   UNL A   1      33.337  34.173  28.048  1.00  0.00     0.274 C 
ENDROOT
BRANCH   1   2
ATOM      2  O   UNL A   1      32.594  34.554  29.221  1.00  0.00    -0.462 OA
BRANCH   2   3
ATOM      3  C   UNL A   1      32.912  35.746  29.792  1.00  0.00     0.313 C 
ATOM      4  O   UNL A   1      33.085  36.789  29.168  1.00  0.00    -0.252 OA
BRANCH   3   5
ATOM      5  C   UNL A   1      33.078  35.670  31.303  1.00  0.00     0.126 C 
ATOM      6  C   UNL A   1      33.181  37.078  31.889  1.00  0.00     0.025 C 
BRANCH   5   7
ATOM      7  C   UNL A   1      34.181  34.746  31.798  1.00  0.00    -0.031 A 
ATOM      8  C   UNL A   1      36.221  32.957  32.659  1.00  0.00     0.018 A 
ATOM      9  C   UNL A   1      35.243  33.430  33.550  1.00  0.00     0.012 A 
ATOM     10  C   UNL A   1      36.179  33.432  31.344  1.00  0.00     0.131 A 
ATOM     11  C   UNL A   1      34.237  34.304  33.126  1.00  0.00     0.005 A 
ATOM     12  C   UNL A   1      35.178  34.306  30.914  1.00  0.00     0.044 A 
ATOM     13  F   UNL A   1      37.082  33.016  30.443  1.00  0.00    -0.206 F 
BRANCH   8  14
ATOM     14  C   UNL A   1      37.188  31.933  33.089  1.00  0.00    -0.008 A 
ATOM     15  C   UNL A   1      39.321  31.261  34.049  1.00  0.00     0.123 A 
ATOM     16  C   UNL A   1      38.991  29.921  33.827  1.00  0.00     0.092 A 
ATOM     17  C   UNL A   1      38.424  32.264  33.672  1.00  0.00     0.055 A 
ATOM     18  C   UNL A   1      37.774  29.568  33.245  1.00  0.00     0.123 A 
ATOM     19  C   UNL A   1      36.879  30.573  32.890  1.00  0.00     0.055 A 
BRANCH  15  20
ATOM     20  O   UNL A   1      40.553  31.453  34.613  1.00  0.00    -0.497 OA
ATOM     21  C   UNL A   1      40.577  31.966  35.938  1.00  0.00     0.278 C 
ENDBRANCH  15  20
BRANCH  18  22
ATOM     22  O   UNL A   1      37.573  28.225  33.079  1.00  0.00    -0.497 OA
ATOM     23  C   UNL A   1      38.592  27.509  32.393  1.00  0.00     0.278 C 
ENDBRANCH  18  22
ENDBRANCH   8  14
ENDBRANCH   5   7
ENDBRANCH   3   5
ENDBRANCH   2   3
ENDBRANCH   1   2
BRANCH   1  24
ATOM     24  C   UNL A   1      33.198  32.674  27.772  1.00  0.00     0.275 C 
BRANCH  24  25
ATOM     25  O   UNL A   1      34.328  31.945  28.286  1.00  0.00    -0.458 OA
BRANCH  25  26
ATOM     26  C   UNL A   1      34.385  30.643  27.927  1.00  0.00     0.338 C 
ATOM     27  O   UNL A   1      33.507  29.969  27.420  1.00  0.00    -0.246 OA
BRANCH  26  28
ATOM     28  C   UNL A   1      35.745  30.136  28.154  1.00  0.00     0.060 A 
ATOM     29  C   UNL A   1      36.076  29.653  29.422  1.00  0.00     0.016 A 
ATOM     30  C   UNL A   1      36.710  30.229  27.151  1.00  0.00     0.016 A 
ATOM     31  C   UNL A   1      37.386  29.274  29.704  1.00  0.00     0.010 A 
ATOM     32  C   UNL A   1      38.021  29.843  27.432  1.00  0.00     0.010 A 
ATOM     33  C   UNL A   1      38.369  29.379  28.714  1.00  0.00    -0.014 A 
BRANCH  33  34
ATOM     34  C   UNL A   1      39.784  29.078  29.029  1.00  0.00     0.031 A 
ATOM     35  C   UNL A   1      40.612  30.106  29.743  1.00  0.00     0.074 A 
ATOM     36  C   UNL A   1      40.323  27.901  28.666  1.00  0.00     0.049 A 
ATOM     37  N   UNL A   1      41.899  30.122  29.970  1.00  0.00    -0.248 NA
ATOM     38  C   UNL A   1      39.891  31.275  30.270  1.00  0.00     0.031 C 
ATOM     39  C   UNL A   1      39.601  26.805  28.023  1.00  0.00     0.029 A 
ATOM     40  N   UNL A   1      41.610  27.440  28.775  1.00  0.00    -0.354 N 
ATOM     41  C   UNL A   1      42.148  31.312  30.639  1.00  0.00     0.074 A 
ATOM     42  C   UNL A   1      40.880  31.996  30.777  1.00  0.00     0.031 C 
ATOM     43  C   UNL A   1      40.460  25.801  27.780  1.00  0.00     0.029 A 
ATOM     44  C   UNL A   1      41.797  26.206  28.205  1.00  0.00     0.049 A 
ATOM     45  H   UNL A   1      42.330  27.945  29.220  1.00  0.00     0.167 HD
ATOM     46  C   UNL A   1      43.332  31.789  31.093  1.00  0.00     0.037 A 
ATOM     47  C   UNL A   1      42.930  25.503  28.012  1.00  0.00     0.037 A 
ATOM     48  C   UNL A   1      44.585  31.094  30.965  1.00  0.00     0.049 A 
ATOM     49  C   UNL A   1      44.241  26.080  28.473  1.00  0.00     0.074 A 
ATOM     50  C   UNL A   1      45.841  31.493  31.386  1.00  0.00     0.029 A 
ATOM     51  N   UNL A   1      44.736  29.848  30.375  1.00  0.00    -0.354 N 
ATOM     52  N   UNL A   1      44.475  27.218  29.079  1.00  0.00    -0.248 NA
ATOM     53  C   UNL A   1      45.447  25.280  28.214  1.00  0.00     0.031 C 
ATOM     54  C   UNL A   1      46.759  30.501  31.022  1.00  0.00     0.029 A 
ATOM     55  C   UNL A   1      46.067  29.467  30.412  1.00  0.00     0.049 A 
ATOM     56  H   UNL A   1      44.006  29.313  29.989  1.00  0.00     0.167 HD
ATOM     57  C   UNL A   1      45.845  27.258  29.302  1.00  0.00     0.074 A 
ATOM     58  C   UNL A   1      46.392  26.028  28.768  1.00  0.00     0.031 C 
ATOM     59  C   UNL A   1      46.584  28.227  29.896  1.00  0.00     0.037 A 
BRANCH  46  60
ATOM     60  C   UNL A   1      43.331  33.140  31.742  1.00  0.00     0.064 A 
ATOM     61  C   UNL A   1      43.338  34.321  30.986  1.00  0.00     0.173 A 
ATOM     62  C   UNL A   1      43.288  33.253  33.140  1.00  0.00     0.173 A 
ATOM     63  F   UNL A   1      43.395  34.265  29.647  1.00  0.00    -0.203 F 
ATOM     64  C   UNL A   1      43.321  35.566  31.608  1.00  0.00     0.198 A 
ATOM     65  C   UNL A   1      43.247  34.499  33.756  1.00  0.00     0.198 A 
ATOM     66  F   UNL A   1      43.278  32.152  33.907  1.00  0.00    -0.203 F 
ATOM     67  F   UNL A   1      43.365  36.684  30.868  1.00  0.00    -0.200 F 
ATOM     68  C   UNL A   1      43.268  35.656  32.991  1.00  0.00     0.200 A 
ATOM     69  F   UNL A   1      43.187  34.582  35.093  1.00  0.00    -0.200 F 
ATOM     70  F   UNL A   1      43.245  36.856  33.587  1.00  0.00    -0.200 F 
ENDBRANCH  46  60
BRANCH  47  71
ATOM     71  C   UNL A   1      42.875  24.186  27.328  1.00  0.00     0.064 A 
ATOM     72  C   UNL A   1      43.178  24.069  25.964  1.00  0.00     0.173 A 
ATOM     73  C   UNL A   1      42.517  23.019  28.019  1.00  0.00     0.173 A 
ATOM     74  F   UNL A   1      43.501  25.161  25.255  1.00  0.00    -0.203 F 
ATOM     75  C   UNL A   1      43.111  22.839  25.316  1.00  0.00     0.198 A 
ATOM     76  C   UNL A   1      42.476  21.785  27.376  1.00  0.00     0.198 A 
ATOM     77  F   UNL A   1      42.215  23.078  29.325  1.00  0.00    -0.203 F 
ATOM     78  F   UNL A   1      43.365  22.761  24.002  1.00  0.00    -0.200 F 
ATOM     79  C   UNL A   1      42.767  21.696  26.023  1.00  0.00     0.200 A 
ATOM     80  F   UNL A   1      42.152  20.683  28.065  1.00  0.00    -0.200 F 
ATOM     81  F   UNL A   1      42.706  20.513  25.399  1.00  0.00    -0.200 F 
ENDBRANCH  47  71
BRANCH  59  82
ATOM     82  C   UNL A   1      48.053  27.975  30.051  1.00  0.00     0.064 A 
ATOM     83  C   UNL A   1      48.567  27.273  31.150  1.00  0.00     0.173 A 
ATOM     84  C   UNL A   1      48.949  28.389  29.054  1.00  0.00     0.173 A 
ATOM     85  F   UNL A   1      47.750  26.871  32.136  1.00  0.00    -0.203 F 
ATOM     86  C   UNL A   1      49.928  27.005  31.252  1.00  0.00     0.198 A 
ATOM     87  C   UNL A   1      50.306  28.099  29.147  1.00  0.00     0.198 A 
ATOM     88  F   UNL A   1      48.503  29.059  27.981  1.00  0.00    -0.203 F 
ATOM     89  F   UNL A   1      50.405  26.358  32.325  1.00  0.00    -0.200 F 
ATOM     90  C   UNL A   1      50.795  27.410  30.247  1.00  0.00     0.200 A 
ATOM     91  F   UNL A   1      51.141  28.481  28.171  1.00  0.00    -0.200 F 
ATOM     92  F   UNL A   1      52.105  27.140  30.341  1.00  0.00    -0.200 F 
ENDBRANCH  59  82
ENDBRANCH  33  34
ENDBRANCH  26  28
ENDBRANCH  25  26
ENDBRANCH  24  25
ENDBRANCH   1  24
TORSDOF 15
ENDMDL
MODEL 3
REMARK VINA RESULT:     -12.2      5.368      9.943
REMARK SMILES COc1cc(OC)cc(-c2ccc([C@@H](C)C(=O)OCCOC(=O)c3ccc(-c4c5nc(c(-c6c(F)c(F)c(F)c(F)c6F)c6ccc([nH]6)c(-c6c(F)c(F)c(F)c(F)c6F)c6nc(c(-c7c(F)c(F)c(F)c(F)c7F)c7ccc4[nH]7)C=C6)C=C5)cc3)cc2F)c1
REMARK SMILES IDX 19 1 18 2 16 3 17 4 14 5 15 6 13 7 10 8 11 9 88 10 12 11
REMARK SMILES IDX 87 12 89 13 9 14 3 15 4 16 90 17 5 18 8 19 2 20 1 21 6 22
REMARK SMILES IDX 7 23 20 24 21 25 22 26 23 27 24 28 25 29 86 30 26 31 85 32
REMARK SMILES IDX 27 33 28 34 29 35 79 36 30 37 84 38 78 39 80 40 31 41 83 42
REMARK SMILES IDX 77 43 76 44 32 46 64 47 44 48 63 49 45 50 48 51 62 52 81 53
REMARK SMILES IDX 46 54 47 55 61 57 82 58 49 59 33 60 34 61 42 62 35 63 36 64
REMARK SMILES IDX 40 65 43 66 37 67 38 68 41 69 39 70 65 71 66 72 74 73 67 74
REMARK SMILES IDX 68 75 72 76 75 77 69 78 70 79 73 80 71 81 50 82 51 83 59 84
REMARK SMILES IDX 52 85 53 86 57 87 60 88 54 89 55 90 58 91 56 92
REMARK H PARENT 80 45 48 56
REMARK Flexibility Score: inf
ROOT
ATOM      1  C   UNL A   1      42.517  18.389  26.489  1.00  0.00     0.274 C 
ENDROOT
BRANCH   1   2
ATOM      2  O   UNL A   1      41.972  19.678  26.151  1.00  0.00    -0.462 OA
BRANCH   2   3
ATOM      3  C   UNL A   1      41.286  20.331  27.125  1.00  0.00     0.313 C 
ATOM      4  O   UNL A   1      40.786  19.787  28.105  1.00  0.00    -0.252 OA
BRANCH   3   5
ATOM      5  C   UNL A   1      41.150  21.827  26.874  1.00  0.00     0.126 C 
ATOM      6  C   UNL A   1      41.753  22.609  28.039  1.00  0.00     0.025 C 
BRANCH   5   7
ATOM      7  C   UNL A   1      39.754  22.308  26.504  1.00  0.00    -0.031 A 
ATOM      8  C   UNL A   1      37.163  23.194  25.725  1.00  0.00     0.018 A 
ATOM      9  C   UNL A   1      38.008  24.005  26.501  1.00  0.00     0.012 A 
ATOM     10  C   UNL A   1      37.628  21.919  25.386  1.00  0.00     0.131 A 
ATOM     11  C   UNL A   1      39.283  23.573  26.880  1.00  0.00     0.005 A 
ATOM     12  C   UNL A   1      38.900  21.480  25.761  1.00  0.00     0.044 A 
ATOM     13  F   UNL A   1      36.871  21.097  24.643  1.00  0.00    -0.206 F 
BRANCH   8  14
ATOM     14  C   UNL A   1      35.883  23.719  25.222  1.00  0.00    -0.008 A 
ATOM     15  C   UNL A   1      33.704  24.750  25.557  1.00  0.00     0.123 A 
ATOM     16  C   UNL A   1      33.450  24.642  24.187  1.00  0.00     0.092 A 
ATOM     17  C   UNL A   1      34.915  24.280  26.073  1.00  0.00     0.055 A 
ATOM     18  C   UNL A   1      34.391  24.084  23.324  1.00  0.00     0.123 A 
ATOM     19  C   UNL A   1      35.603  23.636  23.844  1.00  0.00     0.055 A 
BRANCH  15  20
ATOM     20  O   UNL A   1      32.682  25.304  26.280  1.00  0.00    -0.497 OA
ATOM     21  C   UNL A   1      32.429  26.687  26.073  1.00  0.00     0.278 C 
ENDBRANCH  15  20
BRANCH  18  22
ATOM     22  O   UNL A   1      34.021  24.033  22.008  1.00  0.00    -0.497 OA
ATOM     23  C   UNL A   1      32.897  24.819  21.632  1.00  0.00     0.278 C 
ENDBRANCH  18  22
ENDBRANCH   8  14
ENDBRANCH   5   7
ENDBRANCH   3   5
ENDBRANCH   2   3
ENDBRANCH   1   2
BRANCH   1  24
ATOM     24  C   UNL A   1      43.766  18.085  25.658  1.00  0.00     0.275 C 
BRANCH  24  25
ATOM     25  O   UNL A   1      43.776  18.848  24.437  1.00  0.00    -0.458 OA
BRANCH  25  26
ATOM     26  C   UNL A   1      44.949  19.452  24.144  1.00  0.00     0.338 C 
ATOM     27  O   UNL A   1      45.893  18.989  23.529  1.00  0.00    -0.246 OA
BRANCH  26  28
ATOM     28  C   UNL A   1      44.906  20.845  24.605  1.00  0.00     0.060 A 
ATOM     29  C   UNL A   1      44.569  21.843  23.686  1.00  0.00     0.016 A 
ATOM     30  C   UNL A   1      45.290  21.172  25.904  1.00  0.00     0.016 A 
ATOM     31  C   UNL A   1      44.630  23.184  24.058  1.00  0.00     0.010 A 
ATOM     32  C   UNL A   1      45.345  22.516  26.279  1.00  0.00     0.010 A 
ATOM     33  C   UNL A   1      45.032  23.528  25.353  1.00  0.00    -0.014 A 
BRANCH  33  34
ATOM     34  C   UNL A   1      45.202  24.949  25.731  1.00  0.00     0.031 A 
ATOM     35  C   UNL A   1      46.555  25.586  25.606  1.00  0.00     0.074 A 
ATOM     36  C   UNL A   1      44.157  25.657  26.195  1.00  0.00     0.049 A 
ATOM     37  N   UNL A   1      46.965  26.753  26.030  1.00  0.00    -0.248 NA
ATOM     38  C   UNL A   1      47.586  24.799  24.911  1.00  0.00     0.031 C 
ATOM     39  C   UNL A   1      42.785  25.162  26.303  1.00  0.00     0.029 A 
ATOM     40  N   UNL A   1      44.092  26.940  26.676  1.00  0.00    -0.354 N 
ATOM     41  C   UNL A   1      48.306  26.829  25.680  1.00  0.00     0.074 A 
ATOM     42  C   UNL A   1      48.644  25.590  25.014  1.00  0.00     0.031 C 
ATOM     43  C   UNL A   1      42.014  26.128  26.832  1.00  0.00     0.029 A 
ATOM     44  C   UNL A   1      42.850  27.284  27.145  1.00  0.00     0.049 A 
ATOM     45  H   UNL A   1      44.862  27.554  26.683  1.00  0.00     0.167 HD
ATOM     46  C   UNL A   1      49.174  27.845  25.900  1.00  0.00     0.037 A 
ATOM     47  C   UNL A   1      42.445  28.395  27.791  1.00  0.00     0.037 A 
ATOM     48  C   UNL A   1      48.825  29.081  26.548  1.00  0.00     0.049 A 
ATOM     49  C   UNL A   1      43.442  29.485  28.075  1.00  0.00     0.074 A 
ATOM     50  C   UNL A   1      49.631  30.171  26.824  1.00  0.00     0.029 A 
ATOM     51  N   UNL A   1      47.556  29.392  27.016  1.00  0.00    -0.354 N 
ATOM     52  N   UNL A   1      44.715  29.541  27.769  1.00  0.00    -0.248 NA
ATOM     53  C   UNL A   1      42.949  30.662  28.805  1.00  0.00     0.031 C 
ATOM     54  C   UNL A   1      48.858  31.130  27.489  1.00  0.00     0.029 A 
ATOM     55  C   UNL A   1      47.560  30.653  27.588  1.00  0.00     0.049 A 
ATOM     56  H   UNL A   1      46.769  28.804  26.950  1.00  0.00     0.167 HD
ATOM     57  C   UNL A   1      45.168  30.767  28.238  1.00  0.00     0.074 A 
ATOM     58  C   UNL A   1      44.033  31.426  28.849  1.00  0.00     0.031 C 
ATOM     59  C   UNL A   1      46.412  31.299  28.168  1.00  0.00     0.037 A 
BRANCH  46  60
ATOM     60  C   UNL A   1      50.595  27.649  25.463  1.00  0.00     0.064 A 
ATOM     61  C   UNL A   1      50.994  27.863  24.136  1.00  0.00     0.173 A 
ATOM     62  C   UNL A   1      51.575  27.276  26.395  1.00  0.00     0.173 A 
ATOM     63  F   UNL A   1      50.090  28.205  23.206  1.00  0.00    -0.203 F 
ATOM     64  C   UNL A   1      52.322  27.691  23.754  1.00  0.00     0.198 A 
ATOM     65  C   UNL A   1      52.905  27.129  26.013  1.00  0.00     0.198 A 
ATOM     66  F   UNL A   1      51.244  27.063  27.677  1.00  0.00    -0.203 F 
ATOM     67  F   UNL A   1      52.676  27.864  22.472  1.00  0.00    -0.200 F 
ATOM     68  C   UNL A   1      53.277  27.332  24.693  1.00  0.00     0.200 A 
ATOM     69  F   UNL A   1      53.829  26.790  26.925  1.00  0.00    -0.200 F 
ATOM     70  F   UNL A   1      54.556  27.174  24.324  1.00  0.00    -0.200 F 
ENDBRANCH  46  60
BRANCH  47  71
ATOM     71  C   UNL A   1      41.033  28.518  28.235  1.00  0.00     0.064 A 
ATOM     72  C   UNL A   1      40.043  28.997  27.366  1.00  0.00     0.173 A 
ATOM     73  C   UNL A   1      40.645  28.165  29.536  1.00  0.00     0.173 A 
ATOM     74  F   UNL A   1      40.370  29.371  26.120  1.00  0.00    -0.203 F 
ATOM     75  C   UNL A   1      38.722  29.131  27.786  1.00  0.00     0.198 A 
ATOM     76  C   UNL A   1      39.318  28.274  29.947  1.00  0.00     0.198 A 
ATOM     77  F   UNL A   1      41.556  27.704  30.407  1.00  0.00    -0.203 F 
ATOM     78  F   UNL A   1      37.802  29.629  26.949  1.00  0.00    -0.200 F 
ATOM     79  C   UNL A   1      38.359  28.762  29.073  1.00  0.00     0.200 A 
ATOM     80  F   UNL A   1      38.971  27.909  31.188  1.00  0.00    -0.200 F 
ATOM     81  F   UNL A   1      37.087  28.888  29.474  1.00  0.00    -0.200 F 
ENDBRANCH  47  71
BRANCH  59  82
ATOM     82  C   UNL A   1      46.603  32.681  28.716  1.00  0.00     0.064 A 
ATOM     83  C   UNL A   1      46.401  33.820  27.925  1.00  0.00     0.173 A 
ATOM     84  C   UNL A   1      46.930  32.864  30.068  1.00  0.00     0.173 A 
ATOM     85  F   UNL A   1      46.101  33.692  26.623  1.00  0.00    -0.203 F 
ATOM     86  C   UNL A   1      46.533  35.095  28.465  1.00  0.00     0.198 A 
ATOM     87  C   UNL A   1      47.039  34.141  30.610  1.00  0.00     0.198 A 
ATOM     88  F   UNL A   1      47.128  31.804  30.866  1.00  0.00    -0.203 F 
ATOM     89  F   UNL A   1      46.365  36.172  27.685  1.00  0.00    -0.200 F 
ATOM     90  C   UNL A   1      46.843  35.255  29.808  1.00  0.00     0.200 A 
ATOM     91  F   UNL A   1      47.328  34.294  31.910  1.00  0.00    -0.200 F 
ATOM     92  F   UNL A   1      46.958  36.485  30.328  1.00  0.00    -0.200 F 
ENDBRANCH  59  82
ENDBRANCH  33  34
ENDBRANCH  26  28
ENDBRANCH  25  26
ENDBRANCH  24  25
ENDBRANCH   1  24
TORSDOF 15
ENDMDL
