MODEL 1
REMARK VINA RESULT:     -11.4      0.000      0.000
REMARK SMILES CCC[NH2+][C@@]1(C(=O)OCCOC(=O)c2ccc(-c3c4nc(c(-c5c(F)c(F)c(F)c(F)c5F)c5ccc([nH]5)c(-c5c(F)c(F)c(F)c(F)c5F)c5nc(c(-c6c(F)c(F)c(F)c(F)c6F)c6ccc3[nH]6)C=C5)C=C4)cc2)CC[C@@H](Sc2ccc(OC)cc2)C1
REMARK SMILES IDX 9 1 8 2 6 3 7 4 5 5 77 6 89 7 78 8 79 9 4 10 3 13 2 14 1 15
REMARK SMILES IDX 80 16 81 17 82 18 88 19 83 20 87 21 84 22 85 23 86 24 10 25
REMARK SMILES IDX 11 26 12 27 13 28 14 29 15 30 76 31 16 32 75 33 17 34 18 35
REMARK SMILES IDX 19 36 69 37 20 38 74 39 68 40 70 41 21 42 73 43 67 44 66 45
REMARK SMILES IDX 22 47 54 48 34 49 53 50 35 51 38 52 52 53 71 54 36 55 37 56
REMARK SMILES IDX 51 58 72 59 39 60 23 61 24 62 32 63 25 64 26 65 30 66 33 67
REMARK SMILES IDX 27 68 28 69 31 70 29 71 55 72 56 73 64 74 57 75 58 76 62 77
REMARK SMILES IDX 65 78 59 79 60 80 63 81 61 82 40 83 41 84 49 85 42 86 43 87
REMARK SMILES IDX 47 88 50 89 44 90 45 91 48 92 46 93
REMARK H PARENT 4 11 4 12 70 46 38 57
REMARK Flexibility Score: inf
ROOT
ATOM      1  C   UNL A   1      31.347  29.310  24.353  1.00  0.00     0.274 C 
ENDROOT
BRANCH   1   2
ATOM      2  O   UNL A   1      30.904  27.996  24.759  1.00  0.00    -0.457 OA
BRANCH   2   3
ATOM      3  C   UNL A   1      30.593  27.104  23.775  1.00  0.00     0.368 C 
ATOM      4  O   UNL A   1      30.052  27.398  22.713  1.00  0.00    -0.245 OA
BRANCH   3   5
ATOM      5  C   UNL A   1      30.957  25.640  24.178  1.00  0.00     0.195 C 
ATOM      6  C   UNL A   1      32.339  25.649  24.856  1.00  0.00     0.082 C 
ATOM      7  C   UNL A   1      31.112  24.703  22.964  1.00  0.00     0.096 C 
ATOM      8  C   UNL A   1      33.336  25.441  23.730  1.00  0.00     0.022 C 
ATOM      9  C   UNL A   1      32.618  24.546  22.722  1.00  0.00     0.059 C 
BRANCH   5  10
ATOM     10  N   UNL A   1      30.013  25.157  25.221  1.00  0.00    -0.332 N 
ATOM     11  H   UNL A   1      29.375  25.922  25.442  1.00  0.00     0.347 HD
ATOM     12  H   UNL A   1      29.558  24.336  24.820  1.00  0.00     0.347 HD
BRANCH  10  13
ATOM     13  C   UNL A   1      30.613  24.704  26.467  1.00  0.00     0.261 C 
BRANCH  13  14
ATOM     14  C   UNL A   1      30.324  23.220  26.738  1.00  0.00     0.058 C 
ATOM     15  C   UNL A   1      30.919  22.252  25.724  1.00  0.00     0.010 C 
ENDBRANCH  13  14
ENDBRANCH  10  13
ENDBRANCH   5  10
BRANCH   9  16
ATOM     16  S   UNL A   1      33.204  22.799  22.686  1.00  0.00    -0.122 SA
BRANCH  16  17
ATOM     17  C   UNL A   1      34.624  22.785  23.768  1.00  0.00     0.008 A 
ATOM     18  C   UNL A   1      35.874  23.158  23.269  1.00  0.00     0.019 A 
ATOM     19  C   UNL A   1      34.548  22.282  25.069  1.00  0.00     0.019 A 
ATOM     20  C   UNL A   1      37.015  23.058  24.074  1.00  0.00     0.047 A 
ATOM     21  C   UNL A   1      35.683  22.206  25.884  1.00  0.00     0.047 A 
ATOM     22  C   UNL A   1      36.926  22.588  25.387  1.00  0.00     0.118 A 
BRANCH  22  23
ATOM     23  O   UNL A   1      38.114  22.528  26.062  1.00  0.00    -0.497 OA
ATOM     24  C   UNL A   1      38.960  21.419  25.776  1.00  0.00     0.278 C 
ENDBRANCH  22  23
ENDBRANCH  16  17
ENDBRANCH   9  16
ENDBRANCH   3   5
ENDBRANCH   2   3
ENDBRANCH   1   2
BRANCH   1  25
ATOM     25  C   UNL A   1      31.442  30.234  25.567  1.00  0.00     0.275 C 
BRANCH  25  26
ATOM     26  O   UNL A   1      32.803  30.236  26.027  1.00  0.00    -0.458 OA
BRANCH  26  27
ATOM     27  C   UNL A   1      33.138  31.191  26.922  1.00  0.00     0.338 C 
ATOM     28  O   UNL A   1      32.445  32.137  27.273  1.00  0.00    -0.246 OA
BRANCH  27  29
ATOM     29  C   UNL A   1      34.486  30.907  27.473  1.00  0.00     0.060 A 
ATOM     30  C   UNL A   1      34.908  29.595  27.681  1.00  0.00     0.016 A 
ATOM     31  C   UNL A   1      35.314  31.957  27.880  1.00  0.00     0.016 A 
ATOM     32  C   UNL A   1      36.077  29.339  28.395  1.00  0.00     0.010 A 
ATOM     33  C   UNL A   1      36.541  31.688  28.510  1.00  0.00     0.010 A 
ATOM     34  C   UNL A   1      36.916  30.371  28.827  1.00  0.00    -0.014 A 
BRANCH  34  35
ATOM     35  C   UNL A   1      38.101  30.070  29.694  1.00  0.00     0.031 A 
ATOM     36  C   UNL A   1      39.274  29.310  29.125  1.00  0.00     0.074 A 
ATOM     37  C   UNL A   1      38.203  30.538  30.957  1.00  0.00     0.049 A 
ATOM     38  N   UNL A   1      40.287  28.755  29.746  1.00  0.00    -0.248 NA
ATOM     39  C   UNL A   1      39.311  29.146  27.664  1.00  0.00     0.031 C 
ATOM     40  C   UNL A   1      37.222  31.382  31.639  1.00  0.00     0.029 A 
ATOM     41  N   UNL A   1      39.213  30.401  31.882  1.00  0.00    -0.354 N 
ATOM     42  C   UNL A   1      41.015  28.091  28.766  1.00  0.00     0.074 A 
ATOM     43  C   UNL A   1      40.354  28.343  27.504  1.00  0.00     0.031 C 
ATOM     44  C   UNL A   1      37.720  31.769  32.823  1.00  0.00     0.029 A 
ATOM     45  C   UNL A   1      38.996  31.099  33.046  1.00  0.00     0.049 A 
ATOM     46  H   UNL A   1      40.016  29.855  31.725  1.00  0.00     0.167 HD
ATOM     47  C   UNL A   1      42.124  27.325  28.912  1.00  0.00     0.037 A 
ATOM     48  C   UNL A   1      39.716  31.162  34.184  1.00  0.00     0.037 A 
ATOM     49  C   UNL A   1      42.844  27.156  30.145  1.00  0.00     0.049 A 
ATOM     50  C   UNL A   1      40.941  30.300  34.332  1.00  0.00     0.074 A 
ATOM     51  C   UNL A   1      43.954  26.369  30.401  1.00  0.00     0.029 A 
ATOM     52  N   UNL A   1      42.552  27.827  31.323  1.00  0.00    -0.354 N 
ATOM     53  N   UNL A   1      41.523  29.529  33.448  1.00  0.00    -0.248 NA
ATOM     54  C   UNL A   1      41.577  30.280  35.658  1.00  0.00     0.031 C 
ATOM     55  C   UNL A   1      44.324  26.551  31.740  1.00  0.00     0.029 A 
ATOM     56  C   UNL A   1      43.462  27.476  32.306  1.00  0.00     0.049 A 
ATOM     57  H   UNL A   1      41.806  28.458  31.442  1.00  0.00     0.167 HD
ATOM     58  C   UNL A   1      42.584  28.927  34.109  1.00  0.00     0.074 A 
ATOM     59  C   UNL A   1      42.591  29.449  35.459  1.00  0.00     0.031 C 
ATOM     60  C   UNL A   1      43.463  28.006  33.644  1.00  0.00     0.037 A 
BRANCH  47  61
ATOM     61  C   UNL A   1      42.588  26.553  27.714  1.00  0.00     0.064 A 
ATOM     62  C   UNL A   1      43.549  27.050  26.824  1.00  0.00     0.173 A 
ATOM     63  C   UNL A   1      42.063  25.273  27.469  1.00  0.00     0.173 A 
ATOM     64  F   UNL A   1      44.064  28.275  27.003  1.00  0.00    -0.203 F 
ATOM     65  C   UNL A   1      43.950  26.303  25.719  1.00  0.00     0.198 A 
ATOM     66  C   UNL A   1      42.486  24.519  26.379  1.00  0.00     0.198 A 
ATOM     67  F   UNL A   1      41.143  24.751  28.295  1.00  0.00    -0.203 F 
ATOM     68  F   UNL A   1      44.837  26.816  24.854  1.00  0.00    -0.200 F 
ATOM     69  C   UNL A   1      43.424  25.038  25.500  1.00  0.00     0.200 A 
ATOM     70  F   UNL A   1      41.981  23.295  26.176  1.00  0.00    -0.200 F 
ATOM     71  F   UNL A   1      43.814  24.322  24.437  1.00  0.00    -0.200 F 
ENDBRANCH  47  61
BRANCH  48  72
ATOM     72  C   UNL A   1      39.273  32.034  35.304  1.00  0.00     0.064 A 
ATOM     73  C   UNL A   1      38.484  31.519  36.342  1.00  0.00     0.173 A 
ATOM     74  C   UNL A   1      39.613  33.393  35.358  1.00  0.00     0.173 A 
ATOM     75  F   UNL A   1      38.101  30.234  36.317  1.00  0.00    -0.203 F 
ATOM     76  C   UNL A   1      38.051  32.331  37.389  1.00  0.00     0.198 A 
ATOM     77  C   UNL A   1      39.208  34.197  36.420  1.00  0.00     0.198 A 
ATOM     78  F   UNL A   1      40.355  33.939  34.383  1.00  0.00    -0.203 F 
ATOM     79  F   UNL A   1      37.264  31.823  38.347  1.00  0.00    -0.200 F 
ATOM     80  C   UNL A   1      38.422  33.666  37.433  1.00  0.00     0.200 A 
ATOM     81  F   UNL A   1      39.578  35.483  36.464  1.00  0.00    -0.200 F 
ATOM     82  F   UNL A   1      38.015  34.445  38.444  1.00  0.00    -0.200 F 
ENDBRANCH  48  72
BRANCH  60  83
ATOM     83  C   UNL A   1      44.512  27.516  34.595  1.00  0.00     0.064 A 
ATOM     84  C   UNL A   1      45.735  28.189  34.740  1.00  0.00     0.173 A 
ATOM     85  C   UNL A   1      44.281  26.386  35.392  1.00  0.00     0.173 A 
ATOM     86  F   UNL A   1      46.006  29.265  33.987  1.00  0.00    -0.203 F 
ATOM     87  C   UNL A   1      46.698  27.734  35.636  1.00  0.00     0.198 A 
ATOM     88  C   UNL A   1      45.240  25.946  36.301  1.00  0.00     0.198 A 
ATOM     89  F   UNL A   1      43.126  25.712  35.291  1.00  0.00    -0.203 F 
ATOM     90  F   UNL A   1      47.875  28.368  35.731  1.00  0.00    -0.200 F 
ATOM     91  C   UNL A   1      46.448  26.616  36.420  1.00  0.00     0.200 A 
ATOM     92  F   UNL A   1      44.993  24.870  37.063  1.00  0.00    -0.200 F 
ATOM     93  F   UNL A   1      47.375  26.180  37.282  1.00  0.00    -0.200 F 
ENDBRANCH  60  83
ENDBRANCH  34  35
ENDBRANCH  27  29
ENDBRANCH  26  27
ENDBRANCH  25  26
ENDBRANCH   1  25
TORSDOF 17
ENDMDL
MODEL 2
REMARK VINA RESULT:     -11.3      1.179      2.243
REMARK SMILES CCC[NH2+][C@@]1(C(=O)OCCOC(=O)c2ccc(-c3c4nc(c(-c5c(F)c(F)c(F)c(F)c5F)c5ccc([nH]5)c(-c5c(F)c(F)c(F)c(F)c5F)c5nc(c(-c6c(F)c(F)c(F)c(F)c6F)c6ccc3[nH]6)C=C5)C=C4)cc2)CC[C@@H](Sc2ccc(OC)cc2)C1
REMARK SMILES IDX 9 1 8 2 6 3 7 4 5 5 77 6 89 7 78 8 79 9 4 10 3 13 2 14 1 15
REMARK SMILES IDX 80 16 81 17 82 18 88 19 83 20 87 21 84 22 85 23 86 24 10 25
REMARK SMILES IDX 11 26 12 27 13 28 14 29 15 30 76 31 16 32 75 33 17 34 18 35
REMARK SMILES IDX 19 36 69 37 20 38 74 39 68 40 70 41 21 42 73 43 67 44 66 45
REMARK SMILES IDX 22 47 54 48 34 49 53 50 35 51 38 52 52 53 71 54 36 55 37 56
REMARK SMILES IDX 51 58 72 59 39 60 23 61 24 62 32 63 25 64 26 65 30 66 33 67
REMARK SMILES IDX 27 68 28 69 31 70 29 71 55 72 56 73 64 74 57 75 58 76 62 77
REMARK SMILES IDX 65 78 59 79 60 80 63 81 61 82 40 83 41 84 49 85 42 86 43 87
REMARK SMILES IDX 47 88 50 89 44 90 45 91 48 92 46 93
REMARK H PARENT 4 11 4 12 70 46 38 57
REMARK Flexibility Score: inf
ROOT
ATOM      1  C   UNL A   1      31.347  29.328  24.121  1.00  0.00     0.274 C 
ENDROOT
BRANCH   1   2
ATOM      2  O   UNL A   1      30.967  27.987  24.501  1.00  0.00    -0.457 OA
BRANCH   2   3
ATOM      3  C   UNL A   1      31.347  26.967  23.679  1.00  0.00     0.368 C 
ATOM      4  O   UNL A   1      31.257  26.989  22.455  1.00  0.00    -0.245 OA
BRANCH   3   5
ATOM      5  C   UNL A   1      31.862  25.730  24.482  1.00  0.00     0.195 C 
ATOM      6  C   UNL A   1      32.448  26.225  25.816  1.00  0.00     0.082 C 
ATOM      7  C   UNL A   1      33.021  24.999  23.779  1.00  0.00     0.096 C 
ATOM      8  C   UNL A   1      33.919  26.480  25.534  1.00  0.00     0.022 C 
ATOM      9  C   UNL A   1      34.309  25.442  24.483  1.00  0.00     0.059 C 
BRANCH   5  10
ATOM     10  N   UNL A   1      30.713  24.863  24.857  1.00  0.00    -0.332 N 
ATOM     11  H   UNL A   1      29.864  25.293  24.491  1.00  0.00     0.347 HD
ATOM     12  H   UNL A   1      30.921  23.945  24.460  1.00  0.00     0.347 HD
BRANCH  10  13
ATOM     13  C   UNL A   1      30.520  24.638  26.282  1.00  0.00     0.261 C 
BRANCH  13  14
ATOM     14  C   UNL A   1      30.617  23.150  26.648  1.00  0.00     0.058 C 
ATOM     15  C   UNL A   1      29.351  22.550  27.247  1.00  0.00     0.010 C 
ENDBRANCH  13  14
ENDBRANCH  10  13
ENDBRANCH   5  10
BRANCH   9  16
ATOM     16  S   UNL A   1      35.345  24.055  25.117  1.00  0.00    -0.122 SA
BRANCH  16  17
ATOM     17  C   UNL A   1      34.255  22.641  25.095  1.00  0.00     0.008 A 
ATOM     18  C   UNL A   1      34.106  21.867  26.248  1.00  0.00     0.019 A 
ATOM     19  C   UNL A   1      33.646  22.205  23.915  1.00  0.00     0.019 A 
ATOM     20  C   UNL A   1      33.335  20.699  26.221  1.00  0.00     0.047 A 
ATOM     21  C   UNL A   1      32.854  21.051  23.893  1.00  0.00     0.047 A 
ATOM     22  C   UNL A   1      32.700  20.287  25.046  1.00  0.00     0.118 A 
BRANCH  22  23
ATOM     23  O   UNL A   1      31.987  19.125  25.151  1.00  0.00    -0.497 OA
ATOM     24  C   UNL A   1      32.586  17.954  24.606  1.00  0.00     0.278 C 
ENDBRANCH  22  23
ENDBRANCH  16  17
ENDBRANCH   9  16
ENDBRANCH   3   5
ENDBRANCH   2   3
ENDBRANCH   1   2
BRANCH   1  25
ATOM     25  C   UNL A   1      31.352  30.243  25.346  1.00  0.00     0.275 C 
BRANCH  25  26
ATOM     26  O   UNL A   1      32.622  30.110  26.003  1.00  0.00    -0.458 OA
BRANCH  26  27
ATOM     27  C   UNL A   1      32.983  31.114  26.832  1.00  0.00     0.338 C 
ATOM     28  O   UNL A   1      32.309  32.091  27.131  1.00  0.00    -0.246 OA
BRANCH  27  29
ATOM     29  C   UNL A   1      34.333  30.843  27.384  1.00  0.00     0.060 A 
ATOM     30  C   UNL A   1      34.771  29.536  27.586  1.00  0.00     0.016 A 
ATOM     31  C   UNL A   1      35.147  31.901  27.799  1.00  0.00     0.016 A 
ATOM     32  C   UNL A   1      35.942  29.290  28.301  1.00  0.00     0.010 A 
ATOM     33  C   UNL A   1      36.376  31.644  28.430  1.00  0.00     0.010 A 
ATOM     34  C   UNL A   1      36.767  30.331  28.740  1.00  0.00    -0.014 A 
BRANCH  34  35
ATOM     35  C   UNL A   1      37.953  30.039  29.608  1.00  0.00     0.031 A 
ATOM     36  C   UNL A   1      39.132  29.285  29.041  1.00  0.00     0.074 A 
ATOM     37  C   UNL A   1      38.053  30.512  30.869  1.00  0.00     0.049 A 
ATOM     38  N   UNL A   1      40.148  28.738  29.664  1.00  0.00    -0.248 NA
ATOM     39  C   UNL A   1      39.170  29.116  27.581  1.00  0.00     0.031 C 
ATOM     40  C   UNL A   1      37.067  31.351  31.550  1.00  0.00     0.029 A 
ATOM     41  N   UNL A   1      39.064  30.384  31.795  1.00  0.00    -0.354 N 
ATOM     42  C   UNL A   1      40.880  28.076  28.686  1.00  0.00     0.074 A 
ATOM     43  C   UNL A   1      40.218  28.320  27.423  1.00  0.00     0.031 C 
ATOM     44  C   UNL A   1      37.562  31.745  32.733  1.00  0.00     0.029 A 
ATOM     45  C   UNL A   1      38.843  31.084  32.957  1.00  0.00     0.049 A 
ATOM     46  H   UNL A   1      39.870  29.842  31.639  1.00  0.00     0.167 HD
ATOM     47  C   UNL A   1      41.993  27.317  28.834  1.00  0.00     0.037 A 
ATOM     48  C   UNL A   1      39.562  31.154  34.094  1.00  0.00     0.037 A 
ATOM     49  C   UNL A   1      42.715  27.156  30.068  1.00  0.00     0.049 A 
ATOM     50  C   UNL A   1      40.793  30.301  34.245  1.00  0.00     0.074 A 
ATOM     51  C   UNL A   1      43.830  26.377  30.326  1.00  0.00     0.029 A 
ATOM     52  N   UNL A   1      42.419  27.828  31.243  1.00  0.00    -0.354 N 
ATOM     53  N   UNL A   1      41.379  29.530  33.364  1.00  0.00    -0.248 NA
ATOM     54  C   UNL A   1      41.428  30.288  35.571  1.00  0.00     0.031 C 
ATOM     55  C   UNL A   1      44.199  26.565  31.664  1.00  0.00     0.029 A 
ATOM     56  C   UNL A   1      43.331  27.486  32.227  1.00  0.00     0.049 A 
ATOM     57  H   UNL A   1      41.669  28.456  31.361  1.00  0.00     0.167 HD
ATOM     58  C   UNL A   1      42.444  28.937  34.026  1.00  0.00     0.074 A 
ATOM     59  C   UNL A   1      42.447  29.463  35.375  1.00  0.00     0.031 C 
ATOM     60  C   UNL A   1      43.329  28.020  33.563  1.00  0.00     0.037 A 
BRANCH  47  61
ATOM     61  C   UNL A   1      42.462  26.544  27.638  1.00  0.00     0.064 A 
ATOM     62  C   UNL A   1      43.467  27.016  26.783  1.00  0.00     0.173 A 
ATOM     63  C   UNL A   1      41.896  25.289  27.359  1.00  0.00     0.173 A 
ATOM     64  F   UNL A   1      44.023  28.218  26.996  1.00  0.00    -0.203 F 
ATOM     65  C   UNL A   1      43.872  26.270  25.679  1.00  0.00     0.198 A 
ATOM     66  C   UNL A   1      42.321  24.535  26.270  1.00  0.00     0.198 A 
ATOM     67  F   UNL A   1      40.933  24.792  28.150  1.00  0.00    -0.203 F 
ATOM     68  F   UNL A   1      44.802  26.759  24.848  1.00  0.00    -0.200 F 
ATOM     69  C   UNL A   1      43.304  25.029  25.426  1.00  0.00     0.200 A 
ATOM     70  F   UNL A   1      41.776  23.334  26.034  1.00  0.00    -0.200 F 
ATOM     71  F   UNL A   1      43.697  24.313  24.364  1.00  0.00    -0.200 F 
ENDBRANCH  47  61
BRANCH  48  72
ATOM     72  C   UNL A   1      39.114  32.027  35.212  1.00  0.00     0.064 A 
ATOM     73  C   UNL A   1      39.461  33.385  35.243  1.00  0.00     0.173 A 
ATOM     74  C   UNL A   1      38.347  31.527  36.275  1.00  0.00     0.173 A 
ATOM     75  F   UNL A   1      40.226  33.902  34.269  1.00  0.00    -0.203 F 
ATOM     76  C   UNL A   1      39.060  34.208  36.293  1.00  0.00     0.198 A 
ATOM     77  C   UNL A   1      37.918  32.357  37.307  1.00  0.00     0.198 A 
ATOM     78  F   UNL A   1      37.999  30.232  36.301  1.00  0.00    -0.203 F 
ATOM     79  F   UNL A   1      39.439  35.492  36.318  1.00  0.00    -0.200 F 
ATOM     80  C   UNL A   1      38.279  33.696  37.319  1.00  0.00     0.200 A 
ATOM     81  F   UNL A   1      37.155  31.860  38.290  1.00  0.00    -0.200 F 
ATOM     82  F   UNL A   1      37.884  34.489  38.324  1.00  0.00    -0.200 F 
ENDBRANCH  48  72
BRANCH  60  83
ATOM     83  C   UNL A   1      44.381  27.540  34.516  1.00  0.00     0.064 A 
ATOM     84  C   UNL A   1      44.181  26.399  35.308  1.00  0.00     0.173 A 
ATOM     85  C   UNL A   1      45.611  28.205  34.615  1.00  0.00     0.173 A 
ATOM     86  F   UNL A   1      43.013  25.740  35.258  1.00  0.00    -0.203 F 
ATOM     87  C   UNL A   1      45.169  25.954  36.181  1.00  0.00     0.198 A 
ATOM     88  C   UNL A   1      46.605  27.744  35.475  1.00  0.00     0.198 A 
ATOM     89  F   UNL A   1      45.850  29.298  33.876  1.00  0.00    -0.203 F 
ATOM     90  F   UNL A   1      44.943  24.884  36.957  1.00  0.00    -0.200 F 
ATOM     91  C   UNL A   1      46.382  26.623  36.260  1.00  0.00     0.200 A 
ATOM     92  F   UNL A   1      47.779  28.388  35.545  1.00  0.00    -0.200 F 
ATOM     93  F   UNL A   1      47.333  26.192  37.100  1.00  0.00    -0.200 F 
ENDBRANCH  60  83
ENDBRANCH  34  35
ENDBRANCH  27  29
ENDBRANCH  26  27
ENDBRANCH  25  26
ENDBRANCH   1  25
TORSDOF 17
ENDMDL
MODEL 3
REMARK VINA RESULT:     -11.2      4.114      9.754
REMARK SMILES CCC[NH2+][C@@]1(C(=O)OCCOC(=O)c2ccc(-c3c4nc(c(-c5c(F)c(F)c(F)c(F)c5F)c5ccc([nH]5)c(-c5c(F)c(F)c(F)c(F)c5F)c5nc(c(-c6c(F)c(F)c(F)c(F)c6F)c6ccc3[nH]6)C=C5)C=C4)cc2)CC[C@@H](Sc2ccc(OC)cc2)C1
REMARK SMILES IDX 9 1 8 2 6 3 7 4 5 5 77 6 89 7 78 8 79 9 4 10 3 13 2 14 1 15
REMARK SMILES IDX 80 16 81 17 82 18 88 19 83 20 87 21 84 22 85 23 86 24 10 25
REMARK SMILES IDX 11 26 12 27 13 28 14 29 15 30 76 31 16 32 75 33 17 34 18 35
REMARK SMILES IDX 19 36 69 37 20 38 74 39 68 40 70 41 21 42 73 43 67 44 66 45
REMARK SMILES IDX 22 47 54 48 34 49 53 50 35 51 38 52 52 53 71 54 36 55 37 56
REMARK SMILES IDX 51 58 72 59 39 60 23 61 24 62 32 63 25 64 26 65 30 66 33 67
REMARK SMILES IDX 27 68 28 69 31 70 29 71 55 72 56 73 64 74 57 75 58 76 62 77
REMARK SMILES IDX 65 78 59 79 60 80 63 81 61 82 40 83 41 84 49 85 42 86 43 87
REMARK SMILES IDX 47 88 50 89 44 90 45 91 48 92 46 93
REMARK H PARENT 4 11 4 12 70 46 38 57
REMARK Flexibility Score: inf
ROOT
ATOM      1  C   UNL A   1      35.633  21.813  25.631  1.00  0.00     0.274 C 
ENDROOT
BRANCH   1   2
ATOM      2  O   UNL A   1      35.704  23.176  25.155  1.00  0.00    -0.457 OA
BRANCH   2   3
ATOM      3  C   UNL A   1      35.030  23.479  24.008  1.00  0.00     0.368 C 
ATOM      4  O   UNL A   1      35.488  23.350  22.877  1.00  0.00    -0.245 OA
BRANCH   3   5
ATOM      5  C   UNL A   1      33.614  24.070  24.302  1.00  0.00     0.195 C 
ATOM      6  C   UNL A   1      33.423  25.330  23.441  1.00  0.00     0.082 C 
ATOM      7  C   UNL A   1      33.453  24.549  25.757  1.00  0.00     0.096 C 
ATOM      8  C   UNL A   1      33.928  26.478  24.297  1.00  0.00     0.022 C 
ATOM      9  C   UNL A   1      33.604  26.075  25.735  1.00  0.00     0.059 C 
BRANCH   5  10
ATOM     10  N   UNL A   1      32.569  23.117  23.840  1.00  0.00    -0.332 N 
ATOM     11  H   UNL A   1      31.944  23.621  23.210  1.00  0.00     0.347 HD
ATOM     12  H   UNL A   1      33.074  22.347  23.399  1.00  0.00     0.347 HD
BRANCH  10  13
ATOM     13  C   UNL A   1      31.756  22.507  24.881  1.00  0.00     0.261 C 
BRANCH  13  14
ATOM     14  C   UNL A   1      32.130  21.035  25.114  1.00  0.00     0.058 C 
ATOM     15  C   UNL A   1      32.546  20.270  23.864  1.00  0.00     0.010 C 
ENDBRANCH  13  14
ENDBRANCH  10  13
ENDBRANCH   5  10
BRANCH   9  16
ATOM     16  S   UNL A   1      32.194  26.989  26.494  1.00  0.00    -0.122 SA
BRANCH  16  17
ATOM     17  C   UNL A   1      31.221  27.538  25.102  1.00  0.00     0.008 A 
ATOM     18  C   UNL A   1      31.340  28.856  24.655  1.00  0.00     0.019 A 
ATOM     19  C   UNL A   1      30.241  26.725  24.528  1.00  0.00     0.019 A 
ATOM     20  C   UNL A   1      30.513  29.333  23.630  1.00  0.00     0.047 A 
ATOM     21  C   UNL A   1      29.431  27.192  23.486  1.00  0.00     0.047 A 
ATOM     22  C   UNL A   1      29.559  28.503  23.037  1.00  0.00     0.118 A 
BRANCH  22  23
ATOM     23  O   UNL A   1      28.809  29.093  22.057  1.00  0.00    -0.497 OA
ATOM     24  C   UNL A   1      29.155  30.428  21.701  1.00  0.00     0.278 C 
ENDBRANCH  22  23
ENDBRANCH  16  17
ENDBRANCH   9  16
ENDBRANCH   3   5
ENDBRANCH   2   3
ENDBRANCH   1   2
BRANCH   1  25
ATOM     25  C   UNL A   1      36.775  20.987  25.038  1.00  0.00     0.275 C 
BRANCH  25  26
ATOM     26  O   UNL A   1      37.969  21.784  25.062  1.00  0.00    -0.458 OA
BRANCH  26  27
ATOM     27  C   UNL A   1      38.892  21.466  25.996  1.00  0.00     0.338 C 
ATOM     28  O   UNL A   1      39.257  20.340  26.304  1.00  0.00    -0.246 OA
BRANCH  27  29
ATOM     29  C   UNL A   1      39.451  22.706  26.587  1.00  0.00     0.060 A 
ATOM     30  C   UNL A   1      38.976  23.957  26.199  1.00  0.00     0.016 A 
ATOM     31  C   UNL A   1      40.530  22.637  27.473  1.00  0.00     0.016 A 
ATOM     32  C   UNL A   1      39.647  25.115  26.589  1.00  0.00     0.010 A 
ATOM     33  C   UNL A   1      41.138  23.813  27.942  1.00  0.00     0.010 A 
ATOM     34  C   UNL A   1      40.739  25.073  27.463  1.00  0.00    -0.014 A 
BRANCH  34  35
ATOM     35  C   UNL A   1      41.511  26.320  27.768  1.00  0.00     0.031 A 
ATOM     36  C   UNL A   1      40.923  27.360  28.691  1.00  0.00     0.074 A 
ATOM     37  C   UNL A   1      42.770  26.513  27.318  1.00  0.00     0.049 A 
ATOM     38  N   UNL A   1      41.312  28.593  28.910  1.00  0.00    -0.248 NA
ATOM     39  C   UNL A   1      39.737  26.965  29.464  1.00  0.00     0.031 C 
ATOM     40  C   UNL A   1      43.543  25.571  26.508  1.00  0.00     0.029 A 
ATOM     41  N   UNL A   1      43.641  27.560  27.519  1.00  0.00    -0.354 N 
ATOM     42  C   UNL A   1      40.361  29.146  29.759  1.00  0.00     0.074 A 
ATOM     43  C   UNL A   1      39.397  28.106  30.048  1.00  0.00     0.031 C 
ATOM     44  C   UNL A   1      44.795  26.032  26.370  1.00  0.00     0.029 A 
ATOM     45  C   UNL A   1      44.884  27.360  26.966  1.00  0.00     0.049 A 
ATOM     46  H   UNL A   1      43.397  28.374  28.013  1.00  0.00     0.167 HD
ATOM     47  C   UNL A   1      40.289  30.412  30.237  1.00  0.00     0.037 A 
ATOM     48  C   UNL A   1      45.961  28.167  26.904  1.00  0.00     0.037 A 
ATOM     49  C   UNL A   1      41.298  31.419  30.039  1.00  0.00     0.049 A 
ATOM     50  C   UNL A   1      45.863  29.573  27.434  1.00  0.00     0.074 A 
ATOM     51  C   UNL A   1      41.297  32.740  30.449  1.00  0.00     0.029 A 
ATOM     52  N   UNL A   1      42.514  31.197  29.412  1.00  0.00    -0.354 N 
ATOM     53  N   UNL A   1      44.880  30.148  28.080  1.00  0.00    -0.248 NA
ATOM     54  C   UNL A   1      47.009  30.457  27.174  1.00  0.00     0.031 C 
ATOM     55  C   UNL A   1      42.507  33.325  30.056  1.00  0.00     0.029 A 
ATOM     56  C   UNL A   1      43.273  32.356  29.429  1.00  0.00     0.049 A 
ATOM     57  H   UNL A   1      42.796  30.343  29.012  1.00  0.00     0.167 HD
ATOM     58  C   UNL A   1      45.283  31.458  28.298  1.00  0.00     0.074 A 
ATOM     59  C   UNL A   1      46.615  31.586  27.747  1.00  0.00     0.031 C 
ATOM     60  C   UNL A   1      44.599  32.471  28.884  1.00  0.00     0.037 A 
BRANCH  47  61
ATOM     61  C   UNL A   1      39.039  30.801  30.968  1.00  0.00     0.064 A 
ATOM     62  C   UNL A   1      37.902  31.285  30.309  1.00  0.00     0.173 A 
ATOM     63  C   UNL A   1      38.983  30.664  32.365  1.00  0.00     0.173 A 
ATOM     64  F   UNL A   1      37.915  31.454  28.978  1.00  0.00    -0.203 F 
ATOM     65  C   UNL A   1      36.761  31.641  31.023  1.00  0.00     0.198 A 
ATOM     66  C   UNL A   1      37.832  30.996  33.073  1.00  0.00     0.198 A 
ATOM     67  F   UNL A   1      40.044  30.201  33.041  1.00  0.00    -0.203 F 
ATOM     68  F   UNL A   1      35.700  32.145  30.379  1.00  0.00    -0.200 F 
ATOM     69  C   UNL A   1      36.725  31.491  32.403  1.00  0.00     0.200 A 
ATOM     70  F   UNL A   1      37.798  30.842  34.403  1.00  0.00    -0.200 F 
ATOM     71  F   UNL A   1      35.624  31.833  33.087  1.00  0.00    -0.200 F 
ENDBRANCH  47  61
BRANCH  48  72
ATOM     72  C   UNL A   1      47.218  27.692  26.268  1.00  0.00     0.064 A 
ATOM     73  C   UNL A   1      47.386  27.761  24.877  1.00  0.00     0.173 A 
ATOM     74  C   UNL A   1      48.267  27.151  27.025  1.00  0.00     0.173 A 
ATOM     75  F   UNL A   1      46.397  28.236  24.106  1.00  0.00    -0.203 F 
ATOM     76  C   UNL A   1      48.555  27.304  24.270  1.00  0.00     0.198 A 
ATOM     77  C   UNL A   1      49.447  26.725  26.421  1.00  0.00     0.198 A 
ATOM     78  F   UNL A   1      48.152  27.050  28.357  1.00  0.00    -0.203 F 
ATOM     79  F   UNL A   1      48.673  27.343  22.936  1.00  0.00    -0.200 F 
ATOM     80  C   UNL A   1      49.588  26.797  25.043  1.00  0.00     0.200 A 
ATOM     81  F   UNL A   1      50.447  26.246  27.173  1.00  0.00    -0.200 F 
ATOM     82  F   UNL A   1      50.716  26.367  24.460  1.00  0.00    -0.200 F 
ENDBRANCH  48  72
BRANCH  60  83
ATOM     83  C   UNL A   1      45.285  33.800  28.973  1.00  0.00     0.064 A 
ATOM     84  C   UNL A   1      45.127  34.770  27.971  1.00  0.00     0.173 A 
ATOM     85  C   UNL A   1      46.080  34.120  30.082  1.00  0.00     0.173 A 
ATOM     86  F   UNL A   1      44.389  34.502  26.884  1.00  0.00    -0.203 F 
ATOM     87  C   UNL A   1      45.759  36.006  28.069  1.00  0.00     0.198 A 
ATOM     88  C   UNL A   1      46.694  35.366  30.186  1.00  0.00     0.198 A 
ATOM     89  F   UNL A   1      46.258  33.226  31.067  1.00  0.00    -0.203 F 
ATOM     90  F   UNL A   1      45.626  36.904  27.083  1.00  0.00    -0.200 F 
ATOM     91  C   UNL A   1      46.537  36.306  29.178  1.00  0.00     0.200 A 
ATOM     92  F   UNL A   1      47.440  35.656  31.261  1.00  0.00    -0.200 F 
ATOM     93  F   UNL A   1      47.143  37.496  29.271  1.00  0.00    -0.200 F 
ENDBRANCH  60  83
ENDBRANCH  34  35
ENDBRANCH  27  29
ENDBRANCH  26  27
ENDBRANCH  25  26
ENDBRANCH   1  25
TORSDOF 17
ENDMDL
