MODEL 1
REMARK VINA RESULT:     -12.7      0.000      0.000
REMARK SMILES Cc1nn(C)c(=O)c(C(=O)N2CC[C@@H](C(=O)OCCOC(=O)c3ccc(-c4c5nc(c(-c6c(F)c(F)c(F)c(F)c6F)c6ccc([nH]6)c(-c6c(F)c(F)c(F)c(F)c6F)c6nc(c(-c7c(F)c(F)c(F)c(F)c7F)c7ccc4[nH]7)C=C6)C=C5)cc3)[C@@H]2C)c1C
REMARK SMILES IDX 18 1 17 2 15 3 16 4 14 5 11 6 12 7 86 8 13 9 87 10 9 11
REMARK SMILES IDX 10 12 8 13 1 14 2 15 3 16 88 17 4 18 89 19 5 20 6 21 7 22
REMARK SMILES IDX 19 23 20 24 21 25 22 26 23 27 24 28 85 29 25 30 84 31 26 32
REMARK SMILES IDX 27 33 28 34 78 35 29 36 83 37 77 38 79 39 30 40 82 41 76 42
REMARK SMILES IDX 75 43 31 45 63 46 43 47 62 48 44 49 47 50 61 51 80 52 45 53
REMARK SMILES IDX 46 54 60 56 81 57 48 58 32 59 33 60 41 61 34 62 35 63 39 64
REMARK SMILES IDX 42 65 36 66 37 67 40 68 38 69 64 70 65 71 73 72 66 73 67 74
REMARK SMILES IDX 71 75 74 76 68 77 69 78 72 79 70 80 49 81 50 82 58 83 51 84
REMARK SMILES IDX 52 85 56 86 59 87 53 88 54 89 57 90 55 91
REMARK H PARENT 79 44 47 55
REMARK Flexibility Score: inf
ROOT
ATOM      1  C   UNL A   1      31.702  28.600  27.344  1.00  0.00     0.274 C 
ENDROOT
BRANCH   1   2
ATOM      2  O   UNL A   1      32.238  27.391  26.761  1.00  0.00    -0.462 OA
BRANCH   2   3
ATOM      3  C   UNL A   1      31.366  26.548  26.162  1.00  0.00     0.311 C 
ATOM      4  O   UNL A   1      30.506  25.905  26.755  1.00  0.00    -0.252 OA
BRANCH   3   5
ATOM      5  C   UNL A   1      31.541  26.443  24.659  1.00  0.00     0.123 C 
ATOM      6  N   UNL A   1      32.704  24.929  23.248  1.00  0.00    -0.335 N 
ATOM      7  C   UNL A   1      31.310  24.906  22.849  1.00  0.00     0.121 C 
ATOM      8  C   UNL A   1      32.950  26.091  24.118  1.00  0.00     0.096 C 
ATOM      9  C   UNL A   1      30.609  25.358  24.111  1.00  0.00     0.039 C 
ATOM     10  C   UNL A   1      33.518  27.259  23.300  1.00  0.00     0.032 C 
BRANCH   6  11
ATOM     11  C   UNL A   1      33.517  23.882  22.870  1.00  0.00     0.260 C 
ATOM     12  O   UNL A   1      33.841  23.728  21.689  1.00  0.00    -0.269 OA
BRANCH  11  13
ATOM     13  C   UNL A   1      33.925  22.829  23.843  1.00  0.00     0.111 A 
ATOM     14  C   UNL A   1      33.199  19.355  25.150  1.00  0.00     0.069 C 
ATOM     15  C   UNL A   1      33.970  20.582  24.705  1.00  0.00     0.062 A 
ATOM     16  N   UNL A   1      35.213  20.623  25.059  1.00  0.00    -0.175 NA
ATOM     17  C   UNL A   1      33.295  21.638  23.897  1.00  0.00    -0.010 A 
ATOM     18  N   UNL A   1      35.905  21.772  24.794  1.00  0.00    -0.232 N 
ATOM     19  C   UNL A   1      32.096  21.213  23.110  1.00  0.00     0.047 C 
ATOM     20  C   UNL A   1      37.337  21.713  25.025  1.00  0.00     0.178 C 
ATOM     21  C   UNL A   1      35.287  22.966  24.443  1.00  0.00     0.279 A 
ATOM     22  O   UNL A   1      35.825  24.067  24.549  1.00  0.00    -0.267 OA
ENDBRANCH  11  13
ENDBRANCH   6  11
ENDBRANCH   3   5
ENDBRANCH   2   3
ENDBRANCH   1   2
BRANCH   1  23
ATOM     23  C   UNL A   1      31.793  29.770  26.359  1.00  0.00     0.275 C 
BRANCH  23  24
ATOM     24  O   UNL A   1      33.153  30.221  26.224  1.00  0.00    -0.458 OA
BRANCH  24  25
ATOM     25  C   UNL A   1      33.500  31.220  27.062  1.00  0.00     0.338 C 
ATOM     26  O   UNL A   1      32.789  32.126  27.477  1.00  0.00    -0.246 OA
BRANCH  25  27
ATOM     27  C   UNL A   1      34.841  30.968  27.596  1.00  0.00     0.060 A 
ATOM     28  C   UNL A   1      35.155  29.649  27.926  1.00  0.00     0.016 A 
ATOM     29  C   UNL A   1      35.729  32.001  27.881  1.00  0.00     0.016 A 
ATOM     30  C   UNL A   1      36.334  29.348  28.588  1.00  0.00     0.010 A 
ATOM     31  C   UNL A   1      36.930  31.699  28.533  1.00  0.00     0.010 A 
ATOM     32  C   UNL A   1      37.222  30.376  28.912  1.00  0.00    -0.014 A 
BRANCH  32  33
ATOM     33  C   UNL A   1      38.396  30.062  29.754  1.00  0.00     0.031 A 
ATOM     34  C   UNL A   1      39.482  29.195  29.191  1.00  0.00     0.074 A 
ATOM     35  C   UNL A   1      38.527  30.617  30.970  1.00  0.00     0.049 A 
ATOM     36  N   UNL A   1      40.521  28.674  29.788  1.00  0.00    -0.248 NA
ATOM     37  C   UNL A   1      39.389  28.876  27.756  1.00  0.00     0.031 C 
ATOM     38  C   UNL A   1      37.595  31.573  31.568  1.00  0.00     0.029 A 
ATOM     39  N   UNL A   1      39.507  30.465  31.917  1.00  0.00    -0.354 N 
ATOM     40  C   UNL A   1      41.185  27.941  28.815  1.00  0.00     0.074 A 
ATOM     41  C   UNL A   1      40.435  28.082  27.586  1.00  0.00     0.031 C 
ATOM     42  C   UNL A   1      38.054  31.932  32.778  1.00  0.00     0.029 A 
ATOM     43  C   UNL A   1      39.270  31.178  33.066  1.00  0.00     0.049 A 
ATOM     44  H   UNL A   1      40.303  29.901  31.785  1.00  0.00     0.167 HD
ATOM     45  C   UNL A   1      42.319  27.214  28.946  1.00  0.00     0.037 A 
ATOM     46  C   UNL A   1      39.941  31.183  34.234  1.00  0.00     0.037 A 
ATOM     47  C   UNL A   1      43.063  27.101  30.171  1.00  0.00     0.049 A 
ATOM     48  C   UNL A   1      41.141  30.291  34.384  1.00  0.00     0.074 A 
ATOM     49  C   UNL A   1      44.197  26.352  30.431  1.00  0.00     0.029 A 
ATOM     50  N   UNL A   1      42.751  27.774  31.344  1.00  0.00    -0.354 N 
ATOM     51  N   UNL A   1      41.708  29.510  33.496  1.00  0.00    -0.248 NA
ATOM     52  C   UNL A   1      41.782  30.261  35.706  1.00  0.00     0.031 C 
ATOM     53  C   UNL A   1      44.551  26.549  31.770  1.00  0.00     0.029 A 
ATOM     54  C   UNL A   1      43.662  27.450  32.334  1.00  0.00     0.049 A 
ATOM     55  H   UNL A   1      41.991  28.390  31.456  1.00  0.00     0.167 HD
ATOM     56  C   UNL A   1      42.769  28.896  34.147  1.00  0.00     0.074 A 
ATOM     57  C   UNL A   1      42.784  29.418  35.499  1.00  0.00     0.031 C 
ATOM     58  C   UNL A   1      43.645  27.976  33.675  1.00  0.00     0.037 A 
BRANCH  45  59
ATOM     59  C   UNL A   1      42.793  26.452  27.746  1.00  0.00     0.064 A 
ATOM     60  C   UNL A   1      43.720  26.993  26.845  1.00  0.00     0.173 A 
ATOM     61  C   UNL A   1      42.326  25.151  27.507  1.00  0.00     0.173 A 
ATOM     62  F   UNL A   1      44.178  28.243  27.018  1.00  0.00    -0.203 F 
ATOM     63  C   UNL A   1      44.153  26.265  25.740  1.00  0.00     0.198 A 
ATOM     64  C   UNL A   1      42.778  24.417  26.415  1.00  0.00     0.198 A 
ATOM     65  F   UNL A   1      41.434  24.590  28.336  1.00  0.00    -0.203 F 
ATOM     66  F   UNL A   1      45.011  26.816  24.870  1.00  0.00    -0.200 F 
ATOM     67  C   UNL A   1      43.687  24.975  25.528  1.00  0.00     0.200 A 
ATOM     68  F   UNL A   1      42.330  23.168  26.215  1.00  0.00    -0.200 F 
ATOM     69  F   UNL A   1      44.109  24.273  24.468  1.00  0.00    -0.200 F 
ENDBRANCH  45  59
BRANCH  46  70
ATOM     70  C   UNL A   1      39.458  32.021  35.360  1.00  0.00     0.064 A 
ATOM     71  C   UNL A   1      38.549  31.513  36.298  1.00  0.00     0.173 A 
ATOM     72  C   UNL A   1      39.899  33.341  35.527  1.00  0.00     0.173 A 
ATOM     73  F   UNL A   1      38.078  30.265  36.165  1.00  0.00    -0.203 F 
ATOM     74  C   UNL A   1      38.097  32.297  37.358  1.00  0.00     0.198 A 
ATOM     75  C   UNL A   1      39.468  34.115  36.603  1.00  0.00     0.198 A 
ATOM     76  F   UNL A   1      40.764  33.877  34.653  1.00  0.00    -0.203 F 
ATOM     77  F   UNL A   1      37.204  31.798  38.223  1.00  0.00    -0.200 F 
ATOM     78  C   UNL A   1      38.564  33.594  37.515  1.00  0.00     0.200 A 
ATOM     79  F   UNL A   1      39.930  35.363  36.755  1.00  0.00    -0.200 F 
ATOM     80  F   UNL A   1      38.138  34.342  38.540  1.00  0.00    -0.200 F 
ENDBRANCH  46  70
BRANCH  58  81
ATOM     81  C   UNL A   1      44.691  27.482  34.629  1.00  0.00     0.064 A 
ATOM     82  C   UNL A   1      44.456  26.375  35.455  1.00  0.00     0.173 A 
ATOM     83  C   UNL A   1      45.948  28.100  34.691  1.00  0.00     0.173 A 
ATOM     84  F   UNL A   1      43.262  25.762  35.441  1.00  0.00    -0.203 F 
ATOM     85  C   UNL A   1      45.438  25.916  36.328  1.00  0.00     0.198 A 
ATOM     86  C   UNL A   1      46.936  27.622  35.547  1.00  0.00     0.198 A 
ATOM     87  F   UNL A   1      46.220  29.159  33.915  1.00  0.00    -0.203 F 
ATOM     88  F   UNL A   1      45.179  24.881  37.141  1.00  0.00    -0.200 F 
ATOM     89  C   UNL A   1      46.678  26.535  36.369  1.00  0.00     0.200 A 
ATOM     90  F   UNL A   1      48.138  28.214  35.578  1.00  0.00    -0.200 F 
ATOM     91  F   UNL A   1      47.624  26.089  37.207  1.00  0.00    -0.200 F 
ENDBRANCH  58  81
ENDBRANCH  32  33
ENDBRANCH  25  27
ENDBRANCH  24  25
ENDBRANCH  23  24
ENDBRANCH   1  23
TORSDOF 13
ENDMDL
MODEL 2
REMARK VINA RESULT:     -12.7      0.112      1.596
REMARK SMILES Cc1nn(C)c(=O)c(C(=O)N2CC[C@@H](C(=O)OCCOC(=O)c3ccc(-c4c5nc(c(-c6c(F)c(F)c(F)c(F)c6F)c6ccc([nH]6)c(-c6c(F)c(F)c(F)c(F)c6F)c6nc(c(-c7c(F)c(F)c(F)c(F)c7F)c7ccc4[nH]7)C=C6)C=C5)cc3)[C@@H]2C)c1C
REMARK SMILES IDX 18 1 17 2 15 3 16 4 14 5 11 6 12 7 86 8 13 9 87 10 9 11
REMARK SMILES IDX 10 12 8 13 1 14 2 15 3 16 88 17 4 18 89 19 5 20 6 21 7 22
REMARK SMILES IDX 19 23 20 24 21 25 22 26 23 27 24 28 85 29 25 30 84 31 26 32
REMARK SMILES IDX 27 33 28 34 78 35 29 36 83 37 77 38 79 39 30 40 82 41 76 42
REMARK SMILES IDX 75 43 31 45 63 46 43 47 62 48 44 49 47 50 61 51 80 52 45 53
REMARK SMILES IDX 46 54 60 56 81 57 48 58 32 59 33 60 41 61 34 62 35 63 39 64
REMARK SMILES IDX 42 65 36 66 37 67 40 68 38 69 64 70 65 71 73 72 66 73 67 74
REMARK SMILES IDX 71 75 74 76 68 77 69 78 72 79 70 80 49 81 50 82 58 83 51 84
REMARK SMILES IDX 52 85 56 86 59 87 53 88 54 89 57 90 55 91
REMARK H PARENT 79 44 47 55
REMARK Flexibility Score: inf
ROOT
ATOM      1  C   UNL A   1      31.705  28.695  27.284  1.00  0.00     0.274 C 
ENDROOT
BRANCH   1   2
ATOM      2  O   UNL A   1      32.308  27.490  26.761  1.00  0.00    -0.462 OA
BRANCH   2   3
ATOM      3  C   UNL A   1      31.487  26.577  26.193  1.00  0.00     0.311 C 
ATOM      4  O   UNL A   1      30.687  25.884  26.812  1.00  0.00    -0.252 OA
BRANCH   3   5
ATOM      5  C   UNL A   1      31.640  26.461  24.688  1.00  0.00     0.123 C 
ATOM      6  N   UNL A   1      32.769  24.929  23.270  1.00  0.00    -0.335 N 
ATOM      7  C   UNL A   1      31.368  24.916  22.891  1.00  0.00     0.121 C 
ATOM      8  C   UNL A   1      33.038  26.093  24.128  1.00  0.00     0.096 C 
ATOM      9  C   UNL A   1      30.690  25.382  24.160  1.00  0.00     0.039 C 
ATOM     10  C   UNL A   1      33.604  27.252  23.295  1.00  0.00     0.032 C 
BRANCH   6  11
ATOM     11  C   UNL A   1      33.566  23.872  22.886  1.00  0.00     0.260 C 
ATOM     12  O   UNL A   1      33.885  23.717  21.704  1.00  0.00    -0.269 OA
BRANCH  11  13
ATOM     13  C   UNL A   1      33.963  22.812  23.855  1.00  0.00     0.111 A 
ATOM     14  C   UNL A   1      33.190  19.347  25.162  1.00  0.00     0.069 C 
ATOM     15  C   UNL A   1      33.977  20.562  24.714  1.00  0.00     0.062 A 
ATOM     16  N   UNL A   1      35.223  20.583  25.060  1.00  0.00    -0.175 NA
ATOM     17  C   UNL A   1      33.314  21.631  23.911  1.00  0.00    -0.010 A 
ATOM     18  N   UNL A   1      35.932  21.721  24.793  1.00  0.00    -0.232 N 
ATOM     19  C   UNL A   1      32.104  21.226  23.131  1.00  0.00     0.047 C 
ATOM     20  C   UNL A   1      37.364  21.639  25.014  1.00  0.00     0.178 C 
ATOM     21  C   UNL A   1      35.331  22.925  24.447  1.00  0.00     0.279 A 
ATOM     22  O   UNL A   1      35.887  24.017  24.552  1.00  0.00    -0.267 OA
ENDBRANCH  11  13
ENDBRANCH   6  11
ENDBRANCH   3   5
ENDBRANCH   2   3
ENDBRANCH   1   2
BRANCH   1  23
ATOM     23  C   UNL A   1      31.865  29.859  26.302  1.00  0.00     0.275 C 
BRANCH  23  24
ATOM     24  O   UNL A   1      33.240  30.279  26.226  1.00  0.00    -0.458 OA
BRANCH  24  25
ATOM     25  C   UNL A   1      33.581  31.248  27.102  1.00  0.00     0.338 C 
ATOM     26  O   UNL A   1      32.867  32.139  27.542  1.00  0.00    -0.246 OA
BRANCH  25  27
ATOM     27  C   UNL A   1      34.917  30.976  27.638  1.00  0.00     0.060 A 
ATOM     28  C   UNL A   1      35.204  29.655  27.986  1.00  0.00     0.016 A 
ATOM     29  C   UNL A   1      35.827  31.994  27.907  1.00  0.00     0.016 A 
ATOM     30  C   UNL A   1      36.378  29.339  28.651  1.00  0.00     0.010 A 
ATOM     31  C   UNL A   1      37.022  31.677  28.562  1.00  0.00     0.010 A 
ATOM     32  C   UNL A   1      37.287  30.353  28.960  1.00  0.00    -0.014 A 
BRANCH  32  33
ATOM     33  C   UNL A   1      38.455  30.027  29.804  1.00  0.00     0.031 A 
ATOM     34  C   UNL A   1      39.535  29.151  29.243  1.00  0.00     0.074 A 
ATOM     35  C   UNL A   1      38.588  30.580  31.022  1.00  0.00     0.049 A 
ATOM     36  N   UNL A   1      40.567  28.620  29.844  1.00  0.00    -0.248 NA
ATOM     37  C   UNL A   1      39.443  28.835  27.808  1.00  0.00     0.031 C 
ATOM     38  C   UNL A   1      37.663  31.544  31.618  1.00  0.00     0.029 A 
ATOM     39  N   UNL A   1      39.564  30.418  31.972  1.00  0.00    -0.354 N 
ATOM     40  C   UNL A   1      41.228  27.881  28.871  1.00  0.00     0.074 A 
ATOM     41  C   UNL A   1      40.482  28.031  27.640  1.00  0.00     0.031 C 
ATOM     42  C   UNL A   1      38.123  31.897  32.830  1.00  0.00     0.029 A 
ATOM     43  C   UNL A   1      39.330  31.131  33.121  1.00  0.00     0.049 A 
ATOM     44  H   UNL A   1      40.355  29.846  31.841  1.00  0.00     0.167 HD
ATOM     45  C   UNL A   1      42.354  27.143  29.005  1.00  0.00     0.037 A 
ATOM     46  C   UNL A   1      39.998  31.128  34.290  1.00  0.00     0.037 A 
ATOM     47  C   UNL A   1      43.094  27.022  30.232  1.00  0.00     0.049 A 
ATOM     48  C   UNL A   1      41.190  30.225  34.442  1.00  0.00     0.074 A 
ATOM     49  C   UNL A   1      44.219  26.261  30.494  1.00  0.00     0.029 A 
ATOM     50  N   UNL A   1      42.784  27.697  31.404  1.00  0.00    -0.354 N 
ATOM     51  N   UNL A   1      41.752  29.439  33.555  1.00  0.00    -0.248 NA
ATOM     52  C   UNL A   1      41.826  30.187  35.767  1.00  0.00     0.031 C 
ATOM     53  C   UNL A   1      44.572  26.453  31.834  1.00  0.00     0.029 A 
ATOM     54  C   UNL A   1      43.690  27.363  32.397  1.00  0.00     0.049 A 
ATOM     55  H   UNL A   1      42.030  28.320  31.515  1.00  0.00     0.167 HD
ATOM     56  C   UNL A   1      42.805  28.815  34.209  1.00  0.00     0.074 A 
ATOM     57  C   UNL A   1      42.820  29.335  35.561  1.00  0.00     0.031 C 
ATOM     58  C   UNL A   1      43.673  27.888  33.738  1.00  0.00     0.037 A 
BRANCH  45  59
ATOM     59  C   UNL A   1      42.824  26.379  27.805  1.00  0.00     0.064 A 
ATOM     60  C   UNL A   1      42.375  25.080  27.532  1.00  0.00     0.173 A 
ATOM     61  C   UNL A   1      43.723  26.968  26.902  1.00  0.00     0.173 A 
ATOM     62  F   UNL A   1      41.534  24.465  28.378  1.00  0.00    -0.203 F 
ATOM     63  C   UNL A   1      42.820  24.391  26.406  1.00  0.00     0.198 A 
ATOM     64  C   UNL A   1      44.147  26.285  25.766  1.00  0.00     0.198 A 
ATOM     65  F   UNL A   1      44.186  28.207  27.121  1.00  0.00    -0.203 F 
ATOM     66  F   UNL A   1      42.408  23.135  26.185  1.00  0.00    -0.200 F 
ATOM     67  C   UNL A   1      43.700  24.996  25.520  1.00  0.00     0.200 A 
ATOM     68  F   UNL A   1      44.994  26.874  24.909  1.00  0.00    -0.200 F 
ATOM     69  F   UNL A   1      44.123  24.333  24.435  1.00  0.00    -0.200 F 
ENDBRANCH  45  59
BRANCH  46  70
ATOM     70  C   UNL A   1      39.520  31.969  35.416  1.00  0.00     0.064 A 
ATOM     71  C   UNL A   1      38.579  31.480  36.332  1.00  0.00     0.173 A 
ATOM     72  C   UNL A   1      39.997  33.274  35.605  1.00  0.00     0.173 A 
ATOM     73  F   UNL A   1      38.072  30.248  36.178  1.00  0.00    -0.203 F 
ATOM     74  C   UNL A   1      38.131  32.267  37.392  1.00  0.00     0.198 A 
ATOM     75  C   UNL A   1      39.570  34.050  36.680  1.00  0.00     0.198 A 
ATOM     76  F   UNL A   1      40.894  33.792  34.752  1.00  0.00    -0.203 F 
ATOM     77  F   UNL A   1      37.207  31.787  38.235  1.00  0.00    -0.200 F 
ATOM     78  C   UNL A   1      38.634  33.548  37.570  1.00  0.00     0.200 A 
ATOM     79  F   UNL A   1      40.067  35.282  36.854  1.00  0.00    -0.200 F 
ATOM     80  F   UNL A   1      38.211  34.298  38.596  1.00  0.00    -0.200 F 
ENDBRANCH  46  70
BRANCH  58  81
ATOM     81  C   UNL A   1      44.711  27.382  34.695  1.00  0.00     0.064 A 
ATOM     82  C   UNL A   1      45.938  28.041  34.852  1.00  0.00     0.173 A 
ATOM     83  C   UNL A   1      44.461  26.251  35.486  1.00  0.00     0.173 A 
ATOM     84  F   UNL A   1      46.227  29.118  34.105  1.00  0.00    -0.203 F 
ATOM     85  C   UNL A   1      46.890  27.571  35.752  1.00  0.00     0.198 A 
ATOM     86  C   UNL A   1      45.406  25.799  36.403  1.00  0.00     0.198 A 
ATOM     87  F   UNL A   1      43.299  25.591  35.374  1.00  0.00    -0.203 F 
ATOM     88  F   UNL A   1      48.074  28.191  35.856  1.00  0.00    -0.200 F 
ATOM     89  C   UNL A   1      46.620  26.455  36.530  1.00  0.00     0.200 A 
ATOM     90  F   UNL A   1      45.140  24.728  37.162  1.00  0.00    -0.200 F 
ATOM     91  F   UNL A   1      47.537  26.007  37.400  1.00  0.00    -0.200 F 
ENDBRANCH  58  81
ENDBRANCH  32  33
ENDBRANCH  25  27
ENDBRANCH  24  25
ENDBRANCH  23  24
ENDBRANCH   1  23
TORSDOF 13
ENDMDL
MODEL 3
REMARK VINA RESULT:     -12.7      0.859      1.624
REMARK SMILES Cc1nn(C)c(=O)c(C(=O)N2CC[C@@H](C(=O)OCCOC(=O)c3ccc(-c4c5nc(c(-c6c(F)c(F)c(F)c(F)c6F)c6ccc([nH]6)c(-c6c(F)c(F)c(F)c(F)c6F)c6nc(c(-c7c(F)c(F)c(F)c(F)c7F)c7ccc4[nH]7)C=C6)C=C5)cc3)[C@@H]2C)c1C
REMARK SMILES IDX 18 1 17 2 15 3 16 4 14 5 11 6 12 7 86 8 13 9 87 10 9 11
REMARK SMILES IDX 10 12 8 13 1 14 2 15 3 16 88 17 4 18 89 19 5 20 6 21 7 22
REMARK SMILES IDX 19 23 20 24 21 25 22 26 23 27 24 28 85 29 25 30 84 31 26 32
REMARK SMILES IDX 27 33 28 34 78 35 29 36 83 37 77 38 79 39 30 40 82 41 76 42
REMARK SMILES IDX 75 43 31 45 63 46 43 47 62 48 44 49 47 50 61 51 80 52 45 53
REMARK SMILES IDX 46 54 60 56 81 57 48 58 32 59 33 60 41 61 34 62 35 63 39 64
REMARK SMILES IDX 42 65 36 66 37 67 40 68 38 69 64 70 65 71 73 72 66 73 67 74
REMARK SMILES IDX 71 75 74 76 68 77 69 78 72 79 70 80 49 81 50 82 58 83 51 84
REMARK SMILES IDX 52 85 56 86 59 87 53 88 54 89 57 90 55 91
REMARK H PARENT 79 44 47 55
REMARK Flexibility Score: inf
ROOT
ATOM      1  C   UNL A   1      31.252  29.175  24.896  1.00  0.00     0.274 C 
ENDROOT
BRANCH   1   2
ATOM      2  O   UNL A   1      32.072  29.047  23.713  1.00  0.00    -0.462 OA
BRANCH   2   3
ATOM      3  C   UNL A   1      33.127  28.203  23.773  1.00  0.00     0.311 C 
ATOM      4  O   UNL A   1      34.243  28.455  23.330  1.00  0.00    -0.252 OA
BRANCH   3   5
ATOM      5  C   UNL A   1      32.819  26.874  24.438  1.00  0.00     0.123 C 
ATOM      6  N   UNL A   1      33.622  24.663  24.128  1.00  0.00    -0.335 N 
ATOM      7  C   UNL A   1      33.879  25.025  25.509  1.00  0.00     0.121 C 
ATOM      8  C   UNL A   1      32.683  25.625  23.530  1.00  0.00     0.096 C 
ATOM      9  C   UNL A   1      33.927  26.535  25.439  1.00  0.00     0.039 C 
ATOM     10  C   UNL A   1      31.251  25.076  23.584  1.00  0.00     0.032 C 
BRANCH   6  11
ATOM     11  C   UNL A   1      34.322  23.608  23.581  1.00  0.00     0.260 C 
ATOM     12  O   UNL A   1      34.773  23.674  22.435  1.00  0.00    -0.269 OA
BRANCH  11  13
ATOM     13  C   UNL A   1      34.448  22.309  24.301  1.00  0.00     0.111 A 
ATOM     14  C   UNL A   1      32.815  18.968  24.993  1.00  0.00     0.069 C 
ATOM     15  C   UNL A   1      33.885  20.005  24.720  1.00  0.00     0.062 A 
ATOM     16  N   UNL A   1      35.100  19.636  24.965  1.00  0.00    -0.175 NA
ATOM     17  C   UNL A   1      33.510  21.347  24.186  1.00  0.00    -0.010 A 
ATOM     18  N   UNL A   1      36.080  20.585  24.860  1.00  0.00    -0.232 N 
ATOM     19  C   UNL A   1      32.215  21.431  23.442  1.00  0.00     0.047 C 
ATOM     20  C   UNL A   1      37.443  20.097  24.949  1.00  0.00     0.178 C 
ATOM     21  C   UNL A   1      35.812  21.947  24.794  1.00  0.00     0.279 A 
ATOM     22  O   UNL A   1      36.641  22.816  25.057  1.00  0.00    -0.267 OA
ENDBRANCH  11  13
ENDBRANCH   6  11
ENDBRANCH   3   5
ENDBRANCH   2   3
ENDBRANCH   1   2
BRANCH   1  23
ATOM     23  C   UNL A   1      31.622  30.435  25.685  1.00  0.00     0.275 C 
BRANCH  23  24
ATOM     24  O   UNL A   1      32.832  30.231  26.438  1.00  0.00    -0.458 OA
BRANCH  24  25
ATOM     25  C   UNL A   1      33.288  31.328  27.078  1.00  0.00     0.338 C 
ATOM     26  O   UNL A   1      32.663  32.345  27.351  1.00  0.00    -0.246 OA
BRANCH  25  27
ATOM     27  C   UNL A   1      34.630  31.066  27.605  1.00  0.00     0.060 A 
ATOM     28  C   UNL A   1      34.939  29.742  27.922  1.00  0.00     0.016 A 
ATOM     29  C   UNL A   1      35.523  32.093  27.896  1.00  0.00     0.016 A 
ATOM     30  C   UNL A   1      36.119  29.431  28.577  1.00  0.00     0.010 A 
ATOM     31  C   UNL A   1      36.724  31.781  28.542  1.00  0.00     0.010 A 
ATOM     32  C   UNL A   1      37.013  30.452  28.907  1.00  0.00    -0.014 A 
BRANCH  32  33
ATOM     33  C   UNL A   1      38.188  30.126  29.742  1.00  0.00     0.031 A 
ATOM     34  C   UNL A   1      39.266  29.256  29.169  1.00  0.00     0.074 A 
ATOM     35  C   UNL A   1      38.328  30.674  30.961  1.00  0.00     0.049 A 
ATOM     36  N   UNL A   1      40.305  28.726  29.759  1.00  0.00    -0.248 NA
ATOM     37  C   UNL A   1      39.165  28.947  27.733  1.00  0.00     0.031 C 
ATOM     38  C   UNL A   1      37.404  31.632  31.568  1.00  0.00     0.029 A 
ATOM     39  N   UNL A   1      39.311  30.510  31.903  1.00  0.00    -0.354 N 
ATOM     40  C   UNL A   1      40.960  27.994  28.779  1.00  0.00     0.074 A 
ATOM     41  C   UNL A   1      40.206  28.147  27.554  1.00  0.00     0.031 C 
ATOM     42  C   UNL A   1      37.871  31.980  32.779  1.00  0.00     0.029 A 
ATOM     43  C   UNL A   1      39.083  31.217  33.057  1.00  0.00     0.049 A 
ATOM     44  H   UNL A   1      40.103  29.941  31.764  1.00  0.00     0.167 HD
ATOM     45  C   UNL A   1      42.090  27.259  28.901  1.00  0.00     0.037 A 
ATOM     46  C   UNL A   1      39.759  31.211  34.222  1.00  0.00     0.037 A 
ATOM     47  C   UNL A   1      42.839  27.134  30.122  1.00  0.00     0.049 A 
ATOM     48  C   UNL A   1      40.955  30.311  34.361  1.00  0.00     0.074 A 
ATOM     49  C   UNL A   1      43.969  26.376  30.372  1.00  0.00     0.029 A 
ATOM     50  N   UNL A   1      42.535  27.802  31.300  1.00  0.00    -0.354 N 
ATOM     51  N   UNL A   1      41.513  29.531  33.466  1.00  0.00    -0.248 NA
ATOM     52  C   UNL A   1      41.601  30.269  35.680  1.00  0.00     0.031 C 
ATOM     53  C   UNL A   1      44.331  26.563  31.711  1.00  0.00     0.029 A 
ATOM     54  C   UNL A   1      43.450  27.467  32.284  1.00  0.00     0.049 A 
ATOM     55  H   UNL A   1      41.780  28.423  31.419  1.00  0.00     0.167 HD
ATOM     56  C   UNL A   1      42.573  28.907  34.109  1.00  0.00     0.074 A 
ATOM     57  C   UNL A   1      42.597  29.422  35.464  1.00  0.00     0.031 C 
ATOM     58  C   UNL A   1      43.441  27.985  33.628  1.00  0.00     0.037 A 
BRANCH  45  59
ATOM     59  C   UNL A   1      42.554  26.502  27.693  1.00  0.00     0.064 A 
ATOM     60  C   UNL A   1      43.510  27.027  26.813  1.00  0.00     0.173 A 
ATOM     61  C   UNL A   1      42.048  25.220  27.428  1.00  0.00     0.173 A 
ATOM     62  F   UNL A   1      44.006  28.258  27.012  1.00  0.00    -0.203 F 
ATOM     63  C   UNL A   1      43.933  26.302  25.701  1.00  0.00     0.198 A 
ATOM     64  C   UNL A   1      42.490  24.489  26.329  1.00  0.00     0.198 A 
ATOM     65  F   UNL A   1      41.128  24.676  28.237  1.00  0.00    -0.203 F 
ATOM     66  F   UNL A   1      44.819  26.839  24.851  1.00  0.00    -0.200 F 
ATOM     67  C   UNL A   1      43.428  25.032  25.463  1.00  0.00     0.200 A 
ATOM     68  F   UNL A   1      42.005  23.260  26.104  1.00  0.00    -0.200 F 
ATOM     69  F   UNL A   1      43.840  24.334  24.396  1.00  0.00    -0.200 F 
ENDBRANCH  45  59
BRANCH  46  70
ATOM     70  C   UNL A   1      39.286  32.045  35.355  1.00  0.00     0.064 A 
ATOM     71  C   UNL A   1      39.646  33.396  35.455  1.00  0.00     0.173 A 
ATOM     72  C   UNL A   1      38.461  31.513  36.357  1.00  0.00     0.173 A 
ATOM     73  F   UNL A   1      40.455  33.942  34.536  1.00  0.00    -0.203 F 
ATOM     74  C   UNL A   1      39.200  34.182  36.516  1.00  0.00     0.198 A 
ATOM     75  C   UNL A   1      37.994  32.307  37.403  1.00  0.00     0.198 A 
ATOM     76  F   UNL A   1      38.094  30.224  36.312  1.00  0.00    -0.203 F 
ATOM     77  F   UNL A   1      39.584  35.462  36.606  1.00  0.00    -0.200 F 
ATOM     78  C   UNL A   1      38.367  33.639  37.484  1.00  0.00     0.200 A 
ATOM     79  F   UNL A   1      37.181  31.780  38.329  1.00  0.00    -0.200 F 
ATOM     80  F   UNL A   1      37.931  34.398  38.497  1.00  0.00    -0.200 F 
ENDBRANCH  46  70
BRANCH  58  81
ATOM     81  C   UNL A   1      44.488  27.479  34.574  1.00  0.00     0.064 A 
ATOM     82  C   UNL A   1      44.292  26.305  35.315  1.00  0.00     0.173 A 
ATOM     83  C   UNL A   1      45.709  28.154  34.714  1.00  0.00     0.173 A 
ATOM     84  F   UNL A   1      43.133  25.635  35.225  1.00  0.00    -0.203 F 
ATOM     85  C   UNL A   1      45.275  25.837  36.182  1.00  0.00     0.198 A 
ATOM     86  C   UNL A   1      46.699  27.668  35.563  1.00  0.00     0.198 A 
ATOM     87  F   UNL A   1      45.944  29.278  34.022  1.00  0.00    -0.203 F 
ATOM     88  F   UNL A   1      45.051  24.735  36.913  1.00  0.00    -0.200 F 
ATOM     89  C   UNL A   1      46.479  26.515  36.300  1.00  0.00     0.200 A 
ATOM     90  F   UNL A   1      47.867  28.318  35.668  1.00  0.00    -0.200 F 
ATOM     91  F   UNL A   1      47.426  26.059  37.132  1.00  0.00    -0.200 F 
ENDBRANCH  58  81
ENDBRANCH  32  33
ENDBRANCH  25  27
ENDBRANCH  24  25
ENDBRANCH  23  24
ENDBRANCH   1  23
TORSDOF 13
ENDMDL
