MODEL 1
REMARK VINA RESULT:     -12.0      0.000      0.000
REMARK SMILES Cc1cc(C)c2c(O[C@@H](C)C(=O)OCCOC(=O)c3ccc(-c4c5nc(c(-c6c(F)c(F)c(F)c(F)c6F)c6ccc([nH]6)c(-c6c(F)c(F)c(F)c(F)c6F)c6nc(c(-c7c(F)c(F)c(F)c(F)c7F)c7ccc4[nH]7)C=C6)C=C5)cc3)nsc2n1
REMARK SMILES IDX 14 1 13 2 11 3 12 4 9 5 10 6 8 7 7 8 1 9 2 10 3 11 85 12
REMARK SMILES IDX 4 13 84 14 5 15 6 16 83 17 82 18 15 19 16 20 17 21 18 22
REMARK SMILES IDX 19 23 20 24 81 25 21 26 80 27 22 28 23 29 24 30 74 31 25 32
REMARK SMILES IDX 79 33 73 34 75 35 26 36 78 37 72 38 71 39 27 41 59 42 39 43
REMARK SMILES IDX 58 44 40 45 43 46 57 47 76 48 41 49 42 50 56 52 77 53 44 54
REMARK SMILES IDX 28 55 29 56 37 57 30 58 31 59 35 60 38 61 32 62 33 63 36 64
REMARK SMILES IDX 34 65 60 66 61 67 69 68 62 69 63 70 67 71 70 72 64 73 65 74
REMARK SMILES IDX 68 75 66 76 45 77 46 78 54 79 47 80 48 81 52 82 55 83 49 84
REMARK SMILES IDX 50 85 53 86 51 87
REMARK H PARENT 75 40 43 51
REMARK Flexibility Score: inf
ROOT
ATOM      1  C   UNL A   1      37.280  21.602  24.596  1.00  0.00     0.274 C 
ENDROOT
BRANCH   1   2
ATOM      2  O   UNL A   1      36.248  20.818  25.220  1.00  0.00    -0.459 OA
BRANCH   2   3
ATOM      3  C   UNL A   1      35.230  21.437  25.863  1.00  0.00     0.347 C 
ATOM      4  O   UNL A   1      35.380  22.343  26.677  1.00  0.00    -0.248 OA
BRANCH   3   5
ATOM      5  C   UNL A   1      33.842  20.880  25.443  1.00  0.00     0.281 C 
ATOM      6  C   UNL A   1      33.972  19.589  24.626  1.00  0.00     0.066 C 
BRANCH   5   7
ATOM      7  O   UNL A   1      32.732  21.520  24.873  1.00  0.00    -0.462 OA
BRANCH   7   8
ATOM      8  C   UNL A   1      32.079  22.517  25.503  1.00  0.00     0.236 A 
ATOM      9  C   UNL A   1      31.847  27.975  27.035  1.00  0.00     0.067 C 
ATOM     10  C   UNL A   1      31.991  26.585  26.496  1.00  0.00     0.039 A 
ATOM     11  C   UNL A   1      33.082  26.257  25.709  1.00  0.00     0.027 A 
ATOM     12  N   UNL A   1      31.047  25.705  26.849  1.00  0.00    -0.240 NA
ATOM     13  C   UNL A   1      33.246  24.954  25.189  1.00  0.00    -0.034 A 
ATOM     14  C   UNL A   1      31.249  24.453  26.402  1.00  0.00     0.147 A 
ATOM     15  C   UNL A   1      34.462  24.790  24.312  1.00  0.00     0.045 C 
ATOM     16  C   UNL A   1      32.297  23.962  25.611  1.00  0.00     0.078 A 
ATOM     17  S   UNL A   1      30.136  23.226  26.777  1.00  0.00    -0.012 S 
ATOM     18  N   UNL A   1      30.948  22.027  26.010  1.00  0.00    -0.153 NA
ENDBRANCH   7   8
ENDBRANCH   5   7
ENDBRANCH   3   5
ENDBRANCH   2   3
ENDBRANCH   1   2
BRANCH   1  19
ATOM     19  C   UNL A   1      38.567  21.433  25.379  1.00  0.00     0.275 C 
BRANCH  19  20
ATOM     20  O   UNL A   1      38.719  22.530  26.273  1.00  0.00    -0.458 OA
BRANCH  20  21
ATOM     21  C   UNL A   1      39.858  22.524  26.999  1.00  0.00     0.338 C 
ATOM     22  O   UNL A   1      40.419  21.581  27.524  1.00  0.00    -0.246 OA
BRANCH  21  23
ATOM     23  C   UNL A   1      40.302  23.900  27.171  1.00  0.00     0.060 A 
ATOM     24  C   UNL A   1      41.482  24.118  27.891  1.00  0.00     0.016 A 
ATOM     25  C   UNL A   1      39.423  24.934  26.830  1.00  0.00     0.016 A 
ATOM     26  C   UNL A   1      41.711  25.374  28.400  1.00  0.00     0.010 A 
ATOM     27  C   UNL A   1      39.644  26.179  27.349  1.00  0.00     0.010 A 
ATOM     28  C   UNL A   1      40.747  26.361  28.182  1.00  0.00    -0.014 A 
BRANCH  28  29
ATOM     29  C   UNL A   1      40.907  27.635  28.840  1.00  0.00     0.031 A 
ATOM     30  C   UNL A   1      42.049  28.440  28.358  1.00  0.00     0.074 A 
ATOM     31  C   UNL A   1      39.959  28.092  29.677  1.00  0.00     0.049 A 
ATOM     32  N   UNL A   1      43.030  28.930  29.041  1.00  0.00    -0.248 NA
ATOM     33  C   UNL A   1      42.158  28.649  26.903  1.00  0.00     0.031 C 
ATOM     34  C   UNL A   1      38.638  27.514  29.947  1.00  0.00     0.029 A 
ATOM     35  N   UNL A   1      39.935  29.259  30.367  1.00  0.00    -0.354 N 
ATOM     36  C   UNL A   1      43.795  29.646  28.127  1.00  0.00     0.074 A 
ATOM     37  C   UNL A   1      43.300  29.326  26.815  1.00  0.00     0.031 C 
ATOM     38  C   UNL A   1      37.871  28.441  30.561  1.00  0.00     0.029 A 
ATOM     39  C   UNL A   1      38.681  29.617  30.829  1.00  0.00     0.049 A 
ATOM     40  H   UNL A   1      40.740  29.803  30.525  1.00  0.00     0.167 HD
ATOM     41  C   UNL A   1      44.638  30.636  28.522  1.00  0.00     0.037 A 
ATOM     42  C   UNL A   1      38.334  30.838  31.300  1.00  0.00     0.037 A 
ATOM     43  C   UNL A   1      44.984  30.531  29.910  1.00  0.00     0.049 A 
ATOM     44  C   UNL A   1      39.590  31.551  31.652  1.00  0.00     0.074 A 
ATOM     45  C   UNL A   1      45.619  29.569  30.672  1.00  0.00     0.029 A 
ATOM     46  N   UNL A   1      44.342  31.351  30.804  1.00  0.00    -0.354 N 
ATOM     47  N   UNL A   1      40.382  31.214  32.632  1.00  0.00    -0.248 NA
ATOM     48  C   UNL A   1      40.186  32.414  30.641  1.00  0.00     0.031 C 
ATOM     49  C   UNL A   1      44.945  29.582  31.928  1.00  0.00     0.029 A 
ATOM     50  C   UNL A   1      43.964  30.573  31.870  1.00  0.00     0.049 A 
ATOM     51  H   UNL A   1      44.184  32.317  30.701  1.00  0.00     0.167 HD
ATOM     52  C   UNL A   1      41.661  31.473  32.163  1.00  0.00     0.074 A 
ATOM     53  C   UNL A   1      41.473  32.309  30.983  1.00  0.00     0.031 C 
ATOM     54  C   UNL A   1      42.734  30.755  32.608  1.00  0.00     0.037 A 
BRANCH  41  55
ATOM     55  C   UNL A   1      44.873  31.869  27.701  1.00  0.00     0.064 A 
ATOM     56  C   UNL A   1      46.101  32.057  27.047  1.00  0.00     0.173 A 
ATOM     57  C   UNL A   1      44.017  32.992  27.747  1.00  0.00     0.173 A 
ATOM     58  F   UNL A   1      47.004  31.068  26.999  1.00  0.00    -0.203 F 
ATOM     59  C   UNL A   1      46.452  33.292  26.495  1.00  0.00     0.198 A 
ATOM     60  C   UNL A   1      44.344  34.202  27.144  1.00  0.00     0.198 A 
ATOM     61  F   UNL A   1      42.887  32.989  28.467  1.00  0.00    -0.203 F 
ATOM     62  F   UNL A   1      47.672  33.462  25.968  1.00  0.00    -0.200 F 
ATOM     63  C   UNL A   1      45.572  34.360  26.537  1.00  0.00     0.200 A 
ATOM     64  F   UNL A   1      43.488  35.230  27.221  1.00  0.00    -0.200 F 
ATOM     65  F   UNL A   1      45.923  35.554  26.042  1.00  0.00    -0.200 F 
ENDBRANCH  41  55
BRANCH  42  66
ATOM     66  C   UNL A   1      37.036  31.536  31.149  1.00  0.00     0.064 A 
ATOM     67  C   UNL A   1      36.253  31.837  32.275  1.00  0.00     0.173 A 
ATOM     68  C   UNL A   1      36.663  32.160  29.941  1.00  0.00     0.173 A 
ATOM     69  F   UNL A   1      36.566  31.316  33.470  1.00  0.00    -0.203 F 
ATOM     70  C   UNL A   1      35.182  32.733  32.204  1.00  0.00     0.198 A 
ATOM     71  C   UNL A   1      35.586  33.045  29.870  1.00  0.00     0.198 A 
ATOM     72  F   UNL A   1      37.392  32.007  28.827  1.00  0.00    -0.203 F 
ATOM     73  F   UNL A   1      34.505  33.050  33.316  1.00  0.00    -0.200 F 
ATOM     74  C   UNL A   1      34.857  33.343  31.004  1.00  0.00     0.200 A 
ATOM     75  F   UNL A   1      35.302  33.652  28.710  1.00  0.00    -0.200 F 
ATOM     76  F   UNL A   1      33.871  34.249  30.950  1.00  0.00    -0.200 F 
ENDBRANCH  42  66
BRANCH  54  77
ATOM     77  C   UNL A   1      42.534  29.877  33.812  1.00  0.00     0.064 A 
ATOM     78  C   UNL A   1      42.049  28.558  33.745  1.00  0.00     0.173 A 
ATOM     79  C   UNL A   1      42.994  30.330  35.055  1.00  0.00     0.173 A 
ATOM     80  F   UNL A   1      41.692  28.014  32.576  1.00  0.00    -0.203 F 
ATOM     81  C   UNL A   1      41.986  27.751  34.879  1.00  0.00     0.198 A 
ATOM     82  C   UNL A   1      42.966  29.508  36.179  1.00  0.00     0.198 A 
ATOM     83  F   UNL A   1      43.523  31.558  35.168  1.00  0.00    -0.203 F 
ATOM     84  F   UNL A   1      41.509  26.500  34.789  1.00  0.00    -0.200 F 
ATOM     85  C   UNL A   1      42.452  28.225  36.094  1.00  0.00     0.200 A 
ATOM     86  F   UNL A   1      43.465  29.953  37.341  1.00  0.00    -0.200 F 
ATOM     87  F   UNL A   1      42.435  27.434  37.176  1.00  0.00    -0.200 F 
ENDBRANCH  54  77
ENDBRANCH  28  29
ENDBRANCH  21  23
ENDBRANCH  20  21
ENDBRANCH  19  20
ENDBRANCH   1  19
TORSDOF 13
ENDMDL
MODEL 2
REMARK VINA RESULT:     -11.9      5.209     10.629
REMARK SMILES Cc1cc(C)c2c(O[C@@H](C)C(=O)OCCOC(=O)c3ccc(-c4c5nc(c(-c6c(F)c(F)c(F)c(F)c6F)c6ccc([nH]6)c(-c6c(F)c(F)c(F)c(F)c6F)c6nc(c(-c7c(F)c(F)c(F)c(F)c7F)c7ccc4[nH]7)C=C6)C=C5)cc3)nsc2n1
REMARK SMILES IDX 14 1 13 2 11 3 12 4 9 5 10 6 8 7 7 8 1 9 2 10 3 11 85 12
REMARK SMILES IDX 4 13 84 14 5 15 6 16 83 17 82 18 15 19 16 20 17 21 18 22
REMARK SMILES IDX 19 23 20 24 81 25 21 26 80 27 22 28 23 29 24 30 74 31 25 32
REMARK SMILES IDX 79 33 73 34 75 35 26 36 78 37 72 38 71 39 27 41 59 42 39 43
REMARK SMILES IDX 58 44 40 45 43 46 57 47 76 48 41 49 42 50 56 52 77 53 44 54
REMARK SMILES IDX 28 55 29 56 37 57 30 58 31 59 35 60 38 61 32 62 33 63 36 64
REMARK SMILES IDX 34 65 60 66 61 67 69 68 62 69 63 70 67 71 70 72 64 73 65 74
REMARK SMILES IDX 68 75 66 76 45 77 46 78 54 79 47 80 48 81 52 82 55 83 49 84
REMARK SMILES IDX 50 85 53 86 51 87
REMARK H PARENT 75 40 43 51
REMARK Flexibility Score: inf
ROOT
ATOM      1  C   UNL A   1      34.073  33.853  29.373  1.00  0.00     0.274 C 
ENDROOT
BRANCH   1   2
ATOM      2  O   UNL A   1      35.064  33.970  30.409  1.00  0.00    -0.459 OA
BRANCH   2   3
ATOM      3  C   UNL A   1      34.914  33.278  31.564  1.00  0.00     0.347 C 
ATOM      4  O   UNL A   1      34.108  32.366  31.720  1.00  0.00    -0.248 OA
BRANCH   3   5
ATOM      5  C   UNL A   1      35.890  33.761  32.672  1.00  0.00     0.281 C 
ATOM      6  C   UNL A   1      35.217  33.792  34.049  1.00  0.00     0.066 C 
BRANCH   5   7
ATOM      7  O   UNL A   1      36.764  34.857  32.708  1.00  0.00    -0.462 OA
BRANCH   7   8
ATOM      8  C   UNL A   1      38.097  34.705  32.844  1.00  0.00     0.236 A 
ATOM      9  C   UNL A   1      43.162  33.818  30.445  1.00  0.00     0.067 C 
ATOM     10  C   UNL A   1      41.781  34.128  30.937  1.00  0.00     0.039 A 
ATOM     11  C   UNL A   1      40.732  34.231  30.039  1.00  0.00     0.027 A 
ATOM     12  N   UNL A   1      41.632  34.256  32.260  1.00  0.00    -0.240 NA
ATOM     13  C   UNL A   1      39.420  34.520  30.474  1.00  0.00    -0.034 A 
ATOM     14  C   UNL A   1      40.368  34.465  32.668  1.00  0.00     0.147 A 
ATOM     15  C   UNL A   1      38.415  34.645  29.357  1.00  0.00     0.045 C 
ATOM     16  C   UNL A   1      39.205  34.583  31.893  1.00  0.00     0.078 A 
ATOM     17  S   UNL A   1      40.024  34.640  34.321  1.00  0.00    -0.012 S 
ATOM     18  N   UNL A   1      38.405  34.818  34.136  1.00  0.00    -0.153 NA
ENDBRANCH   7   8
ENDBRANCH   5   7
ENDBRANCH   3   5
ENDBRANCH   2   3
ENDBRANCH   1   2
BRANCH   1  19
ATOM     19  C   UNL A   1      34.753  33.992  28.025  1.00  0.00     0.275 C 
BRANCH  19  20
ATOM     20  O   UNL A   1      35.826  33.060  27.944  1.00  0.00    -0.458 OA
BRANCH  20  21
ATOM     21  C   UNL A   1      35.454  31.766  27.839  1.00  0.00     0.338 C 
ATOM     22  O   UNL A   1      34.426  31.306  27.378  1.00  0.00    -0.246 OA
BRANCH  21  23
ATOM     23  C   UNL A   1      36.465  30.942  28.486  1.00  0.00     0.060 A 
ATOM     24  C   UNL A   1      37.316  31.560  29.407  1.00  0.00     0.016 A 
ATOM     25  C   UNL A   1      36.695  29.655  27.988  1.00  0.00     0.016 A 
ATOM     26  C   UNL A   1      38.497  30.931  29.727  1.00  0.00     0.010 A 
ATOM     27  C   UNL A   1      37.876  29.037  28.294  1.00  0.00     0.010 A 
ATOM     28  C   UNL A   1      38.786  29.715  29.103  1.00  0.00    -0.014 A 
BRANCH  28  29
ATOM     29  C   UNL A   1      40.086  29.127  29.316  1.00  0.00     0.031 A 
ATOM     30  C   UNL A   1      40.429  28.882  30.734  1.00  0.00     0.074 A 
ATOM     31  C   UNL A   1      40.808  28.676  28.275  1.00  0.00     0.049 A 
ATOM     32  N   UNL A   1      41.457  29.301  31.393  1.00  0.00    -0.248 NA
ATOM     33  C   UNL A   1      39.444  28.147  31.546  1.00  0.00     0.031 C 
ATOM     34  C   UNL A   1      40.397  28.568  26.871  1.00  0.00     0.029 A 
ATOM     35  N   UNL A   1      42.030  28.089  28.288  1.00  0.00    -0.354 N 
ATOM     36  C   UNL A   1      41.332  28.748  32.663  1.00  0.00     0.074 A 
ATOM     37  C   UNL A   1      40.017  28.171  32.747  1.00  0.00     0.031 C 
ATOM     38  C   UNL A   1      41.261  27.757  26.222  1.00  0.00     0.029 A 
ATOM     39  C   UNL A   1      42.336  27.396  27.130  1.00  0.00     0.049 A 
ATOM     40  H   UNL A   1      42.645  28.151  29.054  1.00  0.00     0.167 HD
ATOM     41  C   UNL A   1      42.402  28.598  33.485  1.00  0.00     0.037 A 
ATOM     42  C   UNL A   1      43.353  26.513  26.985  1.00  0.00     0.037 A 
ATOM     43  C   UNL A   1      43.493  29.454  33.116  1.00  0.00     0.049 A 
ATOM     44  C   UNL A   1      44.314  26.758  28.094  1.00  0.00     0.074 A 
ATOM     45  C   UNL A   1      43.650  30.823  33.019  1.00  0.00     0.029 A 
ATOM     46  N   UNL A   1      44.539  28.909  32.414  1.00  0.00    -0.354 N 
ATOM     47  N   UNL A   1      45.043  27.832  28.215  1.00  0.00    -0.248 NA
ATOM     48  C   UNL A   1      44.164  25.968  29.308  1.00  0.00     0.031 C 
ATOM     49  C   UNL A   1      44.493  31.024  31.887  1.00  0.00     0.029 A 
ATOM     50  C   UNL A   1      44.827  29.767  31.382  1.00  0.00     0.049 A 
ATOM     51  H   UNL A   1      44.997  28.060  32.614  1.00  0.00     0.167 HD
ATOM     52  C   UNL A   1      45.102  28.071  29.580  1.00  0.00     0.074 A 
ATOM     53  C   UNL A   1      44.640  26.837  30.204  1.00  0.00     0.031 C 
ATOM     54  C   UNL A   1      45.249  29.338  30.067  1.00  0.00     0.037 A 
BRANCH  41  55
ATOM     55  C   UNL A   1      42.543  27.434  34.420  1.00  0.00     0.064 A 
ATOM     56  C   UNL A   1      43.045  26.210  33.952  1.00  0.00     0.173 A 
ATOM     57  C   UNL A   1      41.958  27.413  35.706  1.00  0.00     0.173 A 
ATOM     58  F   UNL A   1      43.567  26.115  32.721  1.00  0.00    -0.203 F 
ATOM     59  C   UNL A   1      42.949  25.041  34.714  1.00  0.00     0.198 A 
ATOM     60  C   UNL A   1      41.919  26.261  36.487  1.00  0.00     0.198 A 
ATOM     61  F   UNL A   1      41.312  28.475  36.206  1.00  0.00    -0.203 F 
ATOM     62  F   UNL A   1      43.347  23.874  34.193  1.00  0.00    -0.200 F 
ATOM     63  C   UNL A   1      42.394  25.070  35.982  1.00  0.00     0.200 A 
ATOM     64  F   UNL A   1      41.352  26.307  37.700  1.00  0.00    -0.200 F 
ATOM     65  F   UNL A   1      42.268  23.944  36.697  1.00  0.00    -0.200 F 
ENDBRANCH  41  55
BRANCH  42  66
ATOM     66  C   UNL A   1      43.374  25.277  26.170  1.00  0.00     0.064 A 
ATOM     67  C   UNL A   1      44.420  25.039  25.263  1.00  0.00     0.173 A 
ATOM     68  C   UNL A   1      42.528  24.185  26.450  1.00  0.00     0.173 A 
ATOM     69  F   UNL A   1      45.294  26.014  24.974  1.00  0.00    -0.203 F 
ATOM     70  C   UNL A   1      44.627  23.777  24.698  1.00  0.00     0.198 A 
ATOM     71  C   UNL A   1      42.728  22.929  25.874  1.00  0.00     0.198 A 
ATOM     72  F   UNL A   1      41.551  24.282  27.362  1.00  0.00    -0.203 F 
ATOM     73  F   UNL A   1      45.679  23.571  23.894  1.00  0.00    -0.200 F 
ATOM     74  C   UNL A   1      43.786  22.722  25.012  1.00  0.00     0.200 A 
ATOM     75  F   UNL A   1      41.926  21.910  26.211  1.00  0.00    -0.200 F 
ATOM     76  F   UNL A   1      44.022  21.498  24.519  1.00  0.00    -0.200 F 
ENDBRANCH  42  66
BRANCH  54  77
ATOM     77  C   UNL A   1      45.624  30.421  29.094  1.00  0.00     0.064 A 
ATOM     78  C   UNL A   1      46.944  30.685  28.689  1.00  0.00     0.173 A 
ATOM     79  C   UNL A   1      44.598  31.110  28.432  1.00  0.00     0.173 A 
ATOM     80  F   UNL A   1      47.971  29.992  29.195  1.00  0.00    -0.203 F 
ATOM     81  C   UNL A   1      47.225  31.627  27.701  1.00  0.00     0.198 A 
ATOM     82  C   UNL A   1      44.879  32.023  27.418  1.00  0.00     0.198 A 
ATOM     83  F   UNL A   1      43.316  30.857  28.733  1.00  0.00    -0.203 F 
ATOM     84  F   UNL A   1      48.495  31.868  27.342  1.00  0.00    -0.200 F 
ATOM     85  C   UNL A   1      46.191  32.290  27.061  1.00  0.00     0.200 A 
ATOM     86  F   UNL A   1      43.874  32.624  26.767  1.00  0.00    -0.200 F 
ATOM     87  F   UNL A   1      46.457  33.163  26.080  1.00  0.00    -0.200 F 
ENDBRANCH  54  77
ENDBRANCH  28  29
ENDBRANCH  21  23
ENDBRANCH  20  21
ENDBRANCH  19  20
ENDBRANCH   1  19
TORSDOF 13
ENDMDL
MODEL 3
REMARK VINA RESULT:     -11.9      1.554      1.773
REMARK SMILES Cc1cc(C)c2c(O[C@@H](C)C(=O)OCCOC(=O)c3ccc(-c4c5nc(c(-c6c(F)c(F)c(F)c(F)c6F)c6ccc([nH]6)c(-c6c(F)c(F)c(F)c(F)c6F)c6nc(c(-c7c(F)c(F)c(F)c(F)c7F)c7ccc4[nH]7)C=C6)C=C5)cc3)nsc2n1
REMARK SMILES IDX 14 1 13 2 11 3 12 4 9 5 10 6 8 7 7 8 1 9 2 10 3 11 85 12
REMARK SMILES IDX 4 13 84 14 5 15 6 16 83 17 82 18 15 19 16 20 17 21 18 22
REMARK SMILES IDX 19 23 20 24 81 25 21 26 80 27 22 28 23 29 24 30 74 31 25 32
REMARK SMILES IDX 79 33 73 34 75 35 26 36 78 37 72 38 71 39 27 41 59 42 39 43
REMARK SMILES IDX 58 44 40 45 43 46 57 47 76 48 41 49 42 50 56 52 77 53 44 54
REMARK SMILES IDX 28 55 29 56 37 57 30 58 31 59 35 60 38 61 32 62 33 63 36 64
REMARK SMILES IDX 34 65 60 66 61 67 69 68 62 69 63 70 67 71 70 72 64 73 65 74
REMARK SMILES IDX 68 75 66 76 45 77 46 78 54 79 47 80 48 81 52 82 55 83 49 84
REMARK SMILES IDX 50 85 53 86 51 87
REMARK H PARENT 75 40 43 51
REMARK Flexibility Score: inf
ROOT
ATOM      1  C   UNL A   1      36.994  21.784  24.450  1.00  0.00     0.274 C 
ENDROOT
BRANCH   1   2
ATOM      2  O   UNL A   1      35.863  22.187  25.240  1.00  0.00    -0.459 OA
BRANCH   2   3
ATOM      3  C   UNL A   1      34.612  21.845  24.848  1.00  0.00     0.347 C 
ATOM      4  O   UNL A   1      34.251  20.694  24.626  1.00  0.00    -0.248 OA
BRANCH   3   5
ATOM      5  C   UNL A   1      33.676  23.079  24.722  1.00  0.00     0.281 C 
ATOM      6  C   UNL A   1      33.424  23.742  26.082  1.00  0.00     0.066 C 
BRANCH   5   7
ATOM      7  O   UNL A   1      32.458  23.241  24.047  1.00  0.00    -0.462 OA
BRANCH   7   8
ATOM      8  C   UNL A   1      32.195  24.329  23.296  1.00  0.00     0.236 A 
ATOM      9  C   UNL A   1      29.230  29.103  22.517  1.00  0.00     0.067 C 
ATOM     10  C   UNL A   1      29.997  27.870  22.886  1.00  0.00     0.039 A 
ATOM     11  C   UNL A   1      29.724  27.213  24.074  1.00  0.00     0.027 A 
ATOM     12  N   UNL A   1      30.903  27.442  22.000  1.00  0.00    -0.240 NA
ATOM     13  C   UNL A   1      30.429  26.048  24.447  1.00  0.00    -0.034 A 
ATOM     14  C   UNL A   1      31.521  26.295  22.335  1.00  0.00     0.147 A 
ATOM     15  C   UNL A   1      30.037  25.495  25.794  1.00  0.00     0.045 C 
ATOM     16  C   UNL A   1      31.352  25.512  23.485  1.00  0.00     0.078 A 
ATOM     17  S   UNL A   1      32.692  25.626  21.304  1.00  0.00    -0.012 S 
ATOM     18  N   UNL A   1      32.994  24.308  22.229  1.00  0.00    -0.153 NA
ENDBRANCH   7   8
ENDBRANCH   5   7
ENDBRANCH   3   5
ENDBRANCH   2   3
ENDBRANCH   1   2
BRANCH   1  19
ATOM     19  C   UNL A   1      38.149  21.456  25.375  1.00  0.00     0.275 C 
BRANCH  19  20
ATOM     20  O   UNL A   1      38.605  22.652  25.997  1.00  0.00    -0.458 OA
BRANCH  20  21
ATOM     21  C   UNL A   1      39.701  22.512  26.775  1.00  0.00     0.338 C 
ATOM     22  O   UNL A   1      40.145  21.501  27.286  1.00  0.00    -0.246 OA
BRANCH  21  23
ATOM     23  C   UNL A   1      40.262  23.832  27.023  1.00  0.00     0.060 A 
ATOM     24  C   UNL A   1      41.289  23.936  27.967  1.00  0.00     0.016 A 
ATOM     25  C   UNL A   1      39.600  24.948  26.500  1.00  0.00     0.016 A 
ATOM     26  C   UNL A   1      41.559  25.173  28.502  1.00  0.00     0.010 A 
ATOM     27  C   UNL A   1      39.858  26.176  27.044  1.00  0.00     0.010 A 
ATOM     28  C   UNL A   1      40.784  26.257  28.083  1.00  0.00    -0.014 A 
BRANCH  28  29
ATOM     29  C   UNL A   1      40.959  27.524  28.749  1.00  0.00     0.031 A 
ATOM     30  C   UNL A   1      42.129  28.305  28.296  1.00  0.00     0.074 A 
ATOM     31  C   UNL A   1      40.002  28.000  29.567  1.00  0.00     0.049 A 
ATOM     32  N   UNL A   1      43.105  28.770  29.003  1.00  0.00    -0.248 NA
ATOM     33  C   UNL A   1      42.276  28.516  26.845  1.00  0.00     0.031 C 
ATOM     34  C   UNL A   1      38.663  27.452  29.805  1.00  0.00     0.029 A 
ATOM     35  N   UNL A   1      39.990  29.166  30.260  1.00  0.00    -0.354 N 
ATOM     36  C   UNL A   1      43.908  29.471  28.110  1.00  0.00     0.074 A 
ATOM     37  C   UNL A   1      43.435  29.166  26.785  1.00  0.00     0.031 C 
ATOM     38  C   UNL A   1      37.903  28.395  30.404  1.00  0.00     0.029 A 
ATOM     39  C   UNL A   1      38.734  29.551  30.695  1.00  0.00     0.049 A 
ATOM     40  H   UNL A   1      40.804  29.690  30.439  1.00  0.00     0.167 HD
ATOM     41  C   UNL A   1      44.763  30.439  28.527  1.00  0.00     0.037 A 
ATOM     42  C   UNL A   1      38.405  30.778  31.164  1.00  0.00     0.037 A 
ATOM     43  C   UNL A   1      45.076  30.322  29.922  1.00  0.00     0.049 A 
ATOM     44  C   UNL A   1      39.669  31.461  31.546  1.00  0.00     0.074 A 
ATOM     45  C   UNL A   1      45.671  29.343  30.694  1.00  0.00     0.029 A 
ATOM     46  N   UNL A   1      44.433  31.153  30.805  1.00  0.00    -0.354 N 
ATOM     47  N   UNL A   1      40.430  31.102  32.542  1.00  0.00    -0.248 NA
ATOM     48  C   UNL A   1      40.307  32.313  30.552  1.00  0.00     0.031 C 
ATOM     49  C   UNL A   1      44.969  29.367  31.935  1.00  0.00     0.029 A 
ATOM     50  C   UNL A   1      44.013  30.381  31.859  1.00  0.00     0.049 A 
ATOM     51  H   UNL A   1      44.300  32.123  30.702  1.00  0.00     0.167 HD
ATOM     52  C   UNL A   1      41.726  31.333  32.103  1.00  0.00     0.074 A 
ATOM     53  C   UNL A   1      41.584  32.178  30.923  1.00  0.00     0.031 C 
ATOM     54  C   UNL A   1      42.771  30.589  32.569  1.00  0.00     0.037 A 
BRANCH  41  55
ATOM     55  C   UNL A   1      45.046  31.669  27.716  1.00  0.00     0.064 A 
ATOM     56  C   UNL A   1      46.306  31.851  27.126  1.00  0.00     0.173 A 
ATOM     57  C   UNL A   1      44.192  32.796  27.716  1.00  0.00     0.173 A 
ATOM     58  F   UNL A   1      47.207  30.859  27.127  1.00  0.00    -0.203 F 
ATOM     59  C   UNL A   1      46.690  33.083  26.590  1.00  0.00     0.198 A 
ATOM     60  C   UNL A   1      44.555  34.003  27.127  1.00  0.00     0.198 A 
ATOM     61  F   UNL A   1      43.027  32.799  28.376  1.00  0.00    -0.203 F 
ATOM     62  F   UNL A   1      47.936  33.247  26.126  1.00  0.00    -0.200 F 
ATOM     63  C   UNL A   1      45.813  34.155  26.584  1.00  0.00     0.200 A 
ATOM     64  F   UNL A   1      43.700  35.035  27.158  1.00  0.00    -0.200 F 
ATOM     65  F   UNL A   1      46.194  35.346  26.105  1.00  0.00    -0.200 F 
ENDBRANCH  41  55
BRANCH  42  66
ATOM     66  C   UNL A   1      37.127  31.506  30.985  1.00  0.00     0.064 A 
ATOM     67  C   UNL A   1      36.280  31.737  32.081  1.00  0.00     0.173 A 
ATOM     68  C   UNL A   1      36.837  32.223  29.807  1.00  0.00     0.173 A 
ATOM     69  F   UNL A   1      36.512  31.125  33.251  1.00  0.00    -0.203 F 
ATOM     70  C   UNL A   1      35.226  32.653  32.012  1.00  0.00     0.198 A 
ATOM     71  C   UNL A   1      35.777  33.128  29.736  1.00  0.00     0.198 A 
ATOM     72  F   UNL A   1      37.631  32.140  28.731  1.00  0.00    -0.203 F 
ATOM     73  F   UNL A   1      34.485  32.899  33.101  1.00  0.00    -0.200 F 
ATOM     74  C   UNL A   1      34.982  33.355  30.843  1.00  0.00     0.200 A 
ATOM     75  F   UNL A   1      35.572  33.823  28.609  1.00  0.00    -0.200 F 
ATOM     76  F   UNL A   1      34.013  34.279  30.796  1.00  0.00    -0.200 F 
ENDBRANCH  42  66
BRANCH  54  77
ATOM     77  C   UNL A   1      42.524  29.711  33.765  1.00  0.00     0.064 A 
ATOM     78  C   UNL A   1      42.014  28.403  33.682  1.00  0.00     0.173 A 
ATOM     79  C   UNL A   1      42.963  30.152  35.021  1.00  0.00     0.173 A 
ATOM     80  F   UNL A   1      41.673  27.871  32.502  1.00  0.00    -0.203 F 
ATOM     81  C   UNL A   1      41.906  27.594  34.812  1.00  0.00     0.198 A 
ATOM     82  C   UNL A   1      42.890  29.327  36.141  1.00  0.00     0.198 A 
ATOM     83  F   UNL A   1      43.514  31.368  35.151  1.00  0.00    -0.203 F 
ATOM     84  F   UNL A   1      41.405  26.354  34.706  1.00  0.00    -0.200 F 
ATOM     85  C   UNL A   1      42.353  28.055  36.039  1.00  0.00     0.200 A 
ATOM     86  F   UNL A   1      43.370  29.758  37.316  1.00  0.00    -0.200 F 
ATOM     87  F   UNL A   1      42.292  27.261  37.117  1.00  0.00    -0.200 F 
ENDBRANCH  54  77
ENDBRANCH  28  29
ENDBRANCH  21  23
ENDBRANCH  20  21
ENDBRANCH  19  20
ENDBRANCH   1  19
TORSDOF 13
ENDMDL
