MODEL 1
REMARK VINA RESULT:     -13.4      0.000      0.000
REMARK SMILES Cc1ncc(CC(=O)N2CCc3c(c(C(=O)OCCOC(=O)c4ccc(-c5c6nc(c(-c7c(F)c(F)c(F)c(F)c7F)c7ccc([nH]7)c(-c7c(F)c(F)c(F)c(F)c7F)c7nc(c(-c8c(F)c(F)c(F)c(F)c8F)c8ccc5[nH]8)C=C7)C=C6)cc4)nn3CC3CC3)C2)c(=O)[nH]1
REMARK SMILES IDX 18 1 17 2 15 3 16 4 14 5 9 6 10 7 92 8 11 9 13 10 12 11
REMARK SMILES IDX 87 12 86 13 7 14 8 15 6 16 5 17 1 18 2 19 3 20 95 21 4 22
REMARK SMILES IDX 93 23 94 25 88 26 89 27 90 28 91 29 19 30 20 31 21 32 22 33
REMARK SMILES IDX 23 34 24 35 85 36 25 37 84 38 26 39 27 40 28 41 78 42 29 43
REMARK SMILES IDX 83 44 77 45 79 46 30 47 82 48 76 49 75 50 31 52 63 53 43 54
REMARK SMILES IDX 62 55 44 56 47 57 61 58 80 59 45 60 46 61 60 63 81 64 48 65
REMARK SMILES IDX 32 66 33 67 41 68 34 69 35 70 39 71 42 72 36 73 37 74 40 75
REMARK SMILES IDX 38 76 64 77 65 78 73 79 66 80 67 81 71 82 74 83 68 84 69 85
REMARK SMILES IDX 72 86 70 87 49 88 50 89 58 90 51 91 52 92 56 93 59 94 53 95
REMARK SMILES IDX 54 96 57 97 55 98
REMARK H PARENT 95 24 79 51 47 62
REMARK Flexibility Score: inf
ROOT
ATOM      1  C   UNL A   1      33.624  29.438  26.126  1.00  0.00     0.275 C 
ENDROOT
BRANCH   1   2
ATOM      2  O   UNL A   1      33.355  28.310  26.972  1.00  0.00    -0.457 OA
BRANCH   2   3
ATOM      3  C   UNL A   1      32.061  27.865  27.013  1.00  0.00     0.359 C 
ATOM      4  O   UNL A   1      31.380  27.827  28.037  1.00  0.00    -0.244 OA
BRANCH   3   5
ATOM      5  C   UNL A   1      31.527  27.502  25.691  1.00  0.00     0.175 A 
ATOM      6  N   UNL A   1      32.710  24.274  24.095  1.00  0.00    -0.338 N 
ATOM      7  C   UNL A   1      31.466  24.059  23.329  1.00  0.00     0.126 C 
ATOM      8  C   UNL A   1      32.559  25.073  25.330  1.00  0.00     0.159 C 
ATOM      9  C   UNL A   1      30.912  25.379  22.760  1.00  0.00     0.078 C 
ATOM     10  C   UNL A   1      31.748  26.285  24.985  1.00  0.00     0.028 A 
ATOM     11  C   UNL A   1      30.997  26.404  23.832  1.00  0.00     0.046 A 
ATOM     12  N   UNL A   1      30.400  27.626  23.871  1.00  0.00    -0.268 N 
ATOM     13  N   UNL A   1      30.732  28.328  24.974  1.00  0.00    -0.165 NA
BRANCH   6  14
ATOM     14  C   UNL A   1      33.935  23.675  23.858  1.00  0.00     0.227 C 
ATOM     15  O   UNL A   1      34.468  23.761  22.745  1.00  0.00    -0.275 OA
BRANCH  14  16
ATOM     16  C   UNL A   1      34.483  22.641  24.858  1.00  0.00     0.143 C 
BRANCH  16  17
ATOM     17  C   UNL A   1      33.964  21.248  24.821  1.00  0.00     0.045 A 
ATOM     18  C   UNL A   1      32.541  17.282  25.145  1.00  0.00     0.087 C 
ATOM     19  C   UNL A   1      33.004  18.698  24.970  1.00  0.00     0.105 A 
ATOM     20  N   UNL A   1      32.156  19.658  24.795  1.00  0.00    -0.243 NA
ATOM     21  N   UNL A   1      34.354  18.891  25.032  1.00  0.00    -0.311 N 
ATOM     22  C   UNL A   1      32.668  20.924  24.701  1.00  0.00     0.123 A 
ATOM     23  C   UNL A   1      34.920  20.129  24.945  1.00  0.00     0.254 A 
ATOM     24  H   UNL A   1      34.941  18.108  25.142  1.00  0.00     0.171 HD
ATOM     25  O   UNL A   1      36.132  20.301  25.000  1.00  0.00    -0.269 OA
ENDBRANCH  16  17
ENDBRANCH  14  16
ENDBRANCH   6  14
BRANCH  12  26
ATOM     26  C   UNL A   1      29.564  28.239  22.847  1.00  0.00     0.148 C 
BRANCH  26  27
ATOM     27  C   UNL A   1      29.908  29.662  22.498  1.00  0.00     0.011 C 
ATOM     28  C   UNL A   1      29.138  30.530  21.526  1.00  0.00     0.006 C 
ATOM     29  C   UNL A   1      29.018  30.773  23.002  1.00  0.00     0.006 C 
ENDBRANCH  26  27
ENDBRANCH  12  26
ENDBRANCH   3   5
ENDBRANCH   2   3
ENDBRANCH   1   2
BRANCH   1  30
ATOM     30  C   UNL A   1      33.381  30.768  26.833  1.00  0.00     0.275 C 
BRANCH  30  31
ATOM     31  O   UNL A   1      34.045  30.848  28.097  1.00  0.00    -0.458 OA
BRANCH  31  32
ATOM     32  C   UNL A   1      35.118  31.667  28.114  1.00  0.00     0.338 C 
ATOM     33  O   UNL A   1      35.212  32.780  27.624  1.00  0.00    -0.246 OA
BRANCH  32  34
ATOM     34  C   UNL A   1      36.272  30.975  28.686  1.00  0.00     0.060 A 
ATOM     35  C   UNL A   1      37.379  31.756  29.033  1.00  0.00     0.016 A 
ATOM     36  C   UNL A   1      36.335  29.576  28.649  1.00  0.00     0.016 A 
ATOM     37  C   UNL A   1      38.591  31.133  29.239  1.00  0.00     0.010 A 
ATOM     38  C   UNL A   1      37.548  28.955  28.851  1.00  0.00     0.010 A 
ATOM     39  C   UNL A   1      38.674  29.744  29.089  1.00  0.00    -0.014 A 
BRANCH  39  40
ATOM     40  C   UNL A   1      39.969  29.125  29.300  1.00  0.00     0.031 A 
ATOM     41  C   UNL A   1      40.332  28.979  30.735  1.00  0.00     0.074 A 
ATOM     42  C   UNL A   1      40.692  28.630  28.278  1.00  0.00     0.049 A 
ATOM     43  N   UNL A   1      41.398  29.393  31.340  1.00  0.00    -0.248 NA
ATOM     44  C   UNL A   1      39.319  28.398  31.635  1.00  0.00     0.031 C 
ATOM     45  C   UNL A   1      40.285  28.486  26.877  1.00  0.00     0.029 A 
ATOM     46  N   UNL A   1      41.917  28.040  28.300  1.00  0.00    -0.354 N 
ATOM     47  C   UNL A   1      41.263  28.982  32.665  1.00  0.00     0.074 A 
ATOM     48  C   UNL A   1      39.916  28.507  32.820  1.00  0.00     0.031 C 
ATOM     49  C   UNL A   1      41.137  27.644  26.251  1.00  0.00     0.029 A 
ATOM     50  C   UNL A   1      42.205  27.290  27.168  1.00  0.00     0.049 A 
ATOM     51  H   UNL A   1      42.544  28.137  29.052  1.00  0.00     0.167 HD
ATOM     52  C   UNL A   1      42.350  28.840  33.471  1.00  0.00     0.037 A 
ATOM     53  C   UNL A   1      43.198  26.375  27.044  1.00  0.00     0.037 A 
ATOM     54  C   UNL A   1      43.449  29.644  33.007  1.00  0.00     0.049 A 
ATOM     55  C   UNL A   1      44.175  26.619  28.135  1.00  0.00     0.074 A 
ATOM     56  C   UNL A   1      43.646  30.999  32.828  1.00  0.00     0.029 A 
ATOM     57  N   UNL A   1      44.458  29.026  32.315  1.00  0.00    -0.354 N 
ATOM     58  N   UNL A   1      44.949  27.665  28.204  1.00  0.00    -0.248 NA
ATOM     59  C   UNL A   1      43.978  25.906  29.389  1.00  0.00     0.031 C 
ATOM     60  C   UNL A   1      44.462  31.105  31.663  1.00  0.00     0.029 A 
ATOM     61  C   UNL A   1      44.754  29.810  31.231  1.00  0.00     0.049 A 
ATOM     62  H   UNL A   1      44.891  28.175  32.552  1.00  0.00     0.167 HD
ATOM     63  C   UNL A   1      44.980  27.991  29.552  1.00  0.00     0.074 A 
ATOM     64  C   UNL A   1      44.445  26.822  30.241  1.00  0.00     0.031 C 
ATOM     65  C   UNL A   1      45.168  29.281  29.955  1.00  0.00     0.037 A 
BRANCH  52  66
ATOM     66  C   UNL A   1      42.532  27.678  34.419  1.00  0.00     0.064 A 
ATOM     67  C   UNL A   1      43.039  26.463  33.916  1.00  0.00     0.173 A 
ATOM     68  C   UNL A   1      41.937  27.602  35.699  1.00  0.00     0.173 A 
ATOM     69  F   UNL A   1      43.619  26.411  32.707  1.00  0.00    -0.203 F 
ATOM     70  C   UNL A   1      42.865  25.253  34.594  1.00  0.00     0.198 A 
ATOM     71  C   UNL A   1      41.812  26.402  36.395  1.00  0.00     0.198 A 
ATOM     72  F   UNL A   1      41.349  28.652  36.282  1.00  0.00    -0.203 F 
ATOM     73  F   UNL A   1      43.234  24.105  34.009  1.00  0.00    -0.200 F 
ATOM     74  C   UNL A   1      42.240  25.222  35.827  1.00  0.00     0.200 A 
ATOM     75  F   UNL A   1      41.188  26.392  37.581  1.00  0.00    -0.200 F 
ATOM     76  F   UNL A   1      42.004  24.057  36.443  1.00  0.00    -0.200 F 
ENDBRANCH  52  66
BRANCH  53  77
ATOM     77  C   UNL A   1      43.182  25.111  26.267  1.00  0.00     0.064 A 
ATOM     78  C   UNL A   1      44.162  24.844  25.297  1.00  0.00     0.173 A 
ATOM     79  C   UNL A   1      42.367  24.025  26.647  1.00  0.00     0.173 A 
ATOM     80  F   UNL A   1      45.012  25.807  24.915  1.00  0.00    -0.203 F 
ATOM     81  C   UNL A   1      44.331  23.564  24.756  1.00  0.00     0.198 A 
ATOM     82  C   UNL A   1      42.528  22.752  26.099  1.00  0.00     0.198 A 
ATOM     83  F   UNL A   1      41.462  24.151  27.627  1.00  0.00    -0.203 F 
ATOM     84  F   UNL A   1      45.317  23.332  23.880  1.00  0.00    -0.200 F 
ATOM     85  C   UNL A   1      43.519  22.518  25.164  1.00  0.00     0.200 A 
ATOM     86  F   UNL A   1      41.760  21.742  26.531  1.00  0.00    -0.200 F 
ATOM     87  F   UNL A   1      43.717  21.280  24.691  1.00  0.00    -0.200 F 
ENDBRANCH  53  77
BRANCH  65  88
ATOM     88  C   UNL A   1      45.614  30.276  28.921  1.00  0.00     0.064 A 
ATOM     89  C   UNL A   1      44.735  31.069  28.163  1.00  0.00     0.173 A 
ATOM     90  C   UNL A   1      46.985  30.533  28.797  1.00  0.00     0.173 A 
ATOM     91  F   UNL A   1      43.408  30.958  28.303  1.00  0.00    -0.203 F 
ATOM     92  C   UNL A   1      45.213  32.038  27.283  1.00  0.00     0.198 A 
ATOM     93  C   UNL A   1      47.458  31.528  27.947  1.00  0.00     0.198 A 
ATOM     94  F   UNL A   1      47.867  29.848  29.541  1.00  0.00    -0.203 F 
ATOM     95  F   UNL A   1      44.356  32.772  26.558  1.00  0.00    -0.200 F 
ATOM     96  C   UNL A   1      46.575  32.271  27.182  1.00  0.00     0.200 A 
ATOM     97  F   UNL A   1      48.773  31.786  27.893  1.00  0.00    -0.200 F 
ATOM     98  F   UNL A   1      47.035  33.233  26.369  1.00  0.00    -0.200 F 
ENDBRANCH  65  88
ENDBRANCH  39  40
ENDBRANCH  32  34
ENDBRANCH  31  32
ENDBRANCH  30  31
ENDBRANCH   1  30
TORSDOF 16
ENDMDL
MODEL 2
REMARK VINA RESULT:     -13.2      0.670      1.675
REMARK SMILES Cc1ncc(CC(=O)N2CCc3c(c(C(=O)OCCOC(=O)c4ccc(-c5c6nc(c(-c7c(F)c(F)c(F)c(F)c7F)c7ccc([nH]7)c(-c7c(F)c(F)c(F)c(F)c7F)c7nc(c(-c8c(F)c(F)c(F)c(F)c8F)c8ccc5[nH]8)C=C7)C=C6)cc4)nn3CC3CC3)C2)c(=O)[nH]1
REMARK SMILES IDX 18 1 17 2 15 3 16 4 14 5 9 6 10 7 92 8 11 9 13 10 12 11
REMARK SMILES IDX 87 12 86 13 7 14 8 15 6 16 5 17 1 18 2 19 3 20 95 21 4 22
REMARK SMILES IDX 93 23 94 25 88 26 89 27 90 28 91 29 19 30 20 31 21 32 22 33
REMARK SMILES IDX 23 34 24 35 85 36 25 37 84 38 26 39 27 40 28 41 78 42 29 43
REMARK SMILES IDX 83 44 77 45 79 46 30 47 82 48 76 49 75 50 31 52 63 53 43 54
REMARK SMILES IDX 62 55 44 56 47 57 61 58 80 59 45 60 46 61 60 63 81 64 48 65
REMARK SMILES IDX 32 66 33 67 41 68 34 69 35 70 39 71 42 72 36 73 37 74 40 75
REMARK SMILES IDX 38 76 64 77 65 78 73 79 66 80 67 81 71 82 74 83 68 84 69 85
REMARK SMILES IDX 72 86 70 87 49 88 50 89 58 90 51 91 52 92 56 93 59 94 53 95
REMARK SMILES IDX 54 96 57 97 55 98
REMARK H PARENT 95 24 79 51 47 62
REMARK Flexibility Score: inf
ROOT
ATOM      1  C   UNL A   1      33.387  29.872  26.437  1.00  0.00     0.275 C 
ENDROOT
BRANCH   1   2
ATOM      2  O   UNL A   1      33.155  28.704  27.239  1.00  0.00    -0.457 OA
BRANCH   2   3
ATOM      3  C   UNL A   1      31.894  28.172  27.203  1.00  0.00     0.359 C 
ATOM      4  O   UNL A   1      31.137  28.132  28.172  1.00  0.00    -0.244 OA
BRANCH   3   5
ATOM      5  C   UNL A   1      31.493  27.715  25.863  1.00  0.00     0.175 A 
ATOM      6  N   UNL A   1      32.575  24.259  24.741  1.00  0.00    -0.338 N 
ATOM      7  C   UNL A   1      31.418  24.058  23.847  1.00  0.00     0.126 C 
ATOM      8  C   UNL A   1      32.347  25.191  25.867  1.00  0.00     0.159 C 
ATOM      9  C   UNL A   1      31.053  25.350  23.090  1.00  0.00     0.078 C 
ATOM     10  C   UNL A   1      31.691  26.418  25.309  1.00  0.00     0.028 A 
ATOM     11  C   UNL A   1      31.097  26.471  24.063  1.00  0.00     0.046 A 
ATOM     12  N   UNL A   1      30.607  27.731  23.911  1.00  0.00    -0.268 N 
ATOM     13  N   UNL A   1      30.864  28.518  24.976  1.00  0.00    -0.165 NA
BRANCH   6  14
ATOM     14  C   UNL A   1      33.764  23.550  24.720  1.00  0.00     0.227 C 
ATOM     15  O   UNL A   1      34.758  23.981  25.316  1.00  0.00    -0.275 OA
BRANCH  14  16
ATOM     16  C   UNL A   1      33.951  22.408  23.705  1.00  0.00     0.143 C 
BRANCH  16  17
ATOM     17  C   UNL A   1      33.621  21.015  24.109  1.00  0.00     0.045 A 
ATOM     18  C   UNL A   1      32.611  17.212  25.651  1.00  0.00     0.087 C 
ATOM     19  C   UNL A   1      32.945  18.539  25.037  1.00  0.00     0.105 A 
ATOM     20  N   UNL A   1      32.081  19.175  24.315  1.00  0.00    -0.243 NA
ATOM     21  N   UNL A   1      34.193  19.021  25.313  1.00  0.00    -0.311 N 
ATOM     22  C   UNL A   1      32.456  20.404  23.844  1.00  0.00     0.123 A 
ATOM     23  C   UNL A   1      34.620  20.240  24.871  1.00  0.00     0.254 A 
ATOM     24  H   UNL A   1      34.807  18.470  25.850  1.00  0.00     0.171 HD
ATOM     25  O   UNL A   1      35.739  20.670  25.119  1.00  0.00    -0.269 OA
ENDBRANCH  16  17
ENDBRANCH  14  16
ENDBRANCH   6  14
BRANCH  12  26
ATOM     26  C   UNL A   1      29.956  28.295  22.735  1.00  0.00     0.148 C 
BRANCH  26  27
ATOM     27  C   UNL A   1      29.094  29.502  22.990  1.00  0.00     0.011 C 
ATOM     28  C   UNL A   1      28.493  30.384  21.917  1.00  0.00     0.006 C 
ATOM     29  C   UNL A   1      27.619  29.426  22.673  1.00  0.00     0.006 C 
ENDBRANCH  26  27
ENDBRANCH  12  26
ENDBRANCH   3   5
ENDBRANCH   2   3
ENDBRANCH   1   2
BRANCH   1  30
ATOM     30  C   UNL A   1      33.350  31.158  27.257  1.00  0.00     0.275 C 
BRANCH  30  31
ATOM     31  O   UNL A   1      34.240  31.123  28.375  1.00  0.00    -0.458 OA
BRANCH  31  32
ATOM     32  C   UNL A   1      35.390  31.806  28.197  1.00  0.00     0.338 C 
ATOM     33  O   UNL A   1      35.551  32.844  27.577  1.00  0.00    -0.246 OA
BRANCH  32  34
ATOM     34  C   UNL A   1      36.518  31.045  28.734  1.00  0.00     0.060 A 
ATOM     35  C   UNL A   1      37.593  31.773  29.251  1.00  0.00     0.016 A 
ATOM     36  C   UNL A   1      36.598  29.665  28.506  1.00  0.00     0.016 A 
ATOM     37  C   UNL A   1      38.799  31.132  29.439  1.00  0.00     0.010 A 
ATOM     38  C   UNL A   1      37.805  29.026  28.690  1.00  0.00     0.010 A 
ATOM     39  C   UNL A   1      38.906  29.778  29.101  1.00  0.00    -0.014 A 
BRANCH  39  40
ATOM     40  C   UNL A   1      40.194  29.140  29.299  1.00  0.00     0.031 A 
ATOM     41  C   UNL A   1      40.521  28.890  30.729  1.00  0.00     0.074 A 
ATOM     42  C   UNL A   1      40.941  28.716  28.262  1.00  0.00     0.049 A 
ATOM     43  N   UNL A   1      41.573  29.255  31.388  1.00  0.00    -0.248 NA
ATOM     44  C   UNL A   1      39.485  28.250  31.559  1.00  0.00     0.031 C 
ATOM     45  C   UNL A   1      40.569  28.675  26.845  1.00  0.00     0.029 A 
ATOM     46  N   UNL A   1      42.164  28.121  28.272  1.00  0.00    -0.354 N 
ATOM     47  C   UNL A   1      41.404  28.751  32.676  1.00  0.00     0.074 A 
ATOM     48  C   UNL A   1      40.052  28.272  32.763  1.00  0.00     0.031 C 
ATOM     49  C   UNL A   1      41.434  27.876  26.182  1.00  0.00     0.029 A 
ATOM     50  C   UNL A   1      42.478  27.453  27.097  1.00  0.00     0.049 A 
ATOM     51  H   UNL A   1      42.773  28.161  29.045  1.00  0.00     0.167 HD
ATOM     52  C   UNL A   1      42.470  28.547  33.496  1.00  0.00     0.037 A 
ATOM     53  C   UNL A   1      43.472  26.544  26.932  1.00  0.00     0.037 A 
ATOM     54  C   UNL A   1      43.582  29.378  33.118  1.00  0.00     0.049 A 
ATOM     55  C   UNL A   1      44.422  26.706  28.062  1.00  0.00     0.074 A 
ATOM     56  C   UNL A   1      43.787  30.742  33.042  1.00  0.00     0.029 A 
ATOM     57  N   UNL A   1      44.607  28.807  32.409  1.00  0.00    -0.354 N 
ATOM     58  N   UNL A   1      45.196  27.741  28.224  1.00  0.00    -0.248 NA
ATOM     59  C   UNL A   1      44.192  25.906  29.256  1.00  0.00     0.031 C 
ATOM     60  C   UNL A   1      44.632  30.927  31.908  1.00  0.00     0.029 A 
ATOM     61  C   UNL A   1      44.931  29.665  31.392  1.00  0.00     0.049 A 
ATOM     62  H   UNL A   1      45.032  27.938  32.595  1.00  0.00     0.167 HD
ATOM     63  C   UNL A   1      45.194  27.970  29.592  1.00  0.00     0.074 A 
ATOM     64  C   UNL A   1      44.640  26.756  30.183  1.00  0.00     0.031 C 
ATOM     65  C   UNL A   1      45.376  29.227  30.091  1.00  0.00     0.037 A 
BRANCH  52  66
ATOM     66  C   UNL A   1      42.626  27.319  34.363  1.00  0.00     0.064 A 
ATOM     67  C   UNL A   1      42.465  27.446  35.758  1.00  0.00     0.173 A 
ATOM     68  C   UNL A   1      43.237  26.121  33.931  1.00  0.00     0.173 A 
ATOM     69  F   UNL A   1      41.904  28.546  36.284  1.00  0.00    -0.203 F 
ATOM     70  C   UNL A   1      42.973  26.498  36.649  1.00  0.00     0.198 A 
ATOM     71  C   UNL A   1      43.697  25.153  34.822  1.00  0.00     0.198 A 
ATOM     72  F   UNL A   1      43.523  25.881  32.647  1.00  0.00    -0.203 F 
ATOM     73  F   UNL A   1      42.925  26.733  37.967  1.00  0.00    -0.200 F 
ATOM     74  C   UNL A   1      43.600  25.358  36.180  1.00  0.00     0.200 A 
ATOM     75  F   UNL A   1      44.317  24.063  34.347  1.00  0.00    -0.200 F 
ATOM     76  F   UNL A   1      44.156  24.486  37.031  1.00  0.00    -0.200 F 
ENDBRANCH  52  66
BRANCH  53  77
ATOM     77  C   UNL A   1      43.472  25.340  26.066  1.00  0.00     0.064 A 
ATOM     78  C   UNL A   1      44.557  25.054  25.222  1.00  0.00     0.173 A 
ATOM     79  C   UNL A   1      42.533  24.304  26.248  1.00  0.00     0.173 A 
ATOM     80  F   UNL A   1      45.523  25.965  25.033  1.00  0.00    -0.203 F 
ATOM     81  C   UNL A   1      44.705  23.802  24.613  1.00  0.00     0.198 A 
ATOM     82  C   UNL A   1      42.675  23.060  25.632  1.00  0.00     0.198 A 
ATOM     83  F   UNL A   1      41.509  24.443  27.103  1.00  0.00    -0.203 F 
ATOM     84  F   UNL A   1      45.786  23.546  23.864  1.00  0.00    -0.200 F 
ATOM     85  C   UNL A   1      43.768  22.804  24.826  1.00  0.00     0.200 A 
ATOM     86  F   UNL A   1      41.779  22.093  25.877  1.00  0.00    -0.200 F 
ATOM     87  F   UNL A   1      43.938  21.587  24.291  1.00  0.00    -0.200 F 
ENDBRANCH  53  77
BRANCH  65  88
ATOM     88  C   UNL A   1      45.850  30.292  29.143  1.00  0.00     0.064 A 
ATOM     89  C   UNL A   1      47.202  30.528  28.840  1.00  0.00     0.173 A 
ATOM     90  C   UNL A   1      44.891  31.004  28.412  1.00  0.00     0.173 A 
ATOM     91  F   UNL A   1      48.175  29.814  29.419  1.00  0.00    -0.203 F 
ATOM     92  C   UNL A   1      47.573  31.473  27.885  1.00  0.00     0.198 A 
ATOM     93  C   UNL A   1      45.262  31.917  27.431  1.00  0.00     0.198 A 
ATOM     94  F   UNL A   1      43.583  30.775  28.618  1.00  0.00    -0.203 F 
ATOM     95  F   UNL A   1      48.870  31.692  27.623  1.00  0.00    -0.200 F 
ATOM     96  C   UNL A   1      46.601  32.160  27.175  1.00  0.00     0.200 A 
ATOM     97  F   UNL A   1      44.319  32.541  26.711  1.00  0.00    -0.200 F 
ATOM     98  F   UNL A   1      46.956  33.036  26.225  1.00  0.00    -0.200 F 
ENDBRANCH  65  88
ENDBRANCH  39  40
ENDBRANCH  32  34
ENDBRANCH  31  32
ENDBRANCH  30  31
ENDBRANCH   1  30
TORSDOF 16
ENDMDL
MODEL 3
REMARK VINA RESULT:     -13.2      1.587      2.373
REMARK SMILES Cc1ncc(CC(=O)N2CCc3c(c(C(=O)OCCOC(=O)c4ccc(-c5c6nc(c(-c7c(F)c(F)c(F)c(F)c7F)c7ccc([nH]7)c(-c7c(F)c(F)c(F)c(F)c7F)c7nc(c(-c8c(F)c(F)c(F)c(F)c8F)c8ccc5[nH]8)C=C7)C=C6)cc4)nn3CC3CC3)C2)c(=O)[nH]1
REMARK SMILES IDX 18 1 17 2 15 3 16 4 14 5 9 6 10 7 92 8 11 9 13 10 12 11
REMARK SMILES IDX 87 12 86 13 7 14 8 15 6 16 5 17 1 18 2 19 3 20 95 21 4 22
REMARK SMILES IDX 93 23 94 25 88 26 89 27 90 28 91 29 19 30 20 31 21 32 22 33
REMARK SMILES IDX 23 34 24 35 85 36 25 37 84 38 26 39 27 40 28 41 78 42 29 43
REMARK SMILES IDX 83 44 77 45 79 46 30 47 82 48 76 49 75 50 31 52 63 53 43 54
REMARK SMILES IDX 62 55 44 56 47 57 61 58 80 59 45 60 46 61 60 63 81 64 48 65
REMARK SMILES IDX 32 66 33 67 41 68 34 69 35 70 39 71 42 72 36 73 37 74 40 75
REMARK SMILES IDX 38 76 64 77 65 78 73 79 66 80 67 81 71 82 74 83 68 84 69 85
REMARK SMILES IDX 72 86 70 87 49 88 50 89 58 90 51 91 52 92 56 93 59 94 53 95
REMARK SMILES IDX 54 96 57 97 55 98
REMARK H PARENT 95 24 79 51 47 62
REMARK Flexibility Score: inf
ROOT
ATOM      1  C   UNL A   1      33.915  29.474  26.581  1.00  0.00     0.275 C 
ENDROOT
BRANCH   1   2
ATOM      2  O   UNL A   1      33.341  28.375  27.305  1.00  0.00    -0.457 OA
BRANCH   2   3
ATOM      3  C   UNL A   1      32.012  28.126  27.095  1.00  0.00     0.359 C 
ATOM      4  O   UNL A   1      31.179  28.031  27.996  1.00  0.00    -0.244 OA
BRANCH   3   5
ATOM      5  C   UNL A   1      31.650  28.056  25.669  1.00  0.00     0.175 A 
ATOM      6  N   UNL A   1      32.711  25.001  23.692  1.00  0.00    -0.338 N 
ATOM      7  C   UNL A   1      31.583  25.078  22.742  1.00  0.00     0.126 C 
ATOM      8  C   UNL A   1      32.460  25.602  25.019  1.00  0.00     0.159 C 
ATOM      9  C   UNL A   1      31.267  26.534  22.351  1.00  0.00     0.078 C 
ATOM     10  C   UNL A   1      31.845  26.951  24.793  1.00  0.00     0.028 A 
ATOM     11  C   UNL A   1      31.297  27.352  23.591  1.00  0.00     0.046 A 
ATOM     12  N   UNL A   1      30.835  28.619  23.769  1.00  0.00    -0.268 N 
ATOM     13  N   UNL A   1      31.067  29.084  25.014  1.00  0.00    -0.165 NA
BRANCH   6  14
ATOM     14  C   UNL A   1      33.887  24.292  23.516  1.00  0.00     0.227 C 
ATOM     15  O   UNL A   1      34.403  24.207  22.395  1.00  0.00    -0.275 OA
BRANCH  14  16
ATOM     16  C   UNL A   1      34.380  23.348  24.628  1.00  0.00     0.143 C 
BRANCH  16  17
ATOM     17  C   UNL A   1      33.969  21.920  24.604  1.00  0.00     0.045 A 
ATOM     18  C   UNL A   1      32.691  17.906  24.952  1.00  0.00     0.087 C 
ATOM     19  C   UNL A   1      33.127  19.328  24.756  1.00  0.00     0.105 A 
ATOM     20  N   UNL A   1      32.365  20.181  24.154  1.00  0.00    -0.243 NA
ATOM     21  N   UNL A   1      34.351  19.648  25.272  1.00  0.00    -0.311 N 
ATOM     22  C   UNL A   1      32.823  21.468  24.072  1.00  0.00     0.123 A 
ATOM     23  C   UNL A   1      34.857  20.914  25.221  1.00  0.00     0.254 A 
ATOM     24  H   UNL A   1      34.887  18.939  25.696  1.00  0.00     0.171 HD
ATOM     25  O   UNL A   1      35.955  21.199  25.683  1.00  0.00    -0.269 OA
ENDBRANCH  16  17
ENDBRANCH  14  16
ENDBRANCH   6  14
BRANCH  12  26
ATOM     26  C   UNL A   1      30.236  29.495  22.770  1.00  0.00     0.148 C 
BRANCH  26  27
ATOM     27  C   UNL A   1      28.742  29.381  22.622  1.00  0.00     0.011 C 
ATOM     28  C   UNL A   1      27.740  30.404  23.112  1.00  0.00     0.006 C 
ATOM     29  C   UNL A   1      28.033  30.288  21.645  1.00  0.00     0.006 C 
ENDBRANCH  26  27
ENDBRANCH  12  26
ENDBRANCH   3   5
ENDBRANCH   2   3
ENDBRANCH   1   2
BRANCH   1  30
ATOM     30  C   UNL A   1      34.553  30.509  27.503  1.00  0.00     0.275 C 
BRANCH  30  31
ATOM     31  O   UNL A   1      35.982  30.481  27.457  1.00  0.00    -0.458 OA
BRANCH  31  32
ATOM     32  C   UNL A   1      36.587  31.214  28.415  1.00  0.00     0.338 C 
ATOM     33  O   UNL A   1      36.444  32.404  28.643  1.00  0.00    -0.246 OA
BRANCH  32  34
ATOM     34  C   UNL A   1      37.606  30.415  29.094  1.00  0.00     0.060 A 
ATOM     35  C   UNL A   1      38.827  31.037  29.372  1.00  0.00     0.016 A 
ATOM     36  C   UNL A   1      37.432  29.032  29.228  1.00  0.00     0.016 A 
ATOM     37  C   UNL A   1      39.916  30.252  29.682  1.00  0.00     0.010 A 
ATOM     38  C   UNL A   1      38.523  28.246  29.532  1.00  0.00     0.010 A 
ATOM     39  C   UNL A   1      39.765  28.860  29.701  1.00  0.00    -0.014 A 
BRANCH  39  40
ATOM     40  C   UNL A   1      40.936  28.065  30.017  1.00  0.00     0.031 A 
ATOM     41  C   UNL A   1      41.292  28.076  31.461  1.00  0.00     0.074 A 
ATOM     42  C   UNL A   1      41.546  27.303  29.089  1.00  0.00     0.049 A 
ATOM     43  N   UNL A   1      42.422  28.384  32.008  1.00  0.00    -0.248 NA
ATOM     44  C   UNL A   1      40.208  27.822  32.428  1.00  0.00     0.031 C 
ATOM     45  C   UNL A   1      41.097  27.023  27.722  1.00  0.00     0.029 A 
ATOM     46  N   UNL A   1      42.650  26.520  29.212  1.00  0.00    -0.354 N 
ATOM     47  C   UNL A   1      42.240  28.207  33.378  1.00  0.00     0.074 A 
ATOM     48  C   UNL A   1      40.833  28.003  33.589  1.00  0.00     0.031 C 
ATOM     49  C   UNL A   1      41.780  25.961  27.240  1.00  0.00     0.029 A 
ATOM     50  C   UNL A   1      42.786  25.569  28.211  1.00  0.00     0.049 A 
ATOM     51  H   UNL A   1      43.297  26.618  29.948  1.00  0.00     0.167 HD
ATOM     52  C   UNL A   1      43.298  28.002  34.207  1.00  0.00     0.037 A 
ATOM     53  C   UNL A   1      43.603  24.487  28.236  1.00  0.00     0.037 A 
ATOM     54  C   UNL A   1      44.512  28.524  33.639  1.00  0.00     0.049 A 
ATOM     55  C   UNL A   1      44.625  24.719  29.289  1.00  0.00     0.074 A 
ATOM     56  C   UNL A   1      44.939  29.782  33.259  1.00  0.00     0.029 A 
ATOM     57  N   UNL A   1      45.388  27.643  33.058  1.00  0.00    -0.354 N 
ATOM     58  N   UNL A   1      45.569  25.614  29.206  1.00  0.00    -0.248 NA
ATOM     59  C   UNL A   1      44.327  24.249  30.633  1.00  0.00     0.031 C 
ATOM     60  C   UNL A   1      45.741  29.568  32.100  1.00  0.00     0.029 A 
ATOM     61  C   UNL A   1      45.798  28.192  31.872  1.00  0.00     0.049 A 
ATOM     62  H   UNL A   1      45.671  26.775  33.426  1.00  0.00     0.167 HD
ATOM     63  C   UNL A   1      45.678  26.129  30.489  1.00  0.00     0.074 A 
ATOM     64  C   UNL A   1      44.960  25.188  31.342  1.00  0.00     0.031 C 
ATOM     65  C   UNL A   1      46.093  27.413  30.694  1.00  0.00     0.037 A 
BRANCH  52  66
ATOM     66  C   UNL A   1      43.292  26.982  35.322  1.00  0.00     0.064 A 
ATOM     67  C   UNL A   1      43.652  27.393  36.622  1.00  0.00     0.173 A 
ATOM     68  C   UNL A   1      43.270  25.585  35.114  1.00  0.00     0.173 A 
ATOM     69  F   UNL A   1      43.716  28.697  36.935  1.00  0.00    -0.203 F 
ATOM     70  C   UNL A   1      44.061  26.481  37.598  1.00  0.00     0.198 A 
ATOM     71  C   UNL A   1      43.629  24.675  36.106  1.00  0.00     0.198 A 
ATOM     72  F   UNL A   1      43.016  25.040  33.920  1.00  0.00    -0.203 F 
ATOM     73  F   UNL A   1      44.533  26.929  38.769  1.00  0.00    -0.200 F 
ATOM     74  C   UNL A   1      44.061  25.123  37.335  1.00  0.00     0.200 A 
ATOM     75  F   UNL A   1      43.638  23.365  35.825  1.00  0.00    -0.200 F 
ATOM     76  F   UNL A   1      44.524  24.253  38.241  1.00  0.00    -0.200 F 
ENDBRANCH  52  66
BRANCH  53  77
ATOM     77  C   UNL A   1      43.356  23.143  27.660  1.00  0.00     0.064 A 
ATOM     78  C   UNL A   1      42.274  22.357  28.091  1.00  0.00     0.173 A 
ATOM     79  C   UNL A   1      44.011  22.714  26.488  1.00  0.00     0.173 A 
ATOM     80  F   UNL A   1      41.565  22.720  29.169  1.00  0.00    -0.203 F 
ATOM     81  C   UNL A   1      41.861  21.224  27.380  1.00  0.00     0.198 A 
ATOM     82  C   UNL A   1      43.605  21.578  25.786  1.00  0.00     0.198 A 
ATOM     83  F   UNL A   1      44.997  23.441  25.943  1.00  0.00    -0.203 F 
ATOM     84  F   UNL A   1      40.786  20.535  27.787  1.00  0.00    -0.200 F 
ATOM     85  C   UNL A   1      42.522  20.841  26.225  1.00  0.00     0.200 A 
ATOM     86  F   UNL A   1      44.231  21.241  24.649  1.00  0.00    -0.200 F 
ATOM     87  F   UNL A   1      42.091  19.791  25.512  1.00  0.00    -0.200 F 
ENDBRANCH  53  77
BRANCH  65  88
ATOM     88  C   UNL A   1      46.688  28.148  29.527  1.00  0.00     0.064 A 
ATOM     89  C   UNL A   1      45.936  28.892  28.602  1.00  0.00     0.173 A 
ATOM     90  C   UNL A   1      48.083  28.212  29.426  1.00  0.00     0.173 A 
ATOM     91  F   UNL A   1      44.603  28.967  28.696  1.00  0.00    -0.203 F 
ATOM     92  C   UNL A   1      46.556  29.625  27.592  1.00  0.00     0.198 A 
ATOM     93  C   UNL A   1      48.701  28.976  28.441  1.00  0.00     0.198 A 
ATOM     94  F   UNL A   1      48.852  27.569  30.319  1.00  0.00    -0.203 F 
ATOM     95  F   UNL A   1      45.817  30.316  26.711  1.00  0.00    -0.200 F 
ATOM     96  C   UNL A   1      47.938  29.673  27.518  1.00  0.00     0.200 A 
ATOM     97  F   UNL A   1      50.038  29.061  28.406  1.00  0.00    -0.200 F 
ATOM     98  F   UNL A   1      48.537  30.412  26.574  1.00  0.00    -0.200 F 
ENDBRANCH  65  88
ENDBRANCH  39  40
ENDBRANCH  32  34
ENDBRANCH  31  32
ENDBRANCH  30  31
ENDBRANCH   1  30
TORSDOF 16
ENDMDL
