MODEL 1
REMARK VINA RESULT:     -12.1      0.000      0.000
REMARK SMILES C[C@@H](C(=O)OCCOC(=O)c1ccc(-c2c3nc(c(-c4c(F)c(F)c(F)c(F)c4F)c4ccc([nH]4)c(-c4c(F)c(F)c(F)c(F)c4F)c4nc(c(-c5c(F)c(F)c(F)c(F)c5F)c5ccc2[nH]5)C=C4)C=C3)cc1)c1ccc(OC2CCCC2)cc1F
REMARK SMILES IDX 6 1 5 2 3 3 4 4 2 5 1 6 74 7 75 8 85 9 76 10 84 11 86 12
REMARK SMILES IDX 77 13 78 14 79 15 80 16 83 17 81 18 82 19 7 20 8 21 9 22
REMARK SMILES IDX 10 23 11 24 12 25 73 26 13 27 72 28 14 29 15 30 16 31 66 32
REMARK SMILES IDX 17 33 71 34 65 35 67 36 18 37 70 38 64 39 63 40 19 42 51 43
REMARK SMILES IDX 31 44 50 45 32 46 35 47 49 48 68 49 33 50 34 51 48 53 69 54
REMARK SMILES IDX 36 55 20 56 21 57 29 58 22 59 23 60 27 61 30 62 24 63 25 64
REMARK SMILES IDX 28 65 26 66 52 67 53 68 61 69 54 70 55 71 59 72 62 73 56 74
REMARK SMILES IDX 57 75 60 76 58 77 37 78 38 79 46 80 39 81 40 82 44 83 47 84
REMARK SMILES IDX 41 85 42 86 45 87 43 88
REMARK H PARENT 67 41 35 52
REMARK Flexibility Score: inf
ROOT
ATOM      1  C   UNL A   1      31.319  29.127  24.435  1.00  0.00     0.274 C 
ENDROOT
BRANCH   1   2
ATOM      2  O   UNL A   1      30.833  27.829  24.829  1.00  0.00    -0.462 OA
BRANCH   2   3
ATOM      3  C   UNL A   1      31.602  26.765  24.458  1.00  0.00     0.313 C 
ATOM      4  O   UNL A   1      31.649  26.341  23.309  1.00  0.00    -0.252 OA
BRANCH   3   5
ATOM      5  C   UNL A   1      32.339  26.134  25.654  1.00  0.00     0.129 C 
ATOM      6  C   UNL A   1      33.783  26.643  25.767  1.00  0.00     0.025 C 
BRANCH   5   7
ATOM      7  C   UNL A   1      32.229  24.608  25.634  1.00  0.00     0.002 A 
ATOM      8  C   UNL A   1      33.254  23.759  25.197  1.00  0.00     0.011 A 
ATOM      9  C   UNL A   1      31.021  24.006  26.019  1.00  0.00     0.130 A 
ATOM     10  C   UNL A   1      33.052  22.374  25.134  1.00  0.00     0.047 A 
ATOM     11  C   UNL A   1      30.804  22.629  25.918  1.00  0.00     0.086 A 
ATOM     12  F   UNL A   1      30.022  24.769  26.487  1.00  0.00    -0.207 F 
ATOM     13  C   UNL A   1      31.822  21.800  25.471  1.00  0.00     0.122 A 
BRANCH  13  14
ATOM     14  O   UNL A   1      31.780  20.448  25.334  1.00  0.00    -0.490 OA
BRANCH  14  15
ATOM     15  C   UNL A   1      32.634  19.716  24.465  1.00  0.00     0.173 C 
ATOM     16  C   UNL A   1      33.126  18.361  24.968  1.00  0.00     0.045 C 
ATOM     17  C   UNL A   1      32.153  19.509  23.026  1.00  0.00     0.045 C 
ATOM     18  C   UNL A   1      33.577  17.666  23.692  1.00  0.00     0.004 C 
ATOM     19  C   UNL A   1      32.530  18.075  22.666  1.00  0.00     0.004 C 
ENDBRANCH  14  15
ENDBRANCH  13  14
ENDBRANCH   5   7
ENDBRANCH   3   5
ENDBRANCH   2   3
ENDBRANCH   1   2
BRANCH   1  20
ATOM     20  C   UNL A   1      31.502  30.055  25.638  1.00  0.00     0.275 C 
BRANCH  20  21
ATOM     21  O   UNL A   1      32.894  30.325  25.887  1.00  0.00    -0.458 OA
BRANCH  21  22
ATOM     22  C   UNL A   1      33.154  31.217  26.869  1.00  0.00     0.338 C 
ATOM     23  O   UNL A   1      32.451  32.136  27.250  1.00  0.00    -0.246 OA
BRANCH  22  24
ATOM     24  C   UNL A   1      34.436  30.885  27.510  1.00  0.00     0.060 A 
ATOM     25  C   UNL A   1      34.776  29.542  27.635  1.00  0.00     0.016 A 
ATOM     26  C   UNL A   1      35.223  31.869  28.112  1.00  0.00     0.016 A 
ATOM     27  C   UNL A   1      35.876  29.169  28.398  1.00  0.00     0.010 A 
ATOM     28  C   UNL A   1      36.358  31.494  28.847  1.00  0.00     0.010 A 
ATOM     29  C   UNL A   1      36.678  30.137  29.015  1.00  0.00    -0.014 A 
BRANCH  29  30
ATOM     30  C   UNL A   1      37.784  29.678  29.894  1.00  0.00     0.031 A 
ATOM     31  C   UNL A   1      38.962  28.962  29.297  1.00  0.00     0.074 A 
ATOM     32  C   UNL A   1      37.800  30.027  31.194  1.00  0.00     0.049 A 
ATOM     33  N   UNL A   1      40.048  28.524  29.884  1.00  0.00    -0.248 NA
ATOM     34  C   UNL A   1      38.916  28.703  27.850  1.00  0.00     0.031 C 
ATOM     35  C   UNL A   1      36.760  30.802  31.869  1.00  0.00     0.029 A 
ATOM     36  N   UNL A   1      38.766  29.853  32.157  1.00  0.00    -0.354 N 
ATOM     37  C   UNL A   1      40.770  27.866  28.899  1.00  0.00     0.074 A 
ATOM     38  C   UNL A   1      40.031  28.011  27.662  1.00  0.00     0.031 C 
ATOM     39  C   UNL A   1      37.199  31.147  33.090  1.00  0.00     0.029 A 
ATOM     40  C   UNL A   1      38.527  30.578  33.301  1.00  0.00     0.049 A 
ATOM     41  H   UNL A   1      39.550  29.269  32.040  1.00  0.00     0.167 HD
ATOM     42  C   UNL A   1      41.925  27.170  29.028  1.00  0.00     0.037 A 
ATOM     43  C   UNL A   1      39.321  30.796  34.368  1.00  0.00     0.037 A 
ATOM     44  C   UNL A   1      42.687  27.072  30.244  1.00  0.00     0.049 A 
ATOM     45  C   UNL A   1      40.645  30.088  34.460  1.00  0.00     0.074 A 
ATOM     46  C   UNL A   1      43.820  26.320  30.500  1.00  0.00     0.029 A 
ATOM     47  N   UNL A   1      42.406  27.779  31.402  1.00  0.00    -0.354 N 
ATOM     48  N   UNL A   1      41.269  29.372  33.559  1.00  0.00    -0.248 NA
ATOM     49  C   UNL A   1      41.356  30.192  35.744  1.00  0.00     0.031 C 
ATOM     50  C   UNL A   1      44.214  26.557  31.823  1.00  0.00     0.029 A 
ATOM     51  C   UNL A   1      43.342  27.479  32.377  1.00  0.00     0.049 A 
ATOM     52  H   UNL A   1      41.653  28.403  31.514  1.00  0.00     0.167 HD
ATOM     53  C   UNL A   1      42.427  28.915  34.174  1.00  0.00     0.074 A 
ATOM     54  C   UNL A   1      42.456  29.493  35.500  1.00  0.00     0.031 C 
ATOM     55  C   UNL A   1      43.359  28.056  33.695  1.00  0.00     0.037 A 
BRANCH  42  56
ATOM     56  C   UNL A   1      42.375  26.371  27.845  1.00  0.00     0.064 A 
ATOM     57  C   UNL A   1      41.881  25.090  27.570  1.00  0.00     0.173 A 
ATOM     58  C   UNL A   1      43.316  26.921  26.959  1.00  0.00     0.173 A 
ATOM     59  F   UNL A   1      40.998  24.516  28.400  1.00  0.00    -0.203 F 
ATOM     60  C   UNL A   1      42.325  24.381  26.457  1.00  0.00     0.198 A 
ATOM     61  C   UNL A   1      43.742  26.219  25.838  1.00  0.00     0.198 A 
ATOM     62  F   UNL A   1      43.818  28.145  27.183  1.00  0.00    -0.203 F 
ATOM     63  F   UNL A   1      41.869  23.142  26.227  1.00  0.00    -0.200 F 
ATOM     64  C   UNL A   1      43.250  24.947  25.589  1.00  0.00     0.200 A 
ATOM     65  F   UNL A   1      44.631  26.770  25.000  1.00  0.00    -0.200 F 
ATOM     66  F   UNL A   1      43.673  24.262  24.518  1.00  0.00    -0.200 F 
ENDBRANCH  42  56
BRANCH  43  67
ATOM     67  C   UNL A   1      38.938  31.785  35.408  1.00  0.00     0.064 A 
ATOM     68  C   UNL A   1      38.201  31.365  36.528  1.00  0.00     0.173 A 
ATOM     69  C   UNL A   1      39.265  33.142  35.318  1.00  0.00     0.173 A 
ATOM     70  F   UNL A   1      37.846  30.077  36.649  1.00  0.00    -0.203 F 
ATOM     71  C   UNL A   1      37.805  32.265  37.512  1.00  0.00     0.198 A 
ATOM     72  C   UNL A   1      38.886  34.041  36.315  1.00  0.00     0.198 A 
ATOM     73  F   UNL A   1      39.957  33.598  34.263  1.00  0.00    -0.203 F 
ATOM     74  F   UNL A   1      37.078  31.838  38.553  1.00  0.00    -0.200 F 
ATOM     75  C   UNL A   1      38.152  33.603  37.408  1.00  0.00     0.200 A 
ATOM     76  F   UNL A   1      39.228  35.332  36.215  1.00  0.00    -0.200 F 
ATOM     77  F   UNL A   1      37.774  34.470  38.356  1.00  0.00    -0.200 F 
ENDBRANCH  43  67
BRANCH  55  78
ATOM     78  C   UNL A   1      44.461  27.649  34.626  1.00  0.00     0.064 A 
ATOM     79  C   UNL A   1      44.307  26.545  35.479  1.00  0.00     0.173 A 
ATOM     80  C   UNL A   1      45.689  28.325  34.636  1.00  0.00     0.173 A 
ATOM     81  F   UNL A   1      43.146  25.874  35.513  1.00  0.00    -0.203 F 
ATOM     82  C   UNL A   1      45.338  26.145  36.324  1.00  0.00     0.198 A 
ATOM     83  C   UNL A   1      46.725  27.908  35.467  1.00  0.00     0.198 A 
ATOM     84  F   UNL A   1      45.885  29.382  33.835  1.00  0.00    -0.203 F 
ATOM     85  F   UNL A   1      45.157  25.109  37.155  1.00  0.00    -0.200 F 
ATOM     86  C   UNL A   1      46.548  26.822  36.313  1.00  0.00     0.200 A 
ATOM     87  F   UNL A   1      47.898  28.557  35.452  1.00  0.00    -0.200 F 
ATOM     88  F   UNL A   1      47.542  26.432  37.122  1.00  0.00    -0.200 F 
ENDBRANCH  55  78
ENDBRANCH  29  30
ENDBRANCH  22  24
ENDBRANCH  21  22
ENDBRANCH  20  21
ENDBRANCH   1  20
TORSDOF 14
ENDMDL
MODEL 2
REMARK VINA RESULT:     -12.1      1.459      7.594
REMARK SMILES C[C@@H](C(=O)OCCOC(=O)c1ccc(-c2c3nc(c(-c4c(F)c(F)c(F)c(F)c4F)c4ccc([nH]4)c(-c4c(F)c(F)c(F)c(F)c4F)c4nc(c(-c5c(F)c(F)c(F)c(F)c5F)c5ccc2[nH]5)C=C4)C=C3)cc1)c1ccc(OC2CCCC2)cc1F
REMARK SMILES IDX 6 1 5 2 3 3 4 4 2 5 1 6 74 7 75 8 85 9 76 10 84 11 86 12
REMARK SMILES IDX 77 13 78 14 79 15 80 16 83 17 81 18 82 19 7 20 8 21 9 22
REMARK SMILES IDX 10 23 11 24 12 25 73 26 13 27 72 28 14 29 15 30 16 31 66 32
REMARK SMILES IDX 17 33 71 34 65 35 67 36 18 37 70 38 64 39 63 40 19 42 51 43
REMARK SMILES IDX 31 44 50 45 32 46 35 47 49 48 68 49 33 50 34 51 48 53 69 54
REMARK SMILES IDX 36 55 20 56 21 57 29 58 22 59 23 60 27 61 30 62 24 63 25 64
REMARK SMILES IDX 28 65 26 66 52 67 53 68 61 69 54 70 55 71 59 72 62 73 56 74
REMARK SMILES IDX 57 75 60 76 58 77 37 78 38 79 46 80 39 81 40 82 44 83 47 84
REMARK SMILES IDX 41 85 42 86 45 87 43 88
REMARK H PARENT 67 41 35 52
REMARK Flexibility Score: inf
ROOT
ATOM      1  C   UNL A   1      32.331  29.669  25.239  1.00  0.00     0.274 C 
ENDROOT
BRANCH   1   2
ATOM      2  O   UNL A   1      31.316  28.987  24.477  1.00  0.00    -0.462 OA
BRANCH   2   3
ATOM      3  C   UNL A   1      31.762  28.196  23.460  1.00  0.00     0.313 C 
ATOM      4  O   UNL A   1      31.025  27.741  22.592  1.00  0.00    -0.252 OA
BRANCH   3   5
ATOM      5  C   UNL A   1      33.269  27.894  23.574  1.00  0.00     0.129 C 
ATOM      6  C   UNL A   1      34.028  28.298  22.302  1.00  0.00     0.025 C 
BRANCH   5   7
ATOM      7  C   UNL A   1      33.517  26.446  24.000  1.00  0.00     0.002 A 
ATOM      8  C   UNL A   1      33.389  25.348  23.141  1.00  0.00     0.011 A 
ATOM      9  C   UNL A   1      33.837  26.175  25.340  1.00  0.00     0.130 A 
ATOM     10  C   UNL A   1      33.556  24.044  23.623  1.00  0.00     0.047 A 
ATOM     11  C   UNL A   1      33.964  24.874  25.832  1.00  0.00     0.086 A 
ATOM     12  F   UNL A   1      34.015  27.193  26.195  1.00  0.00    -0.207 F 
ATOM     13  C   UNL A   1      33.822  23.794  24.973  1.00  0.00     0.122 A 
BRANCH  13  14
ATOM     14  O   UNL A   1      33.934  22.475  25.286  1.00  0.00    -0.490 OA
BRANCH  14  15
ATOM     15  C   UNL A   1      35.172  21.827  25.545  1.00  0.00     0.173 C 
ATOM     16  C   UNL A   1      35.343  20.421  24.976  1.00  0.00     0.045 C 
ATOM     17  C   UNL A   1      36.449  22.602  25.206  1.00  0.00     0.045 C 
ATOM     18  C   UNL A   1      36.852  20.223  25.001  1.00  0.00     0.004 C 
ATOM     19  C   UNL A   1      37.403  21.581  24.594  1.00  0.00     0.004 C 
ENDBRANCH  14  15
ENDBRANCH  13  14
ENDBRANCH   5   7
ENDBRANCH   3   5
ENDBRANCH   2   3
ENDBRANCH   1   2
BRANCH   1  20
ATOM     20  C   UNL A   1      31.748  30.813  26.070  1.00  0.00     0.275 C 
BRANCH  20  21
ATOM     21  O   UNL A   1      32.451  30.970  27.316  1.00  0.00    -0.458 OA
BRANCH  21  22
ATOM     22  C   UNL A   1      33.226  32.073  27.420  1.00  0.00     0.338 C 
ATOM     23  O   UNL A   1      32.896  33.235  27.264  1.00  0.00    -0.246 OA
BRANCH  22  24
ATOM     24  C   UNL A   1      34.583  31.685  27.835  1.00  0.00     0.060 A 
ATOM     25  C   UNL A   1      34.809  30.354  28.168  1.00  0.00     0.016 A 
ATOM     26  C   UNL A   1      35.581  32.641  28.038  1.00  0.00     0.016 A 
ATOM     27  C   UNL A   1      36.014  29.975  28.748  1.00  0.00     0.010 A 
ATOM     28  C   UNL A   1      36.814  32.250  28.583  1.00  0.00     0.010 A 
ATOM     29  C   UNL A   1      37.028  30.915  28.965  1.00  0.00    -0.014 A 
BRANCH  29  30
ATOM     30  C   UNL A   1      38.258  30.473  29.672  1.00  0.00     0.031 A 
ATOM     31  C   UNL A   1      38.407  30.737  31.143  1.00  0.00     0.074 A 
ATOM     32  C   UNL A   1      39.167  29.714  29.031  1.00  0.00     0.049 A 
ATOM     33  N   UNL A   1      39.378  30.392  31.950  1.00  0.00    -0.248 NA
ATOM     34  C   UNL A   1      37.323  31.488  31.794  1.00  0.00     0.031 C 
ATOM     35  C   UNL A   1      39.087  29.311  27.628  1.00  0.00     0.029 A 
ATOM     36  N   UNL A   1      40.290  29.073  29.500  1.00  0.00    -0.354 N 
ATOM     37  C   UNL A   1      39.065  30.954  33.180  1.00  0.00     0.074 A 
ATOM     38  C   UNL A   1      37.784  31.614  33.030  1.00  0.00     0.031 C 
ATOM     39  C   UNL A   1      40.036  28.393  27.385  1.00  0.00     0.029 A 
ATOM     40  C   UNL A   1      40.819  28.179  28.599  1.00  0.00     0.049 A 
ATOM     41  H   UNL A   1      40.675  29.237  30.391  1.00  0.00     0.167 HD
ATOM     42  C   UNL A   1      39.801  30.953  34.317  1.00  0.00     0.037 A 
ATOM     43  C   UNL A   1      41.790  27.259  28.762  1.00  0.00     0.037 A 
ATOM     44  C   UNL A   1      41.046  30.251  34.481  1.00  0.00     0.049 A 
ATOM     45  C   UNL A   1      42.543  27.203  30.064  1.00  0.00     0.074 A 
ATOM     46  C   UNL A   1      41.911  30.259  35.561  1.00  0.00     0.029 A 
ATOM     47  N   UNL A   1      41.586  29.386  33.542  1.00  0.00    -0.354 N 
ATOM     48  N   UNL A   1      42.304  27.828  31.189  1.00  0.00    -0.248 NA
ATOM     49  C   UNL A   1      43.731  26.336  30.096  1.00  0.00     0.031 C 
ATOM     50  C   UNL A   1      42.988  29.413  35.267  1.00  0.00     0.029 A 
ATOM     51  C   UNL A   1      42.774  28.857  34.017  1.00  0.00     0.049 A 
ATOM     52  H   UNL A   1      41.184  29.179  32.669  1.00  0.00     0.167 HD
ATOM     53  C   UNL A   1      43.326  27.455  32.053  1.00  0.00     0.074 A 
ATOM     54  C   UNL A   1      44.146  26.495  31.346  1.00  0.00     0.031 C 
ATOM     55  C   UNL A   1      43.585  27.906  33.304  1.00  0.00     0.037 A 
BRANCH  42  56
ATOM     56  C   UNL A   1      39.328  31.825  35.437  1.00  0.00     0.064 A 
ATOM     57  C   UNL A   1      38.507  31.349  36.467  1.00  0.00     0.173 A 
ATOM     58  C   UNL A   1      39.730  33.170  35.480  1.00  0.00     0.173 A 
ATOM     59  F   UNL A   1      38.081  30.078  36.456  1.00  0.00    -0.203 F 
ATOM     60  C   UNL A   1      38.092  32.194  37.493  1.00  0.00     0.198 A 
ATOM     61  C   UNL A   1      39.330  34.006  36.516  1.00  0.00     0.198 A 
ATOM     62  F   UNL A   1      40.516  33.671  34.514  1.00  0.00    -0.203 F 
ATOM     63  F   UNL A   1      37.277  31.732  38.452  1.00  0.00    -0.200 F 
ATOM     64  C   UNL A   1      38.507  33.519  37.520  1.00  0.00     0.200 A 
ATOM     65  F   UNL A   1      39.736  35.283  36.542  1.00  0.00    -0.200 F 
ATOM     66  F   UNL A   1      38.107  34.329  38.510  1.00  0.00    -0.200 F 
ENDBRANCH  42  56
BRANCH  43  67
ATOM     67  C   UNL A   1      42.066  26.252  27.705  1.00  0.00     0.064 A 
ATOM     68  C   UNL A   1      41.297  25.079  27.647  1.00  0.00     0.173 A 
ATOM     69  C   UNL A   1      43.084  26.410  26.759  1.00  0.00     0.173 A 
ATOM     70  F   UNL A   1      40.322  24.874  28.546  1.00  0.00    -0.203 F 
ATOM     71  C   UNL A   1      41.539  24.103  26.685  1.00  0.00     0.198 A 
ATOM     72  C   UNL A   1      43.313  25.441  25.782  1.00  0.00     0.198 A 
ATOM     73  F   UNL A   1      43.856  27.507  26.778  1.00  0.00    -0.203 F 
ATOM     74  F   UNL A   1      40.807  22.981  26.674  1.00  0.00    -0.200 F 
ATOM     75  C   UNL A   1      42.544  24.287  25.749  1.00  0.00     0.200 A 
ATOM     76  F   UNL A   1      44.282  25.623  24.875  1.00  0.00    -0.200 F 
ATOM     77  F   UNL A   1      42.777  23.349  24.822  1.00  0.00    -0.200 F 
ENDBRANCH  43  67
BRANCH  55  78
ATOM     78  C   UNL A   1      44.830  27.405  33.970  1.00  0.00     0.064 A 
ATOM     79  C   UNL A   1      46.047  28.090  33.824  1.00  0.00     0.173 A 
ATOM     80  C   UNL A   1      44.806  26.272  34.795  1.00  0.00     0.173 A 
ATOM     81  F   UNL A   1      46.122  29.173  33.036  1.00  0.00    -0.203 F 
ATOM     82  C   UNL A   1      47.199  27.646  34.465  1.00  0.00     0.198 A 
ATOM     83  C   UNL A   1      45.956  25.843  35.452  1.00  0.00     0.198 A 
ATOM     84  F   UNL A   1      43.666  25.587  34.970  1.00  0.00    -0.203 F 
ATOM     85  F   UNL A   1      48.358  28.296  34.283  1.00  0.00    -0.200 F 
ATOM     86  C   UNL A   1      47.152  26.527  35.283  1.00  0.00     0.200 A 
ATOM     87  F   UNL A   1      45.911  24.766  36.248  1.00  0.00    -0.200 F 
ATOM     88  F   UNL A   1      48.261  26.104  35.905  1.00  0.00    -0.200 F 
ENDBRANCH  55  78
ENDBRANCH  29  30
ENDBRANCH  22  24
ENDBRANCH  21  22
ENDBRANCH  20  21
ENDBRANCH   1  20
TORSDOF 14
ENDMDL
MODEL 3
REMARK VINA RESULT:     -12.0      1.193      7.417
REMARK SMILES C[C@@H](C(=O)OCCOC(=O)c1ccc(-c2c3nc(c(-c4c(F)c(F)c(F)c(F)c4F)c4ccc([nH]4)c(-c4c(F)c(F)c(F)c(F)c4F)c4nc(c(-c5c(F)c(F)c(F)c(F)c5F)c5ccc2[nH]5)C=C4)C=C3)cc1)c1ccc(OC2CCCC2)cc1F
REMARK SMILES IDX 6 1 5 2 3 3 4 4 2 5 1 6 74 7 75 8 85 9 76 10 84 11 86 12
REMARK SMILES IDX 77 13 78 14 79 15 80 16 83 17 81 18 82 19 7 20 8 21 9 22
REMARK SMILES IDX 10 23 11 24 12 25 73 26 13 27 72 28 14 29 15 30 16 31 66 32
REMARK SMILES IDX 17 33 71 34 65 35 67 36 18 37 70 38 64 39 63 40 19 42 51 43
REMARK SMILES IDX 31 44 50 45 32 46 35 47 49 48 68 49 33 50 34 51 48 53 69 54
REMARK SMILES IDX 36 55 20 56 21 57 29 58 22 59 23 60 27 61 30 62 24 63 25 64
REMARK SMILES IDX 28 65 26 66 52 67 53 68 61 69 54 70 55 71 59 72 62 73 56 74
REMARK SMILES IDX 57 75 60 76 58 77 37 78 38 79 46 80 39 81 40 82 44 83 47 84
REMARK SMILES IDX 41 85 42 86 45 87 43 88
REMARK H PARENT 67 41 35 52
REMARK Flexibility Score: inf
ROOT
ATOM      1  C   UNL A   1      31.597  27.946  26.000  1.00  0.00     0.274 C 
ENDROOT
BRANCH   1   2
ATOM      2  O   UNL A   1      32.680  27.090  26.416  1.00  0.00    -0.462 OA
BRANCH   2   3
ATOM      3  C   UNL A   1      32.446  25.749  26.334  1.00  0.00     0.313 C 
ATOM      4  O   UNL A   1      31.447  25.214  26.801  1.00  0.00    -0.252 OA
BRANCH   3   5
ATOM      5  C   UNL A   1      33.606  24.996  25.655  1.00  0.00     0.129 C 
ATOM      6  C   UNL A   1      34.061  25.695  24.366  1.00  0.00     0.025 C 
BRANCH   5   7
ATOM      7  C   UNL A   1      33.272  23.516  25.462  1.00  0.00     0.002 A 
ATOM      8  C   UNL A   1      32.471  23.027  24.421  1.00  0.00     0.011 A 
ATOM      9  C   UNL A   1      33.737  22.583  26.402  1.00  0.00     0.130 A 
ATOM     10  C   UNL A   1      32.144  21.667  24.354  1.00  0.00     0.047 A 
ATOM     11  C   UNL A   1      33.379  21.233  26.359  1.00  0.00     0.086 A 
ATOM     12  F   UNL A   1      34.544  22.991  27.393  1.00  0.00    -0.207 F 
ATOM     13  C   UNL A   1      32.575  20.764  25.331  1.00  0.00     0.122 A 
BRANCH  13  14
ATOM     14  O   UNL A   1      32.154  19.486  25.136  1.00  0.00    -0.490 OA
BRANCH  14  15
ATOM     15  C   UNL A   1      33.025  18.363  25.112  1.00  0.00     0.173 C 
ATOM     16  C   UNL A   1      32.435  17.027  25.557  1.00  0.00     0.045 C 
ATOM     17  C   UNL A   1      33.790  18.101  23.811  1.00  0.00     0.045 C 
ATOM     18  C   UNL A   1      33.412  16.013  24.979  1.00  0.00     0.004 C 
ATOM     19  C   UNL A   1      33.768  16.588  23.616  1.00  0.00     0.004 C 
ENDBRANCH  14  15
ENDBRANCH  13  14
ENDBRANCH   5   7
ENDBRANCH   3   5
ENDBRANCH   2   3
ENDBRANCH   1   2
BRANCH   1  20
ATOM     20  C   UNL A   1      31.678  29.326  26.657  1.00  0.00     0.275 C 
BRANCH  20  21
ATOM     21  O   UNL A   1      32.858  30.038  26.243  1.00  0.00    -0.458 OA
BRANCH  21  22
ATOM     22  C   UNL A   1      33.223  31.077  27.027  1.00  0.00     0.338 C 
ATOM     23  O   UNL A   1      32.540  32.021  27.383  1.00  0.00    -0.246 OA
BRANCH  22  24
ATOM     24  C   UNL A   1      34.610  30.888  27.481  1.00  0.00     0.060 A 
ATOM     25  C   UNL A   1      35.061  29.587  27.679  1.00  0.00     0.016 A 
ATOM     26  C   UNL A   1      35.407  31.974  27.851  1.00  0.00     0.016 A 
ATOM     27  C   UNL A   1      36.290  29.361  28.288  1.00  0.00     0.010 A 
ATOM     28  C   UNL A   1      36.667  31.744  28.426  1.00  0.00     0.010 A 
ATOM     29  C   UNL A   1      37.105  30.432  28.671  1.00  0.00    -0.014 A 
BRANCH  29  30
ATOM     30  C   UNL A   1      38.364  30.133  29.401  1.00  0.00     0.031 A 
ATOM     31  C   UNL A   1      38.480  30.477  30.859  1.00  0.00     0.074 A 
ATOM     32  C   UNL A   1      39.341  29.428  28.799  1.00  0.00     0.049 A 
ATOM     33  N   UNL A   1      39.472  30.256  31.684  1.00  0.00    -0.248 NA
ATOM     34  C   UNL A   1      37.330  31.160  31.471  1.00  0.00     0.031 C 
ATOM     35  C   UNL A   1      39.305  28.954  27.416  1.00  0.00     0.029 A 
ATOM     36  N   UNL A   1      40.512  28.910  29.300  1.00  0.00    -0.354 N 
ATOM     37  C   UNL A   1      39.103  30.846  32.885  1.00  0.00     0.074 A 
ATOM     38  C   UNL A   1      37.771  31.383  32.701  1.00  0.00     0.031 C 
ATOM     39  C   UNL A   1      40.332  28.113  27.218  1.00  0.00     0.029 A 
ATOM     40  C   UNL A   1      41.123  28.025  28.443  1.00  0.00     0.049 A 
ATOM     41  H   UNL A   1      40.875  29.148  30.183  1.00  0.00     0.167 HD
ATOM     42  C   UNL A   1      39.829  30.961  34.022  1.00  0.00     0.037 A 
ATOM     43  C   UNL A   1      42.169  27.202  28.652  1.00  0.00     0.037 A 
ATOM     44  C   UNL A   1      41.129  30.380  34.222  1.00  0.00     0.049 A 
ATOM     45  C   UNL A   1      42.916  27.273  29.956  1.00  0.00     0.074 A 
ATOM     46  C   UNL A   1      41.983  30.514  35.303  1.00  0.00     0.029 A 
ATOM     47  N   UNL A   1      41.749  29.523  33.326  1.00  0.00    -0.354 N 
ATOM     48  N   UNL A   1      42.616  27.926  31.051  1.00  0.00    -0.248 NA
ATOM     49  C   UNL A   1      44.175  26.515  30.032  1.00  0.00     0.031 C 
ATOM     50  C   UNL A   1      43.132  29.752  35.051  1.00  0.00     0.029 A 
ATOM     51  C   UNL A   1      42.976  29.122  33.828  1.00  0.00     0.049 A 
ATOM     52  H   UNL A   1      41.372  29.240  32.462  1.00  0.00     0.167 HD
ATOM     53  C   UNL A   1      43.661  27.684  31.933  1.00  0.00     0.074 A 
ATOM     54  C   UNL A   1      44.566  26.768  31.274  1.00  0.00     0.031 C 
ATOM     55  C   UNL A   1      43.871  28.213  33.162  1.00  0.00     0.037 A 
BRANCH  42  56
ATOM     56  C   UNL A   1      39.274  31.840  35.099  1.00  0.00     0.064 A 
ATOM     57  C   UNL A   1      38.526  31.337  36.170  1.00  0.00     0.173 A 
ATOM     58  C   UNL A   1      39.522  33.222  35.056  1.00  0.00     0.173 A 
ATOM     59  F   UNL A   1      38.247  30.028  36.241  1.00  0.00    -0.203 F 
ATOM     60  C   UNL A   1      38.031  32.189  37.154  1.00  0.00     0.198 A 
ATOM     61  C   UNL A   1      39.043  34.068  36.049  1.00  0.00     0.198 A 
ATOM     62  F   UNL A   1      40.233  33.750  34.048  1.00  0.00    -0.203 F 
ATOM     63  F   UNL A   1      37.286  31.697  38.153  1.00  0.00    -0.200 F 
ATOM     64  C   UNL A   1      38.294  33.552  37.096  1.00  0.00     0.200 A 
ATOM     65  F   UNL A   1      39.302  35.382  35.994  1.00  0.00    -0.200 F 
ATOM     66  F   UNL A   1      37.816  34.369  38.045  1.00  0.00    -0.200 F 
ENDBRANCH  42  56
BRANCH  43  67
ATOM     67  C   UNL A   1      42.539  26.175  27.643  1.00  0.00     0.064 A 
ATOM     68  C   UNL A   1      41.937  24.907  27.692  1.00  0.00     0.173 A 
ATOM     69  C   UNL A   1      43.488  26.406  26.642  1.00  0.00     0.173 A 
ATOM     70  F   UNL A   1      41.035  24.631  28.646  1.00  0.00    -0.203 F 
ATOM     71  C   UNL A   1      42.272  23.912  26.778  1.00  0.00     0.198 A 
ATOM     72  C   UNL A   1      43.809  25.416  25.714  1.00  0.00     0.198 A 
ATOM     73  F   UNL A   1      44.102  27.596  26.559  1.00  0.00    -0.203 F 
ATOM     74  F   UNL A   1      41.701  22.704  26.869  1.00  0.00    -0.200 F 
ATOM     75  C   UNL A   1      43.205  24.169  25.786  1.00  0.00     0.200 A 
ATOM     76  F   UNL A   1      44.707  25.668  24.752  1.00  0.00    -0.200 F 
ATOM     77  F   UNL A   1      43.528  23.213  24.906  1.00  0.00    -0.200 F 
ENDBRANCH  43  67
BRANCH  55  78
ATOM     78  C   UNL A   1      45.151  27.855  33.854  1.00  0.00     0.064 A 
ATOM     79  C   UNL A   1      45.216  26.747  34.714  1.00  0.00     0.173 A 
ATOM     80  C   UNL A   1      46.328  28.582  33.626  1.00  0.00     0.173 A 
ATOM     81  F   UNL A   1      44.113  26.028  34.972  1.00  0.00    -0.203 F 
ATOM     82  C   UNL A   1      46.409  26.391  35.335  1.00  0.00     0.198 A 
ATOM     83  C   UNL A   1      47.524  28.210  34.232  1.00  0.00     0.198 A 
ATOM     84  F   UNL A   1      46.318  29.645  32.809  1.00  0.00    -0.203 F 
ATOM     85  F   UNL A   1      46.439  25.350  36.179  1.00  0.00    -0.200 F 
ATOM     86  C   UNL A   1      47.563  27.119  35.089  1.00  0.00     0.200 A 
ATOM     87  F   UNL A   1      48.643  28.908  33.990  1.00  0.00    -0.200 F 
ATOM     88  F   UNL A   1      48.713  26.772  35.683  1.00  0.00    -0.200 F 
ENDBRANCH  55  78
ENDBRANCH  29  30
ENDBRANCH  22  24
ENDBRANCH  21  22
ENDBRANCH  20  21
ENDBRANCH   1  20
TORSDOF 14
ENDMDL
