MODEL 1
REMARK VINA RESULT:     -12.4      0.000      0.000
REMARK SMILES CS(=O)(=O)N1C[C@@H]2C[N@H+](Cc3cccnc3N)C[C@]2(C(=O)OCCOC(=O)c2ccc(-c3c4nc(c(-c5c(F)c(F)c(F)c(F)c5F)c5ccc([nH]5)c(-c5c(F)c(F)c(F)c(F)c5F)c5nc(c(-c6c(F)c(F)c(F)c(F)c6F)c6ccc3[nH]6)C=C5)C=C4)cc2)C1
REMARK SMILES IDX 23 1 22 2 20 3 21 4 19 5 5 6 6 7 91 8 7 9 8 10 18 11 9 12
REMARK SMILES IDX 2 14 1 15 3 16 4 17 10 18 11 19 12 20 16 21 13 22 15 23
REMARK SMILES IDX 14 24 17 25 24 28 25 29 26 30 27 31 28 32 29 33 90 34 30 35
REMARK SMILES IDX 89 36 31 37 32 38 33 39 83 40 34 41 88 42 82 43 84 44 35 45
REMARK SMILES IDX 87 46 81 47 80 48 36 50 68 51 48 52 67 53 49 54 52 55 66 56
REMARK SMILES IDX 85 57 50 58 51 59 65 61 86 62 53 63 37 64 38 65 46 66 39 67
REMARK SMILES IDX 40 68 44 69 47 70 41 71 42 72 45 73 43 74 69 75 70 76 78 77
REMARK SMILES IDX 71 78 72 79 76 80 79 81 73 82 74 83 77 84 75 85 54 86 55 87
REMARK SMILES IDX 63 88 56 89 57 90 61 91 64 92 58 93 59 94 62 95 60 96
REMARK H PARENT 9 13 17 26 17 27 84 49 52 60
REMARK Flexibility Score: inf
ROOT
ATOM      1  C   UNL A   1      31.773  28.422  27.191  1.00  0.00     0.274 C 
ENDROOT
BRANCH   1   2
ATOM      2  O   UNL A   1      32.172  27.296  26.370  1.00  0.00    -0.461 OA
BRANCH   2   3
ATOM      3  C   UNL A   1      31.185  26.723  25.614  1.00  0.00     0.319 C 
ATOM      4  O   UNL A   1      30.278  26.109  26.161  1.00  0.00    -0.251 OA
BRANCH   3   5
ATOM      5  C   UNL A   1      31.413  26.881  24.022  1.00  0.00     0.140 C 
ATOM      6  N   UNL A   1      29.831  28.385  22.731  1.00  0.00    -0.200 NA
ATOM      7  C   UNL A   1      31.094  28.573  22.065  1.00  0.00     0.113 C 
ATOM      8  C   UNL A   1      30.108  27.781  24.039  1.00  0.00     0.127 C 
ATOM      9  C   UNL A   1      32.094  28.040  23.084  1.00  0.00     0.084 C 
ATOM     10  C   UNL A   1      33.295  27.490  22.308  1.00  0.00     0.268 C 
ATOM     11  C   UNL A   1      32.907  26.412  24.266  1.00  0.00     0.283 C 
ATOM     12  N   UNL A   1      33.607  26.258  22.987  1.00  0.00    -0.330 N 
ATOM     13  H   UNL A   1      34.612  26.120  23.096  1.00  0.00     0.348 HD
BRANCH   6  14
ATOM     14  S   UNL A   1      28.647  29.579  22.614  1.00  0.00     0.211 S 
ATOM     15  C   UNL A   1      27.164  28.763  23.191  1.00  0.00     0.176 C 
ATOM     16  O   UNL A   1      28.455  29.878  21.213  1.00  0.00    -0.213 OA
ATOM     17  O   UNL A   1      28.970  30.617  23.572  1.00  0.00    -0.213 OA
ENDBRANCH   6  14
BRANCH  12  18
ATOM     18  C   UNL A   1      33.265  25.018  22.244  1.00  0.00     0.302 C 
BRANCH  18  19
ATOM     19  C   UNL A   1      33.423  23.698  22.968  1.00  0.00     0.048 A 
ATOM     20  C   UNL A   1      34.707  23.261  23.343  1.00  0.00     0.015 A 
ATOM     21  C   UNL A   1      32.339  22.926  23.383  1.00  0.00     0.132 A 
ATOM     22  C   UNL A   1      34.853  22.190  24.216  1.00  0.00     0.021 A 
ATOM     23  N   UNL A   1      32.468  21.891  24.232  1.00  0.00    -0.239 NA
ATOM     24  C   UNL A   1      33.706  21.563  24.655  1.00  0.00     0.113 A 
BRANCH  21  25
ATOM     25  N   UNL A   1      31.037  23.206  23.020  1.00  0.00    -0.383 N 
ATOM     26  H   UNL A   1      30.493  23.816  23.567  1.00  0.00     0.158 HD
ATOM     27  H   UNL A   1      30.653  22.794  22.211  1.00  0.00     0.158 HD
ENDBRANCH  21  25
ENDBRANCH  18  19
ENDBRANCH  12  18
ENDBRANCH   3   5
ENDBRANCH   2   3
ENDBRANCH   1   2
BRANCH   1  28
ATOM     28  C   UNL A   1      31.789  29.787  26.464  1.00  0.00     0.275 C 
BRANCH  28  29
ATOM     29  O   UNL A   1      33.127  30.311  26.274  1.00  0.00    -0.458 OA
BRANCH  29  30
ATOM     30  C   UNL A   1      33.461  31.415  26.990  1.00  0.00     0.338 C 
ATOM     31  O   UNL A   1      32.783  32.417  27.148  1.00  0.00    -0.246 OA
BRANCH  30  32
ATOM     32  C   UNL A   1      34.714  31.189  27.748  1.00  0.00     0.060 A 
ATOM     33  C   UNL A   1      34.900  29.933  28.334  1.00  0.00     0.016 A 
ATOM     34  C   UNL A   1      35.654  32.190  27.971  1.00  0.00     0.016 A 
ATOM     35  C   UNL A   1      36.049  29.635  29.056  1.00  0.00     0.010 A 
ATOM     36  C   UNL A   1      36.811  31.898  28.716  1.00  0.00     0.010 A 
ATOM     37  C   UNL A   1      37.032  30.607  29.234  1.00  0.00    -0.014 A 
BRANCH  37  38
ATOM     38  C   UNL A   1      38.272  30.253  29.971  1.00  0.00     0.031 A 
ATOM     39  C   UNL A   1      39.284  29.343  29.344  1.00  0.00     0.074 A 
ATOM     40  C   UNL A   1      38.519  30.800  31.179  1.00  0.00     0.049 A 
ATOM     41  N   UNL A   1      40.338  28.783  29.878  1.00  0.00    -0.248 NA
ATOM     42  C   UNL A   1      39.097  29.039  27.918  1.00  0.00     0.031 C 
ATOM     43  C   UNL A   1      37.685  31.805  31.838  1.00  0.00     0.029 A 
ATOM     44  N   UNL A   1      39.545  30.586  32.069  1.00  0.00    -0.354 N 
ATOM     45  C   UNL A   1      40.914  28.021  28.870  1.00  0.00     0.074 A 
ATOM     46  C   UNL A   1      40.108  28.213  27.683  1.00  0.00     0.031 C 
ATOM     47  C   UNL A   1      38.227  32.115  33.028  1.00  0.00     0.029 A 
ATOM     48  C   UNL A   1      39.393  31.265  33.254  1.00  0.00     0.049 A 
ATOM     49  H   UNL A   1      40.315  30.003  31.875  1.00  0.00     0.167 HD
ATOM     50  C   UNL A   1      42.003  27.222  28.947  1.00  0.00     0.037 A 
ATOM     51  C   UNL A   1      40.073  31.160  34.415  1.00  0.00     0.037 A 
ATOM     52  C   UNL A   1      42.809  27.063  30.130  1.00  0.00     0.049 A 
ATOM     53  C   UNL A   1      41.195  30.155  34.510  1.00  0.00     0.074 A 
ATOM     54  C   UNL A   1      43.935  26.277  30.307  1.00  0.00     0.029 A 
ATOM     55  N   UNL A   1      42.571  27.698  31.340  1.00  0.00    -0.354 N 
ATOM     56  N   UNL A   1      41.712  29.399  33.573  1.00  0.00    -0.248 NA
ATOM     57  C   UNL A   1      41.806  29.967  35.834  1.00  0.00     0.031 C 
ATOM     58  C   UNL A   1      44.335  26.382  31.643  1.00  0.00     0.029 A 
ATOM     59  C   UNL A   1      43.499  27.283  32.281  1.00  0.00     0.049 A 
ATOM     60  H   UNL A   1      41.850  28.346  31.505  1.00  0.00     0.167 HD
ATOM     61  C   UNL A   1      42.718  28.664  34.186  1.00  0.00     0.074 A 
ATOM     62  C   UNL A   1      42.756  29.081  35.571  1.00  0.00     0.031 C 
ATOM     63  C   UNL A   1      43.531  27.719  33.654  1.00  0.00     0.037 A 
BRANCH  50  64
ATOM     64  C   UNL A   1      42.352  26.391  27.748  1.00  0.00     0.064 A 
ATOM     65  C   UNL A   1      43.348  26.767  26.837  1.00  0.00     0.173 A 
ATOM     66  C   UNL A   1      41.711  25.158  27.549  1.00  0.00     0.173 A 
ATOM     67  F   UNL A   1      43.981  27.942  26.974  1.00  0.00    -0.203 F 
ATOM     68  C   UNL A   1      43.680  25.943  25.763  1.00  0.00     0.198 A 
ATOM     69  C   UNL A   1      42.064  24.325  26.492  1.00  0.00     0.198 A 
ATOM     70  F   UNL A   1      40.751  24.751  28.395  1.00  0.00    -0.203 F 
ATOM     71  F   UNL A   1      44.613  26.335  24.883  1.00  0.00    -0.200 F 
ATOM     72  C   UNL A   1      43.045  24.720  25.597  1.00  0.00     0.200 A 
ATOM     73  F   UNL A   1      41.457  23.140  26.342  1.00  0.00    -0.200 F 
ATOM     74  F   UNL A   1      43.378  23.924  24.572  1.00  0.00    -0.200 F 
ENDBRANCH  50  64
BRANCH  51  75
ATOM     75  C   UNL A   1      39.662  31.943  35.615  1.00  0.00     0.064 A 
ATOM     76  C   UNL A   1      38.668  31.473  36.484  1.00  0.00     0.173 A 
ATOM     77  C   UNL A   1      40.199  33.214  35.876  1.00  0.00     0.173 A 
ATOM     78  F   UNL A   1      38.093  30.282  36.261  1.00  0.00    -0.203 F 
ATOM     79  C   UNL A   1      38.207  32.253  37.545  1.00  0.00     0.198 A 
ATOM     80  C   UNL A   1      39.767  33.976  36.959  1.00  0.00     0.198 A 
ATOM     81  F   UNL A   1      41.142  33.726  35.070  1.00  0.00    -0.203 F 
ATOM     82  F   UNL A   1      37.201  31.810  38.311  1.00  0.00    -0.200 F 
ATOM     83  C   UNL A   1      38.760  33.502  37.784  1.00  0.00     0.200 A 
ATOM     84  F   UNL A   1      40.312  35.178  37.191  1.00  0.00    -0.200 F 
ATOM     85  F   UNL A   1      38.310  34.255  38.797  1.00  0.00    -0.200 F 
ENDBRANCH  51  75
BRANCH  63  86
ATOM     86  C   UNL A   1      44.549  27.089  34.560  1.00  0.00     0.064 A 
ATOM     87  C   UNL A   1      45.782  27.705  34.819  1.00  0.00     0.173 A 
ATOM     88  C   UNL A   1      44.263  25.886  35.224  1.00  0.00     0.173 A 
ATOM     89  F   UNL A   1      46.111  28.847  34.197  1.00  0.00    -0.203 F 
ATOM     90  C   UNL A   1      46.698  27.131  35.698  1.00  0.00     0.198 A 
ATOM     91  C   UNL A   1      45.167  25.333  36.126  1.00  0.00     0.198 A 
ATOM     92  F   UNL A   1      43.096  25.260  35.015  1.00  0.00    -0.203 F 
ATOM     93  F   UNL A   1      47.886  27.717  35.899  1.00  0.00    -0.200 F 
ATOM     94  C   UNL A   1      46.385  25.953  36.359  1.00  0.00     0.200 A 
ATOM     95  F   UNL A   1      44.854  24.204  36.778  1.00  0.00    -0.200 F 
ATOM     96  F   UNL A   1      47.260  25.412  37.218  1.00  0.00    -0.200 F 
ENDBRANCH  63  86
ENDBRANCH  37  38
ENDBRANCH  30  32
ENDBRANCH  29  30
ENDBRANCH  28  29
ENDBRANCH   1  28
TORSDOF 15
ENDMDL
MODEL 2
REMARK VINA RESULT:     -12.3      1.624      3.838
REMARK SMILES CS(=O)(=O)N1C[C@@H]2C[N@H+](Cc3cccnc3N)C[C@]2(C(=O)OCCOC(=O)c2ccc(-c3c4nc(c(-c5c(F)c(F)c(F)c(F)c5F)c5ccc([nH]5)c(-c5c(F)c(F)c(F)c(F)c5F)c5nc(c(-c6c(F)c(F)c(F)c(F)c6F)c6ccc3[nH]6)C=C5)C=C4)cc2)C1
REMARK SMILES IDX 23 1 22 2 20 3 21 4 19 5 5 6 6 7 91 8 7 9 8 10 18 11 9 12
REMARK SMILES IDX 2 14 1 15 3 16 4 17 10 18 11 19 12 20 16 21 13 22 15 23
REMARK SMILES IDX 14 24 17 25 24 28 25 29 26 30 27 31 28 32 29 33 90 34 30 35
REMARK SMILES IDX 89 36 31 37 32 38 33 39 83 40 34 41 88 42 82 43 84 44 35 45
REMARK SMILES IDX 87 46 81 47 80 48 36 50 68 51 48 52 67 53 49 54 52 55 66 56
REMARK SMILES IDX 85 57 50 58 51 59 65 61 86 62 53 63 37 64 38 65 46 66 39 67
REMARK SMILES IDX 40 68 44 69 47 70 41 71 42 72 45 73 43 74 69 75 70 76 78 77
REMARK SMILES IDX 71 78 72 79 76 80 79 81 73 82 74 83 77 84 75 85 54 86 55 87
REMARK SMILES IDX 63 88 56 89 57 90 61 91 64 92 58 93 59 94 62 95 60 96
REMARK H PARENT 9 13 17 26 17 27 84 49 52 60
REMARK Flexibility Score: inf
ROOT
ATOM      1  C   UNL A   1      31.865  28.461  27.565  1.00  0.00     0.274 C 
ENDROOT
BRANCH   1   2
ATOM      2  O   UNL A   1      31.729  27.219  26.829  1.00  0.00    -0.461 OA
BRANCH   2   3
ATOM      3  C   UNL A   1      32.808  26.847  26.073  1.00  0.00     0.319 C 
ATOM      4  O   UNL A   1      33.941  27.089  26.470  1.00  0.00    -0.251 OA
BRANCH   3   5
ATOM      5  C   UNL A   1      32.409  26.181  24.656  1.00  0.00     0.140 C 
ATOM      6  N   UNL A   1      33.908  24.357  23.729  1.00  0.00    -0.200 NA
ATOM      7  C   UNL A   1      32.588  23.951  23.319  1.00  0.00     0.113 C 
ATOM      8  C   UNL A   1      33.751  25.348  24.800  1.00  0.00     0.127 C 
ATOM      9  C   UNL A   1      31.685  24.775  24.229  1.00  0.00     0.084 C 
ATOM     10  C   UNL A   1      30.378  25.031  23.472  1.00  0.00     0.268 C 
ATOM     11  C   UNL A   1      30.931  26.689  24.919  1.00  0.00     0.283 C 
ATOM     12  N   UNL A   1      30.084  26.414  23.755  1.00  0.00    -0.330 N 
ATOM     13  H   UNL A   1      29.092  26.569  23.936  1.00  0.00     0.348 HD
BRANCH   6  14
ATOM     14  S   UNL A   1      35.128  23.201  23.855  1.00  0.00     0.211 S 
ATOM     15  C   UNL A   1      36.045  23.711  25.303  1.00  0.00     0.176 C 
ATOM     16  O   UNL A   1      36.004  23.355  22.717  1.00  0.00    -0.213 OA
ATOM     17  O   UNL A   1      34.503  21.931  24.164  1.00  0.00    -0.213 OA
ENDBRANCH   6  14
BRANCH  12  18
ATOM     18  C   UNL A   1      30.278  27.350  22.618  1.00  0.00     0.302 C 
BRANCH  18  19
ATOM     19  C   UNL A   1      29.363  28.553  22.534  1.00  0.00     0.048 A 
ATOM     20  C   UNL A   1      28.040  28.453  23.001  1.00  0.00     0.015 A 
ATOM     21  C   UNL A   1      29.797  29.807  22.106  1.00  0.00     0.132 A 
ATOM     22  C   UNL A   1      27.268  29.597  23.163  1.00  0.00     0.021 A 
ATOM     23  N   UNL A   1      29.060  30.921  22.262  1.00  0.00    -0.239 NA
ATOM     24  C   UNL A   1      27.833  30.804  22.811  1.00  0.00     0.113 A 
BRANCH  21  25
ATOM     25  N   UNL A   1      31.045  30.022  21.558  1.00  0.00    -0.383 N 
ATOM     26  H   UNL A   1      31.156  30.052  20.581  1.00  0.00     0.158 HD
ATOM     27  H   UNL A   1      31.825  30.146  22.146  1.00  0.00     0.158 HD
ENDBRANCH  21  25
ENDBRANCH  18  19
ENDBRANCH  12  18
ENDBRANCH   3   5
ENDBRANCH   2   3
ENDBRANCH   1   2
BRANCH   1  28
ATOM     28  C   UNL A   1      31.842  29.736  26.689  1.00  0.00     0.275 C 
BRANCH  28  29
ATOM     29  O   UNL A   1      33.166  30.258  26.415  1.00  0.00    -0.458 OA
BRANCH  29  30
ATOM     30  C   UNL A   1      33.520  31.399  27.061  1.00  0.00     0.338 C 
ATOM     31  O   UNL A   1      32.859  32.420  27.158  1.00  0.00    -0.246 OA
BRANCH  30  32
ATOM     32  C   UNL A   1      34.771  31.200  27.829  1.00  0.00     0.060 A 
ATOM     33  C   UNL A   1      34.943  29.978  28.484  1.00  0.00     0.016 A 
ATOM     34  C   UNL A   1      35.725  32.201  27.994  1.00  0.00     0.016 A 
ATOM     35  C   UNL A   1      36.090  29.706  29.220  1.00  0.00     0.010 A 
ATOM     36  C   UNL A   1      36.880  31.936  28.753  1.00  0.00     0.010 A 
ATOM     37  C   UNL A   1      37.086  30.674  29.342  1.00  0.00    -0.014 A 
BRANCH  37  38
ATOM     38  C   UNL A   1      38.322  30.347  30.096  1.00  0.00     0.031 A 
ATOM     39  C   UNL A   1      39.355  29.445  29.489  1.00  0.00     0.074 A 
ATOM     40  C   UNL A   1      38.548  30.909  31.301  1.00  0.00     0.049 A 
ATOM     41  N   UNL A   1      40.410  28.907  30.042  1.00  0.00    -0.248 NA
ATOM     42  C   UNL A   1      39.188  29.123  28.065  1.00  0.00     0.031 C 
ATOM     43  C   UNL A   1      37.692  31.909  31.940  1.00  0.00     0.029 A 
ATOM     44  N   UNL A   1      39.568  30.720  32.204  1.00  0.00    -0.354 N 
ATOM     45  C   UNL A   1      41.009  28.143  29.048  1.00  0.00     0.074 A 
ATOM     46  C   UNL A   1      40.213  28.310  27.850  1.00  0.00     0.031 C 
ATOM     47  C   UNL A   1      38.216  32.239  33.133  1.00  0.00     0.029 A 
ATOM     48  C   UNL A   1      39.392  31.410  33.380  1.00  0.00     0.049 A 
ATOM     49  H   UNL A   1      40.347  30.147  32.025  1.00  0.00     0.167 HD
ATOM     50  C   UNL A   1      42.109  27.361  29.145  1.00  0.00     0.037 A 
ATOM     51  C   UNL A   1      40.061  31.327  34.549  1.00  0.00     0.037 A 
ATOM     52  C   UNL A   1      42.904  27.226  30.339  1.00  0.00     0.049 A 
ATOM     53  C   UNL A   1      41.196  30.340  34.667  1.00  0.00     0.074 A 
ATOM     54  C   UNL A   1      44.039  26.459  30.536  1.00  0.00     0.029 A 
ATOM     55  N   UNL A   1      42.644  27.870  31.539  1.00  0.00    -0.354 N 
ATOM     56  N   UNL A   1      41.735  29.582  33.744  1.00  0.00    -0.248 NA
ATOM     57  C   UNL A   1      41.796  30.175  36.000  1.00  0.00     0.031 C 
ATOM     58  C   UNL A   1      44.424  26.584  31.874  1.00  0.00     0.029 A 
ATOM     59  C   UNL A   1      43.567  27.479  32.494  1.00  0.00     0.049 A 
ATOM     60  H   UNL A   1      41.911  28.509  31.689  1.00  0.00     0.167 HD
ATOM     61  C   UNL A   1      42.745  28.869  34.375  1.00  0.00     0.074 A 
ATOM     62  C   UNL A   1      42.762  29.301  35.756  1.00  0.00     0.031 C 
ATOM     63  C   UNL A   1      43.577  27.930  33.862  1.00  0.00     0.037 A 
BRANCH  50  64
ATOM     64  C   UNL A   1      42.483  26.523  27.959  1.00  0.00     0.064 A 
ATOM     65  C   UNL A   1      41.911  25.267  27.716  1.00  0.00     0.173 A 
ATOM     66  C   UNL A   1      43.391  27.026  27.012  1.00  0.00     0.173 A 
ATOM     67  F   UNL A   1      41.048  24.736  28.595  1.00  0.00    -0.203 F 
ATOM     68  C   UNL A   1      42.244  24.540  26.574  1.00  0.00     0.198 A 
ATOM     69  C   UNL A   1      43.700  26.309  25.860  1.00  0.00     0.198 A 
ATOM     70  F   UNL A   1      43.964  28.224  27.197  1.00  0.00    -0.203 F 
ATOM     71  F   UNL A   1      41.711  23.326  26.376  1.00  0.00    -0.200 F 
ATOM     72  C   UNL A   1      43.130  25.065  25.644  1.00  0.00     0.200 A 
ATOM     73  F   UNL A   1      44.546  26.825  24.959  1.00  0.00    -0.200 F 
ATOM     74  F   UNL A   1      43.437  24.369  24.541  1.00  0.00    -0.200 F 
ENDBRANCH  50  64
BRANCH  51  75
ATOM     75  C   UNL A   1      39.626  32.117  35.736  1.00  0.00     0.064 A 
ATOM     76  C   UNL A   1      40.250  33.326  36.073  1.00  0.00     0.173 A 
ATOM     77  C   UNL A   1      38.629  31.642  36.604  1.00  0.00     0.173 A 
ATOM     78  F   UNL A   1      41.235  33.808  35.300  1.00  0.00    -0.203 F 
ATOM     79  C   UNL A   1      39.918  34.010  37.242  1.00  0.00     0.198 A 
ATOM     80  C   UNL A   1      38.270  32.346  37.751  1.00  0.00     0.198 A 
ATOM     81  F   UNL A   1      38.007  30.482  36.344  1.00  0.00    -0.203 F 
ATOM     82  F   UNL A   1      40.587  35.122  37.578  1.00  0.00    -0.200 F 
ATOM     83  C   UNL A   1      38.924  33.522  38.077  1.00  0.00     0.200 A 
ATOM     84  F   UNL A   1      37.302  31.874  38.549  1.00  0.00    -0.200 F 
ATOM     85  F   UNL A   1      38.613  34.174  39.206  1.00  0.00    -0.200 F 
ENDBRANCH  51  75
BRANCH  63  86
ATOM     86  C   UNL A   1      44.595  27.325  34.786  1.00  0.00     0.064 A 
ATOM     87  C   UNL A   1      45.838  27.935  35.010  1.00  0.00     0.173 A 
ATOM     88  C   UNL A   1      44.299  26.155  35.502  1.00  0.00     0.173 A 
ATOM     89  F   UNL A   1      46.176  29.046  34.338  1.00  0.00    -0.203 F 
ATOM     90  C   UNL A   1      46.753  27.387  35.905  1.00  0.00     0.198 A 
ATOM     91  C   UNL A   1      45.203  25.628  36.420  1.00  0.00     0.198 A 
ATOM     92  F   UNL A   1      43.122  25.536  35.329  1.00  0.00    -0.203 F 
ATOM     93  F   UNL A   1      47.951  27.964  36.072  1.00  0.00    -0.200 F 
ATOM     94  C   UNL A   1      46.431  26.241  36.617  1.00  0.00     0.200 A 
ATOM     95  F   UNL A   1      44.882  24.531  37.120  1.00  0.00    -0.200 F 
ATOM     96  F   UNL A   1      47.306  25.725  37.491  1.00  0.00    -0.200 F 
ENDBRANCH  63  86
ENDBRANCH  37  38
ENDBRANCH  30  32
ENDBRANCH  29  30
ENDBRANCH  28  29
ENDBRANCH   1  28
TORSDOF 15
ENDMDL
MODEL 3
REMARK VINA RESULT:     -12.2      1.629      3.880
REMARK SMILES CS(=O)(=O)N1C[C@@H]2C[N@H+](Cc3cccnc3N)C[C@]2(C(=O)OCCOC(=O)c2ccc(-c3c4nc(c(-c5c(F)c(F)c(F)c(F)c5F)c5ccc([nH]5)c(-c5c(F)c(F)c(F)c(F)c5F)c5nc(c(-c6c(F)c(F)c(F)c(F)c6F)c6ccc3[nH]6)C=C5)C=C4)cc2)C1
REMARK SMILES IDX 23 1 22 2 20 3 21 4 19 5 5 6 6 7 91 8 7 9 8 10 18 11 9 12
REMARK SMILES IDX 2 14 1 15 3 16 4 17 10 18 11 19 12 20 16 21 13 22 15 23
REMARK SMILES IDX 14 24 17 25 24 28 25 29 26 30 27 31 28 32 29 33 90 34 30 35
REMARK SMILES IDX 89 36 31 37 32 38 33 39 83 40 34 41 88 42 82 43 84 44 35 45
REMARK SMILES IDX 87 46 81 47 80 48 36 50 68 51 48 52 67 53 49 54 52 55 66 56
REMARK SMILES IDX 85 57 50 58 51 59 65 61 86 62 53 63 37 64 38 65 46 66 39 67
REMARK SMILES IDX 40 68 44 69 47 70 41 71 42 72 45 73 43 74 69 75 70 76 78 77
REMARK SMILES IDX 71 78 72 79 76 80 79 81 73 82 74 83 77 84 75 85 54 86 55 87
REMARK SMILES IDX 63 88 56 89 57 90 61 91 64 92 58 93 59 94 62 95 60 96
REMARK H PARENT 9 13 17 26 17 27 84 49 52 60
REMARK Flexibility Score: inf
ROOT
ATOM      1  C   UNL A   1      31.764  28.721  27.420  1.00  0.00     0.274 C 
ENDROOT
BRANCH   1   2
ATOM      2  O   UNL A   1      31.549  27.442  26.772  1.00  0.00    -0.461 OA
BRANCH   2   3
ATOM      3  C   UNL A   1      32.618  26.927  26.088  1.00  0.00     0.319 C 
ATOM      4  O   UNL A   1      33.749  27.065  26.536  1.00  0.00    -0.251 OA
BRANCH   3   5
ATOM      5  C   UNL A   1      32.219  26.247  24.678  1.00  0.00     0.140 C 
ATOM      6  N   UNL A   1      33.712  24.406  23.775  1.00  0.00    -0.200 NA
ATOM      7  C   UNL A   1      32.391  24.001  23.366  1.00  0.00     0.113 C 
ATOM      8  C   UNL A   1      33.556  25.410  24.834  1.00  0.00     0.127 C 
ATOM      9  C   UNL A   1      31.489  24.840  24.264  1.00  0.00     0.084 C 
ATOM     10  C   UNL A   1      30.185  25.094  23.501  1.00  0.00     0.268 C 
ATOM     11  C   UNL A   1      30.743  26.765  24.931  1.00  0.00     0.283 C 
ATOM     12  N   UNL A   1      29.897  26.482  23.768  1.00  0.00    -0.330 N 
ATOM     13  H   UNL A   1      28.906  26.643  23.944  1.00  0.00     0.348 HD
BRANCH   6  14
ATOM     14  S   UNL A   1      34.926  23.246  23.917  1.00  0.00     0.211 S 
ATOM     15  C   UNL A   1      35.844  23.769  25.360  1.00  0.00     0.176 C 
ATOM     16  O   UNL A   1      35.804  23.381  22.778  1.00  0.00    -0.213 OA
ATOM     17  O   UNL A   1      34.294  21.982  24.241  1.00  0.00    -0.213 OA
ENDBRANCH   6  14
BRANCH  12  18
ATOM     18  C   UNL A   1      30.099  27.404  22.621  1.00  0.00     0.302 C 
BRANCH  18  19
ATOM     19  C   UNL A   1      29.268  28.668  22.581  1.00  0.00     0.048 A 
ATOM     20  C   UNL A   1      27.950  28.649  23.073  1.00  0.00     0.015 A 
ATOM     21  C   UNL A   1      29.778  29.899  22.171  1.00  0.00     0.132 A 
ATOM     22  C   UNL A   1      27.261  29.838  23.275  1.00  0.00     0.021 A 
ATOM     23  N   UNL A   1      29.124  31.057  22.367  1.00  0.00    -0.239 NA
ATOM     24  C   UNL A   1      27.902  31.012  22.938  1.00  0.00     0.113 A 
BRANCH  21  25
ATOM     25  N   UNL A   1      31.028  30.041  21.603  1.00  0.00    -0.383 N 
ATOM     26  H   UNL A   1      31.335  29.400  20.922  1.00  0.00     0.158 HD
ATOM     27  H   UNL A   1      31.613  30.784  21.879  1.00  0.00     0.158 HD
ENDBRANCH  21  25
ENDBRANCH  18  19
ENDBRANCH  12  18
ENDBRANCH   3   5
ENDBRANCH   2   3
ENDBRANCH   1   2
BRANCH   1  28
ATOM     28  C   UNL A   1      31.759  29.937  26.465  1.00  0.00     0.275 C 
BRANCH  28  29
ATOM     29  O   UNL A   1      33.081  30.495  26.253  1.00  0.00    -0.458 OA
BRANCH  29  30
ATOM     30  C   UNL A   1      33.470  31.486  27.096  1.00  0.00     0.338 C 
ATOM     31  O   UNL A   1      32.846  32.497  27.373  1.00  0.00    -0.246 OA
BRANCH  30  32
ATOM     32  C   UNL A   1      34.705  31.104  27.819  1.00  0.00     0.060 A 
ATOM     33  C   UNL A   1      35.672  32.093  28.020  1.00  0.00     0.016 A 
ATOM     34  C   UNL A   1      34.974  29.798  28.219  1.00  0.00     0.016 A 
ATOM     35  C   UNL A   1      36.857  31.821  28.694  1.00  0.00     0.010 A 
ATOM     36  C   UNL A   1      36.180  29.515  28.887  1.00  0.00     0.010 A 
ATOM     37  C   UNL A   1      37.113  30.533  29.159  1.00  0.00    -0.014 A 
BRANCH  37  38
ATOM     38  C   UNL A   1      38.365  30.275  29.916  1.00  0.00     0.031 A 
ATOM     39  C   UNL A   1      39.448  29.434  29.311  1.00  0.00     0.074 A 
ATOM     40  C   UNL A   1      38.555  30.847  31.123  1.00  0.00     0.049 A 
ATOM     41  N   UNL A   1      40.531  28.956  29.865  1.00  0.00    -0.248 NA
ATOM     42  C   UNL A   1      39.304  29.106  27.885  1.00  0.00     0.031 C 
ATOM     43  C   UNL A   1      37.642  31.794  31.761  1.00  0.00     0.029 A 
ATOM     44  N   UNL A   1      39.581  30.714  32.028  1.00  0.00    -0.354 N 
ATOM     45  C   UNL A   1      41.175  28.229  28.871  1.00  0.00     0.074 A 
ATOM     46  C   UNL A   1      40.374  28.353  27.672  1.00  0.00     0.031 C 
ATOM     47  C   UNL A   1      38.144  32.152  32.956  1.00  0.00     0.029 A 
ATOM     48  C   UNL A   1      39.364  31.390  33.206  1.00  0.00     0.049 A 
ATOM     49  H   UNL A   1      40.393  30.186  31.850  1.00  0.00     0.167 HD
ATOM     50  C   UNL A   1      42.318  27.511  28.970  1.00  0.00     0.037 A 
ATOM     51  C   UNL A   1      40.033  31.343  34.376  1.00  0.00     0.037 A 
ATOM     52  C   UNL A   1      43.116  27.418  30.165  1.00  0.00     0.049 A 
ATOM     53  C   UNL A   1      41.222  30.422  34.495  1.00  0.00     0.074 A 
ATOM     54  C   UNL A   1      44.292  26.717  30.364  1.00  0.00     0.029 A 
ATOM     55  N   UNL A   1      42.816  28.044  31.366  1.00  0.00    -0.354 N 
ATOM     56  N   UNL A   1      41.806  29.697  33.572  1.00  0.00    -0.248 NA
ATOM     57  C   UNL A   1      41.827  30.288  35.829  1.00  0.00     0.031 C 
ATOM     58  C   UNL A   1      44.665  26.861  31.704  1.00  0.00     0.029 A 
ATOM     59  C   UNL A   1      43.757  27.704  32.323  1.00  0.00     0.049 A 
ATOM     60  H   UNL A   1      42.048  28.641  31.515  1.00  0.00     0.167 HD
ATOM     61  C   UNL A   1      42.853  29.041  34.205  1.00  0.00     0.074 A 
ATOM     62  C   UNL A   1      42.841  29.470  35.587  1.00  0.00     0.031 C 
ATOM     63  C   UNL A   1      43.738  28.152  33.692  1.00  0.00     0.037 A 
BRANCH  50  64
ATOM     64  C   UNL A   1      42.741  26.698  27.783  1.00  0.00     0.064 A 
ATOM     65  C   UNL A   1      43.648  27.177  26.828  1.00  0.00     0.173 A 
ATOM     66  C   UNL A   1      42.272  25.381  27.640  1.00  0.00     0.173 A 
ATOM     67  F   UNL A   1      44.116  28.432  26.911  1.00  0.00    -0.203 F 
ATOM     68  C   UNL A   1      44.059  26.372  25.766  1.00  0.00     0.198 A 
ATOM     69  C   UNL A   1      42.705  24.572  26.595  1.00  0.00     0.198 A 
ATOM     70  F   UNL A   1      41.404  24.874  28.529  1.00  0.00    -0.203 F 
ATOM     71  F   UNL A   1      44.901  26.860  24.845  1.00  0.00    -0.200 F 
ATOM     72  C   UNL A   1      43.595  25.069  25.656  1.00  0.00     0.200 A 
ATOM     73  F   UNL A   1      42.264  23.311  26.499  1.00  0.00    -0.200 F 
ATOM     74  F   UNL A   1      44.003  24.294  24.643  1.00  0.00    -0.200 F 
ENDBRANCH  50  64
BRANCH  51  75
ATOM     75  C   UNL A   1      39.550  32.104  35.563  1.00  0.00     0.064 A 
ATOM     76  C   UNL A   1      40.110  33.342  35.909  1.00  0.00     0.173 A 
ATOM     77  C   UNL A   1      38.574  31.575  36.423  1.00  0.00     0.173 A 
ATOM     78  F   UNL A   1      41.074  33.877  35.145  1.00  0.00    -0.203 F 
ATOM     79  C   UNL A   1      39.736  34.003  37.079  1.00  0.00     0.198 A 
ATOM     80  C   UNL A   1      38.172  32.255  37.570  1.00  0.00     0.198 A 
ATOM     81  F   UNL A   1      38.013  30.386  36.154  1.00  0.00    -0.203 F 
ATOM     82  F   UNL A   1      40.345  35.146  37.423  1.00  0.00    -0.200 F 
ATOM     83  C   UNL A   1      38.764  33.462  37.906  1.00  0.00     0.200 A 
ATOM     84  F   UNL A   1      37.225  31.730  38.360  1.00  0.00    -0.200 F 
ATOM     85  F   UNL A   1      38.412  34.092  39.034  1.00  0.00    -0.200 F 
ENDBRANCH  51  75
BRANCH  63  86
ATOM     86  C   UNL A   1      44.786  27.604  34.618  1.00  0.00     0.064 A 
ATOM     87  C   UNL A   1      44.599  26.397  35.306  1.00  0.00     0.173 A 
ATOM     88  C   UNL A   1      46.016  28.263  34.770  1.00  0.00     0.173 A 
ATOM     89  F   UNL A   1      43.435  25.737  35.208  1.00  0.00    -0.203 F 
ATOM     90  C   UNL A   1      45.598  25.878  36.126  1.00  0.00     0.198 A 
ATOM     91  C   UNL A   1      47.025  27.725  35.564  1.00  0.00     0.198 A 
ATOM     92  F   UNL A   1      46.248  29.418  34.129  1.00  0.00    -0.203 F 
ATOM     93  F   UNL A   1      45.382  24.744  36.806  1.00  0.00    -0.200 F 
ATOM     94  C   UNL A   1      46.813  26.535  36.244  1.00  0.00     0.200 A 
ATOM     95  F   UNL A   1      48.204  28.353  35.662  1.00  0.00    -0.200 F 
ATOM     96  F   UNL A   1      47.780  26.025  37.019  1.00  0.00    -0.200 F 
ENDBRANCH  63  86
ENDBRANCH  37  38
ENDBRANCH  30  32
ENDBRANCH  29  30
ENDBRANCH  28  29
ENDBRANCH   1  28
TORSDOF 15
ENDMDL
