MODEL 1
REMARK VINA RESULT:     -11.7      0.000      0.000
REMARK SMILES CC(C)[C@@H](CNC(=O)NCC1C(C)(C)C1(C)C)C(=O)OCCOC(=O)c1ccc(-c2c3nc(c(-c4c(F)c(F)c(F)c(F)c4F)c4ccc([nH]4)c(-c4c(F)c(F)c(F)c(F)c4F)c4nc(c(-c5c(F)c(F)c(F)c(F)c5F)c5ccc2[nH]5)C=C4)C=C3)cc1
REMARK SMILES IDX 21 1 20 2 18 3 19 4 4 5 2 6 1 7 3 8 5 9 6 10 7 11 8 13 9 14
REMARK SMILES IDX 10 16 11 17 12 18 15 19 13 20 14 21 16 22 17 23 22 24 23 25
REMARK SMILES IDX 24 26 25 27 26 28 27 29 88 30 28 31 87 32 29 33 30 34 31 35
REMARK SMILES IDX 81 36 32 37 86 38 80 39 82 40 33 41 85 42 79 43 78 44 34 46
REMARK SMILES IDX 66 47 46 48 65 49 47 50 50 51 64 52 83 53 48 54 49 55 63 57
REMARK SMILES IDX 84 58 51 59 35 60 36 61 44 62 37 63 38 64 42 65 45 66 39 67
REMARK SMILES IDX 40 68 43 69 41 70 67 71 68 72 76 73 69 74 70 75 74 76 77 77
REMARK SMILES IDX 71 78 72 79 75 80 73 81 52 82 53 83 61 84 54 85 55 86 59 87
REMARK SMILES IDX 62 88 56 89 57 90 60 91 58 92
REMARK H PARENT 6 12 9 15 82 45 50 56
REMARK Flexibility Score: inf
ROOT
ATOM      1  C   UNL A   1      36.095  20.069  25.001  1.00  0.00     0.274 C 
ENDROOT
BRANCH   1   2
ATOM      2  O   UNL A   1      34.747  20.418  24.628  1.00  0.00    -0.462 OA
BRANCH   2   3
ATOM      3  C   UNL A   1      34.090  21.222  25.503  1.00  0.00     0.311 C 
ATOM      4  O   UNL A   1      34.081  21.073  26.722  1.00  0.00    -0.252 OA
BRANCH   3   5
ATOM      5  C   UNL A   1      33.296  22.324  24.826  1.00  0.00     0.121 C 
BRANCH   5   6
ATOM      6  C   UNL A   1      33.811  22.782  23.434  1.00  0.00    -0.001 C 
ATOM      7  C   UNL A   1      32.659  22.882  22.418  1.00  0.00     0.008 C 
ATOM      8  C   UNL A   1      34.483  24.163  23.499  1.00  0.00     0.008 C 
ENDBRANCH   5   6
BRANCH   5   9
ATOM      9  C   UNL A   1      31.809  21.936  24.861  1.00  0.00     0.133 C 
BRANCH   9  10
ATOM     10  N   UNL A   1      31.142  22.178  26.124  1.00  0.00    -0.337 N 
ATOM     11  C   UNL A   1      30.352  23.161  26.577  1.00  0.00     0.314 C 
ATOM     12  H   UNL A   1      31.305  21.472  26.791  1.00  0.00     0.165 HD
ATOM     13  O   UNL A   1      29.736  22.954  27.626  1.00  0.00    -0.249 OA
ATOM     14  N   UNL A   1      30.178  24.340  25.973  1.00  0.00    -0.338 N 
ATOM     15  H   UNL A   1      29.361  24.802  26.272  1.00  0.00     0.165 HD
BRANCH  14  16
ATOM     16  C   UNL A   1      30.915  25.095  24.981  1.00  0.00     0.122 C 
BRANCH  16  17
ATOM     17  C   UNL A   1      30.886  26.557  25.304  1.00  0.00     0.021 C 
ATOM     18  C   UNL A   1      32.077  27.281  25.936  1.00  0.00    -0.025 C 
ATOM     19  C   UNL A   1      31.606  27.652  24.514  1.00  0.00    -0.025 C 
ATOM     20  C   UNL A   1      31.775  28.208  27.095  1.00  0.00     0.012 C 
ATOM     21  C   UNL A   1      33.411  26.589  26.126  1.00  0.00     0.012 C 
ATOM     22  C   UNL A   1      32.448  27.303  23.309  1.00  0.00     0.012 C 
ATOM     23  C   UNL A   1      30.872  28.961  24.308  1.00  0.00     0.012 C 
ENDBRANCH  16  17
ENDBRANCH  14  16
ENDBRANCH   9  10
ENDBRANCH   5   9
ENDBRANCH   3   5
ENDBRANCH   2   3
ENDBRANCH   1   2
BRANCH   1  24
ATOM     24  C   UNL A   1      37.081  21.181  24.645  1.00  0.00     0.275 C 
BRANCH  24  25
ATOM     25  O   UNL A   1      37.591  21.796  25.842  1.00  0.00    -0.458 OA
BRANCH  25  26
ATOM     26  C   UNL A   1      38.889  21.563  26.126  1.00  0.00     0.338 C 
ATOM     27  O   UNL A   1      39.499  20.509  26.036  1.00  0.00    -0.246 OA
BRANCH  26  28
ATOM     28  C   UNL A   1      39.513  22.803  26.612  1.00  0.00     0.060 A 
ATOM     29  C   UNL A   1      39.106  24.045  26.119  1.00  0.00     0.016 A 
ATOM     30  C   UNL A   1      40.583  22.711  27.501  1.00  0.00     0.016 A 
ATOM     31  C   UNL A   1      39.781  25.205  26.501  1.00  0.00     0.010 A 
ATOM     32  C   UNL A   1      41.239  23.874  27.908  1.00  0.00     0.010 A 
ATOM     33  C   UNL A   1      40.853  25.126  27.397  1.00  0.00    -0.014 A 
BRANCH  33  34
ATOM     34  C   UNL A   1      41.617  26.335  27.777  1.00  0.00     0.031 A 
ATOM     35  C   UNL A   1      40.942  27.419  28.565  1.00  0.00     0.074 A 
ATOM     36  C   UNL A   1      42.896  26.475  27.385  1.00  0.00     0.049 A 
ATOM     37  N   UNL A   1      41.361  28.627  28.841  1.00  0.00    -0.248 NA
ATOM     38  C   UNL A   1      39.613  27.102  29.107  1.00  0.00     0.031 C 
ATOM     39  C   UNL A   1      43.670  25.472  26.656  1.00  0.00     0.029 A 
ATOM     40  N   UNL A   1      43.761  27.530  27.529  1.00  0.00    -0.354 N 
ATOM     41  C   UNL A   1      40.338  29.225  29.563  1.00  0.00     0.074 A 
ATOM     42  C   UNL A   1      39.274  28.249  29.680  1.00  0.00     0.031 C 
ATOM     43  C   UNL A   1      44.893  25.965  26.401  1.00  0.00     0.029 A 
ATOM     44  C   UNL A   1      44.967  27.335  26.904  1.00  0.00     0.049 A 
ATOM     45  H   UNL A   1      43.540  28.347  28.032  1.00  0.00     0.167 HD
ATOM     46  C   UNL A   1      40.291  30.477  30.075  1.00  0.00     0.037 A 
ATOM     47  C   UNL A   1      45.997  28.182  26.718  1.00  0.00     0.037 A 
ATOM     48  C   UNL A   1      41.360  31.436  29.969  1.00  0.00     0.049 A 
ATOM     49  C   UNL A   1      45.902  29.584  27.253  1.00  0.00     0.074 A 
ATOM     50  C   UNL A   1      41.417  32.725  30.468  1.00  0.00     0.029 A 
ATOM     51  N   UNL A   1      42.563  31.204  29.320  1.00  0.00    -0.354 N 
ATOM     52  N   UNL A   1      44.923  30.151  27.917  1.00  0.00    -0.248 NA
ATOM     53  C   UNL A   1      47.048  30.467  27.003  1.00  0.00     0.031 C 
ATOM     54  C   UNL A   1      42.644  33.285  30.093  1.00  0.00     0.029 A 
ATOM     55  C   UNL A   1      43.363  32.332  29.391  1.00  0.00     0.049 A 
ATOM     56  H   UNL A   1      42.811  30.362  28.874  1.00  0.00     0.167 HD
ATOM     57  C   UNL A   1      45.339  31.449  28.175  1.00  0.00     0.074 A 
ATOM     58  C   UNL A   1      46.665  31.583  27.608  1.00  0.00     0.031 C 
ATOM     59  C   UNL A   1      44.681  32.441  28.822  1.00  0.00     0.037 A 
BRANCH  46  60
ATOM     60  C   UNL A   1      39.033  30.893  30.772  1.00  0.00     0.064 A 
ATOM     61  C   UNL A   1      37.952  31.448  30.072  1.00  0.00     0.173 A 
ATOM     62  C   UNL A   1      38.894  30.702  32.155  1.00  0.00     0.173 A 
ATOM     63  F   UNL A   1      38.044  31.665  28.751  1.00  0.00    -0.203 F 
ATOM     64  C   UNL A   1      36.782  31.812  30.734  1.00  0.00     0.198 A 
ATOM     65  C   UNL A   1      37.714  31.047  32.810  1.00  0.00     0.198 A 
ATOM     66  F   UNL A   1      39.900  30.174  32.869  1.00  0.00    -0.203 F 
ATOM     67  F   UNL A   1      35.775  32.372  30.052  1.00  0.00    -0.200 F 
ATOM     68  C   UNL A   1      36.663  31.606  32.101  1.00  0.00     0.200 A 
ATOM     69  F   UNL A   1      37.598  30.840  34.129  1.00  0.00    -0.200 F 
ATOM     70  F   UNL A   1      35.534  31.951  32.735  1.00  0.00    -0.200 F 
ENDBRANCH  46  60
BRANCH  47  71
ATOM     71  C   UNL A   1      47.192  27.732  25.964  1.00  0.00     0.064 A 
ATOM     72  C   UNL A   1      48.328  27.259  26.632  1.00  0.00     0.173 A 
ATOM     73  C   UNL A   1      47.219  27.756  24.561  1.00  0.00     0.173 A 
ATOM     74  F   UNL A   1      48.357  27.241  27.973  1.00  0.00    -0.203 F 
ATOM     75  C   UNL A   1      49.451  26.832  25.925  1.00  0.00     0.198 A 
ATOM     76  C   UNL A   1      48.332  27.308  23.856  1.00  0.00     0.198 A 
ATOM     77  F   UNL A   1      46.156  28.203  23.877  1.00  0.00    -0.203 F 
ATOM     78  F   UNL A   1      50.538  26.414  26.588  1.00  0.00    -0.200 F 
ATOM     79  C   UNL A   1      49.450  26.850  24.538  1.00  0.00     0.200 A 
ATOM     80  F   UNL A   1      48.323  27.317  22.516  1.00  0.00    -0.200 F 
ATOM     81  F   UNL A   1      50.526  26.432  23.860  1.00  0.00    -0.200 F 
ENDBRANCH  47  71
BRANCH  59  82
ATOM     82  C   UNL A   1      45.398  33.749  28.973  1.00  0.00     0.064 A 
ATOM     83  C   UNL A   1      45.249  34.776  28.030  1.00  0.00     0.173 A 
ATOM     84  C   UNL A   1      46.209  33.989  30.092  1.00  0.00     0.173 A 
ATOM     85  F   UNL A   1      44.496  34.585  26.936  1.00  0.00    -0.203 F 
ATOM     86  C   UNL A   1      45.902  35.994  28.195  1.00  0.00     0.198 A 
ATOM     87  C   UNL A   1      46.843  35.215  30.263  1.00  0.00     0.198 A 
ATOM     88  F   UNL A   1      46.377  33.036  31.021  1.00  0.00    -0.203 F 
ATOM     89  F   UNL A   1      45.776  36.951  27.265  1.00  0.00    -0.200 F 
ATOM     90  C   UNL A   1      46.694  36.214  29.313  1.00  0.00     0.200 A 
ATOM     91  F   UNL A   1      47.602  35.431  31.346  1.00  0.00    -0.200 F 
ATOM     92  F   UNL A   1      47.319  37.390  29.470  1.00  0.00    -0.200 F 
ENDBRANCH  59  82
ENDBRANCH  33  34
ENDBRANCH  26  28
ENDBRANCH  25  26
ENDBRANCH  24  25
ENDBRANCH   1  24
TORSDOF 16
ENDMDL
MODEL 2
REMARK VINA RESULT:     -11.5      4.391      9.722
REMARK SMILES CC(C)[C@@H](CNC(=O)NCC1C(C)(C)C1(C)C)C(=O)OCCOC(=O)c1ccc(-c2c3nc(c(-c4c(F)c(F)c(F)c(F)c4F)c4ccc([nH]4)c(-c4c(F)c(F)c(F)c(F)c4F)c4nc(c(-c5c(F)c(F)c(F)c(F)c5F)c5ccc2[nH]5)C=C4)C=C3)cc1
REMARK SMILES IDX 21 1 20 2 18 3 19 4 4 5 2 6 1 7 3 8 5 9 6 10 7 11 8 13 9 14
REMARK SMILES IDX 10 16 11 17 12 18 15 19 13 20 14 21 16 22 17 23 22 24 23 25
REMARK SMILES IDX 24 26 25 27 26 28 27 29 88 30 28 31 87 32 29 33 30 34 31 35
REMARK SMILES IDX 81 36 32 37 86 38 80 39 82 40 33 41 85 42 79 43 78 44 34 46
REMARK SMILES IDX 66 47 46 48 65 49 47 50 50 51 64 52 83 53 48 54 49 55 63 57
REMARK SMILES IDX 84 58 51 59 35 60 36 61 44 62 37 63 38 64 42 65 45 66 39 67
REMARK SMILES IDX 40 68 43 69 41 70 67 71 68 72 76 73 69 74 70 75 74 76 77 77
REMARK SMILES IDX 71 78 72 79 75 80 73 81 52 82 53 83 61 84 54 85 55 86 59 87
REMARK SMILES IDX 62 88 56 89 57 90 60 91 58 92
REMARK H PARENT 6 12 9 15 82 45 50 56
REMARK Flexibility Score: inf
ROOT
ATOM      1  C   UNL A   1      31.789  28.828  26.998  1.00  0.00     0.274 C 
ENDROOT
BRANCH   1   2
ATOM      2  O   UNL A   1      31.042  28.109  25.997  1.00  0.00    -0.462 OA
BRANCH   2   3
ATOM      3  C   UNL A   1      31.223  26.764  25.989  1.00  0.00     0.311 C 
ATOM      4  O   UNL A   1      31.755  26.122  26.891  1.00  0.00    -0.252 OA
BRANCH   3   5
ATOM      5  C   UNL A   1      30.751  26.102  24.708  1.00  0.00     0.121 C 
BRANCH   5   6
ATOM      6  C   UNL A   1      31.254  26.738  23.383  1.00  0.00    -0.001 C 
ATOM      7  C   UNL A   1      31.624  25.658  22.351  1.00  0.00     0.008 C 
ATOM      8  C   UNL A   1      30.188  27.639  22.740  1.00  0.00     0.008 C 
ENDBRANCH   5   6
BRANCH   5   9
ATOM      9  C   UNL A   1      31.002  24.590  24.826  1.00  0.00     0.133 C 
BRANCH   9  10
ATOM     10  N   UNL A   1      30.170  23.904  25.794  1.00  0.00    -0.337 N 
ATOM     11  C   UNL A   1      30.434  23.111  26.840  1.00  0.00     0.314 C 
ATOM     12  H   UNL A   1      29.207  24.053  25.652  1.00  0.00     0.165 HD
ATOM     13  O   UNL A   1      29.509  22.881  27.625  1.00  0.00    -0.249 OA
ATOM     14  N   UNL A   1      31.624  22.559  27.099  1.00  0.00    -0.338 N 
ATOM     15  H   UNL A   1      31.711  22.267  28.035  1.00  0.00     0.165 HD
BRANCH  14  16
ATOM     16  C   UNL A   1      32.813  22.291  26.318  1.00  0.00     0.122 C 
BRANCH  16  17
ATOM     17  C   UNL A   1      32.498  21.370  25.179  1.00  0.00     0.021 C 
ATOM     18  C   UNL A   1      32.963  21.648  23.748  1.00  0.00    -0.025 C 
ATOM     19  C   UNL A   1      33.491  20.416  24.512  1.00  0.00    -0.025 C 
ATOM     20  C   UNL A   1      31.934  21.469  22.650  1.00  0.00     0.012 C 
ATOM     21  C   UNL A   1      33.903  22.792  23.431  1.00  0.00     0.012 C 
ATOM     22  C   UNL A   1      34.928  20.356  24.975  1.00  0.00     0.012 C 
ATOM     23  C   UNL A   1      32.984  19.043  24.121  1.00  0.00     0.012 C 
ENDBRANCH  16  17
ENDBRANCH  14  16
ENDBRANCH   9  10
ENDBRANCH   5   9
ENDBRANCH   3   5
ENDBRANCH   2   3
ENDBRANCH   1   2
BRANCH   1  24
ATOM     24  C   UNL A   1      31.788  30.332  26.725  1.00  0.00     0.275 C 
BRANCH  24  25
ATOM     25  O   UNL A   1      33.127  30.795  26.478  1.00  0.00    -0.458 OA
BRANCH  25  26
ATOM     26  C   UNL A   1      33.574  31.785  27.279  1.00  0.00     0.338 C 
ATOM     27  O   UNL A   1      33.061  32.874  27.483  1.00  0.00    -0.246 OA
BRANCH  26  28
ATOM     28  C   UNL A   1      34.847  31.379  27.894  1.00  0.00     0.060 A 
ATOM     29  C   UNL A   1      35.029  30.074  28.358  1.00  0.00     0.016 A 
ATOM     30  C   UNL A   1      35.832  32.345  28.095  1.00  0.00     0.016 A 
ATOM     31  C   UNL A   1      36.196  29.730  29.041  1.00  0.00     0.010 A 
ATOM     32  C   UNL A   1      37.013  31.994  28.751  1.00  0.00     0.010 A 
ATOM     33  C   UNL A   1      37.194  30.690  29.244  1.00  0.00    -0.014 A 
BRANCH  33  34
ATOM     34  C   UNL A   1      38.417  30.363  30.012  1.00  0.00     0.031 A 
ATOM     35  C   UNL A   1      39.422  29.411  29.432  1.00  0.00     0.074 A 
ATOM     36  C   UNL A   1      38.606  30.889  31.235  1.00  0.00     0.049 A 
ATOM     37  N   UNL A   1      40.457  28.850  30.002  1.00  0.00    -0.248 NA
ATOM     38  C   UNL A   1      39.230  29.035  28.023  1.00  0.00     0.031 C 
ATOM     39  C   UNL A   1      37.723  31.858  31.882  1.00  0.00     0.029 A 
ATOM     40  N   UNL A   1      39.594  30.662  32.159  1.00  0.00    -0.354 N 
ATOM     41  C   UNL A   1      41.022  28.032  29.034  1.00  0.00     0.074 A 
ATOM     42  C   UNL A   1      40.214  28.166  27.839  1.00  0.00     0.031 C 
ATOM     43  C   UNL A   1      38.200  32.133  33.107  1.00  0.00     0.029 A 
ATOM     44  C   UNL A   1      39.390  31.319  33.346  1.00  0.00     0.049 A 
ATOM     45  H   UNL A   1      40.373  30.085  31.988  1.00  0.00     0.167 HD
ATOM     46  C   UNL A   1      42.114  27.238  29.137  1.00  0.00     0.037 A 
ATOM     47  C   UNL A   1      40.062  31.239  34.511  1.00  0.00     0.037 A 
ATOM     48  C   UNL A   1      42.922  27.123  30.323  1.00  0.00     0.049 A 
ATOM     49  C   UNL A   1      41.242  30.313  34.617  1.00  0.00     0.074 A 
ATOM     50  C   UNL A   1      44.057  26.359  30.524  1.00  0.00     0.029 A 
ATOM     51  N   UNL A   1      42.678  27.798  31.509  1.00  0.00    -0.354 N 
ATOM     52  N   UNL A   1      41.759  29.525  33.705  1.00  0.00    -0.248 NA
ATOM     53  C   UNL A   1      41.922  30.253  35.917  1.00  0.00     0.031 C 
ATOM     54  C   UNL A   1      44.483  26.547  31.844  1.00  0.00     0.029 A 
ATOM     55  C   UNL A   1      43.633  27.456  32.452  1.00  0.00     0.049 A 
ATOM     56  H   UNL A   1      41.936  28.427  31.659  1.00  0.00     0.167 HD
ATOM     57  C   UNL A   1      42.831  28.890  34.313  1.00  0.00     0.074 A 
ATOM     58  C   UNL A   1      42.899  29.392  35.670  1.00  0.00     0.031 C 
ATOM     59  C   UNL A   1      43.682  27.971  33.796  1.00  0.00     0.037 A 
BRANCH  46  60
ATOM     60  C   UNL A   1      42.481  26.408  27.946  1.00  0.00     0.064 A 
ATOM     61  C   UNL A   1      41.908  25.149  27.720  1.00  0.00     0.173 A 
ATOM     62  C   UNL A   1      43.396  26.896  27.000  1.00  0.00     0.173 A 
ATOM     63  F   UNL A   1      41.040  24.635  28.604  1.00  0.00    -0.203 F 
ATOM     64  C   UNL A   1      42.248  24.400  26.596  1.00  0.00     0.198 A 
ATOM     65  C   UNL A   1      43.718  26.153  25.866  1.00  0.00     0.198 A 
ATOM     66  F   UNL A   1      43.972  28.095  27.172  1.00  0.00    -0.203 F 
ATOM     67  F   UNL A   1      41.713  23.185  26.416  1.00  0.00    -0.200 F 
ATOM     68  C   UNL A   1      43.148  24.905  25.668  1.00  0.00     0.200 A 
ATOM     69  F   UNL A   1      44.581  26.645  24.968  1.00  0.00    -0.200 F 
ATOM     70  F   UNL A   1      43.469  24.185  24.585  1.00  0.00    -0.200 F 
ENDBRANCH  46  60
BRANCH  47  71
ATOM     71  C   UNL A   1      39.611  32.038  35.676  1.00  0.00     0.064 A 
ATOM     72  C   UNL A   1      38.622  31.553  36.541  1.00  0.00     0.173 A 
ATOM     73  C   UNL A   1      40.165  33.297  35.953  1.00  0.00     0.173 A 
ATOM     74  F   UNL A   1      38.047  30.365  36.302  1.00  0.00    -0.203 F 
ATOM     75  C   UNL A   1      38.199  32.301  37.639  1.00  0.00     0.198 A 
ATOM     76  C   UNL A   1      39.758  34.033  37.063  1.00  0.00     0.198 A 
ATOM     77  F   UNL A   1      41.112  33.804  35.152  1.00  0.00    -0.203 F 
ATOM     78  F   UNL A   1      37.229  31.830  38.434  1.00  0.00    -0.200 F 
ATOM     79  C   UNL A   1      38.772  33.536  37.903  1.00  0.00     0.200 A 
ATOM     80  F   UNL A   1      40.321  35.221  37.320  1.00  0.00    -0.200 F 
ATOM     81  F   UNL A   1      38.370  34.251  38.962  1.00  0.00    -0.200 F 
ENDBRANCH  47  71
BRANCH  59  82
ATOM     82  C   UNL A   1      44.774  27.471  34.693  1.00  0.00     0.064 A 
ATOM     83  C   UNL A   1      44.607  26.316  35.471  1.00  0.00     0.173 A 
ATOM     84  C   UNL A   1      46.010  28.132  34.743  1.00  0.00     0.173 A 
ATOM     85  F   UNL A   1      43.437  25.662  35.467  1.00  0.00    -0.203 F 
ATOM     86  C   UNL A   1      45.638  25.850  36.282  1.00  0.00     0.198 A 
ATOM     87  C   UNL A   1      47.044  27.650  35.539  1.00  0.00     0.198 A 
ATOM     88  F   UNL A   1      46.214  29.238  34.013  1.00  0.00    -0.203 F 
ATOM     89  F   UNL A   1      45.449  24.765  37.046  1.00  0.00    -0.200 F 
ATOM     90  C   UNL A   1      46.856  26.514  36.312  1.00  0.00     0.200 A 
ATOM     91  F   UNL A   1      48.223  28.287  35.562  1.00  0.00    -0.200 F 
ATOM     92  F   UNL A   1      47.848  26.060  37.092  1.00  0.00    -0.200 F 
ENDBRANCH  59  82
ENDBRANCH  33  34
ENDBRANCH  26  28
ENDBRANCH  25  26
ENDBRANCH  24  25
ENDBRANCH   1  24
TORSDOF 16
ENDMDL
MODEL 3
REMARK VINA RESULT:     -11.4      4.598      9.790
REMARK SMILES CC(C)[C@@H](CNC(=O)NCC1C(C)(C)C1(C)C)C(=O)OCCOC(=O)c1ccc(-c2c3nc(c(-c4c(F)c(F)c(F)c(F)c4F)c4ccc([nH]4)c(-c4c(F)c(F)c(F)c(F)c4F)c4nc(c(-c5c(F)c(F)c(F)c(F)c5F)c5ccc2[nH]5)C=C4)C=C3)cc1
REMARK SMILES IDX 21 1 20 2 18 3 19 4 4 5 2 6 1 7 3 8 5 9 6 10 7 11 8 13 9 14
REMARK SMILES IDX 10 16 11 17 12 18 15 19 13 20 14 21 16 22 17 23 22 24 23 25
REMARK SMILES IDX 24 26 25 27 26 28 27 29 88 30 28 31 87 32 29 33 30 34 31 35
REMARK SMILES IDX 81 36 32 37 86 38 80 39 82 40 33 41 85 42 79 43 78 44 34 46
REMARK SMILES IDX 66 47 46 48 65 49 47 50 50 51 64 52 83 53 48 54 49 55 63 57
REMARK SMILES IDX 84 58 51 59 35 60 36 61 44 62 37 63 38 64 42 65 45 66 39 67
REMARK SMILES IDX 40 68 43 69 41 70 67 71 68 72 76 73 69 74 70 75 74 76 77 77
REMARK SMILES IDX 71 78 72 79 75 80 73 81 52 82 53 83 61 84 54 85 55 86 59 87
REMARK SMILES IDX 62 88 56 89 57 90 60 91 58 92
REMARK H PARENT 6 12 9 15 82 45 50 56
REMARK Flexibility Score: inf
ROOT
ATOM      1  C   UNL A   1      31.736  28.797  25.915  1.00  0.00     0.274 C 
ENDROOT
BRANCH   1   2
ATOM      2  O   UNL A   1      32.650  28.786  24.800  1.00  0.00    -0.462 OA
BRANCH   2   3
ATOM      3  C   UNL A   1      32.071  28.795  23.572  1.00  0.00     0.311 C 
ATOM      4  O   UNL A   1      32.587  29.252  22.556  1.00  0.00    -0.252 OA
BRANCH   3   5
ATOM      5  C   UNL A   1      30.664  28.226  23.567  1.00  0.00     0.121 C 
BRANCH   5   6
ATOM      6  C   UNL A   1      29.566  29.121  22.930  1.00  0.00    -0.001 C 
ATOM      7  C   UNL A   1      28.186  28.440  22.990  1.00  0.00     0.008 C 
ATOM      8  C   UNL A   1      29.440  30.473  23.650  1.00  0.00     0.008 C 
ENDBRANCH   5   6
BRANCH   5   9
ATOM      9  C   UNL A   1      30.726  26.795  23.010  1.00  0.00     0.133 C 
BRANCH   9  10
ATOM     10  N   UNL A   1      31.790  26.553  22.057  1.00  0.00    -0.337 N 
ATOM     11  C   UNL A   1      32.454  25.455  21.675  1.00  0.00     0.314 C 
ATOM     12  H   UNL A   1      32.089  27.369  21.594  1.00  0.00     0.165 HD
ATOM     13  O   UNL A   1      33.143  25.536  20.654  1.00  0.00    -0.249 OA
ATOM     14  N   UNL A   1      32.419  24.280  22.312  1.00  0.00    -0.338 N 
ATOM     15  H   UNL A   1      32.711  23.532  21.743  1.00  0.00     0.165 HD
BRANCH  14  16
ATOM     16  C   UNL A   1      32.049  23.857  23.647  1.00  0.00     0.122 C 
BRANCH  16  17
ATOM     17  C   UNL A   1      33.241  23.317  24.376  1.00  0.00     0.021 C 
ATOM     18  C   UNL A   1      34.217  24.222  25.132  1.00  0.00    -0.025 C 
ATOM     19  C   UNL A   1      33.364  23.187  25.895  1.00  0.00    -0.025 C 
ATOM     20  C   UNL A   1      35.694  23.964  24.913  1.00  0.00     0.012 C 
ATOM     21  C   UNL A   1      33.944  25.700  25.315  1.00  0.00     0.012 C 
ATOM     22  C   UNL A   1      32.238  23.636  26.799  1.00  0.00     0.012 C 
ATOM     23  C   UNL A   1      34.038  21.943  26.437  1.00  0.00     0.012 C 
ENDBRANCH  16  17
ENDBRANCH  14  16
ENDBRANCH   9  10
ENDBRANCH   5   9
ENDBRANCH   3   5
ENDBRANCH   2   3
ENDBRANCH   1   2
BRANCH   1  24
ATOM     24  C   UNL A   1      31.836  30.099  26.709  1.00  0.00     0.275 C 
BRANCH  24  25
ATOM     25  O   UNL A   1      33.028  30.815  26.342  1.00  0.00    -0.458 OA
BRANCH  25  26
ATOM     26  C   UNL A   1      33.436  31.774  27.199  1.00  0.00     0.338 C 
ATOM     27  O   UNL A   1      32.889  32.836  27.453  1.00  0.00    -0.246 OA
BRANCH  26  28
ATOM     28  C   UNL A   1      34.713  31.374  27.809  1.00  0.00     0.060 A 
ATOM     29  C   UNL A   1      34.907  30.066  28.261  1.00  0.00     0.016 A 
ATOM     30  C   UNL A   1      35.690  32.345  28.018  1.00  0.00     0.016 A 
ATOM     31  C   UNL A   1      36.076  29.725  28.940  1.00  0.00     0.010 A 
ATOM     32  C   UNL A   1      36.874  31.999  28.670  1.00  0.00     0.010 A 
ATOM     33  C   UNL A   1      37.067  30.692  29.151  1.00  0.00    -0.014 A 
BRANCH  33  34
ATOM     34  C   UNL A   1      38.294  30.368  29.914  1.00  0.00     0.031 A 
ATOM     35  C   UNL A   1      39.302  29.423  29.329  1.00  0.00     0.074 A 
ATOM     36  C   UNL A   1      38.483  30.891  31.138  1.00  0.00     0.049 A 
ATOM     37  N   UNL A   1      40.340  28.864  29.894  1.00  0.00    -0.248 NA
ATOM     38  C   UNL A   1      39.107  29.051  27.919  1.00  0.00     0.031 C 
ATOM     39  C   UNL A   1      37.597  31.853  31.791  1.00  0.00     0.029 A 
ATOM     40  N   UNL A   1      39.474  30.665  32.059  1.00  0.00    -0.354 N 
ATOM     41  C   UNL A   1      40.907  28.052  28.921  1.00  0.00     0.074 A 
ATOM     42  C   UNL A   1      40.095  28.188  27.729  1.00  0.00     0.031 C 
ATOM     43  C   UNL A   1      38.076  32.126  33.016  1.00  0.00     0.029 A 
ATOM     44  C   UNL A   1      39.270  31.317  33.250  1.00  0.00     0.049 A 
ATOM     45  H   UNL A   1      40.256  30.092  31.884  1.00  0.00     0.167 HD
ATOM     46  C   UNL A   1      42.003  27.264  29.020  1.00  0.00     0.037 A 
ATOM     47  C   UNL A   1      39.946  31.236  34.412  1.00  0.00     0.037 A 
ATOM     48  C   UNL A   1      42.815  27.148  30.202  1.00  0.00     0.049 A 
ATOM     49  C   UNL A   1      41.130  30.315  34.512  1.00  0.00     0.074 A 
ATOM     50  C   UNL A   1      43.954  26.389  30.399  1.00  0.00     0.029 A 
ATOM     51  N   UNL A   1      42.570  27.818  31.392  1.00  0.00    -0.354 N 
ATOM     52  N   UNL A   1      41.649  29.533  33.596  1.00  0.00    -0.248 NA
ATOM     53  C   UNL A   1      41.814  30.255  35.810  1.00  0.00     0.031 C 
ATOM     54  C   UNL A   1      44.382  26.575  31.718  1.00  0.00     0.029 A 
ATOM     55  C   UNL A   1      43.529  27.477  32.331  1.00  0.00     0.049 A 
ATOM     56  H   UNL A   1      41.826  28.443  31.545  1.00  0.00     0.167 HD
ATOM     57  C   UNL A   1      42.726  28.901  34.199  1.00  0.00     0.074 A 
ATOM     58  C   UNL A   1      42.794  29.398  35.558  1.00  0.00     0.031 C 
ATOM     59  C   UNL A   1      43.579  27.988  33.677  1.00  0.00     0.037 A 
BRANCH  46  60
ATOM     60  C   UNL A   1      42.372  26.440  27.824  1.00  0.00     0.064 A 
ATOM     61  C   UNL A   1      43.333  26.872  26.900  1.00  0.00     0.173 A 
ATOM     62  C   UNL A   1      41.778  25.184  27.621  1.00  0.00     0.173 A 
ATOM     63  F   UNL A   1      43.916  28.072  27.044  1.00  0.00    -0.203 F 
ATOM     64  C   UNL A   1      43.676  26.084  25.804  1.00  0.00     0.198 A 
ATOM     65  C   UNL A   1      42.140  24.390  26.536  1.00  0.00     0.198 A 
ATOM     66  F   UNL A   1      40.854  24.727  28.478  1.00  0.00    -0.203 F 
ATOM     67  F   UNL A   1      44.572  26.531  24.914  1.00  0.00    -0.200 F 
ATOM     68  C   UNL A   1      43.083  24.842  25.627  1.00  0.00     0.200 A 
ATOM     69  F   UNL A   1      41.572  23.187  26.370  1.00  0.00    -0.200 F 
ATOM     70  F   UNL A   1      43.420  24.083  24.574  1.00  0.00    -0.200 F 
ENDBRANCH  46  60
BRANCH  47  71
ATOM     71  C   UNL A   1      39.494  32.029  35.581  1.00  0.00     0.064 A 
ATOM     72  C   UNL A   1      40.013  33.307  35.828  1.00  0.00     0.173 A 
ATOM     73  C   UNL A   1      38.529  31.531  36.469  1.00  0.00     0.173 A 
ATOM     74  F   UNL A   1      40.955  33.814  35.019  1.00  0.00    -0.203 F 
ATOM     75  C   UNL A   1      39.587  34.055  36.924  1.00  0.00     0.198 A 
ATOM     76  C   UNL A   1      38.087  32.289  37.551  1.00  0.00     0.198 A 
ATOM     77  F   UNL A   1      38.005  30.312  36.276  1.00  0.00    -0.203 F 
ATOM     78  F   UNL A   1      40.122  35.261  37.156  1.00  0.00    -0.200 F 
ATOM     79  C   UNL A   1      38.620  33.549  37.780  1.00  0.00     0.200 A 
ATOM     80  F   UNL A   1      37.146  31.801  38.369  1.00  0.00    -0.200 F 
ATOM     81  F   UNL A   1      38.206  34.272  38.828  1.00  0.00    -0.200 F 
ENDBRANCH  47  71
BRANCH  59  82
ATOM     82  C   UNL A   1      44.676  27.490  34.569  1.00  0.00     0.064 A 
ATOM     83  C   UNL A   1      45.899  28.169  34.670  1.00  0.00     0.173 A 
ATOM     84  C   UNL A   1      44.485  26.347  35.358  1.00  0.00     0.173 A 
ATOM     85  F   UNL A   1      46.132  29.257  33.922  1.00  0.00    -0.203 F 
ATOM     86  C   UNL A   1      46.900  27.707  35.520  1.00  0.00     0.198 A 
ATOM     87  C   UNL A   1      45.481  25.902  36.221  1.00  0.00     0.198 A 
ATOM     88  F   UNL A   1      43.330  25.668  35.296  1.00  0.00    -0.203 F 
ATOM     89  F   UNL A   1      48.076  28.348  35.577  1.00  0.00    -0.200 F 
ATOM     90  C   UNL A   1      46.689  26.578  36.299  1.00  0.00     0.200 A 
ATOM     91  F   UNL A   1      45.273  24.815  36.979  1.00  0.00    -0.200 F 
ATOM     92  F   UNL A   1      47.654  26.139  37.119  1.00  0.00    -0.200 F 
ENDBRANCH  59  82
ENDBRANCH  33  34
ENDBRANCH  26  28
ENDBRANCH  25  26
ENDBRANCH  24  25
ENDBRANCH   1  24
TORSDOF 16
ENDMDL
