MODEL 1
REMARK VINA RESULT:     -10.1      0.000      0.000
REMARK SMILES CCn1ccnc1[C@H](F)C(=O)OCCOC(=O)c1ccc(-c2c3nc(c(-c4c(F)c(F)c(F)c(F)c4F)c4ccc([nH]4)c(-c4c(F)c(F)c(F)c(F)c4F)c4nc(c(-c5c(F)c(F)c(F)c(F)c5F)c5ccc2[nH]5)C=C4)C=C3)cc1
REMARK SMILES IDX 13 1 12 2 10 3 11 4 8 5 9 6 7 7 3 8 4 9 5 10 6 11 2 12 1 13
REMARK SMILES IDX 14 14 15 15 16 16 17 17 18 18 19 19 80 20 20 21 79 22 21 23
REMARK SMILES IDX 22 24 23 25 73 26 24 27 78 28 72 29 74 30 25 31 77 32 71 33
REMARK SMILES IDX 70 34 26 36 58 37 38 38 57 39 39 40 42 41 56 42 75 43 40 44
REMARK SMILES IDX 41 45 55 47 76 48 43 49 27 50 28 51 36 52 29 53 30 54 34 55
REMARK SMILES IDX 37 56 31 57 32 58 35 59 33 60 59 61 60 62 68 63 61 64 62 65
REMARK SMILES IDX 66 66 69 67 63 68 64 69 67 70 65 71 44 72 45 73 53 74 46 75
REMARK SMILES IDX 47 76 51 77 54 78 48 79 49 80 52 81 50 82
REMARK H PARENT 74 35 42 46
REMARK Flexibility Score: inf
ROOT
ATOM      1  C   UNL A   1      34.087  36.085  33.800  1.00  0.00     0.274 C 
ENDROOT
BRANCH   1   2
ATOM      2  O   UNL A   1      35.352  35.494  33.472  1.00  0.00    -0.460 OA
BRANCH   2   3
ATOM      3  C   UNL A   1      35.588  34.242  33.973  1.00  0.00     0.348 C 
ATOM      4  O   UNL A   1      34.719  33.480  34.390  1.00  0.00    -0.248 OA
BRANCH   3   5
ATOM      5  C   UNL A   1      37.057  33.877  33.861  1.00  0.00     0.341 C 
ATOM      6  F   UNL A   1      37.881  34.953  34.068  1.00  0.00    -0.226 F 
BRANCH   5   7
ATOM      7  C   UNL A   1      37.378  32.807  34.846  1.00  0.00     0.155 A 
ATOM      8  N   UNL A   1      37.795  31.546  34.480  1.00  0.00    -0.332 N 
ATOM      9  C   UNL A   1      38.164  30.891  35.625  1.00  0.00     0.107 A 
ATOM     10  C   UNL A   1      37.867  31.752  36.651  1.00  0.00     0.131 A 
ATOM     11  N   UNL A   1      37.363  32.921  36.163  1.00  0.00    -0.238 NA
BRANCH   8  12
ATOM     12  C   UNL A   1      37.906  31.001  33.138  1.00  0.00     0.120 C 
ATOM     13  C   UNL A   1      36.955  29.842  32.887  1.00  0.00     0.027 C 
ENDBRANCH   8  12
ENDBRANCH   5   7
ENDBRANCH   3   5
ENDBRANCH   2   3
ENDBRANCH   1   2
BRANCH   1  14
ATOM     14  C   UNL A   1      33.398  36.610  32.545  1.00  0.00     0.275 C 
BRANCH  14  15
ATOM     15  O   UNL A   1      34.074  36.163  31.369  1.00  0.00    -0.458 OA
BRANCH  15  16
ATOM     16  C   UNL A   1      33.377  35.322  30.574  1.00  0.00     0.338 C 
ATOM     17  O   UNL A   1      32.175  35.303  30.391  1.00  0.00    -0.246 OA
BRANCH  16  18
ATOM     18  C   UNL A   1      34.270  34.278  30.058  1.00  0.00     0.060 A 
ATOM     19  C   UNL A   1      34.542  33.198  30.909  1.00  0.00     0.016 A 
ATOM     20  C   UNL A   1      35.035  34.534  28.916  1.00  0.00     0.016 A 
ATOM     21  C   UNL A   1      35.718  32.503  30.736  1.00  0.00     0.010 A 
ATOM     22  C   UNL A   1      36.220  33.860  28.760  1.00  0.00     0.010 A 
ATOM     23  C   UNL A   1      36.583  32.916  29.723  1.00  0.00    -0.014 A 
BRANCH  23  24
ATOM     24  C   UNL A   1      37.942  32.419  29.735  1.00  0.00     0.031 A 
ATOM     25  C   UNL A   1      38.135  31.047  29.220  1.00  0.00     0.074 A 
ATOM     26  C   UNL A   1      38.960  33.255  30.010  1.00  0.00     0.049 A 
ATOM     27  N   UNL A   1      38.703  30.043  29.802  1.00  0.00    -0.248 NA
ATOM     28  C   UNL A   1      37.561  30.738  27.901  1.00  0.00     0.031 C 
ATOM     29  C   UNL A   1      38.905  34.713  30.176  1.00  0.00     0.029 A 
ATOM     30  N   UNL A   1      40.291  32.988  30.056  1.00  0.00    -0.354 N 
ATOM     31  C   UNL A   1      38.695  29.015  28.865  1.00  0.00     0.074 A 
ATOM     32  C   UNL A   1      37.867  29.449  27.770  1.00  0.00     0.031 C 
ATOM     33  C   UNL A   1      40.156  35.215  30.069  1.00  0.00     0.029 A 
ATOM     34  C   UNL A   1      41.093  34.111  29.944  1.00  0.00     0.049 A 
ATOM     35  H   UNL A   1      40.652  32.078  30.158  1.00  0.00     0.167 HD
ATOM     36  C   UNL A   1      39.544  27.958  28.943  1.00  0.00     0.037 A 
ATOM     37  C   UNL A   1      42.416  34.120  29.657  1.00  0.00     0.037 A 
ATOM     38  C   UNL A   1      40.102  27.799  30.255  1.00  0.00     0.049 A 
ATOM     39  C   UNL A   1      42.945  32.751  29.889  1.00  0.00     0.074 A 
ATOM     40  C   UNL A   1      39.568  27.580  31.510  1.00  0.00     0.029 A 
ATOM     41  N   UNL A   1      41.397  28.203  30.471  1.00  0.00    -0.354 N 
ATOM     42  N   UNL A   1      43.062  32.195  31.064  1.00  0.00    -0.248 NA
ATOM     43  C   UNL A   1      42.947  31.828  28.763  1.00  0.00     0.031 C 
ATOM     44  C   UNL A   1      40.396  28.322  32.402  1.00  0.00     0.029 A 
ATOM     45  C   UNL A   1      41.395  28.925  31.637  1.00  0.00     0.049 A 
ATOM     46  H   UNL A   1      42.175  28.012  29.899  1.00  0.00     0.167 HD
ATOM     47  C   UNL A   1      42.744  30.859  30.859  1.00  0.00     0.074 A 
ATOM     48  C   UNL A   1      42.781  30.674  29.413  1.00  0.00     0.031 C 
ATOM     49  C   UNL A   1      42.204  30.099  31.857  1.00  0.00     0.037 A 
BRANCH  36  50
ATOM     50  C   UNL A   1      40.098  27.265  27.732  1.00  0.00     0.064 A 
ATOM     51  C   UNL A   1      40.036  25.865  27.635  1.00  0.00     0.173 A 
ATOM     52  C   UNL A   1      40.927  27.915  26.791  1.00  0.00     0.173 A 
ATOM     53  F   UNL A   1      39.314  25.153  28.512  1.00  0.00    -0.203 F 
ATOM     54  C   UNL A   1      40.778  25.165  26.681  1.00  0.00     0.198 A 
ATOM     55  C   UNL A   1      41.618  27.219  25.804  1.00  0.00     0.198 A 
ATOM     56  F   UNL A   1      41.181  29.228  26.863  1.00  0.00    -0.203 F 
ATOM     57  F   UNL A   1      40.777  23.825  26.691  1.00  0.00    -0.200 F 
ATOM     58  C   UNL A   1      41.564  25.842  25.765  1.00  0.00     0.200 A 
ATOM     59  F   UNL A   1      42.392  27.893  24.941  1.00  0.00    -0.200 F 
ATOM     60  F   UNL A   1      42.312  25.168  24.880  1.00  0.00    -0.200 F 
ENDBRANCH  36  50
BRANCH  37  61
ATOM     61  C   UNL A   1      43.152  35.150  28.890  1.00  0.00     0.064 A 
ATOM     62  C   UNL A   1      42.581  35.776  27.774  1.00  0.00     0.173 A 
ATOM     63  C   UNL A   1      44.353  35.706  29.376  1.00  0.00     0.173 A 
ATOM     64  F   UNL A   1      41.410  35.343  27.286  1.00  0.00    -0.203 F 
ATOM     65  C   UNL A   1      43.178  36.892  27.178  1.00  0.00     0.198 A 
ATOM     66  C   UNL A   1      44.956  36.809  28.772  1.00  0.00     0.198 A 
ATOM     67  F   UNL A   1      44.922  35.244  30.499  1.00  0.00    -0.203 F 
ATOM     68  F   UNL A   1      42.579  37.496  26.141  1.00  0.00    -0.200 F 
ATOM     69  C   UNL A   1      44.363  37.408  27.678  1.00  0.00     0.200 A 
ATOM     70  F   UNL A   1      46.083  37.317  29.291  1.00  0.00    -0.200 F 
ATOM     71  F   UNL A   1      44.912  38.503  27.132  1.00  0.00    -0.200 F 
ENDBRANCH  37  61
BRANCH  49  72
ATOM     72  C   UNL A   1      42.204  30.667  33.246  1.00  0.00     0.064 A 
ATOM     73  C   UNL A   1      41.391  31.744  33.641  1.00  0.00     0.173 A 
ATOM     74  C   UNL A   1      42.931  30.007  34.246  1.00  0.00     0.173 A 
ATOM     75  F   UNL A   1      40.582  32.351  32.765  1.00  0.00    -0.203 F 
ATOM     76  C   UNL A   1      41.348  32.170  34.966  1.00  0.00     0.198 A 
ATOM     77  C   UNL A   1      42.858  30.412  35.575  1.00  0.00     0.198 A 
ATOM     78  F   UNL A   1      43.673  28.932  33.937  1.00  0.00    -0.203 F 
ATOM     79  F   UNL A   1      40.572  33.207  35.313  1.00  0.00    -0.200 F 
ATOM     80  C   UNL A   1      42.077  31.499  35.933  1.00  0.00     0.200 A 
ATOM     81  F   UNL A   1      43.523  29.727  36.517  1.00  0.00    -0.200 F 
ATOM     82  F   UNL A   1      42.004  31.882  37.216  1.00  0.00    -0.200 F 
ENDBRANCH  49  72
ENDBRANCH  23  24
ENDBRANCH  16  18
ENDBRANCH  15  16
ENDBRANCH  14  15
ENDBRANCH   1  14
TORSDOF 13
ENDMDL
MODEL 2
REMARK VINA RESULT:      -9.7      4.623      9.783
REMARK SMILES CCn1ccnc1[C@H](F)C(=O)OCCOC(=O)c1ccc(-c2c3nc(c(-c4c(F)c(F)c(F)c(F)c4F)c4ccc([nH]4)c(-c4c(F)c(F)c(F)c(F)c4F)c4nc(c(-c5c(F)c(F)c(F)c(F)c5F)c5ccc2[nH]5)C=C4)C=C3)cc1
REMARK SMILES IDX 13 1 12 2 10 3 11 4 8 5 9 6 7 7 3 8 4 9 5 10 6 11 2 12 1 13
REMARK SMILES IDX 14 14 15 15 16 16 17 17 18 18 19 19 80 20 20 21 79 22 21 23
REMARK SMILES IDX 22 24 23 25 73 26 24 27 78 28 72 29 74 30 25 31 77 32 71 33
REMARK SMILES IDX 70 34 26 36 58 37 38 38 57 39 39 40 42 41 56 42 75 43 40 44
REMARK SMILES IDX 41 45 55 47 76 48 43 49 27 50 28 51 36 52 29 53 30 54 34 55
REMARK SMILES IDX 37 56 31 57 32 58 35 59 33 60 59 61 60 62 68 63 61 64 62 65
REMARK SMILES IDX 66 66 69 67 63 68 64 69 67 70 65 71 44 72 45 73 53 74 46 75
REMARK SMILES IDX 47 76 51 77 54 78 48 79 49 80 52 81 50 82
REMARK H PARENT 74 35 42 46
REMARK Flexibility Score: inf
ROOT
ATOM      1  C   UNL A   1      42.299  20.513  26.112  1.00  0.00     0.274 C 
ENDROOT
BRANCH   1   2
ATOM      2  O   UNL A   1      42.876  21.509  25.254  1.00  0.00    -0.460 OA
BRANCH   2   3
ATOM      3  C   UNL A   1      43.904  22.243  25.778  1.00  0.00     0.348 C 
ATOM      4  O   UNL A   1      44.231  22.244  26.963  1.00  0.00    -0.248 OA
BRANCH   3   5
ATOM      5  C   UNL A   1      44.652  22.991  24.689  1.00  0.00     0.341 C 
ATOM      6  F   UNL A   1      44.139  22.748  23.442  1.00  0.00    -0.226 F 
BRANCH   5   7
ATOM      7  C   UNL A   1      44.607  24.452  24.972  1.00  0.00     0.155 A 
ATOM      8  N   UNL A   1      45.737  25.227  25.117  1.00  0.00    -0.332 N 
ATOM      9  C   UNL A   1      45.329  26.533  25.190  1.00  0.00     0.107 A 
ATOM     10  C   UNL A   1      43.958  26.489  25.179  1.00  0.00     0.131 A 
ATOM     11  N   UNL A   1      43.522  25.201  25.065  1.00  0.00    -0.238 NA
BRANCH   8  12
ATOM     12  C   UNL A   1      47.122  24.787  25.124  1.00  0.00     0.120 C 
ATOM     13  C   UNL A   1      48.106  25.928  25.327  1.00  0.00     0.027 C 
ENDBRANCH   8  12
ENDBRANCH   5   7
ENDBRANCH   3   5
ENDBRANCH   2   3
ENDBRANCH   1   2
BRANCH   1  14
ATOM     14  C   UNL A   1      40.814  20.783  26.326  1.00  0.00     0.275 C 
BRANCH  14  15
ATOM     15  O   UNL A   1      40.620  21.860  27.244  1.00  0.00    -0.458 OA
BRANCH  15  16
ATOM     16  C   UNL A   1      39.848  22.877  26.803  1.00  0.00     0.338 C 
ATOM     17  O   UNL A   1      38.764  22.800  26.256  1.00  0.00    -0.246 OA
BRANCH  16  18
ATOM     18  C   UNL A   1      40.584  24.141  26.920  1.00  0.00     0.060 A 
ATOM     19  C   UNL A   1      41.578  24.209  27.905  1.00  0.00     0.016 A 
ATOM     20  C   UNL A   1      40.083  25.287  26.292  1.00  0.00     0.016 A 
ATOM     21  C   UNL A   1      41.912  25.441  28.421  1.00  0.00     0.010 A 
ATOM     22  C   UNL A   1      40.396  26.512  26.824  1.00  0.00     0.010 A 
ATOM     23  C   UNL A   1      41.238  26.561  27.937  1.00  0.00    -0.014 A 
BRANCH  23  24
ATOM     24  C   UNL A   1      41.339  27.799  28.681  1.00  0.00     0.031 A 
ATOM     25  C   UNL A   1      42.472  28.679  28.323  1.00  0.00     0.074 A 
ATOM     26  C   UNL A   1      40.333  28.180  29.488  1.00  0.00     0.049 A 
ATOM     27  N   UNL A   1      43.381  29.173  29.097  1.00  0.00    -0.248 NA
ATOM     28  C   UNL A   1      42.647  29.002  26.898  1.00  0.00     0.031 C 
ATOM     29  C   UNL A   1      39.010  27.558  29.632  1.00  0.00     0.029 A 
ATOM     30  N   UNL A   1      40.232  29.300  30.251  1.00  0.00    -0.354 N 
ATOM     31  C   UNL A   1      44.157  29.992  28.285  1.00  0.00     0.074 A 
ATOM     32  C   UNL A   1      43.749  29.747  26.926  1.00  0.00     0.031 C 
ATOM     33  C   UNL A   1      38.177  28.431  30.241  1.00  0.00     0.029 A 
ATOM     34  C   UNL A   1      38.936  29.610  30.625  1.00  0.00     0.049 A 
ATOM     35  H   UNL A   1      41.011  29.842  30.512  1.00  0.00     0.167 HD
ATOM     36  C   UNL A   1      44.938  30.982  28.790  1.00  0.00     0.037 A 
ATOM     37  C   UNL A   1      38.509  30.800  31.111  1.00  0.00     0.037 A 
ATOM     38  C   UNL A   1      45.204  30.809  30.190  1.00  0.00     0.049 A 
ATOM     39  C   UNL A   1      39.701  31.564  31.562  1.00  0.00     0.074 A 
ATOM     40  C   UNL A   1      45.813  29.822  30.940  1.00  0.00     0.029 A 
ATOM     41  N   UNL A   1      44.518  31.586  31.090  1.00  0.00    -0.354 N 
ATOM     42  N   UNL A   1      40.433  31.247  32.594  1.00  0.00    -0.248 NA
ATOM     43  C   UNL A   1      40.338  32.452  30.599  1.00  0.00     0.031 C 
ATOM     44  C   UNL A   1      45.072  29.771  32.158  1.00  0.00     0.029 A 
ATOM     45  C   UNL A   1      44.078  30.746  32.081  1.00  0.00     0.049 A 
ATOM     46  H   UNL A   1      44.369  32.558  31.034  1.00  0.00     0.167 HD
ATOM     47  C   UNL A   1      41.734  31.553  32.217  1.00  0.00     0.074 A 
ATOM     48  C   UNL A   1      41.601  32.382  31.024  1.00  0.00     0.031 C 
ATOM     49  C   UNL A   1      42.800  30.876  32.737  1.00  0.00     0.037 A 
BRANCH  36  50
ATOM     50  C   UNL A   1      45.191  32.273  28.066  1.00  0.00     0.064 A 
ATOM     51  C   UNL A   1      46.486  32.587  27.624  1.00  0.00     0.173 A 
ATOM     52  C   UNL A   1      44.252  33.327  28.031  1.00  0.00     0.173 A 
ATOM     53  F   UNL A   1      47.461  31.666  27.664  1.00  0.00    -0.203 F 
ATOM     54  C   UNL A   1      46.824  33.876  27.207  1.00  0.00     0.198 A 
ATOM     55  C   UNL A   1      44.575  34.595  27.558  1.00  0.00     0.198 A 
ATOM     56  F   UNL A   1      43.024  33.197  28.552  1.00  0.00    -0.203 F 
ATOM     57  F   UNL A   1      48.095  34.162  26.896  1.00  0.00    -0.200 F 
ATOM     58  C   UNL A   1      45.868  34.877  27.170  1.00  0.00     0.200 A 
ATOM     59  F   UNL A   1      43.641  35.556  27.552  1.00  0.00    -0.200 F 
ATOM     60  F   UNL A   1      46.202  36.124  26.814  1.00  0.00    -0.200 F 
ENDBRANCH  36  50
BRANCH  37  61
ATOM     61  C   UNL A   1      37.184  31.424  30.898  1.00  0.00     0.064 A 
ATOM     62  C   UNL A   1      36.300  31.643  31.963  1.00  0.00     0.173 A 
ATOM     63  C   UNL A   1      36.849  32.028  29.669  1.00  0.00     0.173 A 
ATOM     64  F   UNL A   1      36.577  31.150  33.179  1.00  0.00    -0.203 F 
ATOM     65  C   UNL A   1      35.147  32.419  31.807  1.00  0.00     0.198 A 
ATOM     66  C   UNL A   1      35.691  32.789  29.510  1.00  0.00     0.198 A 
ATOM     67  F   UNL A   1      37.682  31.964  28.619  1.00  0.00    -0.203 F 
ATOM     68  F   UNL A   1      34.349  32.649  32.860  1.00  0.00    -0.200 F 
ATOM     69  C   UNL A   1      34.845  32.992  30.582  1.00  0.00     0.200 A 
ATOM     70  F   UNL A   1      35.433  33.366  28.327  1.00  0.00    -0.200 F 
ATOM     71  F   UNL A   1      33.762  33.771  30.444  1.00  0.00    -0.200 F 
ENDBRANCH  37  61
BRANCH  49  72
ATOM     72  C   UNL A   1      42.550  29.975  33.911  1.00  0.00     0.064 A 
ATOM     73  C   UNL A   1      42.056  28.665  33.789  1.00  0.00     0.173 A 
ATOM     74  C   UNL A   1      42.967  30.392  35.182  1.00  0.00     0.173 A 
ATOM     75  F   UNL A   1      41.745  28.156  32.591  1.00  0.00    -0.203 F 
ATOM     76  C   UNL A   1      41.938  27.830  34.898  1.00  0.00     0.198 A 
ATOM     77  C   UNL A   1      42.883  29.543  36.281  1.00  0.00     0.198 A 
ATOM     78  F   UNL A   1      43.509  31.609  35.345  1.00  0.00    -0.203 F 
ATOM     79  F   UNL A   1      41.453  26.588  34.755  1.00  0.00    -0.200 F 
ATOM     80  C   UNL A   1      42.358  28.268  36.143  1.00  0.00     0.200 A 
ATOM     81  F   UNL A   1      43.340  29.951  37.474  1.00  0.00    -0.200 F 
ATOM     82  F   UNL A   1      42.285  27.451  37.203  1.00  0.00    -0.200 F 
ENDBRANCH  49  72
ENDBRANCH  23  24
ENDBRANCH  16  18
ENDBRANCH  15  16
ENDBRANCH  14  15
ENDBRANCH   1  14
TORSDOF 13
ENDMDL
MODEL 3
REMARK VINA RESULT:      -9.6      5.128      9.569
REMARK SMILES CCn1ccnc1[C@H](F)C(=O)OCCOC(=O)c1ccc(-c2c3nc(c(-c4c(F)c(F)c(F)c(F)c4F)c4ccc([nH]4)c(-c4c(F)c(F)c(F)c(F)c4F)c4nc(c(-c5c(F)c(F)c(F)c(F)c5F)c5ccc2[nH]5)C=C4)C=C3)cc1
REMARK SMILES IDX 13 1 12 2 10 3 11 4 8 5 9 6 7 7 3 8 4 9 5 10 6 11 2 12 1 13
REMARK SMILES IDX 14 14 15 15 16 16 17 17 18 18 19 19 80 20 20 21 79 22 21 23
REMARK SMILES IDX 22 24 23 25 73 26 24 27 78 28 72 29 74 30 25 31 77 32 71 33
REMARK SMILES IDX 70 34 26 36 58 37 38 38 57 39 39 40 42 41 56 42 75 43 40 44
REMARK SMILES IDX 41 45 55 47 76 48 43 49 27 50 28 51 36 52 29 53 30 54 34 55
REMARK SMILES IDX 37 56 31 57 32 58 35 59 33 60 59 61 60 62 68 63 61 64 62 65
REMARK SMILES IDX 66 66 69 67 63 68 64 69 67 70 65 71 44 72 45 73 53 74 46 75
REMARK SMILES IDX 47 76 51 77 54 78 48 79 49 80 52 81 50 82
REMARK H PARENT 74 35 42 46
REMARK Flexibility Score: inf
ROOT
ATOM      1  C   UNL A   1      37.264  21.393  24.879  1.00  0.00     0.274 C 
ENDROOT
BRANCH   1   2
ATOM      2  O   UNL A   1      36.761  22.736  24.913  1.00  0.00    -0.460 OA
BRANCH   2   3
ATOM      3  C   UNL A   1      36.193  23.203  23.759  1.00  0.00     0.348 C 
ATOM      4  O   UNL A   1      36.665  23.051  22.634  1.00  0.00    -0.248 OA
BRANCH   3   5
ATOM      5  C   UNL A   1      34.851  23.857  24.037  1.00  0.00     0.341 C 
ATOM      6  F   UNL A   1      34.444  24.671  23.012  1.00  0.00    -0.226 F 
BRANCH   5   7
ATOM      7  C   UNL A   1      33.827  22.802  24.272  1.00  0.00     0.155 A 
ATOM      8  N   UNL A   1      33.335  22.495  25.522  1.00  0.00    -0.332 N 
ATOM      9  C   UNL A   1      32.298  21.616  25.348  1.00  0.00     0.107 A 
ATOM     10  C   UNL A   1      32.263  21.355  24.001  1.00  0.00     0.131 A 
ATOM     11  N   UNL A   1      33.222  22.074  23.350  1.00  0.00    -0.238 NA
BRANCH   8  12
ATOM     12  C   UNL A   1      33.761  23.034  26.802  1.00  0.00     0.120 C 
ATOM     13  C   UNL A   1      33.134  22.317  27.987  1.00  0.00     0.027 C 
ENDBRANCH   8  12
ENDBRANCH   5   7
ENDBRANCH   3   5
ENDBRANCH   2   3
ENDBRANCH   1   2
BRANCH   1  14
ATOM     14  C   UNL A   1      38.650  21.322  25.510  1.00  0.00     0.275 C 
BRANCH  14  15
ATOM     15  O   UNL A   1      38.844  22.395  26.433  1.00  0.00    -0.458 OA
BRANCH  15  16
ATOM     16  C   UNL A   1      39.990  22.356  27.147  1.00  0.00     0.338 C 
ATOM     17  O   UNL A   1      40.395  21.448  27.849  1.00  0.00    -0.246 OA
BRANCH  16  18
ATOM     18  C   UNL A   1      40.644  23.669  27.103  1.00  0.00     0.060 A 
ATOM     19  C   UNL A   1      41.775  23.843  27.911  1.00  0.00     0.016 A 
ATOM     20  C   UNL A   1      39.969  24.752  26.530  1.00  0.00     0.016 A 
ATOM     21  C   UNL A   1      42.100  25.115  28.327  1.00  0.00     0.010 A 
ATOM     22  C   UNL A   1      40.275  26.017  26.965  1.00  0.00     0.010 A 
ATOM     23  C   UNL A   1      41.279  26.168  27.923  1.00  0.00    -0.014 A 
BRANCH  23  24
ATOM     24  C   UNL A   1      41.410  27.439  28.602  1.00  0.00     0.031 A 
ATOM     25  C   UNL A   1      42.538  28.291  28.170  1.00  0.00     0.074 A 
ATOM     26  C   UNL A   1      40.430  27.869  29.418  1.00  0.00     0.049 A 
ATOM     27  N   UNL A   1      43.472  28.815  28.892  1.00  0.00    -0.248 NA
ATOM     28  C   UNL A   1      42.675  28.542  26.726  1.00  0.00     0.031 C 
ATOM     29  C   UNL A   1      39.108  27.266  29.629  1.00  0.00     0.029 A 
ATOM     30  N   UNL A   1      40.359  29.026  30.126  1.00  0.00    -0.354 N 
ATOM     31  C   UNL A   1      44.232  29.586  28.019  1.00  0.00     0.074 A 
ATOM     32  C   UNL A   1      43.783  29.278  26.686  1.00  0.00     0.031 C 
ATOM     33  C   UNL A   1      38.298  28.175  30.216  1.00  0.00     0.029 A 
ATOM     34  C   UNL A   1      39.076  29.365  30.520  1.00  0.00     0.049 A 
ATOM     35  H   UNL A   1      41.148  29.574  30.338  1.00  0.00     0.167 HD
ATOM     36  C   UNL A   1      45.033  30.594  28.452  1.00  0.00     0.037 A 
ATOM     37  C   UNL A   1      38.672  30.581  30.958  1.00  0.00     0.037 A 
ATOM     38  C   UNL A   1      45.337  30.488  29.851  1.00  0.00     0.049 A 
ATOM     39  C   UNL A   1      39.881  31.357  31.337  1.00  0.00     0.074 A 
ATOM     40  C   UNL A   1      45.960  29.534  30.632  1.00  0.00     0.029 A 
ATOM     41  N   UNL A   1      44.683  31.314  30.730  1.00  0.00    -0.354 N 
ATOM     42  N   UNL A   1      40.640  31.085  32.363  1.00  0.00    -0.248 NA
ATOM     43  C   UNL A   1      40.497  32.191  30.314  1.00  0.00     0.031 C 
ATOM     44  C   UNL A   1      45.254  29.549  31.871  1.00  0.00     0.029 A 
ATOM     45  C   UNL A   1      44.265  30.528  31.773  1.00  0.00     0.049 A 
ATOM     46  H   UNL A   1      44.539  32.283  30.630  1.00  0.00     0.167 HD
ATOM     47  C   UNL A   1      41.932  31.361  31.934  1.00  0.00     0.074 A 
ATOM     48  C   UNL A   1      41.772  32.130  30.706  1.00  0.00     0.031 C 
ATOM     49  C   UNL A   1      43.007  30.701  32.457  1.00  0.00     0.037 A 
BRANCH  36  50
ATOM     50  C   UNL A   1      45.274  31.844  27.658  1.00  0.00     0.064 A 
ATOM     51  C   UNL A   1      46.527  32.067  27.063  1.00  0.00     0.173 A 
ATOM     52  C   UNL A   1      44.399  32.951  27.689  1.00  0.00     0.173 A 
ATOM     53  F   UNL A   1      47.447  31.091  27.027  1.00  0.00    -0.203 F 
ATOM     54  C   UNL A   1      46.887  33.320  26.564  1.00  0.00     0.198 A 
ATOM     55  C   UNL A   1      44.738  34.183  27.137  1.00  0.00     0.198 A 
ATOM     56  F   UNL A   1      43.233  32.911  28.348  1.00  0.00    -0.203 F 
ATOM     57  F   UNL A   1      48.130  33.520  26.104  1.00  0.00    -0.200 F 
ATOM     58  C   UNL A   1      45.992  34.375  26.598  1.00  0.00     0.200 A 
ATOM     59  F   UNL A   1      43.864  35.198  27.201  1.00  0.00    -0.200 F 
ATOM     60  F   UNL A   1      46.354  35.589  26.161  1.00  0.00    -0.200 F 
ENDBRANCH  36  50
BRANCH  37  61
ATOM     61  C   UNL A   1      37.346  31.205  30.751  1.00  0.00     0.064 A 
ATOM     62  C   UNL A   1      36.490  31.475  31.828  1.00  0.00     0.173 A 
ATOM     63  C   UNL A   1      36.984  31.759  29.506  1.00  0.00     0.173 A 
ATOM     64  F   UNL A   1      36.793  31.032  33.056  1.00  0.00    -0.203 F 
ATOM     65  C   UNL A   1      35.338  32.253  31.667  1.00  0.00     0.198 A 
ATOM     66  C   UNL A   1      35.827  32.521  29.343  1.00  0.00     0.198 A 
ATOM     67  F   UNL A   1      37.790  31.646  28.440  1.00  0.00    -0.203 F 
ATOM     68  F   UNL A   1      34.567  32.532  32.728  1.00  0.00    -0.200 F 
ATOM     69  C   UNL A   1      35.009  32.776  30.426  1.00  0.00     0.200 A 
ATOM     70  F   UNL A   1      35.543  33.050  28.144  1.00  0.00    -0.200 F 
ATOM     71  F   UNL A   1      33.928  33.556  30.282  1.00  0.00    -0.200 F 
ENDBRANCH  37  61
BRANCH  49  72
ATOM     72  C   UNL A   1      42.784  29.862  33.681  1.00  0.00     0.064 A 
ATOM     73  C   UNL A   1      42.872  30.365  34.990  1.00  0.00     0.173 A 
ATOM     74  C   UNL A   1      42.315  28.551  33.525  1.00  0.00     0.173 A 
ATOM     75  F   UNL A   1      43.201  31.643  35.215  1.00  0.00    -0.203 F 
ATOM     76  C   UNL A   1      42.555  29.575  36.093  1.00  0.00     0.198 A 
ATOM     77  C   UNL A   1      41.964  27.775  34.625  1.00  0.00     0.198 A 
ATOM     78  F   UNL A   1      42.148  28.040  32.295  1.00  0.00    -0.203 F 
ATOM     79  F   UNL A   1      42.659  30.077  37.332  1.00  0.00    -0.200 F 
ATOM     80  C   UNL A   1      42.095  28.282  35.909  1.00  0.00     0.200 A 
ATOM     81  F   UNL A   1      41.468  26.543  34.441  1.00  0.00    -0.200 F 
ATOM     82  F   UNL A   1      41.749  27.535  36.966  1.00  0.00    -0.200 F 
ENDBRANCH  49  72
ENDBRANCH  23  24
ENDBRANCH  16  18
ENDBRANCH  15  16
ENDBRANCH  14  15
ENDBRANCH   1  14
TORSDOF 13
ENDMDL
