MODEL 1
REMARK VINA RESULT:     -11.3      0.000      0.000
REMARK SMILES Cc1c(Cl)ccc2c1C=C(C(=O)OCCOC(=O)c1ccc(-c3c4nc(c(-c5c(F)c(F)c(F)c(F)c5F)c5ccc([nH]5)c(-c5c(F)c(F)c(F)c(F)c5F)c5nc(c(-c6c(F)c(F)c(F)c(F)c6F)c6ccc3[nH]6)C=C5)C=C4)cc1)[C@@H](C(F)(F)F)O2
REMARK SMILES IDX 15 1 14 2 13 3 11 4 12 5 10 6 1 7 2 8 3 9 8 10 4 11 5 12
REMARK SMILES IDX 7 13 9 14 6 15 87 16 82 17 83 18 84 19 85 20 86 21 16 22
REMARK SMILES IDX 17 23 18 24 19 25 20 26 81 27 21 28 80 29 22 30 23 31 24 32
REMARK SMILES IDX 74 33 25 34 79 35 73 36 75 37 26 38 78 39 72 40 71 41 27 43
REMARK SMILES IDX 59 44 39 45 58 46 40 47 43 48 57 49 76 50 41 51 42 52 56 54
REMARK SMILES IDX 77 55 44 56 28 57 29 58 37 59 30 60 31 61 35 62 38 63 32 64
REMARK SMILES IDX 33 65 36 66 34 67 60 68 61 69 69 70 62 71 63 72 67 73 70 74
REMARK SMILES IDX 64 75 65 76 68 77 66 78 45 79 46 80 54 81 47 82 48 83 52 84
REMARK SMILES IDX 55 85 49 86 50 87 53 88 51 89
REMARK H PARENT 75 42 43 53
REMARK Flexibility Score: inf
ROOT
ATOM      1  C   UNL A   1      33.380  33.831  28.115  1.00  0.00     0.275 C 
ENDROOT
BRANCH   1   2
ATOM      2  C   UNL A   1      34.278  34.884  28.766  1.00  0.00     0.275 C 
BRANCH   2   3
ATOM      3  O   UNL A   1      34.145  34.865  30.202  1.00  0.00    -0.459 OA
BRANCH   3   4
ATOM      4  C   UNL A   1      34.708  33.801  30.823  1.00  0.00     0.338 C 
ATOM      5  O   UNL A   1      34.340  32.642  30.763  1.00  0.00    -0.246 OA
BRANCH   4   6
ATOM      6  C   UNL A   1      35.889  34.229  31.597  1.00  0.00     0.087 C 
ATOM      7  C   UNL A   1      39.778  33.913  29.779  1.00  0.00     0.047 C 
ATOM      8  C   UNL A   1      39.593  34.271  31.235  1.00  0.00    -0.021 A 
ATOM      9  C   UNL A   1      40.697  34.452  32.090  1.00  0.00     0.044 A 
ATOM     10  C   UNL A   1      38.289  34.415  31.781  1.00  0.00     0.022 A 
ATOM     11  Cl  UNL A   1      42.329  34.235  31.561  1.00  0.00    -0.084 Cl
ATOM     12  C   UNL A   1      40.515  34.807  33.429  1.00  0.00     0.024 A 
ATOM     13  C   UNL A   1      38.124  34.792  33.121  1.00  0.00     0.128 A 
ATOM     14  C   UNL A   1      37.084  34.146  31.002  1.00  0.00     0.027 C 
ATOM     15  C   UNL A   1      39.233  34.994  33.938  1.00  0.00     0.048 A 
ATOM     16  O   UNL A   1      36.914  35.007  33.720  1.00  0.00    -0.475 OA
ATOM     17  C   UNL A   1      35.701  34.605  33.034  1.00  0.00     0.316 C 
BRANCH  17  18
ATOM     18  C   UNL A   1      35.029  33.477  33.833  1.00  0.00     0.430 C 
ATOM     19  F   UNL A   1      35.510  32.263  33.472  1.00  0.00    -0.167 F 
ATOM     20  F   UNL A   1      35.258  33.603  35.162  1.00  0.00    -0.167 F 
ATOM     21  F   UNL A   1      33.689  33.454  33.653  1.00  0.00    -0.167 F 
ENDBRANCH  17  18
ENDBRANCH   4   6
ENDBRANCH   3   4
ENDBRANCH   2   3
ENDBRANCH   1   2
BRANCH   1  22
ATOM     22  O   UNL A   1      34.156  32.969  27.262  1.00  0.00    -0.458 OA
BRANCH  22  23
ATOM     23  C   UNL A   1      34.036  31.648  27.515  1.00  0.00     0.338 C 
ATOM     24  O   UNL A   1      33.034  30.958  27.413  1.00  0.00    -0.246 OA
BRANCH  23  25
ATOM     25  C   UNL A   1      35.334  31.083  27.916  1.00  0.00     0.060 A 
ATOM     26  C   UNL A   1      35.403  29.770  28.375  1.00  0.00     0.016 A 
ATOM     27  C   UNL A   1      36.445  31.920  28.014  1.00  0.00     0.016 A 
ATOM     28  C   UNL A   1      36.531  29.338  29.068  1.00  0.00     0.010 A 
ATOM     29  C   UNL A   1      37.620  31.440  28.602  1.00  0.00     0.010 A 
ATOM     30  C   UNL A   1      37.657  30.165  29.192  1.00  0.00    -0.014 A 
BRANCH  30  31
ATOM     31  C   UNL A   1      38.841  29.721  29.982  1.00  0.00     0.031 A 
ATOM     32  C   UNL A   1      39.857  28.789  29.366  1.00  0.00     0.074 A 
ATOM     33  C   UNL A   1      39.030  30.168  31.239  1.00  0.00     0.049 A 
ATOM     34  N   UNL A   1      40.856  28.159  29.934  1.00  0.00    -0.248 NA
ATOM     35  C   UNL A   1      39.728  28.522  27.924  1.00  0.00     0.031 C 
ATOM     36  C   UNL A   1      38.163  31.116  31.939  1.00  0.00     0.029 A 
ATOM     37  N   UNL A   1      40.020  29.894  32.151  1.00  0.00    -0.354 N 
ATOM     38  C   UNL A   1      41.440  27.391  28.934  1.00  0.00     0.074 A 
ATOM     39  C   UNL A   1      40.677  27.618  27.726  1.00  0.00     0.031 C 
ATOM     40  C   UNL A   1      38.683  31.383  33.146  1.00  0.00     0.029 A 
ATOM     41  C   UNL A   1      39.863  30.552  33.347  1.00  0.00     0.049 A 
ATOM     42  H   UNL A   1      40.770  29.284  31.965  1.00  0.00     0.167 HD
ATOM     43  C   UNL A   1      42.519  26.576  29.016  1.00  0.00     0.037 A 
ATOM     44  C   UNL A   1      40.562  30.466  34.495  1.00  0.00     0.037 A 
ATOM     45  C   UNL A   1      43.311  26.398  30.206  1.00  0.00     0.049 A 
ATOM     46  C   UNL A   1      41.714  29.504  34.581  1.00  0.00     0.074 A 
ATOM     47  C   UNL A   1      44.432  25.606  30.385  1.00  0.00     0.029 A 
ATOM     48  N   UNL A   1      43.075  27.035  31.415  1.00  0.00    -0.354 N 
ATOM     49  N   UNL A   1      42.220  28.737  33.647  1.00  0.00    -0.248 NA
ATOM     50  C   UNL A   1      42.373  29.375  35.888  1.00  0.00     0.031 C 
ATOM     51  C   UNL A   1      44.852  25.733  31.712  1.00  0.00     0.029 A 
ATOM     52  C   UNL A   1      44.018  26.639  32.349  1.00  0.00     0.049 A 
ATOM     53  H   UNL A   1      42.347  27.676  31.583  1.00  0.00     0.167 HD
ATOM     54  C   UNL A   1      43.258  28.039  34.249  1.00  0.00     0.074 A 
ATOM     55  C   UNL A   1      43.327  28.493  35.622  1.00  0.00     0.031 C 
ATOM     56  C   UNL A   1      44.072  27.099  33.713  1.00  0.00     0.037 A 
BRANCH  43  57
ATOM     57  C   UNL A   1      42.914  25.797  27.795  1.00  0.00     0.064 A 
ATOM     58  C   UNL A   1      42.296  24.582  27.461  1.00  0.00     0.173 A 
ATOM     59  C   UNL A   1      43.867  26.314  26.902  1.00  0.00     0.173 A 
ATOM     60  F   UNL A   1      41.388  24.039  28.285  1.00  0.00    -0.203 F 
ATOM     61  C   UNL A   1      42.627  23.909  26.287  1.00  0.00     0.198 A 
ATOM     62  C   UNL A   1      44.174  25.653  25.717  1.00  0.00     0.198 A 
ATOM     63  F   UNL A   1      44.482  27.476  27.170  1.00  0.00    -0.203 F 
ATOM     64  F   UNL A   1      42.045  22.736  26.002  1.00  0.00    -0.200 F 
ATOM     65  C   UNL A   1      43.557  24.450  25.411  1.00  0.00     0.200 A 
ATOM     66  F   UNL A   1      45.062  26.186  24.864  1.00  0.00    -0.200 F 
ATOM     67  F   UNL A   1      43.859  23.811  24.272  1.00  0.00    -0.200 F 
ENDBRANCH  43  57
BRANCH  44  68
ATOM     68  C   UNL A   1      40.164  31.291  35.666  1.00  0.00     0.064 A 
ATOM     69  C   UNL A   1      40.955  32.368  36.087  1.00  0.00     0.173 A 
ATOM     70  C   UNL A   1      38.978  31.038  36.372  1.00  0.00     0.173 A 
ATOM     71  F   UNL A   1      42.111  32.635  35.463  1.00  0.00    -0.203 F 
ATOM     72  C   UNL A   1      40.576  33.159  37.171  1.00  0.00     0.198 A 
ATOM     73  C   UNL A   1      38.583  31.848  37.434  1.00  0.00     0.198 A 
ATOM     74  F   UNL A   1      38.187  30.017  36.012  1.00  0.00    -0.203 F 
ATOM     75  F   UNL A   1      41.367  34.162  37.575  1.00  0.00    -0.200 F 
ATOM     76  C   UNL A   1      39.385  32.905  37.836  1.00  0.00     0.200 A 
ATOM     77  F   UNL A   1      37.425  31.608  38.062  1.00  0.00    -0.200 F 
ATOM     78  F   UNL A   1      39.013  33.676  38.867  1.00  0.00    -0.200 F 
ENDBRANCH  44  68
BRANCH  56  79
ATOM     79  C   UNL A   1      45.113  26.495  34.607  1.00  0.00     0.064 A 
ATOM     80  C   UNL A   1      46.369  27.097  34.770  1.00  0.00     0.173 A 
ATOM     81  C   UNL A   1      44.829  25.348  35.362  1.00  0.00     0.173 A 
ATOM     82  F   UNL A   1      46.693  28.188  34.059  1.00  0.00    -0.203 F 
ATOM     83  C   UNL A   1      47.307  26.564  35.650  1.00  0.00     0.198 A 
ATOM     84  C   UNL A   1      45.759  24.835  36.261  1.00  0.00     0.198 A 
ATOM     85  F   UNL A   1      43.638  24.740  35.246  1.00  0.00    -0.203 F 
ATOM     86  F   UNL A   1      48.513  27.137  35.768  1.00  0.00    -0.200 F 
ATOM     87  C   UNL A   1      46.998  25.441  36.402  1.00  0.00     0.200 A 
ATOM     88  F   UNL A   1      45.453  23.757  36.997  1.00  0.00    -0.200 F 
ATOM     89  F   UNL A   1      47.896  24.940  37.261  1.00  0.00    -0.200 F 
ENDBRANCH  56  79
ENDBRANCH  30  31
ENDBRANCH  23  25
ENDBRANCH  22  23
ENDBRANCH   1  22
TORSDOF 12
ENDMDL
MODEL 2
REMARK VINA RESULT:     -11.2      5.113     11.936
REMARK SMILES Cc1c(Cl)ccc2c1C=C(C(=O)OCCOC(=O)c1ccc(-c3c4nc(c(-c5c(F)c(F)c(F)c(F)c5F)c5ccc([nH]5)c(-c5c(F)c(F)c(F)c(F)c5F)c5nc(c(-c6c(F)c(F)c(F)c(F)c6F)c6ccc3[nH]6)C=C5)C=C4)cc1)[C@@H](C(F)(F)F)O2
REMARK SMILES IDX 15 1 14 2 13 3 11 4 12 5 10 6 1 7 2 8 3 9 8 10 4 11 5 12
REMARK SMILES IDX 7 13 9 14 6 15 87 16 82 17 83 18 84 19 85 20 86 21 16 22
REMARK SMILES IDX 17 23 18 24 19 25 20 26 81 27 21 28 80 29 22 30 23 31 24 32
REMARK SMILES IDX 74 33 25 34 79 35 73 36 75 37 26 38 78 39 72 40 71 41 27 43
REMARK SMILES IDX 59 44 39 45 58 46 40 47 43 48 57 49 76 50 41 51 42 52 56 54
REMARK SMILES IDX 77 55 44 56 28 57 29 58 37 59 30 60 31 61 35 62 38 63 32 64
REMARK SMILES IDX 33 65 36 66 34 67 60 68 61 69 69 70 62 71 63 72 67 73 70 74
REMARK SMILES IDX 64 75 65 76 68 77 66 78 45 79 46 80 54 81 47 82 48 83 52 84
REMARK SMILES IDX 55 85 49 86 50 87 53 88 51 89
REMARK H PARENT 75 42 43 53
REMARK Flexibility Score: inf
ROOT
ATOM      1  C   UNL A   1      40.850  19.833  26.198  1.00  0.00     0.275 C 
ENDROOT
BRANCH   1   2
ATOM      2  C   UNL A   1      42.225  19.793  26.867  1.00  0.00     0.275 C 
BRANCH   2   3
ATOM      3  O   UNL A   1      43.250  20.288  25.980  1.00  0.00    -0.459 OA
BRANCH   3   4
ATOM      4  C   UNL A   1      43.206  21.617  25.726  1.00  0.00     0.338 C 
ATOM      5  O   UNL A   1      42.345  22.214  25.106  1.00  0.00    -0.246 OA
BRANCH   4   6
ATOM      6  C   UNL A   1      44.366  22.291  26.340  1.00  0.00     0.087 C 
ATOM      7  C   UNL A   1      43.844  24.259  30.133  1.00  0.00     0.047 C 
ATOM      8  C   UNL A   1      45.113  24.387  29.324  1.00  0.00    -0.021 A 
ATOM      9  C   UNL A   1      46.168  25.219  29.744  1.00  0.00     0.044 A 
ATOM     10  C   UNL A   1      45.262  23.678  28.102  1.00  0.00     0.022 A 
ATOM     11  Cl  UNL A   1      46.078  26.185  31.176  1.00  0.00    -0.084 Cl
ATOM     12  C   UNL A   1      47.348  25.311  29.001  1.00  0.00     0.024 A 
ATOM     13  C   UNL A   1      46.460  23.765  27.378  1.00  0.00     0.128 A 
ATOM     14  C   UNL A   1      44.186  22.874  27.531  1.00  0.00     0.027 C 
ATOM     15  C   UNL A   1      47.500  24.572  27.831  1.00  0.00     0.048 A 
ATOM     16  O   UNL A   1      46.716  23.080  26.223  1.00  0.00    -0.475 OA
ATOM     17  C   UNL A   1      45.630  22.398  25.546  1.00  0.00     0.316 C 
BRANCH  17  18
ATOM     18  C   UNL A   1      45.391  23.072  24.186  1.00  0.00     0.430 C 
ATOM     19  F   UNL A   1      46.549  23.524  23.648  1.00  0.00    -0.167 F 
ATOM     20  F   UNL A   1      44.860  22.208  23.287  1.00  0.00    -0.167 F 
ATOM     21  F   UNL A   1      44.548  24.125  24.281  1.00  0.00    -0.167 F 
ENDBRANCH  17  18
ENDBRANCH   4   6
ENDBRANCH   3   4
ENDBRANCH   2   3
ENDBRANCH   1   2
BRANCH   1  22
ATOM     22  O   UNL A   1      39.933  20.613  26.986  1.00  0.00    -0.458 OA
BRANCH  22  23
ATOM     23  C   UNL A   1      39.287  21.594  26.318  1.00  0.00     0.338 C 
ATOM     24  O   UNL A   1      38.496  21.471  25.397  1.00  0.00    -0.246 OA
BRANCH  23  25
ATOM     25  C   UNL A   1      39.633  22.909  26.878  1.00  0.00     0.060 A 
ATOM     26  C   UNL A   1      39.244  24.068  26.210  1.00  0.00     0.016 A 
ATOM     27  C   UNL A   1      40.506  22.985  27.963  1.00  0.00     0.016 A 
ATOM     28  C   UNL A   1      39.842  25.284  26.530  1.00  0.00     0.010 A 
ATOM     29  C   UNL A   1      41.009  24.228  28.359  1.00  0.00     0.010 A 
ATOM     30  C   UNL A   1      40.733  25.384  27.608  1.00  0.00    -0.014 A 
BRANCH  30  31
ATOM     31  C   UNL A   1      41.413  26.675  27.913  1.00  0.00     0.031 A 
ATOM     32  C   UNL A   1      40.721  27.716  28.758  1.00  0.00     0.074 A 
ATOM     33  C   UNL A   1      42.661  26.912  27.460  1.00  0.00     0.049 A 
ATOM     34  N   UNL A   1      41.068  28.958  28.995  1.00  0.00    -0.248 NA
ATOM     35  C   UNL A   1      39.467  27.314  29.417  1.00  0.00     0.031 C 
ATOM     36  C   UNL A   1      43.472  25.975  26.684  1.00  0.00     0.029 A 
ATOM     37  N   UNL A   1      43.472  28.013  27.598  1.00  0.00    -0.354 N 
ATOM     38  C   UNL A   1      40.058  29.492  29.786  1.00  0.00     0.074 A 
ATOM     39  C   UNL A   1      39.074  28.449  29.979  1.00  0.00     0.031 C 
ATOM     40  C   UNL A   1      44.677  26.516  26.457  1.00  0.00     0.029 A 
ATOM     41  C   UNL A   1      44.693  27.875  26.983  1.00  0.00     0.049 A 
ATOM     42  H   UNL A   1      43.204  28.822  28.091  1.00  0.00     0.167 HD
ATOM     43  C   UNL A   1      39.965  30.738  30.310  1.00  0.00     0.037 A 
ATOM     44  C   UNL A   1      45.699  28.756  26.821  1.00  0.00     0.037 A 
ATOM     45  C   UNL A   1      40.975  31.755  30.166  1.00  0.00     0.049 A 
ATOM     46  C   UNL A   1      45.542  30.153  27.353  1.00  0.00     0.074 A 
ATOM     47  C   UNL A   1      40.979  33.043  30.672  1.00  0.00     0.029 A 
ATOM     48  N   UNL A   1      42.168  31.592  29.477  1.00  0.00    -0.354 N 
ATOM     49  N   UNL A   1      44.557  30.665  28.047  1.00  0.00    -0.248 NA
ATOM     50  C   UNL A   1      46.625  31.101  27.055  1.00  0.00     0.031 C 
ATOM     51  C   UNL A   1      42.157  33.673  30.258  1.00  0.00     0.029 A 
ATOM     52  C   UNL A   1      42.906  32.763  29.531  1.00  0.00     0.049 A 
ATOM     53  H   UNL A   1      42.449  30.766  29.021  1.00  0.00     0.167 HD
ATOM     54  C   UNL A   1      44.900  31.991  28.274  1.00  0.00     0.074 A 
ATOM     55  C   UNL A   1      46.198  32.197  27.665  1.00  0.00     0.031 C 
ATOM     56  C   UNL A   1      44.196  32.953  28.919  1.00  0.00     0.037 A 
BRANCH  43  57
ATOM     57  C   UNL A   1      38.727  31.091  31.084  1.00  0.00     0.064 A 
ATOM     58  C   UNL A   1      38.661  30.951  32.478  1.00  0.00     0.173 A 
ATOM     59  C   UNL A   1      37.620  31.655  30.429  1.00  0.00     0.173 A 
ATOM     60  F   UNL A   1      39.687  30.408  33.150  1.00  0.00    -0.203 F 
ATOM     61  C   UNL A   1      37.529  31.350  33.185  1.00  0.00     0.198 A 
ATOM     62  C   UNL A   1      36.502  32.078  31.141  1.00  0.00     0.198 A 
ATOM     63  F   UNL A   1      37.634  31.818  29.097  1.00  0.00    -0.203 F 
ATOM     64  F   UNL A   1      37.476  31.180  34.513  1.00  0.00    -0.200 F 
ATOM     65  C   UNL A   1      36.456  31.923  32.518  1.00  0.00     0.200 A 
ATOM     66  F   UNL A   1      35.473  32.646  30.497  1.00  0.00    -0.200 F 
ATOM     67  F   UNL A   1      35.376  32.325  33.203  1.00  0.00    -0.200 F 
ENDBRANCH  43  57
BRANCH  44  68
ATOM     68  C   UNL A   1      46.926  28.348  26.088  1.00  0.00     0.064 A 
ATOM     69  C   UNL A   1      48.143  28.182  26.763  1.00  0.00     0.173 A 
ATOM     70  C   UNL A   1      46.907  28.094  24.708  1.00  0.00     0.173 A 
ATOM     71  F   UNL A   1      48.221  28.438  28.077  1.00  0.00    -0.203 F 
ATOM     72  C   UNL A   1      49.293  27.779  26.086  1.00  0.00     0.198 A 
ATOM     73  C   UNL A   1      48.048  27.660  24.038  1.00  0.00     0.198 A 
ATOM     74  F   UNL A   1      45.768  28.242  24.014  1.00  0.00    -0.203 F 
ATOM     75  F   UNL A   1      50.451  27.660  26.748  1.00  0.00    -0.200 F 
ATOM     76  C   UNL A   1      49.242  27.508  24.726  1.00  0.00     0.200 A 
ATOM     77  F   UNL A   1      47.988  27.384  22.728  1.00  0.00    -0.200 F 
ATOM     78  F   UNL A   1      50.343  27.104  24.078  1.00  0.00    -0.200 F 
ENDBRANCH  44  68
BRANCH  56  79
ATOM     79  C   UNL A   1      44.811  34.317  29.006  1.00  0.00     0.064 A 
ATOM     80  C   UNL A   1      45.701  34.649  30.038  1.00  0.00     0.173 A 
ATOM     81  C   UNL A   1      44.566  35.276  28.012  1.00  0.00     0.173 A 
ATOM     82  F   UNL A   1      45.955  33.770  31.019  1.00  0.00    -0.203 F 
ATOM     83  C   UNL A   1      46.315  35.898  30.076  1.00  0.00     0.198 A 
ATOM     84  C   UNL A   1      45.203  36.513  28.039  1.00  0.00     0.198 A 
ATOM     85  F   UNL A   1      43.728  35.003  27.001  1.00  0.00    -0.203 F 
ATOM     86  F   UNL A   1      47.138  36.206  31.087  1.00  0.00    -0.200 F 
ATOM     87  C   UNL A   1      46.074  36.824  29.073  1.00  0.00     0.200 A 
ATOM     88  F   UNL A   1      44.980  37.402  27.061  1.00  0.00    -0.200 F 
ATOM     89  F   UNL A   1      46.681  38.019  29.103  1.00  0.00    -0.200 F 
ENDBRANCH  56  79
ENDBRANCH  30  31
ENDBRANCH  23  25
ENDBRANCH  22  23
ENDBRANCH   1  22
TORSDOF 12
ENDMDL
MODEL 3
REMARK VINA RESULT:     -11.2      5.174     12.022
REMARK SMILES Cc1c(Cl)ccc2c1C=C(C(=O)OCCOC(=O)c1ccc(-c3c4nc(c(-c5c(F)c(F)c(F)c(F)c5F)c5ccc([nH]5)c(-c5c(F)c(F)c(F)c(F)c5F)c5nc(c(-c6c(F)c(F)c(F)c(F)c6F)c6ccc3[nH]6)C=C5)C=C4)cc1)[C@@H](C(F)(F)F)O2
REMARK SMILES IDX 15 1 14 2 13 3 11 4 12 5 10 6 1 7 2 8 3 9 8 10 4 11 5 12
REMARK SMILES IDX 7 13 9 14 6 15 87 16 82 17 83 18 84 19 85 20 86 21 16 22
REMARK SMILES IDX 17 23 18 24 19 25 20 26 81 27 21 28 80 29 22 30 23 31 24 32
REMARK SMILES IDX 74 33 25 34 79 35 73 36 75 37 26 38 78 39 72 40 71 41 27 43
REMARK SMILES IDX 59 44 39 45 58 46 40 47 43 48 57 49 76 50 41 51 42 52 56 54
REMARK SMILES IDX 77 55 44 56 28 57 29 58 37 59 30 60 31 61 35 62 38 63 32 64
REMARK SMILES IDX 33 65 36 66 34 67 60 68 61 69 69 70 62 71 63 72 67 73 70 74
REMARK SMILES IDX 64 75 65 76 68 77 66 78 45 79 46 80 54 81 47 82 48 83 52 84
REMARK SMILES IDX 55 85 49 86 50 87 53 88 51 89
REMARK H PARENT 75 42 43 53
REMARK Flexibility Score: inf
ROOT
ATOM      1  C   UNL A   1      40.859  19.878  26.219  1.00  0.00     0.275 C 
ENDROOT
BRANCH   1   2
ATOM      2  C   UNL A   1      42.253  19.763  26.835  1.00  0.00     0.275 C 
BRANCH   2   3
ATOM      3  O   UNL A   1      43.262  20.282  25.943  1.00  0.00    -0.459 OA
BRANCH   3   4
ATOM      4  C   UNL A   1      43.206  21.616  25.717  1.00  0.00     0.338 C 
ATOM      5  O   UNL A   1      42.330  22.220  25.126  1.00  0.00    -0.246 OA
BRANCH   4   6
ATOM      6  C   UNL A   1      44.375  22.284  26.320  1.00  0.00     0.087 C 
ATOM      7  C   UNL A   1      43.893  24.278  30.104  1.00  0.00     0.047 C 
ATOM      8  C   UNL A   1      45.158  24.390  29.287  1.00  0.00    -0.021 A 
ATOM      9  C   UNL A   1      46.222  25.216  29.696  1.00  0.00     0.044 A 
ATOM     10  C   UNL A   1      45.294  23.673  28.068  1.00  0.00     0.022 A 
ATOM     11  Cl  UNL A   1      46.148  26.192  31.122  1.00  0.00    -0.084 Cl
ATOM     12  C   UNL A   1      47.398  25.294  28.945  1.00  0.00     0.024 A 
ATOM     13  C   UNL A   1      46.488  23.746  27.336  1.00  0.00     0.128 A 
ATOM     14  C   UNL A   1      44.208  22.875  27.509  1.00  0.00     0.027 C 
ATOM     15  C   UNL A   1      47.537  24.548  27.779  1.00  0.00     0.048 A 
ATOM     16  O   UNL A   1      46.732  23.052  26.184  1.00  0.00    -0.475 OA
ATOM     17  C   UNL A   1      45.636  22.375  25.518  1.00  0.00     0.316 C 
BRANCH  17  18
ATOM     18  C   UNL A   1      45.394  23.044  24.155  1.00  0.00     0.430 C 
ATOM     19  F   UNL A   1      44.831  22.182  23.275  1.00  0.00    -0.167 F 
ATOM     20  F   UNL A   1      44.546  24.096  24.259  1.00  0.00    -0.167 F 
ATOM     21  F   UNL A   1      46.540  23.501  23.601  1.00  0.00    -0.167 F 
ENDBRANCH  17  18
ENDBRANCH   4   6
ENDBRANCH   3   4
ENDBRANCH   2   3
ENDBRANCH   1   2
BRANCH   1  22
ATOM     22  O   UNL A   1      40.007  20.683  27.054  1.00  0.00    -0.458 OA
BRANCH  22  23
ATOM     23  C   UNL A   1      39.316  21.650  26.411  1.00  0.00     0.338 C 
ATOM     24  O   UNL A   1      38.472  21.508  25.540  1.00  0.00    -0.246 OA
BRANCH  23  25
ATOM     25  C   UNL A   1      39.683  22.975  26.933  1.00  0.00     0.060 A 
ATOM     26  C   UNL A   1      39.314  24.120  26.231  1.00  0.00     0.016 A 
ATOM     27  C   UNL A   1      40.556  23.068  28.016  1.00  0.00     0.016 A 
ATOM     28  C   UNL A   1      39.932  25.334  26.514  1.00  0.00     0.010 A 
ATOM     29  C   UNL A   1      41.081  24.314  28.375  1.00  0.00     0.010 A 
ATOM     30  C   UNL A   1      40.824  25.452  27.590  1.00  0.00    -0.014 A 
BRANCH  30  31
ATOM     31  C   UNL A   1      41.527  26.740  27.857  1.00  0.00     0.031 A 
ATOM     32  C   UNL A   1      40.858  27.811  28.684  1.00  0.00     0.074 A 
ATOM     33  C   UNL A   1      42.773  26.947  27.387  1.00  0.00     0.049 A 
ATOM     34  N   UNL A   1      41.226  29.052  28.888  1.00  0.00    -0.248 NA
ATOM     35  C   UNL A   1      39.606  27.442  29.365  1.00  0.00     0.031 C 
ATOM     36  C   UNL A   1      43.563  25.980  26.625  1.00  0.00     0.029 A 
ATOM     37  N   UNL A   1      43.602  28.039  27.491  1.00  0.00    -0.354 N 
ATOM     38  C   UNL A   1      40.232  29.620  29.676  1.00  0.00     0.074 A 
ATOM     39  C   UNL A   1      39.235  28.596  29.903  1.00  0.00     0.031 C 
ATOM     40  C   UNL A   1      44.773  26.497  26.374  1.00  0.00     0.029 A 
ATOM     41  C   UNL A   1      44.814  27.868  26.867  1.00  0.00     0.049 A 
ATOM     42  H   UNL A   1      43.350  28.863  27.966  1.00  0.00     0.167 HD
ATOM     43  C   UNL A   1      40.163  30.879  30.171  1.00  0.00     0.037 A 
ATOM     44  C   UNL A   1      45.831  28.730  26.673  1.00  0.00     0.037 A 
ATOM     45  C   UNL A   1      41.185  31.877  29.992  1.00  0.00     0.049 A 
ATOM     46  C   UNL A   1      45.700  30.141  27.174  1.00  0.00     0.074 A 
ATOM     47  C   UNL A   1      41.214  33.177  30.468  1.00  0.00     0.029 A 
ATOM     48  N   UNL A   1      42.369  31.680  29.296  1.00  0.00    -0.354 N 
ATOM     49  N   UNL A   1      44.729  30.685  27.865  1.00  0.00    -0.248 NA
ATOM     50  C   UNL A   1      46.793  31.066  26.842  1.00  0.00     0.031 C 
ATOM     51  C   UNL A   1      42.396  33.779  30.027  1.00  0.00     0.029 A 
ATOM     52  C   UNL A   1      43.124  32.841  29.314  1.00  0.00     0.049 A 
ATOM     53  H   UNL A   1      42.633  30.840  28.857  1.00  0.00     0.167 HD
ATOM     54  C   UNL A   1      45.094  32.010  28.057  1.00  0.00     0.074 A 
ATOM     55  C   UNL A   1      46.388  32.183  27.431  1.00  0.00     0.031 C 
ATOM     56  C   UNL A   1      44.411  32.997  28.685  1.00  0.00     0.037 A 
BRANCH  43  57
ATOM     57  C   UNL A   1      38.938  31.269  30.947  1.00  0.00     0.064 A 
ATOM     58  C   UNL A   1      37.801  31.798  30.318  1.00  0.00     0.173 A 
ATOM     59  C   UNL A   1      38.871  31.033  32.330  1.00  0.00     0.173 A 
ATOM     60  F   UNL A   1      37.816  32.052  29.002  1.00  0.00    -0.203 F 
ATOM     61  C   UNL A   1      36.649  32.088  31.047  1.00  0.00     0.198 A 
ATOM     62  C   UNL A   1      37.710  31.298  33.050  1.00  0.00     0.198 A 
ATOM     63  F   UNL A   1      39.928  30.521  32.980  1.00  0.00    -0.203 F 
ATOM     64  F   UNL A   1      35.585  32.620  30.430  1.00  0.00    -0.200 F 
ATOM     65  C   UNL A   1      36.601  31.828  32.408  1.00  0.00     0.200 A 
ATOM     66  F   UNL A   1      37.659  31.031  34.362  1.00  0.00    -0.200 F 
ATOM     67  F   UNL A   1      35.484  32.089  33.103  1.00  0.00    -0.200 F 
ENDBRANCH  43  57
BRANCH  44  68
ATOM     68  C   UNL A   1      47.045  28.286  25.939  1.00  0.00     0.064 A 
ATOM     69  C   UNL A   1      47.009  28.074  24.554  1.00  0.00     0.173 A 
ATOM     70  C   UNL A   1      48.269  28.087  26.598  1.00  0.00     0.173 A 
ATOM     71  F   UNL A   1      45.859  28.225  23.883  1.00  0.00    -0.203 F 
ATOM     72  C   UNL A   1      48.150  27.679  23.857  1.00  0.00     0.198 A 
ATOM     73  C   UNL A   1      49.415  27.724  25.896  1.00  0.00     0.198 A 
ATOM     74  F   UNL A   1      48.355  28.273  27.923  1.00  0.00    -0.203 F 
ATOM     75  F   UNL A   1      48.081  27.450  22.539  1.00  0.00    -0.200 F 
ATOM     76  C   UNL A   1      49.354  27.515  24.527  1.00  0.00     0.200 A 
ATOM     77  F   UNL A   1      50.578  27.583  26.545  1.00  0.00    -0.200 F 
ATOM     78  F   UNL A   1      50.454  27.151  23.853  1.00  0.00    -0.200 F 
ENDBRANCH  44  68
BRANCH  56  79
ATOM     79  C   UNL A   1      45.046  34.354  28.734  1.00  0.00     0.064 A 
ATOM     80  C   UNL A   1      44.761  35.326  27.763  1.00  0.00     0.173 A 
ATOM     81  C   UNL A   1      45.888  34.711  29.796  1.00  0.00     0.173 A 
ATOM     82  F   UNL A   1      43.973  35.026  26.719  1.00  0.00    -0.203 F 
ATOM     83  C   UNL A   1      45.307  36.603  27.850  1.00  0.00     0.198 A 
ATOM     84  C   UNL A   1      46.409  35.998  29.895  1.00  0.00     0.198 A 
ATOM     85  F   UNL A   1      46.184  33.819  30.754  1.00  0.00    -0.203 F 
ATOM     86  F   UNL A   1      45.047  37.507  26.895  1.00  0.00    -0.200 F 
ATOM     87  C   UNL A   1      46.121  36.942  28.920  1.00  0.00     0.200 A 
ATOM     88  F   UNL A   1      47.185  36.328  30.937  1.00  0.00    -0.200 F 
ATOM     89  F   UNL A   1      46.631  38.177  29.011  1.00  0.00    -0.200 F 
ENDBRANCH  56  79
ENDBRANCH  30  31
ENDBRANCH  23  25
ENDBRANCH  22  23
ENDBRANCH   1  22
TORSDOF 12
ENDMDL
