MODEL 1
REMARK VINA RESULT:     -11.3      0.000      0.000
REMARK SMILES Cc1cccc(C[NH+]2CCC(OCC(=O)OCCOC(=O)c3ccc(-c4c5nc(c(-c6c(F)c(F)c(F)c(F)c6F)c6ccc([nH]6)c(-c6c(F)c(F)c(F)c(F)c6F)c6nc(c(-c7c(F)c(F)c(F)c(F)c7F)c7ccc4[nH]7)C=C6)C=C5)cc3)CC2)n1
REMARK SMILES IDX 17 1 16 2 14 3 15 4 13 5 12 6 11 7 8 8 9 9 86 10 10 12 85 13
REMARK SMILES IDX 7 14 6 15 1 16 2 17 3 18 87 19 4 20 5 21 18 22 19 23 20 24
REMARK SMILES IDX 21 25 22 26 23 27 84 28 24 29 83 30 25 31 26 32 27 33 77 34
REMARK SMILES IDX 28 35 82 36 76 37 78 38 29 39 81 40 75 41 74 42 30 44 62 45
REMARK SMILES IDX 42 46 61 47 43 48 46 49 60 50 79 51 44 52 45 53 59 55 80 56
REMARK SMILES IDX 47 57 31 58 32 59 40 60 33 61 34 62 38 63 41 64 35 65 36 66
REMARK SMILES IDX 39 67 37 68 63 69 64 70 72 71 65 72 66 73 70 74 73 75 67 76
REMARK SMILES IDX 68 77 71 78 69 79 48 80 49 81 57 82 50 83 51 84 55 85 58 86
REMARK SMILES IDX 52 87 53 88 56 89 54 90
REMARK H PARENT 8 11 78 43 46 54
REMARK Flexibility Score: inf
ROOT
ATOM      1  C   UNL A   1      41.714  19.371  26.122  1.00  0.00     0.274 C 
ENDROOT
BRANCH   1   2
ATOM      2  O   UNL A   1      41.551  20.778  25.803  1.00  0.00    -0.460 OA
BRANCH   2   3
ATOM      3  C   UNL A   1      41.293  21.613  26.848  1.00  0.00     0.332 C 
ATOM      4  O   UNL A   1      42.127  21.924  27.699  1.00  0.00    -0.250 OA
BRANCH   3   5
ATOM      5  C   UNL A   1      39.840  22.156  26.897  1.00  0.00     0.283 C 
BRANCH   5   6
ATOM      6  O   UNL A   1      39.141  22.936  25.948  1.00  0.00    -0.366 OA
BRANCH   6   7
ATOM      7  C   UNL A   1      37.868  22.499  25.437  1.00  0.00     0.130 C 
ATOM      8  N   UNL A   1      35.307  21.242  25.981  1.00  0.00    -0.330 N 
ATOM      9  C   UNL A   1      36.180  20.610  25.000  1.00  0.00     0.265 C 
ATOM     10  C   UNL A   1      35.358  22.702  25.854  1.00  0.00     0.265 C 
ATOM     11  H   UNL A   1      35.683  20.988  26.894  1.00  0.00     0.348 HD
ATOM     12  C   UNL A   1      37.643  20.983  25.289  1.00  0.00     0.093 C 
ATOM     13  C   UNL A   1      36.744  23.269  26.126  1.00  0.00     0.093 C 
BRANCH   8  14
ATOM     14  C   UNL A   1      33.935  20.708  26.040  1.00  0.00     0.319 C 
BRANCH  14  15
ATOM     15  C   UNL A   1      33.441  19.940  24.830  1.00  0.00     0.095 A 
ATOM     16  C   UNL A   1      33.659  16.422  23.809  1.00  0.00     0.067 C 
ATOM     17  C   UNL A   1      33.328  17.880  23.742  1.00  0.00     0.038 A 
ATOM     18  C   UNL A   1      32.493  18.401  22.766  1.00  0.00     0.023 A 
ATOM     19  N   UNL A   1      33.824  18.641  24.739  1.00  0.00    -0.252 NA
ATOM     20  C   UNL A   1      32.154  19.752  22.826  1.00  0.00     0.004 A 
ATOM     21  C   UNL A   1      32.622  20.534  23.878  1.00  0.00     0.030 A 
ENDBRANCH  14  15
ENDBRANCH   8  14
ENDBRANCH   6   7
ENDBRANCH   5   6
ENDBRANCH   3   5
ENDBRANCH   2   3
ENDBRANCH   1   2
BRANCH   1  22
ATOM     22  C   UNL A   1      43.090  18.805  25.694  1.00  0.00     0.275 C 
BRANCH  22  23
ATOM     23  O   UNL A   1      43.517  19.152  24.350  1.00  0.00    -0.458 OA
BRANCH  23  24
ATOM     24  C   UNL A   1      44.791  19.581  24.306  1.00  0.00     0.338 C 
ATOM     25  O   UNL A   1      45.751  18.890  24.026  1.00  0.00    -0.246 OA
BRANCH  24  26
ATOM     26  C   UNL A   1      45.049  20.994  24.565  1.00  0.00     0.060 A 
ATOM     27  C   UNL A   1      45.616  21.272  25.818  1.00  0.00     0.016 A 
ATOM     28  C   UNL A   1      44.519  22.011  23.775  1.00  0.00     0.016 A 
ATOM     29  C   UNL A   1      45.620  22.565  26.307  1.00  0.00     0.010 A 
ATOM     30  C   UNL A   1      44.567  23.327  24.251  1.00  0.00     0.010 A 
ATOM     31  C   UNL A   1      45.110  23.603  25.518  1.00  0.00    -0.014 A 
BRANCH  31  32
ATOM     32  C   UNL A   1      45.300  24.989  25.994  1.00  0.00     0.031 A 
ATOM     33  C   UNL A   1      44.192  25.767  26.625  1.00  0.00     0.074 A 
ATOM     34  C   UNL A   1      46.541  25.498  25.899  1.00  0.00     0.049 A 
ATOM     35  N   UNL A   1      44.205  26.997  27.069  1.00  0.00    -0.248 NA
ATOM     36  C   UNL A   1      42.902  25.080  26.786  1.00  0.00     0.031 C 
ATOM     37  C   UNL A   1      47.697  24.782  25.351  1.00  0.00     0.029 A 
ATOM     38  N   UNL A   1      47.043  26.715  26.268  1.00  0.00    -0.354 N 
ATOM     39  C   UNL A   1      42.928  27.242  27.551  1.00  0.00     0.074 A 
ATOM     40  C   UNL A   1      42.160  26.030  27.342  1.00  0.00     0.031 C 
ATOM     41  C   UNL A   1      48.776  25.570  25.430  1.00  0.00     0.029 A 
ATOM     42  C   UNL A   1      48.376  26.858  25.982  1.00  0.00     0.049 A 
ATOM     43  H   UNL A   1      46.502  27.416  26.697  1.00  0.00     0.167 HD
ATOM     44  C   UNL A   1      42.453  28.380  28.111  1.00  0.00     0.037 A 
ATOM     45  C   UNL A   1      49.182  27.925  26.119  1.00  0.00     0.037 A 
ATOM     46  C   UNL A   1      43.242  29.570  28.319  1.00  0.00     0.049 A 
ATOM     47  C   UNL A   1      48.615  29.185  26.694  1.00  0.00     0.074 A 
ATOM     48  C   UNL A   1      42.859  30.773  28.885  1.00  0.00     0.029 A 
ATOM     49  N   UNL A   1      44.577  29.704  27.964  1.00  0.00    -0.354 N 
ATOM     50  N   UNL A   1      47.398  29.418  27.120  1.00  0.00    -0.248 NA
ATOM     51  C   UNL A   1      49.524  30.331  26.796  1.00  0.00     0.031 C 
ATOM     52  C   UNL A   1      43.952  31.647  28.842  1.00  0.00     0.029 A 
ATOM     53  C   UNL A   1      45.028  30.976  28.279  1.00  0.00     0.049 A 
ATOM     54  H   UNL A   1      45.124  28.998  27.549  1.00  0.00     0.167 HD
ATOM     55  C   UNL A   1      47.390  30.737  27.541  1.00  0.00     0.074 A 
ATOM     56  C   UNL A   1      48.733  31.247  27.337  1.00  0.00     0.031 C 
ATOM     57  C   UNL A   1      46.363  31.463  28.046  1.00  0.00     0.037 A 
BRANCH  44  58
ATOM     58  C   UNL A   1      41.009  28.415  28.513  1.00  0.00     0.064 A 
ATOM     59  C   UNL A   1      40.589  28.006  29.785  1.00  0.00     0.173 A 
ATOM     60  C   UNL A   1      40.043  28.922  27.631  1.00  0.00     0.173 A 
ATOM     61  F   UNL A   1      41.472  27.500  30.659  1.00  0.00    -0.203 F 
ATOM     62  C   UNL A   1      39.250  28.098  30.159  1.00  0.00     0.198 A 
ATOM     63  C   UNL A   1      38.708  29.028  28.014  1.00  0.00     0.198 A 
ATOM     64  F   UNL A   1      40.396  29.328  26.402  1.00  0.00    -0.203 F 
ATOM     65  F   UNL A   1      38.863  27.679  31.373  1.00  0.00    -0.200 F 
ATOM     66  C   UNL A   1      38.312  28.615  29.277  1.00  0.00     0.200 A 
ATOM     67  F   UNL A   1      37.805  29.533  27.162  1.00  0.00    -0.200 F 
ATOM     68  F   UNL A   1      37.025  28.708  29.641  1.00  0.00    -0.200 F 
ENDBRANCH  44  58
BRANCH  45  69
ATOM     69  C   UNL A   1      50.590  27.824  25.669  1.00  0.00     0.064 A 
ATOM     70  C   UNL A   1      50.926  27.944  24.317  1.00  0.00     0.173 A 
ATOM     71  C   UNL A   1      51.632  27.686  26.598  1.00  0.00     0.173 A 
ATOM     72  F   UNL A   1      49.961  28.064  23.394  1.00  0.00    -0.203 F 
ATOM     73  C   UNL A   1      52.258  27.933  23.907  1.00  0.00     0.198 A 
ATOM     74  C   UNL A   1      52.963  27.699  26.191  1.00  0.00     0.198 A 
ATOM     75  F   UNL A   1      51.356  27.578  27.906  1.00  0.00    -0.203 F 
ATOM     76  F   UNL A   1      52.557  28.035  22.606  1.00  0.00    -0.200 F 
ATOM     77  C   UNL A   1      53.275  27.822  24.847  1.00  0.00     0.200 A 
ATOM     78  F   UNL A   1      53.941  27.610  27.103  1.00  0.00    -0.200 F 
ATOM     79  F   UNL A   1      54.556  27.835  24.454  1.00  0.00    -0.200 F 
ENDBRANCH  45  69
BRANCH  57  80
ATOM     80  C   UNL A   1      46.664  32.885  28.401  1.00  0.00     0.064 A 
ATOM     81  C   UNL A   1      46.478  33.918  27.472  1.00  0.00     0.173 A 
ATOM     82  C   UNL A   1      47.137  33.217  29.678  1.00  0.00     0.173 A 
ATOM     83  F   UNL A   1      46.046  33.641  26.233  1.00  0.00    -0.203 F 
ATOM     84  C   UNL A   1      46.776  35.236  27.804  1.00  0.00     0.198 A 
ATOM     85  C   UNL A   1      47.417  34.539  30.012  1.00  0.00     0.198 A 
ATOM     86  F   UNL A   1      47.330  32.260  30.597  1.00  0.00    -0.203 F 
ATOM     87  F   UNL A   1      46.631  36.205  26.890  1.00  0.00    -0.200 F 
ATOM     88  C   UNL A   1      47.242  35.546  29.073  1.00  0.00     0.200 A 
ATOM     89  F   UNL A   1      47.863  34.837  31.239  1.00  0.00    -0.200 F 
ATOM     90  F   UNL A   1      47.533  36.815  29.390  1.00  0.00    -0.200 F 
ENDBRANCH  57  80
ENDBRANCH  31  32
ENDBRANCH  24  26
ENDBRANCH  23  24
ENDBRANCH  22  23
ENDBRANCH   1  22
TORSDOF 15
ENDMDL
MODEL 2
REMARK VINA RESULT:     -11.3      5.466      8.350
REMARK SMILES Cc1cccc(C[NH+]2CCC(OCC(=O)OCCOC(=O)c3ccc(-c4c5nc(c(-c6c(F)c(F)c(F)c(F)c6F)c6ccc([nH]6)c(-c6c(F)c(F)c(F)c(F)c6F)c6nc(c(-c7c(F)c(F)c(F)c(F)c7F)c7ccc4[nH]7)C=C6)C=C5)cc3)CC2)n1
REMARK SMILES IDX 17 1 16 2 14 3 15 4 13 5 12 6 11 7 8 8 9 9 86 10 10 12 85 13
REMARK SMILES IDX 7 14 6 15 1 16 2 17 3 18 87 19 4 20 5 21 18 22 19 23 20 24
REMARK SMILES IDX 21 25 22 26 23 27 84 28 24 29 83 30 25 31 26 32 27 33 77 34
REMARK SMILES IDX 28 35 82 36 76 37 78 38 29 39 81 40 75 41 74 42 30 44 62 45
REMARK SMILES IDX 42 46 61 47 43 48 46 49 60 50 79 51 44 52 45 53 59 55 80 56
REMARK SMILES IDX 47 57 31 58 32 59 40 60 33 61 34 62 38 63 41 64 35 65 36 66
REMARK SMILES IDX 39 67 37 68 63 69 64 70 72 71 65 72 66 73 70 74 73 75 67 76
REMARK SMILES IDX 68 77 71 78 69 79 48 80 49 81 57 82 50 83 51 84 55 85 58 86
REMARK SMILES IDX 52 87 53 88 56 89 54 90
REMARK H PARENT 8 11 78 43 46 54
REMARK Flexibility Score: inf
ROOT
ATOM      1  C   UNL A   1      44.089  21.265  25.487  1.00  0.00     0.274 C 
ENDROOT
BRANCH   1   2
ATOM      2  O   UNL A   1      43.563  20.023  24.947  1.00  0.00    -0.460 OA
BRANCH   2   3
ATOM      3  C   UNL A   1      42.728  19.313  25.755  1.00  0.00     0.332 C 
ATOM      4  O   UNL A   1      42.653  18.084  25.752  1.00  0.00    -0.250 OA
BRANCH   3   5
ATOM      5  C   UNL A   1      41.854  20.179  26.702  1.00  0.00     0.283 C 
BRANCH   5   6
ATOM      6  O   UNL A   1      40.447  20.234  26.824  1.00  0.00    -0.366 OA
BRANCH   6   7
ATOM      7  C   UNL A   1      39.687  21.210  26.089  1.00  0.00     0.130 C 
ATOM      8  N   UNL A   1      37.339  22.916  25.978  1.00  0.00    -0.330 N 
ATOM      9  C   UNL A   1      37.501  21.914  24.933  1.00  0.00     0.265 C 
ATOM     10  C   UNL A   1      38.631  23.523  26.317  1.00  0.00     0.265 C 
ATOM     11  H   UNL A   1      36.999  22.413  26.798  1.00  0.00     0.348 HD
ATOM     12  C   UNL A   1      38.360  20.751  25.457  1.00  0.00     0.093 C 
ATOM     13  C   UNL A   1      39.626  22.516  26.877  1.00  0.00     0.093 C 
BRANCH   8  14
ATOM     14  C   UNL A   1      36.273  23.905  25.744  1.00  0.00     0.319 C 
BRANCH  14  15
ATOM     15  C   UNL A   1      34.851  23.468  26.035  1.00  0.00     0.095 A 
ATOM     16  C   UNL A   1      31.805  23.260  24.000  1.00  0.00     0.067 C 
ATOM     17  C   UNL A   1      32.692  23.179  25.203  1.00  0.00     0.038 A 
ATOM     18  C   UNL A   1      32.278  22.581  26.383  1.00  0.00     0.023 A 
ATOM     19  N   UNL A   1      33.946  23.647  25.039  1.00  0.00    -0.252 NA
ATOM     20  C   UNL A   1      33.193  22.457  27.427  1.00  0.00     0.004 A 
ATOM     21  C   UNL A   1      34.503  22.894  27.252  1.00  0.00     0.030 A 
ENDBRANCH  14  15
ENDBRANCH   8  14
ENDBRANCH   6   7
ENDBRANCH   5   6
ENDBRANCH   3   5
ENDBRANCH   2   3
ENDBRANCH   1   2
BRANCH   1  22
ATOM     22  C   UNL A   1      43.876  22.476  24.546  1.00  0.00     0.275 C 
BRANCH  22  23
ATOM     23  O   UNL A   1      43.064  23.552  25.088  1.00  0.00    -0.458 OA
BRANCH  23  24
ATOM     24  C   UNL A   1      43.768  24.682  25.286  1.00  0.00     0.338 C 
ATOM     25  O   UNL A   1      44.637  25.100  24.547  1.00  0.00    -0.246 OA
BRANCH  24  26
ATOM     26  C   UNL A   1      43.441  25.500  26.449  1.00  0.00     0.060 A 
ATOM     27  C   UNL A   1      42.453  24.966  27.290  1.00  0.00     0.016 A 
ATOM     28  C   UNL A   1      43.848  26.826  26.573  1.00  0.00     0.016 A 
ATOM     29  C   UNL A   1      41.838  25.766  28.235  1.00  0.00     0.010 A 
ATOM     30  C   UNL A   1      43.257  27.622  27.561  1.00  0.00     0.010 A 
ATOM     31  C   UNL A   1      42.248  27.096  28.387  1.00  0.00    -0.014 A 
BRANCH  31  32
ATOM     32  C   UNL A   1      41.700  27.861  29.524  1.00  0.00     0.031 A 
ATOM     33  C   UNL A   1      40.441  28.657  29.408  1.00  0.00     0.074 A 
ATOM     34  C   UNL A   1      42.349  27.754  30.697  1.00  0.00     0.049 A 
ATOM     35  N   UNL A   1      39.852  29.395  30.314  1.00  0.00    -0.248 NA
ATOM     36  C   UNL A   1      39.744  28.619  28.114  1.00  0.00     0.031 C 
ATOM     37  C   UNL A   1      43.554  26.947  30.913  1.00  0.00     0.029 A 
ATOM     38  N   UNL A   1      42.087  28.302  31.922  1.00  0.00    -0.354 N 
ATOM     39  C   UNL A   1      38.725  29.922  29.702  1.00  0.00     0.074 A 
ATOM     40  C   UNL A   1      38.711  29.421  28.342  1.00  0.00     0.031 C 
ATOM     41  C   UNL A   1      43.920  27.044  32.196  1.00  0.00     0.029 A 
ATOM     42  C   UNL A   1      43.011  27.959  32.875  1.00  0.00     0.049 A 
ATOM     43  H   UNL A   1      41.313  28.882  32.101  1.00  0.00     0.167 HD
ATOM     44  C   UNL A   1      37.797  30.750  30.238  1.00  0.00     0.037 A 
ATOM     45  C   UNL A   1      43.131  28.365  34.151  1.00  0.00     0.037 A 
ATOM     46  C   UNL A   1      37.826  31.226  31.600  1.00  0.00     0.049 A 
ATOM     47  C   UNL A   1      42.119  29.321  34.700  1.00  0.00     0.074 A 
ATOM     48  C   UNL A   1      36.930  32.061  32.244  1.00  0.00     0.029 A 
ATOM     49  N   UNL A   1      38.810  30.907  32.526  1.00  0.00    -0.354 N 
ATOM     50  N   UNL A   1      41.072  29.838  34.105  1.00  0.00    -0.248 NA
ATOM     51  C   UNL A   1      42.309  29.759  36.086  1.00  0.00     0.031 C 
ATOM     52  C   UNL A   1      37.389  32.274  33.549  1.00  0.00     0.029 A 
ATOM     53  C   UNL A   1      38.554  31.545  33.730  1.00  0.00     0.049 A 
ATOM     54  H   UNL A   1      39.576  30.314  32.353  1.00  0.00     0.167 HD
ATOM     55  C   UNL A   1      40.475  30.665  35.042  1.00  0.00     0.074 A 
ATOM     56  C   UNL A   1      41.267  30.563  36.253  1.00  0.00     0.031 C 
ATOM     57  C   UNL A   1      39.372  31.443  34.911  1.00  0.00     0.037 A 
BRANCH  44  58
ATOM     58  C   UNL A   1      36.685  31.225  29.352  1.00  0.00     0.064 A 
ATOM     59  C   UNL A   1      35.636  30.378  28.968  1.00  0.00     0.173 A 
ATOM     60  C   UNL A   1      36.638  32.563  28.932  1.00  0.00     0.173 A 
ATOM     61  F   UNL A   1      35.642  29.088  29.332  1.00  0.00    -0.203 F 
ATOM     62  C   UNL A   1      34.582  30.854  28.190  1.00  0.00     0.198 A 
ATOM     63  C   UNL A   1      35.576  33.039  28.168  1.00  0.00     0.198 A 
ATOM     64  F   UNL A   1      37.619  33.413  29.275  1.00  0.00    -0.203 F 
ATOM     65  F   UNL A   1      33.601  30.022  27.813  1.00  0.00    -0.200 F 
ATOM     66  C   UNL A   1      34.549  32.184  27.797  1.00  0.00     0.200 A 
ATOM     67  F   UNL A   1      35.543  34.325  27.793  1.00  0.00    -0.200 F 
ATOM     68  F   UNL A   1      33.532  32.640  27.052  1.00  0.00    -0.200 F 
ENDBRANCH  44  58
BRANCH  45  69
ATOM     69  C   UNL A   1      44.276  27.877  34.955  1.00  0.00     0.064 A 
ATOM     70  C   UNL A   1      45.483  28.583  34.996  1.00  0.00     0.173 A 
ATOM     71  C   UNL A   1      44.152  26.735  35.761  1.00  0.00     0.173 A 
ATOM     72  F   UNL A   1      45.649  29.672  34.231  1.00  0.00    -0.203 F 
ATOM     73  C   UNL A   1      46.527  28.166  35.819  1.00  0.00     0.198 A 
ATOM     74  C   UNL A   1      45.186  26.333  36.600  1.00  0.00     0.198 A 
ATOM     75  F   UNL A   1      43.009  26.033  35.760  1.00  0.00    -0.203 F 
ATOM     76  F   UNL A   1      47.679  28.849  35.833  1.00  0.00    -0.200 F 
ATOM     77  C   UNL A   1      46.373  27.049  36.629  1.00  0.00     0.200 A 
ATOM     78  F   UNL A   1      45.026  25.265  37.393  1.00  0.00    -0.200 F 
ATOM     79  F   UNL A   1      47.370  26.663  37.437  1.00  0.00    -0.200 F 
ENDBRANCH  45  69
BRANCH  57  80
ATOM     80  C   UNL A   1      38.976  32.243  36.111  1.00  0.00     0.064 A 
ATOM     81  C   UNL A   1      38.147  31.699  37.102  1.00  0.00     0.173 A 
ATOM     82  C   UNL A   1      39.432  33.559  36.274  1.00  0.00     0.173 A 
ATOM     83  F   UNL A   1      37.674  30.451  36.975  1.00  0.00    -0.203 F 
ATOM     84  C   UNL A   1      37.771  32.455  38.208  1.00  0.00     0.198 A 
ATOM     85  C   UNL A   1      39.067  34.305  37.390  1.00  0.00     0.198 A 
ATOM     86  F   UNL A   1      40.226  34.118  35.350  1.00  0.00    -0.203 F 
ATOM     87  F   UNL A   1      36.944  31.932  39.125  1.00  0.00    -0.200 F 
ATOM     88  C   UNL A   1      38.232  33.755  38.353  1.00  0.00     0.200 A 
ATOM     89  F   UNL A   1      39.517  35.559  37.531  1.00  0.00    -0.200 F 
ATOM     90  F   UNL A   1      37.864  34.483  39.416  1.00  0.00    -0.200 F 
ENDBRANCH  57  80
ENDBRANCH  31  32
ENDBRANCH  24  26
ENDBRANCH  23  24
ENDBRANCH  22  23
ENDBRANCH   1  22
TORSDOF 15
ENDMDL
MODEL 3
REMARK VINA RESULT:     -11.1      8.076     12.682
REMARK SMILES Cc1cccc(C[NH+]2CCC(OCC(=O)OCCOC(=O)c3ccc(-c4c5nc(c(-c6c(F)c(F)c(F)c(F)c6F)c6ccc([nH]6)c(-c6c(F)c(F)c(F)c(F)c6F)c6nc(c(-c7c(F)c(F)c(F)c(F)c7F)c7ccc4[nH]7)C=C6)C=C5)cc3)CC2)n1
REMARK SMILES IDX 17 1 16 2 14 3 15 4 13 5 12 6 11 7 8 8 9 9 86 10 10 12 85 13
REMARK SMILES IDX 7 14 6 15 1 16 2 17 3 18 87 19 4 20 5 21 18 22 19 23 20 24
REMARK SMILES IDX 21 25 22 26 23 27 84 28 24 29 83 30 25 31 26 32 27 33 77 34
REMARK SMILES IDX 28 35 82 36 76 37 78 38 29 39 81 40 75 41 74 42 30 44 62 45
REMARK SMILES IDX 42 46 61 47 43 48 46 49 60 50 79 51 44 52 45 53 59 55 80 56
REMARK SMILES IDX 47 57 31 58 32 59 40 60 33 61 34 62 38 63 41 64 35 65 36 66
REMARK SMILES IDX 39 67 37 68 63 69 64 70 72 71 65 72 66 73 70 74 73 75 67 76
REMARK SMILES IDX 68 77 71 78 69 79 48 80 49 81 57 82 50 83 51 84 55 85 58 86
REMARK SMILES IDX 52 87 53 88 56 89 54 90
REMARK H PARENT 8 11 78 43 46 54
REMARK Flexibility Score: inf
ROOT
ATOM      1  C   UNL A   1      33.953  35.395  29.030  1.00  0.00     0.274 C 
ENDROOT
BRANCH   1   2
ATOM      2  O   UNL A   1      33.438  34.169  28.447  1.00  0.00    -0.460 OA
BRANCH   2   3
ATOM      3  C   UNL A   1      33.998  33.006  28.881  1.00  0.00     0.332 C 
ATOM      4  O   UNL A   1      34.349  32.807  30.044  1.00  0.00    -0.250 OA
BRANCH   3   5
ATOM      5  C   UNL A   1      34.172  31.923  27.782  1.00  0.00     0.283 C 
BRANCH   5   6
ATOM      6  O   UNL A   1      34.388  30.533  27.919  1.00  0.00    -0.366 OA
BRANCH   6   7
ATOM      7  C   UNL A   1      33.568  29.592  27.203  1.00  0.00     0.130 C 
ATOM      8  N   UNL A   1      32.225  28.896  24.723  1.00  0.00    -0.330 N 
ATOM      9  C   UNL A   1      31.407  29.054  25.919  1.00  0.00     0.265 C 
ATOM     10  C   UNL A   1      33.490  28.227  25.046  1.00  0.00     0.265 C 
ATOM     11  H   UNL A   1      32.437  29.842  24.403  1.00  0.00     0.348 HD
ATOM     12  C   UNL A   1      32.111  29.994  26.911  1.00  0.00     0.093 C 
ATOM     13  C   UNL A   1      34.347  29.027  26.017  1.00  0.00     0.093 C 
BRANCH   8  14
ATOM     14  C   UNL A   1      31.535  28.312  23.560  1.00  0.00     0.319 C 
BRANCH  14  15
ATOM     15  C   UNL A   1      30.120  28.783  23.290  1.00  0.00     0.095 A 
ATOM     16  C   UNL A   1      28.697  31.938  22.070  1.00  0.00     0.067 C 
ATOM     17  C   UNL A   1      28.749  30.537  22.595  1.00  0.00     0.038 A 
ATOM     18  C   UNL A   1      27.627  29.722  22.631  1.00  0.00     0.023 A 
ATOM     19  N   UNL A   1      29.971  30.089  22.950  1.00  0.00    -0.252 NA
ATOM     20  C   UNL A   1      27.775  28.399  23.043  1.00  0.00     0.004 A 
ATOM     21  C   UNL A   1      29.039  27.914  23.366  1.00  0.00     0.030 A 
ENDBRANCH  14  15
ENDBRANCH   8  14
ENDBRANCH   6   7
ENDBRANCH   5   6
ENDBRANCH   3   5
ENDBRANCH   2   3
ENDBRANCH   1   2
BRANCH   1  22
ATOM     22  C   UNL A   1      32.904  36.152  29.881  1.00  0.00     0.275 C 
BRANCH  22  23
ATOM     23  O   UNL A   1      32.351  35.407  30.999  1.00  0.00    -0.458 OA
BRANCH  23  24
ATOM     24  C   UNL A   1      32.838  35.816  32.184  1.00  0.00     0.338 C 
ATOM     25  O   UNL A   1      32.390  36.735  32.842  1.00  0.00    -0.246 OA
BRANCH  24  26
ATOM     26  C   UNL A   1      33.959  35.080  32.757  1.00  0.00     0.060 A 
ATOM     27  C   UNL A   1      35.223  35.632  32.503  1.00  0.00     0.016 A 
ATOM     28  C   UNL A   1      33.829  33.788  33.263  1.00  0.00     0.016 A 
ATOM     29  C   UNL A   1      36.365  34.882  32.715  1.00  0.00     0.010 A 
ATOM     30  C   UNL A   1      34.988  33.047  33.522  1.00  0.00     0.010 A 
ATOM     31  C   UNL A   1      36.255  33.590  33.242  1.00  0.00    -0.014 A 
BRANCH  31  32
ATOM     32  C   UNL A   1      37.499  32.893  33.626  1.00  0.00     0.031 A 
ATOM     33  C   UNL A   1      38.186  33.162  34.926  1.00  0.00     0.074 A 
ATOM     34  C   UNL A   1      37.952  31.950  32.782  1.00  0.00     0.049 A 
ATOM     35  N   UNL A   1      39.294  32.644  35.388  1.00  0.00    -0.248 NA
ATOM     36  C   UNL A   1      37.549  34.131  35.830  1.00  0.00     0.031 C 
ATOM     37  C   UNL A   1      37.307  31.581  31.519  1.00  0.00     0.029 A 
ATOM     38  N   UNL A   1      39.038  31.122  32.859  1.00  0.00    -0.354 N 
ATOM     39  C   UNL A   1      39.500  33.228  36.629  1.00  0.00     0.074 A 
ATOM     40  C   UNL A   1      38.400  34.147  36.849  1.00  0.00     0.031 C 
ATOM     41  C   UNL A   1      38.003  30.593  30.944  1.00  0.00     0.029 A 
ATOM     42  C   UNL A   1      39.168  30.300  31.770  1.00  0.00     0.049 A 
ATOM     43  H   UNL A   1      39.662  31.117  33.620  1.00  0.00     0.167 HD
ATOM     44  C   UNL A   1      40.520  33.012  37.493  1.00  0.00     0.037 A 
ATOM     45  C   UNL A   1      40.139  29.426  31.455  1.00  0.00     0.037 A 
ATOM     46  C   UNL A   1      41.598  32.083  37.256  1.00  0.00     0.049 A 
ATOM     47  C   UNL A   1      41.280  29.246  32.406  1.00  0.00     0.074 A 
ATOM     48  C   UNL A   1      42.676  31.782  38.071  1.00  0.00     0.029 A 
ATOM     49  N   UNL A   1      41.733  31.305  36.114  1.00  0.00    -0.354 N 
ATOM     50  N   UNL A   1      41.483  29.825  33.565  1.00  0.00    -0.248 NA
ATOM     51  C   UNL A   1      42.331  28.305  32.006  1.00  0.00     0.031 C 
ATOM     52  C   UNL A   1      43.480  30.848  37.407  1.00  0.00     0.029 A 
ATOM     53  C   UNL A   1      42.887  30.541  36.193  1.00  0.00     0.049 A 
ATOM     54  H   UNL A   1      41.101  31.297  35.359  1.00  0.00     0.167 HD
ATOM     55  C   UNL A   1      42.684  29.322  34.035  1.00  0.00     0.074 A 
ATOM     56  C   UNL A   1      43.155  28.373  33.043  1.00  0.00     0.031 C 
ATOM     57  C   UNL A   1      43.342  29.622  35.182  1.00  0.00     0.037 A 
BRANCH  44  58
ATOM     58  C   UNL A   1      40.545  33.809  38.762  1.00  0.00     0.064 A 
ATOM     59  C   UNL A   1      39.868  33.383  39.913  1.00  0.00     0.173 A 
ATOM     60  C   UNL A   1      41.309  34.983  38.843  1.00  0.00     0.173 A 
ATOM     61  F   UNL A   1      39.113  32.275  39.882  1.00  0.00    -0.203 F 
ATOM     62  C   UNL A   1      39.950  34.110  41.099  1.00  0.00     0.198 A 
ATOM     63  C   UNL A   1      41.401  35.697  40.035  1.00  0.00     0.198 A 
ATOM     64  F   UNL A   1      41.976  35.431  37.769  1.00  0.00    -0.203 F 
ATOM     65  F   UNL A   1      39.275  33.699  42.183  1.00  0.00    -0.200 F 
ATOM     66  C   UNL A   1      40.721  35.261  41.162  1.00  0.00     0.200 A 
ATOM     67  F   UNL A   1      42.151  36.807  40.095  1.00  0.00    -0.200 F 
ATOM     68  F   UNL A   1      40.802  35.955  42.306  1.00  0.00    -0.200 F 
ENDBRANCH  44  58
BRANCH  45  69
ATOM     69  C   UNL A   1      40.061  28.699  30.167  1.00  0.00     0.064 A 
ATOM     70  C   UNL A   1      40.658  29.212  29.011  1.00  0.00     0.173 A 
ATOM     71  C   UNL A   1      39.454  27.436  30.091  1.00  0.00     0.173 A 
ATOM     72  F   UNL A   1      41.238  30.421  29.035  1.00  0.00    -0.203 F 
ATOM     73  C   UNL A   1      40.655  28.484  27.822  1.00  0.00     0.198 A 
ATOM     74  C   UNL A   1      39.472  26.700  28.910  1.00  0.00     0.198 A 
ATOM     75  F   UNL A   1      38.877  26.902  31.178  1.00  0.00    -0.203 F 
ATOM     76  F   UNL A   1      41.221  29.000  26.723  1.00  0.00    -0.200 F 
ATOM     77  C   UNL A   1      40.072  27.225  27.776  1.00  0.00     0.200 A 
ATOM     78  F   UNL A   1      38.924  25.478  28.877  1.00  0.00    -0.200 F 
ATOM     79  F   UNL A   1      40.090  26.517  26.639  1.00  0.00    -0.200 F 
ENDBRANCH  45  69
BRANCH  57  80
ATOM     80  C   UNL A   1      44.641  28.915  35.408  1.00  0.00     0.064 A 
ATOM     81  C   UNL A   1      45.854  29.480  34.990  1.00  0.00     0.173 A 
ATOM     82  C   UNL A   1      44.674  27.669  36.049  1.00  0.00     0.173 A 
ATOM     83  F   UNL A   1      45.865  30.662  34.355  1.00  0.00    -0.203 F 
ATOM     84  C   UNL A   1      47.057  28.810  35.190  1.00  0.00     0.198 A 
ATOM     85  C   UNL A   1      45.881  27.010  36.263  1.00  0.00     0.198 A 
ATOM     86  F   UNL A   1      43.537  27.092  36.464  1.00  0.00    -0.203 F 
ATOM     87  F   UNL A   1      48.202  29.346  34.747  1.00  0.00    -0.200 F 
ATOM     88  C   UNL A   1      47.070  27.578  35.827  1.00  0.00     0.200 A 
ATOM     89  F   UNL A   1      45.893  25.823  36.882  1.00  0.00    -0.200 F 
ATOM     90  F   UNL A   1      48.229  26.931  36.014  1.00  0.00    -0.200 F 
ENDBRANCH  57  80
ENDBRANCH  31  32
ENDBRANCH  24  26
ENDBRANCH  23  24
ENDBRANCH  22  23
ENDBRANCH   1  22
TORSDOF 15
ENDMDL
