MODEL 1
REMARK VINA RESULT:     -12.2      0.000      0.000
REMARK SMILES O=C(CCc1ccccc1)Nc1ccccc1Oc1ccsc1C(=O)OCCOC(=O)c1ccc(-c2c3nc(c(-c4c(F)c(F)c(F)c(F)c4F)c4ccc([nH]4)c(-c4c(F)c(F)c(F)c(F)c4F)c4nc(c(-c5c(F)c(F)c(F)c(F)c5F)c5ccc2[nH]5)C=C4)C=C3)cc1
REMARK SMILES IDX 24 1 25 2 23 3 19 4 20 5 21 6 22 7 18 8 17 9 12 10 13 11
REMARK SMILES IDX 14 12 16 13 15 14 11 15 1 16 2 17 3 19 4 20 5 21 6 22 10 23
REMARK SMILES IDX 7 24 9 25 8 26 26 27 27 28 28 29 29 30 30 31 31 32 32 33
REMARK SMILES IDX 33 34 94 35 34 36 93 37 35 38 36 39 37 40 87 41 38 42 92 43
REMARK SMILES IDX 86 44 88 45 39 46 91 47 85 48 84 49 40 51 72 52 52 53 71 54
REMARK SMILES IDX 53 55 56 56 70 57 89 58 54 59 55 60 69 62 90 63 57 64 41 65
REMARK SMILES IDX 42 66 50 67 43 68 44 69 48 70 51 71 45 72 46 73 49 74 47 75
REMARK SMILES IDX 73 76 74 77 82 78 75 79 76 80 80 81 83 82 77 83 78 84 81 85
REMARK SMILES IDX 79 86 58 87 59 88 67 89 60 90 61 91 65 92 68 93 62 94 63 95
REMARK SMILES IDX 66 96 64 97
REMARK H PARENT 11 18 88 50 56 61
REMARK Flexibility Score: inf
ROOT
ATOM      1  C   UNL A   1      31.754  25.727  25.887  1.00  0.00     0.352 C 
ATOM      2  O   UNL A   1      31.704  24.965  26.839  1.00  0.00    -0.245 OA
ENDROOT
BRANCH   1   3
ATOM      3  C   UNL A   1      32.467  25.486  24.639  1.00  0.00     0.155 A 
ATOM      4  C   UNL A   1      33.728  24.962  24.417  1.00  0.00     0.152 A 
ATOM      5  C   UNL A   1      34.044  24.848  23.030  1.00  0.00     0.060 A 
ATOM      6  C   UNL A   1      33.059  25.395  22.238  1.00  0.00     0.070 A 
ATOM      7  S   UNL A   1      31.732  25.957  23.159  1.00  0.00    -0.133 S 
BRANCH   4   8
ATOM      8  O   UNL A   1      34.484  24.589  25.470  1.00  0.00    -0.453 OA
BRANCH   8   9
ATOM      9  C   UNL A   1      35.467  23.636  25.478  1.00  0.00     0.151 A 
ATOM     10  C   UNL A   1      35.353  22.261  25.234  1.00  0.00     0.084 A 
ATOM     11  C   UNL A   1      36.498  21.454  25.363  1.00  0.00     0.030 A 
ATOM     12  C   UNL A   1      37.751  22.013  25.623  1.00  0.00     0.002 A 
ATOM     13  C   UNL A   1      36.733  24.184  25.749  1.00  0.00     0.049 A 
ATOM     14  C   UNL A   1      37.871  23.383  25.808  1.00  0.00     0.004 A 
BRANCH  10  15
ATOM     15  N   UNL A   1      34.179  21.579  24.853  1.00  0.00    -0.323 N 
ATOM     16  O   UNL A   1      32.917  21.833  26.788  1.00  0.00    -0.275 OA
ATOM     17  C   UNL A   1      33.078  21.372  25.662  1.00  0.00     0.224 C 
ATOM     18  H   UNL A   1      34.140  21.223  23.936  1.00  0.00     0.170 HD
BRANCH  17  19
ATOM     19  C   UNL A   1      31.999  20.532  24.999  1.00  0.00     0.105 C 
BRANCH  19  20
ATOM     20  C   UNL A   1      32.527  19.758  23.790  1.00  0.00     0.045 C 
BRANCH  20  21
ATOM     21  C   UNL A   1      32.893  18.334  24.140  1.00  0.00    -0.048 A 
ATOM     22  C   UNL A   1      33.665  17.560  23.264  1.00  0.00     0.004 A 
ATOM     23  C   UNL A   1      32.524  17.793  25.379  1.00  0.00     0.004 A 
ATOM     24  C   UNL A   1      34.113  16.295  23.647  1.00  0.00     0.000 A 
ATOM     25  C   UNL A   1      32.951  16.517  25.749  1.00  0.00     0.000 A 
ATOM     26  C   UNL A   1      33.759  15.776  24.891  1.00  0.00     0.000 A 
ENDBRANCH  20  21
ENDBRANCH  19  20
ENDBRANCH  17  19
ENDBRANCH  10  15
ENDBRANCH   8   9
ENDBRANCH   4   8
ENDBRANCH   1   3
BRANCH   1  27
ATOM     27  O   UNL A   1      31.136  26.949  25.851  1.00  0.00    -0.458 OA
BRANCH  27  28
ATOM     28  C   UNL A   1      31.818  28.047  26.476  1.00  0.00     0.275 C 
BRANCH  28  29
ATOM     29  C   UNL A   1      31.889  29.230  25.514  1.00  0.00     0.275 C 
BRANCH  29  30
ATOM     30  O   UNL A   1      33.133  29.907  25.725  1.00  0.00    -0.458 OA
BRANCH  30  31
ATOM     31  C   UNL A   1      33.115  30.850  26.690  1.00  0.00     0.338 C 
ATOM     32  O   UNL A   1      32.300  31.744  26.839  1.00  0.00    -0.246 OA
BRANCH  31  33
ATOM     33  C   UNL A   1      34.346  30.704  27.489  1.00  0.00     0.060 A 
ATOM     34  C   UNL A   1      35.220  31.780  27.682  1.00  0.00     0.016 A 
ATOM     35  C   UNL A   1      34.625  29.459  28.052  1.00  0.00     0.016 A 
ATOM     36  C   UNL A   1      36.395  31.601  28.415  1.00  0.00     0.010 A 
ATOM     37  C   UNL A   1      35.774  29.295  28.825  1.00  0.00     0.010 A 
ATOM     38  C   UNL A   1      36.681  30.357  28.993  1.00  0.00    -0.014 A 
BRANCH  38  39
ATOM     39  C   UNL A   1      37.942  30.116  29.742  1.00  0.00     0.031 A 
ATOM     40  C   UNL A   1      38.960  29.158  29.189  1.00  0.00     0.074 A 
ATOM     41  C   UNL A   1      38.150  30.703  30.934  1.00  0.00     0.049 A 
ATOM     42  N   UNL A   1      40.044  28.682  29.748  1.00  0.00    -0.248 NA
ATOM     43  C   UNL A   1      38.715  28.657  27.827  1.00  0.00     0.031 C 
ATOM     44  C   UNL A   1      37.252  31.662  31.574  1.00  0.00     0.029 A 
ATOM     45  N   UNL A   1      39.179  30.555  31.832  1.00  0.00    -0.354 N 
ATOM     46  C   UNL A   1      40.593  27.807  28.821  1.00  0.00     0.074 A 
ATOM     47  C   UNL A   1      39.713  27.800  27.672  1.00  0.00     0.031 C 
ATOM     48  C   UNL A   1      37.766  32.014  32.765  1.00  0.00     0.029 A 
ATOM     49  C   UNL A   1      39.002  31.269  32.991  1.00  0.00     0.049 A 
ATOM     50  H   UNL A   1      39.968  29.991  31.660  1.00  0.00     0.167 HD
ATOM     51  C   UNL A   1      41.731  27.078  28.918  1.00  0.00     0.037 A 
ATOM     52  C   UNL A   1      39.736  31.294  34.120  1.00  0.00     0.037 A 
ATOM     53  C   UNL A   1      42.616  27.098  30.054  1.00  0.00     0.049 A 
ATOM     54  C   UNL A   1      40.971  30.440  34.222  1.00  0.00     0.074 A 
ATOM     55  C   UNL A   1      43.813  26.424  30.227  1.00  0.00     0.029 A 
ATOM     56  N   UNL A   1      42.397  27.829  31.211  1.00  0.00    -0.354 N 
ATOM     57  N   UNL A   1      41.493  29.628  33.336  1.00  0.00    -0.248 NA
ATOM     58  C   UNL A   1      41.716  30.503  35.489  1.00  0.00     0.031 C 
ATOM     59  C   UNL A   1      44.297  26.715  31.507  1.00  0.00     0.029 A 
ATOM     60  C   UNL A   1      43.425  27.606  32.113  1.00  0.00     0.049 A 
ATOM     61  H   UNL A   1      41.625  28.419  31.369  1.00  0.00     0.167 HD
ATOM     62  C   UNL A   1      42.635  29.102  33.925  1.00  0.00     0.074 A 
ATOM     63  C   UNL A   1      42.738  29.695  35.242  1.00  0.00     0.031 C 
ATOM     64  C   UNL A   1      43.517  28.206  33.419  1.00  0.00     0.037 A 
BRANCH  51  65
ATOM     65  C   UNL A   1      42.076  26.180  27.767  1.00  0.00     0.064 A 
ATOM     66  C   UNL A   1      43.047  26.534  26.819  1.00  0.00     0.173 A 
ATOM     67  C   UNL A   1      41.445  24.934  27.626  1.00  0.00     0.173 A 
ATOM     68  F   UNL A   1      43.669  27.720  26.901  1.00  0.00    -0.203 F 
ATOM     69  C   UNL A   1      43.355  25.687  25.758  1.00  0.00     0.198 A 
ATOM     70  C   UNL A   1      41.775  24.078  26.580  1.00  0.00     0.198 A 
ATOM     71  F   UNL A   1      40.513  24.543  28.509  1.00  0.00    -0.203 F 
ATOM     72  F   UNL A   1      44.254  26.067  24.839  1.00  0.00    -0.200 F 
ATOM     73  C   UNL A   1      42.724  24.457  25.642  1.00  0.00     0.200 A 
ATOM     74  F   UNL A   1      41.174  22.885  26.476  1.00  0.00    -0.200 F 
ATOM     75  F   UNL A   1      43.026  23.641  24.624  1.00  0.00    -0.200 F 
ENDBRANCH  51  65
BRANCH  52  76
ATOM     76  C   UNL A   1      39.315  32.156  35.254  1.00  0.00     0.064 A 
ATOM     77  C   UNL A   1      39.706  33.500  35.316  1.00  0.00     0.173 A 
ATOM     78  C   UNL A   1      38.516  31.658  36.294  1.00  0.00     0.173 A 
ATOM     79  F   UNL A   1      40.494  34.013  34.360  1.00  0.00    -0.203 F 
ATOM     80  C   UNL A   1      39.323  34.312  36.382  1.00  0.00     0.198 A 
ATOM     81  C   UNL A   1      38.112  32.477  37.345  1.00  0.00     0.198 A 
ATOM     82  F   UNL A   1      38.121  30.376  36.281  1.00  0.00    -0.203 F 
ATOM     83  F   UNL A   1      39.743  35.582  36.438  1.00  0.00    -0.200 F 
ATOM     84  C   UNL A   1      38.520  33.801  37.392  1.00  0.00     0.200 A 
ATOM     85  F   UNL A   1      37.331  31.982  38.315  1.00  0.00    -0.200 F 
ATOM     86  F   UNL A   1      38.148  34.583  38.414  1.00  0.00    -0.200 F 
ENDBRANCH  52  76
BRANCH  64  87
ATOM     87  C   UNL A   1      44.690  27.836  34.279  1.00  0.00     0.064 A 
ATOM     88  C   UNL A   1      44.612  26.804  35.226  1.00  0.00     0.173 A 
ATOM     89  C   UNL A   1      45.919  28.499  34.128  1.00  0.00     0.173 A 
ATOM     90  F   UNL A   1      43.456  26.153  35.419  1.00  0.00    -0.203 F 
ATOM     91  C   UNL A   1      45.715  26.464  36.005  1.00  0.00     0.198 A 
ATOM     92  C   UNL A   1      47.026  28.137  34.890  1.00  0.00     0.198 A 
ATOM     93  F   UNL A   1      46.047  29.489  33.232  1.00  0.00    -0.203 F 
ATOM     94  F   UNL A   1      45.607  25.503  36.934  1.00  0.00    -0.200 F 
ATOM     95  C   UNL A   1      46.922  27.125  35.832  1.00  0.00     0.200 A 
ATOM     96  F   UNL A   1      48.194  28.770  34.713  1.00  0.00    -0.200 F 
ATOM     97  F   UNL A   1      47.984  26.792  36.579  1.00  0.00    -0.200 F 
ENDBRANCH  64  87
ENDBRANCH  38  39
ENDBRANCH  31  33
ENDBRANCH  30  31
ENDBRANCH  29  30
ENDBRANCH  28  29
ENDBRANCH  27  28
ENDBRANCH   1  27
TORSDOF 17
ENDMDL
MODEL 2
REMARK VINA RESULT:     -12.2      4.261      9.887
REMARK SMILES O=C(CCc1ccccc1)Nc1ccccc1Oc1ccsc1C(=O)OCCOC(=O)c1ccc(-c2c3nc(c(-c4c(F)c(F)c(F)c(F)c4F)c4ccc([nH]4)c(-c4c(F)c(F)c(F)c(F)c4F)c4nc(c(-c5c(F)c(F)c(F)c(F)c5F)c5ccc2[nH]5)C=C4)C=C3)cc1
REMARK SMILES IDX 24 1 25 2 23 3 19 4 20 5 21 6 22 7 18 8 17 9 12 10 13 11
REMARK SMILES IDX 14 12 16 13 15 14 11 15 1 16 2 17 3 19 4 20 5 21 6 22 10 23
REMARK SMILES IDX 7 24 9 25 8 26 26 27 27 28 28 29 29 30 30 31 31 32 32 33
REMARK SMILES IDX 33 34 94 35 34 36 93 37 35 38 36 39 37 40 87 41 38 42 92 43
REMARK SMILES IDX 86 44 88 45 39 46 91 47 85 48 84 49 40 51 72 52 52 53 71 54
REMARK SMILES IDX 53 55 56 56 70 57 89 58 54 59 55 60 69 62 90 63 57 64 41 65
REMARK SMILES IDX 42 66 50 67 43 68 44 69 48 70 51 71 45 72 46 73 49 74 47 75
REMARK SMILES IDX 73 76 74 77 82 78 75 79 76 80 80 81 83 82 77 83 78 84 81 85
REMARK SMILES IDX 79 86 58 87 59 88 67 89 60 90 61 91 65 92 68 93 62 94 63 95
REMARK SMILES IDX 66 96 64 97
REMARK H PARENT 11 18 88 50 56 61
REMARK Flexibility Score: inf
ROOT
ATOM      1  C   UNL A   1      34.489  24.145  23.946  1.00  0.00     0.352 C 
ATOM      2  O   UNL A   1      34.398  24.393  22.754  1.00  0.00    -0.245 OA
ENDROOT
BRANCH   1   3
ATOM      3  C   UNL A   1      33.453  24.371  24.945  1.00  0.00     0.155 A 
ATOM      4  C   UNL A   1      33.103  25.524  25.626  1.00  0.00     0.152 A 
ATOM      5  C   UNL A   1      31.991  25.336  26.499  1.00  0.00     0.060 A 
ATOM      6  C   UNL A   1      31.597  24.017  26.544  1.00  0.00     0.070 A 
ATOM      7  S   UNL A   1      32.505  23.039  25.476  1.00  0.00    -0.133 S 
BRANCH   4   8
ATOM      8  O   UNL A   1      33.781  26.666  25.385  1.00  0.00    -0.453 OA
BRANCH   8   9
ATOM      9  C   UNL A   1      33.449  27.923  25.813  1.00  0.00     0.151 A 
ATOM     10  C   UNL A   1      32.383  28.734  25.400  1.00  0.00     0.084 A 
ATOM     11  C   UNL A   1      32.274  30.030  25.933  1.00  0.00     0.030 A 
ATOM     12  C   UNL A   1      33.140  30.476  26.935  1.00  0.00     0.002 A 
ATOM     13  C   UNL A   1      34.320  28.388  26.813  1.00  0.00     0.049 A 
ATOM     14  C   UNL A   1      34.161  29.650  27.383  1.00  0.00     0.004 A 
BRANCH  10  15
ATOM     15  N   UNL A   1      31.372  28.374  24.485  1.00  0.00    -0.323 N 
ATOM     16  O   UNL A   1      32.428  28.906  22.485  1.00  0.00    -0.275 OA
ATOM     17  C   UNL A   1      31.443  28.530  23.115  1.00  0.00     0.224 C 
ATOM     18  H   UNL A   1      30.549  27.980  24.854  1.00  0.00     0.170 HD
BRANCH  17  19
ATOM     19  C   UNL A   1      30.164  28.128  22.400  1.00  0.00     0.105 C 
BRANCH  19  20
ATOM     20  C   UNL A   1      28.916  28.685  23.086  1.00  0.00     0.045 C 
BRANCH  20  21
ATOM     21  C   UNL A   1      28.610  30.101  22.651  1.00  0.00    -0.048 A 
ATOM     22  C   UNL A   1      28.750  31.168  23.547  1.00  0.00     0.004 A 
ATOM     23  C   UNL A   1      28.252  30.370  21.323  1.00  0.00     0.004 A 
ATOM     24  C   UNL A   1      28.598  32.484  23.108  1.00  0.00     0.000 A 
ATOM     25  C   UNL A   1      28.073  31.686  20.893  1.00  0.00     0.000 A 
ATOM     26  C   UNL A   1      28.264  32.742  21.780  1.00  0.00     0.000 A 
ENDBRANCH  20  21
ENDBRANCH  19  20
ENDBRANCH  17  19
ENDBRANCH  10  15
ENDBRANCH   8   9
ENDBRANCH   4   8
ENDBRANCH   1   3
BRANCH   1  27
ATOM     27  O   UNL A   1      35.603  23.609  24.533  1.00  0.00    -0.458 OA
BRANCH  27  28
ATOM     28  C   UNL A   1      36.293  22.576  23.813  1.00  0.00     0.275 C 
BRANCH  28  29
ATOM     29  C   UNL A   1      36.497  21.362  24.714  1.00  0.00     0.275 C 
BRANCH  29  30
ATOM     30  O   UNL A   1      37.165  21.793  25.906  1.00  0.00    -0.458 OA
BRANCH  30  31
ATOM     31  C   UNL A   1      38.490  21.543  25.941  1.00  0.00     0.338 C 
ATOM     32  O   UNL A   1      39.052  20.482  25.729  1.00  0.00    -0.246 OA
BRANCH  31  33
ATOM     33  C   UNL A   1      39.170  22.763  26.416  1.00  0.00     0.060 A 
ATOM     34  C   UNL A   1      38.720  24.037  26.048  1.00  0.00     0.016 A 
ATOM     35  C   UNL A   1      40.282  22.620  27.245  1.00  0.00     0.016 A 
ATOM     36  C   UNL A   1      39.406  25.172  26.485  1.00  0.00     0.010 A 
ATOM     37  C   UNL A   1      40.937  23.756  27.721  1.00  0.00     0.010 A 
ATOM     38  C   UNL A   1      40.520  25.040  27.327  1.00  0.00    -0.014 A 
BRANCH  38  39
ATOM     39  C   UNL A   1      41.301  26.221  27.777  1.00  0.00     0.031 A 
ATOM     40  C   UNL A   1      40.608  27.328  28.521  1.00  0.00     0.074 A 
ATOM     41  C   UNL A   1      42.607  26.331  27.473  1.00  0.00     0.049 A 
ATOM     42  N   UNL A   1      41.057  28.510  28.862  1.00  0.00    -0.248 NA
ATOM     43  C   UNL A   1      39.215  27.075  28.922  1.00  0.00     0.031 C 
ATOM     44  C   UNL A   1      43.401  25.324  26.772  1.00  0.00     0.029 A 
ATOM     45  N   UNL A   1      43.490  27.359  27.697  1.00  0.00    -0.354 N 
ATOM     46  C   UNL A   1      39.997  29.150  29.489  1.00  0.00     0.074 A 
ATOM     47  C   UNL A   1      38.876  28.235  29.464  1.00  0.00     0.031 C 
ATOM     48  C   UNL A   1      44.654  25.786  26.618  1.00  0.00     0.029 A 
ATOM     49  C   UNL A   1      44.736  27.138  27.165  1.00  0.00     0.049 A 
ATOM     50  H   UNL A   1      43.252  28.177  28.192  1.00  0.00     0.167 HD
ATOM     51  C   UNL A   1      39.964  30.387  30.040  1.00  0.00     0.037 A 
ATOM     52  C   UNL A   1      45.812  27.946  27.098  1.00  0.00     0.037 A 
ATOM     53  C   UNL A   1      41.084  31.290  30.081  1.00  0.00     0.049 A 
ATOM     54  C   UNL A   1      45.736  29.333  27.676  1.00  0.00     0.074 A 
ATOM     55  C   UNL A   1      41.158  32.549  30.653  1.00  0.00     0.029 A 
ATOM     56  N   UNL A   1      42.327  31.031  29.524  1.00  0.00    -0.354 N 
ATOM     57  N   UNL A   1      44.736  29.924  28.282  1.00  0.00    -0.248 NA
ATOM     58  C   UNL A   1      46.941  30.167  27.553  1.00  0.00     0.031 C 
ATOM     59  C   UNL A   1      42.433  33.068  30.405  1.00  0.00     0.029 A 
ATOM     60  C   UNL A   1      43.168  32.114  29.719  1.00  0.00     0.049 A 
ATOM     61  H   UNL A   1      42.575  30.199  29.059  1.00  0.00     0.167 HD
ATOM     62  C   UNL A   1      45.194  31.188  28.631  1.00  0.00     0.074 A 
ATOM     63  C   UNL A   1      46.568  31.274  28.181  1.00  0.00     0.031 C 
ATOM     64  C   UNL A   1      44.535  32.186  29.269  1.00  0.00     0.037 A 
BRANCH  51  65
ATOM     65  C   UNL A   1      38.662  30.845  30.630  1.00  0.00     0.064 A 
ATOM     66  C   UNL A   1      37.615  31.320  29.827  1.00  0.00     0.173 A 
ATOM     67  C   UNL A   1      38.450  30.780  32.015  1.00  0.00     0.173 A 
ATOM     68  F   UNL A   1      37.773  31.413  28.498  1.00  0.00    -0.203 F 
ATOM     69  C   UNL A   1      36.413  31.739  30.391  1.00  0.00     0.198 A 
ATOM     70  C   UNL A   1      37.238  31.175  32.574  1.00  0.00     0.198 A 
ATOM     71  F   UNL A   1      39.417  30.328  32.829  1.00  0.00    -0.203 F 
ATOM     72  F   UNL A   1      35.443  32.232  29.608  1.00  0.00    -0.200 F 
ATOM     73  C   UNL A   1      36.223  31.661  31.763  1.00  0.00     0.200 A 
ATOM     74  F   UNL A   1      37.050  31.087  33.898  1.00  0.00    -0.200 F 
ATOM     75  F   UNL A   1      35.063  32.059  32.304  1.00  0.00    -0.200 F 
ENDBRANCH  51  65
BRANCH  52  76
ATOM     76  C   UNL A   1      47.056  27.462  26.447  1.00  0.00     0.064 A 
ATOM     77  C   UNL A   1      47.251  27.617  25.068  1.00  0.00     0.173 A 
ATOM     78  C   UNL A   1      48.072  26.838  27.186  1.00  0.00     0.173 A 
ATOM     79  F   UNL A   1      46.295  28.181  24.316  1.00  0.00    -0.203 F 
ATOM     80  C   UNL A   1      48.412  27.156  24.450  1.00  0.00     0.198 A 
ATOM     81  C   UNL A   1      49.243  26.401  26.571  1.00  0.00     0.198 A 
ATOM     82  F   UNL A   1      47.930  26.662  28.508  1.00  0.00    -0.203 F 
ATOM     83  F   UNL A   1      48.556  27.280  23.124  1.00  0.00    -0.200 F 
ATOM     84  C   UNL A   1      49.410  26.555  25.203  1.00  0.00     0.200 A 
ATOM     85  F   UNL A   1      50.208  25.827  27.303  1.00  0.00    -0.200 F 
ATOM     86  F   UNL A   1      50.527  26.116  24.609  1.00  0.00    -0.200 F 
ENDBRANCH  52  76
BRANCH  64  87
ATOM     87  C   UNL A   1      45.299  33.448  29.546  1.00  0.00     0.064 A 
ATOM     88  C   UNL A   1      45.284  34.527  28.651  1.00  0.00     0.173 A 
ATOM     89  C   UNL A   1      46.025  33.591  30.739  1.00  0.00     0.173 A 
ATOM     90  F   UNL A   1      44.620  34.433  27.490  1.00  0.00    -0.203 F 
ATOM     91  C   UNL A   1      45.987  35.696  28.930  1.00  0.00     0.198 A 
ATOM     92  C   UNL A   1      46.703  34.771  31.026  1.00  0.00     0.198 A 
ATOM     93  F   UNL A   1      46.064  32.589  31.630  1.00  0.00    -0.203 F 
ATOM     94  F   UNL A   1      45.995  36.700  28.042  1.00  0.00    -0.200 F 
ATOM     95  C   UNL A   1      46.690  35.821  30.120  1.00  0.00     0.200 A 
ATOM     96  F   UNL A   1      47.372  34.893  32.182  1.00  0.00    -0.200 F 
ATOM     97  F   UNL A   1      47.360  36.950  30.390  1.00  0.00    -0.200 F 
ENDBRANCH  64  87
ENDBRANCH  38  39
ENDBRANCH  31  33
ENDBRANCH  30  31
ENDBRANCH  29  30
ENDBRANCH  28  29
ENDBRANCH  27  28
ENDBRANCH   1  27
TORSDOF 17
ENDMDL
MODEL 3
REMARK VINA RESULT:     -12.0      2.891      7.595
REMARK SMILES O=C(CCc1ccccc1)Nc1ccccc1Oc1ccsc1C(=O)OCCOC(=O)c1ccc(-c2c3nc(c(-c4c(F)c(F)c(F)c(F)c4F)c4ccc([nH]4)c(-c4c(F)c(F)c(F)c(F)c4F)c4nc(c(-c5c(F)c(F)c(F)c(F)c5F)c5ccc2[nH]5)C=C4)C=C3)cc1
REMARK SMILES IDX 24 1 25 2 23 3 19 4 20 5 21 6 22 7 18 8 17 9 12 10 13 11
REMARK SMILES IDX 14 12 16 13 15 14 11 15 1 16 2 17 3 19 4 20 5 21 6 22 10 23
REMARK SMILES IDX 7 24 9 25 8 26 26 27 27 28 28 29 29 30 30 31 31 32 32 33
REMARK SMILES IDX 33 34 94 35 34 36 93 37 35 38 36 39 37 40 87 41 38 42 92 43
REMARK SMILES IDX 86 44 88 45 39 46 91 47 85 48 84 49 40 51 72 52 52 53 71 54
REMARK SMILES IDX 53 55 56 56 70 57 89 58 54 59 55 60 69 62 90 63 57 64 41 65
REMARK SMILES IDX 42 66 50 67 43 68 44 69 48 70 51 71 45 72 46 73 49 74 47 75
REMARK SMILES IDX 73 76 74 77 82 78 75 79 76 80 80 81 83 82 77 83 78 84 81 85
REMARK SMILES IDX 79 86 58 87 59 88 67 89 60 90 61 91 65 92 68 93 62 94 63 95
REMARK SMILES IDX 66 96 64 97
REMARK H PARENT 11 18 88 50 56 61
REMARK Flexibility Score: inf
ROOT
ATOM      1  C   UNL A   1      32.245  25.475  26.122  1.00  0.00     0.352 C 
ATOM      2  O   UNL A   1      31.863  24.602  26.885  1.00  0.00    -0.245 OA
ENDROOT
BRANCH   1   3
ATOM      3  C   UNL A   1      32.837  25.259  24.809  1.00  0.00     0.155 A 
ATOM      4  C   UNL A   1      34.100  24.813  24.459  1.00  0.00     0.152 A 
ATOM      5  C   UNL A   1      34.275  24.696  23.049  1.00  0.00     0.060 A 
ATOM      6  C   UNL A   1      33.178  25.164  22.359  1.00  0.00     0.070 A 
ATOM      7  S   UNL A   1      31.922  25.656  23.409  1.00  0.00    -0.133 S 
BRANCH   4   8
ATOM      8  O   UNL A   1      34.986  24.509  25.431  1.00  0.00    -0.453 OA
BRANCH   8   9
ATOM      9  C   UNL A   1      35.863  23.457  25.441  1.00  0.00     0.151 A 
ATOM     10  C   UNL A   1      35.604  22.100  25.202  1.00  0.00     0.084 A 
ATOM     11  C   UNL A   1      36.657  21.178  25.333  1.00  0.00     0.030 A 
ATOM     12  C   UNL A   1      37.963  21.602  25.588  1.00  0.00     0.002 A 
ATOM     13  C   UNL A   1      37.179  23.869  25.707  1.00  0.00     0.049 A 
ATOM     14  C   UNL A   1      38.227  22.953  25.768  1.00  0.00     0.004 A 
BRANCH  10  15
ATOM     15  N   UNL A   1      34.363  21.545  24.826  1.00  0.00    -0.323 N 
ATOM     16  O   UNL A   1      33.265  21.582  26.874  1.00  0.00    -0.275 OA
ATOM     17  C   UNL A   1      33.313  21.281  25.684  1.00  0.00     0.224 C 
ATOM     18  H   UNL A   1      34.235  21.329  23.874  1.00  0.00     0.170 HD
BRANCH  17  19
ATOM     19  C   UNL A   1      32.137  20.605  25.000  1.00  0.00     0.105 C 
BRANCH  19  20
ATOM     20  C   UNL A   1      32.566  19.794  23.775  1.00  0.00     0.045 C 
BRANCH  20  21
ATOM     21  C   UNL A   1      32.892  18.361  24.128  1.00  0.00    -0.048 A 
ATOM     22  C   UNL A   1      33.626  17.559  23.244  1.00  0.00     0.004 A 
ATOM     23  C   UNL A   1      32.525  17.838  25.375  1.00  0.00     0.004 A 
ATOM     24  C   UNL A   1      34.040  16.282  23.627  1.00  0.00     0.000 A 
ATOM     25  C   UNL A   1      32.918  16.551  25.745  1.00  0.00     0.000 A 
ATOM     26  C   UNL A   1      33.689  15.781  24.879  1.00  0.00     0.000 A 
ENDBRANCH  20  21
ENDBRANCH  19  20
ENDBRANCH  17  19
ENDBRANCH  10  15
ENDBRANCH   8   9
ENDBRANCH   4   8
ENDBRANCH   1   3
BRANCH   1  27
ATOM     27  O   UNL A   1      32.175  26.814  26.395  1.00  0.00    -0.458 OA
BRANCH  27  28
ATOM     28  C   UNL A   1      33.415  27.531  26.488  1.00  0.00     0.275 C 
BRANCH  28  29
ATOM     29  C   UNL A   1      33.210  28.825  27.270  1.00  0.00     0.275 C 
BRANCH  29  30
ATOM     30  O   UNL A   1      34.226  29.756  26.876  1.00  0.00    -0.458 OA
BRANCH  30  31
ATOM     31  C   UNL A   1      34.703  30.535  27.869  1.00  0.00     0.338 C 
ATOM     32  O   UNL A   1      34.200  31.547  28.326  1.00  0.00    -0.246 OA
BRANCH  31  33
ATOM     33  C   UNL A   1      36.037  30.027  28.242  1.00  0.00     0.060 A 
ATOM     34  C   UNL A   1      36.271  29.448  29.495  1.00  0.00     0.016 A 
ATOM     35  C   UNL A   1      37.072  30.141  27.314  1.00  0.00     0.016 A 
ATOM     36  C   UNL A   1      37.553  29.009  29.832  1.00  0.00     0.010 A 
ATOM     37  C   UNL A   1      38.340  29.658  27.633  1.00  0.00     0.010 A 
ATOM     38  C   UNL A   1      38.598  29.110  28.903  1.00  0.00    -0.014 A 
BRANCH  38  39
ATOM     39  C   UNL A   1      39.984  28.695  29.240  1.00  0.00     0.031 A 
ATOM     40  C   UNL A   1      40.879  29.642  29.988  1.00  0.00     0.074 A 
ATOM     41  C   UNL A   1      40.458  27.504  28.832  1.00  0.00     0.049 A 
ATOM     42  N   UNL A   1      42.160  29.551  30.243  1.00  0.00    -0.248 NA
ATOM     43  C   UNL A   1      40.249  30.867  30.506  1.00  0.00     0.031 C 
ATOM     44  C   UNL A   1      39.691  26.488  28.115  1.00  0.00     0.029 A 
ATOM     45  N   UNL A   1      41.715  26.960  28.943  1.00  0.00    -0.354 N 
ATOM     46  C   UNL A   1      42.494  30.715  30.922  1.00  0.00     0.074 A 
ATOM     47  C   UNL A   1      41.287  31.507  31.023  1.00  0.00     0.031 C 
ATOM     48  C   UNL A   1      40.494  25.444  27.845  1.00  0.00     0.029 A 
ATOM     49  C   UNL A   1      41.841  25.740  28.327  1.00  0.00     0.049 A 
ATOM     50  H   UNL A   1      42.454  27.403  29.420  1.00  0.00     0.167 HD
ATOM     51  C   UNL A   1      43.698  31.085  31.422  1.00  0.00     0.037 A 
ATOM     52  C   UNL A   1      42.927  24.965  28.142  1.00  0.00     0.037 A 
ATOM     53  C   UNL A   1      44.894  30.289  31.337  1.00  0.00     0.049 A 
ATOM     54  C   UNL A   1      44.262  25.420  28.665  1.00  0.00     0.074 A 
ATOM     55  C   UNL A   1      46.152  30.564  31.848  1.00  0.00     0.029 A 
ATOM     56  N   UNL A   1      44.982  29.062  30.697  1.00  0.00    -0.354 N 
ATOM     57  N   UNL A   1      44.566  26.513  29.321  1.00  0.00    -0.248 NA
ATOM     58  C   UNL A   1      45.408  24.532  28.414  1.00  0.00     0.031 C 
ATOM     59  C   UNL A   1      47.010  29.521  31.481  1.00  0.00     0.029 A 
ATOM     60  C   UNL A   1      46.277  28.576  30.781  1.00  0.00     0.049 A 
ATOM     61  H   UNL A   1      44.234  28.604  30.250  1.00  0.00     0.167 HD
ATOM     62  C   UNL A   1      45.928  26.436  29.580  1.00  0.00     0.074 A 
ATOM     63  C   UNL A   1      46.391  25.182  29.021  1.00  0.00     0.031 C 
ATOM     64  C   UNL A   1      46.723  27.326  30.223  1.00  0.00     0.037 A 
BRANCH  51  65
ATOM     65  C   UNL A   1      43.784  32.426  32.091  1.00  0.00     0.064 A 
ATOM     66  C   UNL A   1      43.579  32.576  33.470  1.00  0.00     0.173 A 
ATOM     67  C   UNL A   1      44.104  33.570  31.346  1.00  0.00     0.173 A 
ATOM     68  F   UNL A   1      43.258  31.514  34.225  1.00  0.00    -0.203 F 
ATOM     69  C   UNL A   1      43.664  33.827  34.074  1.00  0.00     0.198 A 
ATOM     70  C   UNL A   1      44.215  34.816  31.957  1.00  0.00     0.198 A 
ATOM     71  F   UNL A   1      44.316  33.481  30.024  1.00  0.00    -0.203 F 
ATOM     72  F   UNL A   1      43.420  33.954  35.387  1.00  0.00    -0.200 F 
ATOM     73  C   UNL A   1      43.989  34.945  33.319  1.00  0.00     0.200 A 
ATOM     74  F   UNL A   1      44.541  35.893  31.229  1.00  0.00    -0.200 F 
ATOM     75  F   UNL A   1      44.076  36.148  33.904  1.00  0.00    -0.200 F 
ENDBRANCH  51  65
BRANCH  52  76
ATOM     76  C   UNL A   1      42.795  23.674  27.418  1.00  0.00     0.064 A 
ATOM     77  C   UNL A   1      43.174  23.564  26.074  1.00  0.00     0.173 A 
ATOM     78  C   UNL A   1      42.290  22.529  28.051  1.00  0.00     0.173 A 
ATOM     79  F   UNL A   1      43.635  24.640  25.418  1.00  0.00    -0.203 F 
ATOM     80  C   UNL A   1      43.043  22.360  25.386  1.00  0.00     0.198 A 
ATOM     81  C   UNL A   1      42.184  21.318  27.370  1.00  0.00     0.198 A 
ATOM     82  F   UNL A   1      41.908  22.585  29.335  1.00  0.00    -0.203 F 
ATOM     83  F   UNL A   1      43.376  22.292  24.090  1.00  0.00    -0.200 F 
ATOM     84  C   UNL A   1      42.555  21.236  26.037  1.00  0.00     0.200 A 
ATOM     85  F   UNL A   1      41.719  20.234  28.004  1.00  0.00    -0.200 F 
ATOM     86  F   UNL A   1      42.435  20.077  25.376  1.00  0.00    -0.200 F 
ENDBRANCH  52  76
BRANCH  64  87
ATOM     87  C   UNL A   1      48.170  26.962  30.386  1.00  0.00     0.064 A 
ATOM     88  C   UNL A   1      48.611  26.160  31.448  1.00  0.00     0.173 A 
ATOM     89  C   UNL A   1      49.122  27.394  29.448  1.00  0.00     0.173 A 
ATOM     90  F   UNL A   1      47.745  25.737  32.379  1.00  0.00    -0.203 F 
ATOM     91  C   UNL A   1      49.956  25.820  31.576  1.00  0.00     0.198 A 
ATOM     92  C   UNL A   1      50.459  27.030  29.565  1.00  0.00     0.198 A 
ATOM     93  F   UNL A   1      48.748  28.159  28.411  1.00  0.00    -0.203 F 
ATOM     94  F   UNL A   1      50.364  25.087  32.622  1.00  0.00    -0.200 F 
ATOM     95  C   UNL A   1      50.877  26.250  30.632  1.00  0.00     0.200 A 
ATOM     96  F   UNL A   1      51.346  27.436  28.645  1.00  0.00    -0.200 F 
ATOM     97  F   UNL A   1      52.170  25.916  30.754  1.00  0.00    -0.200 F 
ENDBRANCH  64  87
ENDBRANCH  38  39
ENDBRANCH  31  33
ENDBRANCH  30  31
ENDBRANCH  29  30
ENDBRANCH  28  29
ENDBRANCH  27  28
ENDBRANCH   1  27
TORSDOF 17
ENDMDL
