MODEL 1
REMARK VINA RESULT:     -10.9      0.000      0.000
REMARK SMILES O=C(OCCOC(=O)C1([NH+]2CCOCC2)CCC1)c1ccc(-c2c3nc(c(-c4c(F)c(F)c(F)c(F)c4F)c4ccc([nH]4)c(-c4c(F)c(F)c(F)c(F)c4F)c4nc(c(-c5c(F)c(F)c(F)c(F)c5F)c5ccc2[nH]5)C=C4)C=C3)cc1
REMARK SMILES IDX 4 1 3 2 2 3 1 4 19 5 20 6 81 7 21 8 80 9 22 10 23 11 24 12
REMARK SMILES IDX 74 13 25 14 79 15 73 16 75 17 26 18 78 19 72 20 71 21 27 23
REMARK SMILES IDX 59 24 39 25 58 26 40 27 43 28 57 29 76 30 41 31 42 32 56 34
REMARK SMILES IDX 77 35 44 36 28 37 29 38 37 39 30 40 31 41 35 42 38 43 32 44
REMARK SMILES IDX 33 45 36 46 34 47 60 48 61 49 69 50 62 51 63 52 67 53 70 54
REMARK SMILES IDX 64 55 65 56 68 57 66 58 45 59 46 60 54 61 47 62 48 63 52 64
REMARK SMILES IDX 55 65 49 66 50 67 53 68 51 69 5 70 6 71 7 72 8 73 9 74 16 75
REMARK SMILES IDX 18 76 17 77 10 78 11 79 15 80 12 82 14 83 13 84
REMARK H PARENT 75 22 43 33 10 81
REMARK Flexibility Score: inf
ROOT
ATOM      1  C   UNL A   1      33.946  32.869  28.023  1.00  0.00     0.275 C 
ENDROOT
BRANCH   1   2
ATOM      2  O   UNL A   1      33.485  31.601  27.545  1.00  0.00    -0.458 OA
BRANCH   2   3
ATOM      3  C   UNL A   1      34.181  30.492  27.208  1.00  0.00     0.338 C 
ATOM      4  O   UNL A   1      33.649  29.702  26.427  1.00  0.00    -0.246 OA
BRANCH   3   5
ATOM      5  C   UNL A   1      35.518  30.100  27.777  1.00  0.00     0.060 A 
ATOM      6  C   UNL A   1      36.763  30.076  27.133  1.00  0.00     0.016 A 
ATOM      7  C   UNL A   1      35.490  29.687  29.118  1.00  0.00     0.016 A 
ATOM      8  C   UNL A   1      37.948  29.708  27.816  1.00  0.00     0.010 A 
ATOM      9  C   UNL A   1      36.663  29.377  29.812  1.00  0.00     0.010 A 
ATOM     10  C   UNL A   1      37.914  29.366  29.167  1.00  0.00    -0.014 A 
BRANCH  10  11
ATOM     11  C   UNL A   1      39.055  28.781  29.933  1.00  0.00     0.031 A 
ATOM     12  C   UNL A   1      39.607  29.618  31.041  1.00  0.00     0.074 A 
ATOM     13  C   UNL A   1      39.697  27.634  29.629  1.00  0.00     0.049 A 
ATOM     14  N   UNL A   1      40.697  29.446  31.735  1.00  0.00    -0.248 NA
ATOM     15  C   UNL A   1      38.801  30.784  31.443  1.00  0.00     0.031 C 
ATOM     16  C   UNL A   1      39.209  26.577  28.770  1.00  0.00     0.029 A 
ATOM     17  N   UNL A   1      40.976  27.216  29.935  1.00  0.00    -0.354 N 
ATOM     18  C   UNL A   1      40.654  30.424  32.708  1.00  0.00     0.074 A 
ATOM     19  C   UNL A   1      39.550  31.303  32.399  1.00  0.00     0.031 C 
ATOM     20  C   UNL A   1      40.226  25.782  28.395  1.00  0.00     0.029 A 
ATOM     21  C   UNL A   1      41.425  26.217  29.093  1.00  0.00     0.049 A 
ATOM     22  H   UNL A   1      41.509  27.587  30.675  1.00  0.00     0.167 HD
ATOM     23  C   UNL A   1      41.397  30.498  33.834  1.00  0.00     0.037 A 
ATOM     24  C   UNL A   1      42.660  25.708  28.914  1.00  0.00     0.037 A 
ATOM     25  C   UNL A   1      42.499  29.624  34.112  1.00  0.00     0.049 A 
ATOM     26  C   UNL A   1      43.656  25.974  30.002  1.00  0.00     0.074 A 
ATOM     27  C   UNL A   1      43.309  29.575  35.227  1.00  0.00     0.029 A 
ATOM     28  N   UNL A   1      42.963  28.654  33.229  1.00  0.00    -0.354 N 
ATOM     29  N   UNL A   1      43.554  26.805  31.009  1.00  0.00    -0.248 NA
ATOM     30  C   UNL A   1      44.857  25.130  30.035  1.00  0.00     0.031 C 
ATOM     31  C   UNL A   1      44.309  28.624  34.989  1.00  0.00     0.029 A 
ATOM     32  C   UNL A   1      44.088  28.040  33.751  1.00  0.00     0.049 A 
ATOM     33  H   UNL A   1      42.551  28.436  32.362  1.00  0.00     0.167 HD
ATOM     34  C   UNL A   1      44.601  26.502  31.861  1.00  0.00     0.074 A 
ATOM     35  C   UNL A   1      45.372  25.457  31.215  1.00  0.00     0.031 C 
ATOM     36  C   UNL A   1      44.847  27.001  33.096  1.00  0.00     0.037 A 
BRANCH  23  37
ATOM     37  C   UNL A   1      40.982  31.556  34.806  1.00  0.00     0.064 A 
ATOM     38  C   UNL A   1      39.973  31.309  35.755  1.00  0.00     0.173 A 
ATOM     39  C   UNL A   1      41.479  32.857  34.693  1.00  0.00     0.173 A 
ATOM     40  F   UNL A   1      39.441  30.083  35.876  1.00  0.00    -0.203 F 
ATOM     41  C   UNL A   1      39.424  32.348  36.500  1.00  0.00     0.198 A 
ATOM     42  C   UNL A   1      40.952  33.887  35.467  1.00  0.00     0.198 A 
ATOM     43  F   UNL A   1      42.436  33.141  33.797  1.00  0.00    -0.203 F 
ATOM     44  F   UNL A   1      38.385  32.113  37.313  1.00  0.00    -0.200 F 
ATOM     45  C   UNL A   1      39.911  33.637  36.351  1.00  0.00     0.200 A 
ATOM     46  F   UNL A   1      41.421  35.135  35.323  1.00  0.00    -0.200 F 
ATOM     47  F   UNL A   1      39.358  34.645  37.038  1.00  0.00    -0.200 F 
ENDBRANCH  23  37
BRANCH  24  48
ATOM     48  C   UNL A   1      42.959  24.792  27.781  1.00  0.00     0.064 A 
ATOM     49  C   UNL A   1      43.546  25.253  26.596  1.00  0.00     0.173 A 
ATOM     50  C   UNL A   1      42.664  23.421  27.865  1.00  0.00     0.173 A 
ATOM     51  F   UNL A   1      43.833  26.554  26.458  1.00  0.00    -0.203 F 
ATOM     52  C   UNL A   1      43.818  24.385  25.537  1.00  0.00     0.198 A 
ATOM     53  C   UNL A   1      42.942  22.552  26.807  1.00  0.00     0.198 A 
ATOM     54  F   UNL A   1      42.099  22.919  28.974  1.00  0.00    -0.203 F 
ATOM     55  F   UNL A   1      44.366  24.861  24.410  1.00  0.00    -0.200 F 
ATOM     56  C   UNL A   1      43.519  23.035  25.643  1.00  0.00     0.200 A 
ATOM     57  F   UNL A   1      42.652  21.247  26.914  1.00  0.00    -0.200 F 
ATOM     58  F   UNL A   1      43.783  22.205  24.624  1.00  0.00    -0.200 F 
ENDBRANCH  24  48
BRANCH  36  59
ATOM     59  C   UNL A   1      45.980  26.402  33.868  1.00  0.00     0.064 A 
ATOM     60  C   UNL A   1      45.805  25.265  34.665  1.00  0.00     0.173 A 
ATOM     61  C   UNL A   1      47.277  26.919  33.723  1.00  0.00     0.173 A 
ATOM     62  F   UNL A   1      44.580  24.751  34.849  1.00  0.00    -0.203 F 
ATOM     63  C   UNL A   1      46.892  24.661  35.287  1.00  0.00     0.198 A 
ATOM     64  C   UNL A   1      48.365  26.295  34.321  1.00  0.00     0.198 A 
ATOM     65  F   UNL A   1      47.491  28.010  32.971  1.00  0.00    -0.203 F 
ATOM     66  F   UNL A   1      46.702  23.585  36.063  1.00  0.00    -0.200 F 
ATOM     67  C   UNL A   1      48.172  25.166  35.102  1.00  0.00     0.200 A 
ATOM     68  F   UNL A   1      49.601  26.774  34.128  1.00  0.00    -0.200 F 
ATOM     69  F   UNL A   1      49.221  24.561  35.676  1.00  0.00    -0.200 F 
ENDBRANCH  36  59
ENDBRANCH  10  11
ENDBRANCH   3   5
ENDBRANCH   2   3
ENDBRANCH   1   2
BRANCH   1  70
ATOM     70  C   UNL A   1      32.884  33.965  28.027  1.00  0.00     0.274 C 
BRANCH  70  71
ATOM     71  O   UNL A   1      32.692  34.546  29.327  1.00  0.00    -0.457 OA
BRANCH  71  72
ATOM     72  C   UNL A   1      33.520  35.594  29.676  1.00  0.00     0.368 C 
ATOM     73  O   UNL A   1      34.114  36.267  28.840  1.00  0.00    -0.245 OA
BRANCH  72  74
ATOM     74  C   UNL A   1      33.631  35.738  31.282  1.00  0.00     0.196 C 
ATOM     75  C   UNL A   1      33.397  37.195  31.826  1.00  0.00     0.081 C 
ATOM     76  C   UNL A   1      32.337  35.362  32.053  1.00  0.00     0.081 C 
ATOM     77  C   UNL A   1      32.398  36.650  32.863  1.00  0.00     0.014 C 
BRANCH  74  78
ATOM     78  N   UNL A   1      34.959  35.290  31.847  1.00  0.00    -0.317 N 
ATOM     79  C   UNL A   1      35.561  34.177  31.096  1.00  0.00     0.292 C 
ATOM     80  C   UNL A   1      35.019  34.917  33.267  1.00  0.00     0.292 C 
ATOM     81  H   UNL A   1      35.482  36.161  31.746  1.00  0.00     0.349 HD
ATOM     82  C   UNL A   1      34.899  32.828  31.344  1.00  0.00     0.221 C 
ATOM     83  C   UNL A   1      34.449  33.536  33.608  1.00  0.00     0.221 C 
ATOM     84  O   UNL A   1      34.009  32.823  32.454  1.00  0.00    -0.370 OA
ENDBRANCH  74  78
ENDBRANCH  72  74
ENDBRANCH  71  72
ENDBRANCH  70  71
ENDBRANCH   1  70
TORSDOF 12
ENDMDL
MODEL 2
REMARK VINA RESULT:     -10.8      2.880      9.163
REMARK SMILES O=C(OCCOC(=O)C1([NH+]2CCOCC2)CCC1)c1ccc(-c2c3nc(c(-c4c(F)c(F)c(F)c(F)c4F)c4ccc([nH]4)c(-c4c(F)c(F)c(F)c(F)c4F)c4nc(c(-c5c(F)c(F)c(F)c(F)c5F)c5ccc2[nH]5)C=C4)C=C3)cc1
REMARK SMILES IDX 4 1 3 2 2 3 1 4 19 5 20 6 81 7 21 8 80 9 22 10 23 11 24 12
REMARK SMILES IDX 74 13 25 14 79 15 73 16 75 17 26 18 78 19 72 20 71 21 27 23
REMARK SMILES IDX 59 24 39 25 58 26 40 27 43 28 57 29 76 30 41 31 42 32 56 34
REMARK SMILES IDX 77 35 44 36 28 37 29 38 37 39 30 40 31 41 35 42 38 43 32 44
REMARK SMILES IDX 33 45 36 46 34 47 60 48 61 49 69 50 62 51 63 52 67 53 70 54
REMARK SMILES IDX 64 55 65 56 68 57 66 58 45 59 46 60 54 61 47 62 48 63 52 64
REMARK SMILES IDX 55 65 49 66 50 67 53 68 51 69 5 70 6 71 7 72 8 73 9 74 16 75
REMARK SMILES IDX 18 76 17 77 10 78 11 79 15 80 12 82 14 83 13 84
REMARK H PARENT 75 22 43 33 10 81
REMARK Flexibility Score: inf
ROOT
ATOM      1  C   UNL A   1      32.374  31.668  27.250  1.00  0.00     0.275 C 
ENDROOT
BRANCH   1   2
ATOM      2  O   UNL A   1      32.265  33.087  27.415  1.00  0.00    -0.458 OA
BRANCH   2   3
ATOM      3  C   UNL A   1      32.988  33.932  28.182  1.00  0.00     0.338 C 
ATOM      4  O   UNL A   1      32.529  35.058  28.376  1.00  0.00    -0.246 OA
BRANCH   3   5
ATOM      5  C   UNL A   1      34.352  33.640  28.749  1.00  0.00     0.060 A 
ATOM      6  C   UNL A   1      35.599  34.075  28.279  1.00  0.00     0.016 A 
ATOM      7  C   UNL A   1      34.356  32.805  29.877  1.00  0.00     0.016 A 
ATOM      8  C   UNL A   1      36.804  33.738  28.942  1.00  0.00     0.010 A 
ATOM      9  C   UNL A   1      35.536  32.516  30.568  1.00  0.00     0.010 A 
ATOM     10  C   UNL A   1      36.786  32.963  30.102  1.00  0.00    -0.014 A 
BRANCH  10  11
ATOM     11  C   UNL A   1      37.992  32.390  30.769  1.00  0.00     0.031 A 
ATOM     12  C   UNL A   1      38.519  31.113  30.200  1.00  0.00     0.074 A 
ATOM     13  C   UNL A   1      38.556  32.855  31.903  1.00  0.00     0.049 A 
ATOM     14  N   UNL A   1      39.423  30.308  30.687  1.00  0.00    -0.248 NA
ATOM     15  C   UNL A   1      37.982  30.710  28.889  1.00  0.00     0.031 C 
ATOM     16  C   UNL A   1      38.365  34.168  32.482  1.00  0.00     0.029 A 
ATOM     17  N   UNL A   1      39.339  32.216  32.842  1.00  0.00    -0.354 N 
ATOM     18  C   UNL A   1      39.623  29.364  29.700  1.00  0.00     0.074 A 
ATOM     19  C   UNL A   1      38.618  29.571  28.684  1.00  0.00     0.031 C 
ATOM     20  C   UNL A   1      38.764  34.166  33.766  1.00  0.00     0.029 A 
ATOM     21  C   UNL A   1      39.350  32.869  34.060  1.00  0.00     0.049 A 
ATOM     22  H   UNL A   1      39.836  31.385  32.664  1.00  0.00     0.167 HD
ATOM     23  C   UNL A   1      40.643  28.485  29.598  1.00  0.00     0.037 A 
ATOM     24  C   UNL A   1      39.791  32.468  35.268  1.00  0.00     0.037 A 
ATOM     25  C   UNL A   1      41.620  28.285  30.628  1.00  0.00     0.049 A 
ATOM     26  C   UNL A   1      40.732  31.302  35.282  1.00  0.00     0.074 A 
ATOM     27  C   UNL A   1      42.718  27.450  30.633  1.00  0.00     0.029 A 
ATOM     28  N   UNL A   1      41.587  28.920  31.865  1.00  0.00    -0.354 N 
ATOM     29  N   UNL A   1      41.028  30.487  34.300  1.00  0.00    -0.248 NA
ATOM     30  C   UNL A   1      41.523  31.090  36.501  1.00  0.00     0.031 C 
ATOM     31  C   UNL A   1      43.309  27.526  31.901  1.00  0.00     0.029 A 
ATOM     32  C   UNL A   1      42.613  28.451  32.665  1.00  0.00     0.049 A 
ATOM     33  H   UNL A   1      40.930  29.604  32.130  1.00  0.00     0.167 HD
ATOM     34  C   UNL A   1      42.120  29.754  34.729  1.00  0.00     0.074 A 
ATOM     35  C   UNL A   1      42.388  30.169  36.093  1.00  0.00     0.031 C 
ATOM     36  C   UNL A   1      42.867  28.873  34.023  1.00  0.00     0.037 A 
BRANCH  23  37
ATOM     37  C   UNL A   1      40.709  27.729  28.309  1.00  0.00     0.064 A 
ATOM     38  C   UNL A   1      40.117  26.458  28.185  1.00  0.00     0.173 A 
ATOM     39  C   UNL A   1      41.489  28.201  27.249  1.00  0.00     0.173 A 
ATOM     40  F   UNL A   1      39.387  25.950  29.190  1.00  0.00    -0.203 F 
ATOM     41  C   UNL A   1      40.371  25.657  27.076  1.00  0.00     0.198 A 
ATOM     42  C   UNL A   1      41.711  27.410  26.126  1.00  0.00     0.198 A 
ATOM     43  F   UNL A   1      42.079  29.403  27.326  1.00  0.00    -0.203 F 
ATOM     44  F   UNL A   1      39.893  24.406  27.031  1.00  0.00    -0.200 F 
ATOM     45  C   UNL A   1      41.173  26.133  26.050  1.00  0.00     0.200 A 
ATOM     46  F   UNL A   1      42.487  27.867  25.133  1.00  0.00    -0.200 F 
ATOM     47  F   UNL A   1      41.450  25.348  25.001  1.00  0.00    -0.200 F 
ENDBRANCH  23  37
BRANCH  24  48
ATOM     48  C   UNL A   1      39.490  33.250  36.497  1.00  0.00     0.064 A 
ATOM     49  C   UNL A   1      40.208  34.406  36.829  1.00  0.00     0.173 A 
ATOM     50  C   UNL A   1      38.463  32.854  37.370  1.00  0.00     0.173 A 
ATOM     51  F   UNL A   1      41.208  34.818  36.038  1.00  0.00    -0.203 F 
ATOM     52  C   UNL A   1      39.921  35.129  37.988  1.00  0.00     0.198 A 
ATOM     53  C   UNL A   1      38.172  33.583  38.526  1.00  0.00     0.198 A 
ATOM     54  F   UNL A   1      37.740  31.755  37.106  1.00  0.00    -0.203 F 
ATOM     55  F   UNL A   1      40.638  36.222  38.285  1.00  0.00    -0.200 F 
ATOM     56  C   UNL A   1      38.902  34.720  38.834  1.00  0.00     0.200 A 
ATOM     57  F   UNL A   1      37.185  33.184  39.342  1.00  0.00    -0.200 F 
ATOM     58  F   UNL A   1      38.627  35.419  39.945  1.00  0.00    -0.200 F 
ENDBRANCH  24  48
BRANCH  36  59
ATOM     59  C   UNL A   1      44.085  28.312  34.688  1.00  0.00     0.064 A 
ATOM     60  C   UNL A   1      44.041  27.113  35.409  1.00  0.00     0.173 A 
ATOM     61  C   UNL A   1      45.330  28.936  34.510  1.00  0.00     0.173 A 
ATOM     62  F   UNL A   1      42.870  26.495  35.621  1.00  0.00    -0.203 F 
ATOM     63  C   UNL A   1      45.204  26.554  35.926  1.00  0.00     0.198 A 
ATOM     64  C   UNL A   1      46.494  28.358  35.002  1.00  0.00     0.198 A 
ATOM     65  F   UNL A   1      45.418  30.089  33.828  1.00  0.00    -0.203 F 
ATOM     66  F   UNL A   1      45.140  25.416  36.632  1.00  0.00    -0.200 F 
ATOM     67  C   UNL A   1      46.431  27.168  35.709  1.00  0.00     0.200 A 
ATOM     68  F   UNL A   1      47.678  28.944  34.777  1.00  0.00    -0.200 F 
ATOM     69  F   UNL A   1      47.553  26.608  36.180  1.00  0.00    -0.200 F 
ENDBRANCH  36  59
ENDBRANCH  10  11
ENDBRANCH   3   5
ENDBRANCH   2   3
ENDBRANCH   1   2
BRANCH   1  70
ATOM     70  C   UNL A   1      31.514  31.096  26.126  1.00  0.00     0.274 C 
BRANCH  70  71
ATOM     71  O   UNL A   1      32.191  30.078  25.374  1.00  0.00    -0.457 OA
BRANCH  71  72
ATOM     72  C   UNL A   1      31.408  29.220  24.629  1.00  0.00     0.368 C 
ATOM     73  O   UNL A   1      30.561  29.624  23.838  1.00  0.00    -0.245 OA
BRANCH  72  74
ATOM     74  C   UNL A   1      31.719  27.678  24.999  1.00  0.00     0.196 C 
ATOM     75  C   UNL A   1      31.448  27.298  26.501  1.00  0.00     0.081 C 
ATOM     76  C   UNL A   1      30.572  26.689  24.657  1.00  0.00     0.081 C 
ATOM     77  C   UNL A   1      30.640  26.068  26.046  1.00  0.00     0.014 C 
BRANCH  74  78
ATOM     78  N   UNL A   1      33.141  27.254  24.713  1.00  0.00    -0.317 N 
ATOM     79  C   UNL A   1      33.871  28.212  23.867  1.00  0.00     0.292 C 
ATOM     80  C   UNL A   1      33.366  25.925  24.127  1.00  0.00     0.292 C 
ATOM     81  H   UNL A   1      33.498  27.222  25.668  1.00  0.00     0.349 HD
ATOM     82  C   UNL A   1      33.470  28.178  22.398  1.00  0.00     0.221 C 
ATOM     83  C   UNL A   1      33.068  25.808  22.629  1.00  0.00     0.221 C 
ATOM     84  O   UNL A   1      32.676  27.050  22.048  1.00  0.00    -0.370 OA
ENDBRANCH  74  78
ENDBRANCH  72  74
ENDBRANCH  71  72
ENDBRANCH  70  71
ENDBRANCH   1  70
TORSDOF 12
ENDMDL
MODEL 3
REMARK VINA RESULT:     -10.7      2.137      3.170
REMARK SMILES O=C(OCCOC(=O)C1([NH+]2CCOCC2)CCC1)c1ccc(-c2c3nc(c(-c4c(F)c(F)c(F)c(F)c4F)c4ccc([nH]4)c(-c4c(F)c(F)c(F)c(F)c4F)c4nc(c(-c5c(F)c(F)c(F)c(F)c5F)c5ccc2[nH]5)C=C4)C=C3)cc1
REMARK SMILES IDX 4 1 3 2 2 3 1 4 19 5 20 6 81 7 21 8 80 9 22 10 23 11 24 12
REMARK SMILES IDX 74 13 25 14 79 15 73 16 75 17 26 18 78 19 72 20 71 21 27 23
REMARK SMILES IDX 59 24 39 25 58 26 40 27 43 28 57 29 76 30 41 31 42 32 56 34
REMARK SMILES IDX 77 35 44 36 28 37 29 38 37 39 30 40 31 41 35 42 38 43 32 44
REMARK SMILES IDX 33 45 36 46 34 47 60 48 61 49 69 50 62 51 63 52 67 53 70 54
REMARK SMILES IDX 64 55 65 56 68 57 66 58 45 59 46 60 54 61 47 62 48 63 52 64
REMARK SMILES IDX 55 65 49 66 50 67 53 68 51 69 5 70 6 71 7 72 8 73 9 74 16 75
REMARK SMILES IDX 18 76 17 77 10 78 11 79 15 80 12 82 14 83 13 84
REMARK H PARENT 75 22 43 33 10 81
REMARK Flexibility Score: inf
ROOT
ATOM      1  C   UNL A   1      34.013  32.831  28.016  1.00  0.00     0.275 C 
ENDROOT
BRANCH   1   2
ATOM      2  O   UNL A   1      33.564  31.541  27.586  1.00  0.00    -0.458 OA
BRANCH   2   3
ATOM      3  C   UNL A   1      34.270  30.427  27.291  1.00  0.00     0.338 C 
ATOM      4  O   UNL A   1      33.801  29.664  26.446  1.00  0.00    -0.246 OA
BRANCH   3   5
ATOM      5  C   UNL A   1      35.541  29.999  27.973  1.00  0.00     0.060 A 
ATOM      6  C   UNL A   1      35.758  29.766  29.339  1.00  0.00     0.016 A 
ATOM      7  C   UNL A   1      36.644  29.839  27.121  1.00  0.00     0.016 A 
ATOM      8  C   UNL A   1      37.014  29.335  29.832  1.00  0.00     0.010 A 
ATOM      9  C   UNL A   1      37.870  29.360  27.593  1.00  0.00     0.010 A 
ATOM     10  C   UNL A   1      38.082  29.115  28.962  1.00  0.00    -0.014 A 
BRANCH  10  11
ATOM     11  C   UNL A   1      39.490  28.850  29.382  1.00  0.00     0.031 A 
ATOM     12  C   UNL A   1      40.286  30.038  29.818  1.00  0.00     0.074 A 
ATOM     13  C   UNL A   1      40.129  27.666  29.281  1.00  0.00     0.049 A 
ATOM     14  N   UNL A   1      41.565  30.128  30.051  1.00  0.00    -0.248 NA
ATOM     15  C   UNL A   1      39.529  31.279  30.058  1.00  0.00     0.031 C 
ATOM     16  C   UNL A   1      39.511  26.368  29.111  1.00  0.00     0.029 A 
ATOM     17  N   UNL A   1      41.476  27.380  29.198  1.00  0.00    -0.354 N 
ATOM     18  C   UNL A   1      41.744  31.402  30.551  1.00  0.00     0.074 A 
ATOM     19  C   UNL A   1      40.495  32.112  30.401  1.00  0.00     0.031 C 
ATOM     20  C   UNL A   1      40.423  25.478  28.682  1.00  0.00     0.029 A 
ATOM     21  C   UNL A   1      41.722  26.131  28.661  1.00  0.00     0.049 A 
ATOM     22  H   UNL A   1      42.184  27.997  29.492  1.00  0.00     0.167 HD
ATOM     23  C   UNL A   1      42.826  31.888  31.197  1.00  0.00     0.037 A 
ATOM     24  C   UNL A   1      42.865  25.577  28.213  1.00  0.00     0.037 A 
ATOM     25  C   UNL A   1      44.061  31.171  31.319  1.00  0.00     0.049 A 
ATOM     26  C   UNL A   1      44.141  26.223  28.662  1.00  0.00     0.074 A 
ATOM     27  C   UNL A   1      45.218  31.538  31.975  1.00  0.00     0.029 A 
ATOM     28  N   UNL A   1      44.303  29.933  30.732  1.00  0.00    -0.354 N 
ATOM     29  N   UNL A   1      44.297  27.375  29.265  1.00  0.00    -0.248 NA
ATOM     30  C   UNL A   1      45.376  25.440  28.526  1.00  0.00     0.031 C 
ATOM     31  C   UNL A   1      46.184  30.556  31.724  1.00  0.00     0.029 A 
ATOM     32  C   UNL A   1      45.612  29.549  30.960  1.00  0.00     0.049 A 
ATOM     33  H   UNL A   1      43.640  29.409  30.228  1.00  0.00     0.167 HD
ATOM     34  C   UNL A   1      45.612  27.404  29.696  1.00  0.00     0.074 A 
ATOM     35  C   UNL A   1      46.232  26.182  29.218  1.00  0.00     0.031 C 
ATOM     36  C   UNL A   1      46.217  28.331  30.477  1.00  0.00     0.037 A 
BRANCH  23  37
ATOM     37  C   UNL A   1      42.650  33.240  31.811  1.00  0.00     0.064 A 
ATOM     38  C   UNL A   1      43.073  34.401  31.137  1.00  0.00     0.173 A 
ATOM     39  C   UNL A   1      42.202  33.368  33.130  1.00  0.00     0.173 A 
ATOM     40  F   UNL A   1      43.543  34.323  29.882  1.00  0.00    -0.203 F 
ATOM     41  C   UNL A   1      43.127  35.627  31.792  1.00  0.00     0.198 A 
ATOM     42  C   UNL A   1      42.223  34.604  33.769  1.00  0.00     0.198 A 
ATOM     43  F   UNL A   1      41.796  32.288  33.814  1.00  0.00    -0.203 F 
ATOM     44  F   UNL A   1      43.642  36.696  31.170  1.00  0.00    -0.200 F 
ATOM     45  C   UNL A   1      42.706  35.726  33.110  1.00  0.00     0.200 A 
ATOM     46  F   UNL A   1      41.819  34.701  35.043  1.00  0.00    -0.200 F 
ATOM     47  F   UNL A   1      42.794  36.897  33.753  1.00  0.00    -0.200 F 
ENDBRANCH  23  37
BRANCH  24  48
ATOM     48  C   UNL A   1      42.857  24.296  27.456  1.00  0.00     0.064 A 
ATOM     49  C   UNL A   1      42.605  23.070  28.085  1.00  0.00     0.173 A 
ATOM     50  C   UNL A   1      43.099  24.275  26.072  1.00  0.00     0.173 A 
ATOM     51  F   UNL A   1      42.382  23.033  29.406  1.00  0.00    -0.203 F 
ATOM     52  C   UNL A   1      42.604  21.874  27.366  1.00  0.00     0.198 A 
ATOM     53  C   UNL A   1      43.092  23.078  25.352  1.00  0.00     0.198 A 
ATOM     54  F   UNL A   1      43.349  25.417  25.414  1.00  0.00    -0.203 F 
ATOM     55  F   UNL A   1      42.375  20.715  28.000  1.00  0.00    -0.200 F 
ATOM     56  C   UNL A   1      42.845  21.877  26.000  1.00  0.00     0.200 A 
ATOM     57  F   UNL A   1      43.325  23.085  24.031  1.00  0.00    -0.200 F 
ATOM     58  F   UNL A   1      42.841  20.726  25.313  1.00  0.00    -0.200 F 
ENDBRANCH  24  48
BRANCH  36  59
ATOM     59  C   UNL A   1      47.622  28.055  30.911  1.00  0.00     0.064 A 
ATOM     60  C   UNL A   1      47.903  27.325  32.072  1.00  0.00     0.173 A 
ATOM     61  C   UNL A   1      48.696  28.442  30.093  1.00  0.00     0.173 A 
ATOM     62  F   UNL A   1      46.909  26.954  32.892  1.00  0.00    -0.203 F 
ATOM     63  C   UNL A   1      49.211  26.987  32.399  1.00  0.00     0.198 A 
ATOM     64  C   UNL A   1      49.999  28.076  30.408  1.00  0.00     0.198 A 
ATOM     65  F   UNL A   1      48.475  29.146  28.973  1.00  0.00    -0.203 F 
ATOM     66  F   UNL A   1      49.462  26.306  33.525  1.00  0.00    -0.200 F 
ATOM     67  C   UNL A   1      50.256  27.348  31.559  1.00  0.00     0.200 A 
ATOM     68  F   UNL A   1      51.004  28.412  29.587  1.00  0.00    -0.200 F 
ATOM     69  F   UNL A   1      51.512  26.992  31.860  1.00  0.00    -0.200 F 
ENDBRANCH  36  59
ENDBRANCH  10  11
ENDBRANCH   3   5
ENDBRANCH   2   3
ENDBRANCH   1   2
BRANCH   1  70
ATOM     70  C   UNL A   1      32.932  33.909  28.011  1.00  0.00     0.274 C 
BRANCH  70  71
ATOM     71  O   UNL A   1      32.724  34.489  29.308  1.00  0.00    -0.457 OA
BRANCH  71  72
ATOM     72  C   UNL A   1      33.509  35.573  29.646  1.00  0.00     0.368 C 
ATOM     73  O   UNL A   1      34.059  36.273  28.802  1.00  0.00    -0.245 OA
BRANCH  72  74
ATOM     74  C   UNL A   1      33.637  35.720  31.250  1.00  0.00     0.196 C 
ATOM     75  C   UNL A   1      33.470  37.189  31.788  1.00  0.00     0.081 C 
ATOM     76  C   UNL A   1      32.335  35.404  32.033  1.00  0.00     0.081 C 
ATOM     77  C   UNL A   1      32.457  36.692  32.835  1.00  0.00     0.014 C 
BRANCH  74  78
ATOM     78  N   UNL A   1      34.950  35.220  31.808  1.00  0.00    -0.317 N 
ATOM     79  C   UNL A   1      35.481  34.056  31.080  1.00  0.00     0.292 C 
ATOM     80  C   UNL A   1      35.014  34.883  33.237  1.00  0.00     0.292 C 
ATOM     81  H   UNL A   1      35.515  36.059  31.675  1.00  0.00     0.349 HD
ATOM     82  C   UNL A   1      34.754  32.751  31.376  1.00  0.00     0.221 C 
ATOM     83  C   UNL A   1      34.379  33.544  33.625  1.00  0.00     0.221 C 
ATOM     84  O   UNL A   1      33.884  32.823  32.499  1.00  0.00    -0.370 OA
ENDBRANCH  74  78
ENDBRANCH  72  74
ENDBRANCH  71  72
ENDBRANCH  70  71
ENDBRANCH   1  70
TORSDOF 12
ENDMDL
