MODEL 1
REMARK VINA RESULT:     -12.5      0.000      0.000
REMARK SMILES O=C(Cc1sc(N2N=C(c3cccs3)C[C@@H]2c2ccco2)nc1-c1ccccc1)OCCOC(=O)c1ccc(-c2c3nc(c(-c4c(F)c(F)c(F)c(F)c4F)c4ccc([nH]4)c(-c4c(F)c(F)c(F)c(F)c4F)c4nc(c(-c5c(F)c(F)c(F)c(F)c5F)c5ccc2[nH]5)C=C4)C=C3)cc1
REMARK SMILES IDX 31 1 30 2 2 3 1 4 3 5 4 6 5 7 23 8 6 9 22 10 24 11 25 12
REMARK SMILES IDX 29 13 26 14 28 15 27 16 7 17 8 18 16 19 9 20 15 21 17 22
REMARK SMILES IDX 18 23 21 24 19 25 20 26 10 27 11 28 14 29 12 30 13 31 32 32
REMARK SMILES IDX 33 33 34 34 35 35 36 36 37 37 98 38 38 39 97 40 39 41 40 42
REMARK SMILES IDX 41 43 91 44 42 45 96 46 90 47 92 48 43 49 95 50 89 51 88 52
REMARK SMILES IDX 44 54 76 55 56 56 75 57 57 58 60 59 74 60 93 61 58 62 59 63
REMARK SMILES IDX 73 65 94 66 61 67 45 68 46 69 54 70 47 71 48 72 52 73 55 74
REMARK SMILES IDX 49 75 50 76 53 77 51 78 77 79 78 80 86 81 79 82 80 83 84 84
REMARK SMILES IDX 87 85 81 86 82 87 85 88 83 89 62 90 63 91 71 92 64 93 65 94
REMARK SMILES IDX 69 95 72 96 66 97 67 98 70 99 68 100
REMARK H PARENT 92 53 60 64
REMARK Flexibility Score: inf
ROOT
ATOM      1  C   UNL A   1      31.659  29.876  25.771  1.00  0.00     0.274 C 
ENDROOT
BRANCH   1   2
ATOM      2  O   UNL A   1      31.663  28.827  26.765  1.00  0.00    -0.462 OA
BRANCH   2   3
ATOM      3  C   UNL A   1      32.494  27.760  26.802  1.00  0.00     0.311 C 
ATOM      4  O   UNL A   1      33.708  27.933  26.917  1.00  0.00    -0.252 OA
BRANCH   3   5
ATOM      5  C   UNL A   1      31.944  26.371  26.623  1.00  0.00     0.171 C 
BRANCH   5   6
ATOM      6  C   UNL A   1      32.712  25.451  25.736  1.00  0.00     0.046 A 
ATOM      7  S   UNL A   1      33.074  23.895  26.362  1.00  0.00    -0.099 S 
ATOM      8  C   UNL A   1      33.147  25.515  24.424  1.00  0.00     0.087 A 
ATOM      9  C   UNL A   1      33.901  23.486  24.903  1.00  0.00     0.207 A 
ATOM     10  N   UNL A   1      33.921  24.447  23.998  1.00  0.00    -0.218 NA
BRANCH   8  11
ATOM     11  C   UNL A   1      32.757  26.596  23.540  1.00  0.00     0.001 A 
ATOM     12  C   UNL A   1      33.627  27.657  23.274  1.00  0.00     0.010 A 
ATOM     13  C   UNL A   1      31.427  26.659  23.099  1.00  0.00     0.010 A 
ATOM     14  C   UNL A   1      33.144  28.809  22.649  1.00  0.00     0.001 A 
ATOM     15  C   UNL A   1      30.953  27.805  22.463  1.00  0.00     0.001 A 
ATOM     16  C   UNL A   1      31.806  28.888  22.258  1.00  0.00     0.000 A 
ENDBRANCH   8  11
BRANCH   9  17
ATOM     17  N   UNL A   1      34.457  22.253  24.785  1.00  0.00    -0.228 N 
ATOM     18  N   UNL A   1      33.768  21.081  24.959  1.00  0.00    -0.173 NA
ATOM     19  C   UNL A   1      35.858  22.065  24.426  1.00  0.00     0.183 C 
ATOM     20  C   UNL A   1      34.608  20.116  24.764  1.00  0.00     0.081 C 
ATOM     21  C   UNL A   1      36.012  20.536  24.462  1.00  0.00     0.095 C 
BRANCH  19  22
ATOM     22  C   UNL A   1      36.903  22.687  25.318  1.00  0.00     0.128 A 
ATOM     23  C   UNL A   1      37.011  23.934  25.904  1.00  0.00     0.048 A 
ATOM     24  O   UNL A   1      38.010  21.944  25.622  1.00  0.00    -0.467 OA
ATOM     25  C   UNL A   1      38.242  23.946  26.605  1.00  0.00     0.042 A 
ATOM     26  C   UNL A   1      38.806  22.708  26.411  1.00  0.00     0.195 A 
ENDBRANCH  19  22
BRANCH  20  27
ATOM     27  C   UNL A   1      34.234  18.728  24.832  1.00  0.00     0.050 A 
ATOM     28  C   UNL A   1      34.932  17.621  24.393  1.00  0.00     0.022 A 
ATOM     29  S   UNL A   1      32.725  18.293  25.513  1.00  0.00    -0.142 S 
ATOM     30  C   UNL A   1      34.214  16.408  24.616  1.00  0.00     0.012 A 
ATOM     31  C   UNL A   1      32.986  16.634  25.194  1.00  0.00     0.065 A 
ENDBRANCH  20  27
ENDBRANCH   9  17
ENDBRANCH   5   6
ENDBRANCH   3   5
ENDBRANCH   2   3
ENDBRANCH   1   2
BRANCH   1  32
ATOM     32  C   UNL A   1      31.805  31.241  26.442  1.00  0.00     0.275 C 
BRANCH  32  33
ATOM     33  O   UNL A   1      32.871  31.175  27.405  1.00  0.00    -0.458 OA
BRANCH  33  34
ATOM     34  C   UNL A   1      33.595  32.307  27.578  1.00  0.00     0.338 C 
ATOM     35  O   UNL A   1      33.221  33.456  27.436  1.00  0.00    -0.246 OA
BRANCH  34  36
ATOM     36  C   UNL A   1      34.877  31.916  28.201  1.00  0.00     0.060 A 
ATOM     37  C   UNL A   1      35.035  30.593  28.638  1.00  0.00     0.016 A 
ATOM     38  C   UNL A   1      35.942  32.820  28.272  1.00  0.00     0.016 A 
ATOM     39  C   UNL A   1      36.260  30.173  29.158  1.00  0.00     0.010 A 
ATOM     40  C   UNL A   1      37.157  32.405  28.805  1.00  0.00     0.010 A 
ATOM     41  C   UNL A   1      37.314  31.088  29.271  1.00  0.00    -0.014 A 
BRANCH  41  42
ATOM     42  C   UNL A   1      38.519  30.775  30.067  1.00  0.00     0.031 A 
ATOM     43  C   UNL A   1      39.504  29.809  29.482  1.00  0.00     0.074 A 
ATOM     44  C   UNL A   1      38.676  31.246  31.315  1.00  0.00     0.049 A 
ATOM     45  N   UNL A   1      40.529  29.220  30.040  1.00  0.00    -0.248 NA
ATOM     46  C   UNL A   1      39.282  29.435  28.075  1.00  0.00     0.031 C 
ATOM     47  C   UNL A   1      37.784  32.193  31.980  1.00  0.00     0.029 A 
ATOM     48  N   UNL A   1      39.625  30.949  32.259  1.00  0.00    -0.354 N 
ATOM     49  C   UNL A   1      41.061  28.393  29.061  1.00  0.00     0.074 A 
ATOM     50  C   UNL A   1      40.238  28.540  27.880  1.00  0.00     0.031 C 
ATOM     51  C   UNL A   1      38.207  32.369  33.244  1.00  0.00     0.029 A 
ATOM     52  C   UNL A   1      39.377  31.523  33.481  1.00  0.00     0.049 A 
ATOM     53  H   UNL A   1      40.409  30.380  32.078  1.00  0.00     0.167 HD
ATOM     54  C   UNL A   1      42.137  27.578  29.143  1.00  0.00     0.037 A 
ATOM     55  C   UNL A   1      40.003  31.348  34.661  1.00  0.00     0.037 A 
ATOM     56  C   UNL A   1      42.941  27.426  30.323  1.00  0.00     0.049 A 
ATOM     57  C   UNL A   1      41.180  30.412  34.742  1.00  0.00     0.074 A 
ATOM     58  C   UNL A   1      44.073  26.652  30.506  1.00  0.00     0.029 A 
ATOM     59  N   UNL A   1      42.681  28.053  31.534  1.00  0.00    -0.354 N 
ATOM     60  N   UNL A   1      41.711  29.664  33.804  1.00  0.00    -0.248 NA
ATOM     61  C   UNL A   1      41.847  30.292  36.048  1.00  0.00     0.031 C 
ATOM     62  C   UNL A   1      44.473  26.778  31.840  1.00  0.00     0.029 A 
ATOM     63  C   UNL A   1      43.618  27.666  32.475  1.00  0.00     0.049 A 
ATOM     64  H   UNL A   1      41.941  28.681  31.697  1.00  0.00     0.167 HD
ATOM     65  C   UNL A   1      42.783  29.007  34.394  1.00  0.00     0.074 A 
ATOM     66  C   UNL A   1      42.831  29.445  35.774  1.00  0.00     0.031 C 
ATOM     67  C   UNL A   1      43.652  28.124  33.842  1.00  0.00     0.037 A 
BRANCH  54  68
ATOM     68  C   UNL A   1      42.467  26.766  27.927  1.00  0.00     0.064 A 
ATOM     69  C   UNL A   1      41.942  25.480  27.735  1.00  0.00     0.173 A 
ATOM     70  C   UNL A   1      43.342  27.272  26.955  1.00  0.00     0.173 A 
ATOM     71  F   UNL A   1      41.119  24.943  28.649  1.00  0.00    -0.203 F 
ATOM     72  C   UNL A   1      42.311  24.714  26.633  1.00  0.00     0.198 A 
ATOM     73  C   UNL A   1      43.688  26.515  25.840  1.00  0.00     0.198 A 
ATOM     74  F   UNL A   1      43.874  28.496  27.094  1.00  0.00    -0.203 F 
ATOM     75  F   UNL A   1      41.848  23.464  26.501  1.00  0.00    -0.200 F 
ATOM     76  C   UNL A   1      43.181  25.233  25.685  1.00  0.00     0.200 A 
ATOM     77  F   UNL A   1      44.523  27.020  24.922  1.00  0.00    -0.200 F 
ATOM     78  F   UNL A   1      43.542  24.493  24.628  1.00  0.00    -0.200 F 
ENDBRANCH  54  68
BRANCH  55  79
ATOM     79  C   UNL A   1      39.511  32.068  35.863  1.00  0.00     0.064 A 
ATOM     80  C   UNL A   1      38.503  31.524  36.667  1.00  0.00     0.173 A 
ATOM     81  C   UNL A   1      40.053  33.307  36.240  1.00  0.00     0.173 A 
ATOM     82  F   UNL A   1      37.935  30.357  36.331  1.00  0.00    -0.203 F 
ATOM     83  C   UNL A   1      38.050  32.194  37.803  1.00  0.00     0.198 A 
ATOM     84  C   UNL A   1      39.614  33.965  37.388  1.00  0.00     0.198 A 
ATOM     85  F   UNL A   1      41.014  33.874  35.496  1.00  0.00    -0.203 F 
ATOM     86  F   UNL A   1      37.058  31.668  38.537  1.00  0.00    -0.200 F 
ATOM     87  C   UNL A   1      38.610  33.409  38.167  1.00  0.00     0.200 A 
ATOM     88  F   UNL A   1      40.156  35.141  37.734  1.00  0.00    -0.200 F 
ATOM     89  F   UNL A   1      38.175  34.051  39.260  1.00  0.00    -0.200 F 
ENDBRANCH  55  79
BRANCH  67  90
ATOM     90  C   UNL A   1      44.754  27.595  34.711  1.00  0.00     0.064 A 
ATOM     91  C   UNL A   1      44.617  26.395  35.422  1.00  0.00     0.173 A 
ATOM     92  C   UNL A   1      45.991  28.256  34.764  1.00  0.00     0.173 A 
ATOM     93  F   UNL A   1      43.451  25.732  35.412  1.00  0.00    -0.203 F 
ATOM     94  C   UNL A   1      45.680  25.878  36.161  1.00  0.00     0.198 A 
ATOM     95  C   UNL A   1      47.056  27.725  35.484  1.00  0.00     0.198 A 
ATOM     96  F   UNL A   1      46.171  29.405  34.094  1.00  0.00    -0.203 F 
ATOM     97  F   UNL A   1      45.521  24.741  36.852  1.00  0.00    -0.200 F 
ATOM     98  C   UNL A   1      46.900  26.538  36.183  1.00  0.00     0.200 A 
ATOM     99  F   UNL A   1      48.238  28.357  35.493  1.00  0.00    -0.200 F 
ATOM    100  F   UNL A   1      47.925  26.031  36.880  1.00  0.00    -0.200 F 
ENDBRANCH  67  90
ENDBRANCH  41  42
ENDBRANCH  34  36
ENDBRANCH  33  34
ENDBRANCH  32  33
ENDBRANCH   1  32
TORSDOF 16
ENDMDL
MODEL 2
REMARK VINA RESULT:     -12.4      0.503      1.943
REMARK SMILES O=C(Cc1sc(N2N=C(c3cccs3)C[C@@H]2c2ccco2)nc1-c1ccccc1)OCCOC(=O)c1ccc(-c2c3nc(c(-c4c(F)c(F)c(F)c(F)c4F)c4ccc([nH]4)c(-c4c(F)c(F)c(F)c(F)c4F)c4nc(c(-c5c(F)c(F)c(F)c(F)c5F)c5ccc2[nH]5)C=C4)C=C3)cc1
REMARK SMILES IDX 31 1 30 2 2 3 1 4 3 5 4 6 5 7 23 8 6 9 22 10 24 11 25 12
REMARK SMILES IDX 29 13 26 14 28 15 27 16 7 17 8 18 16 19 9 20 15 21 17 22
REMARK SMILES IDX 18 23 21 24 19 25 20 26 10 27 11 28 14 29 12 30 13 31 32 32
REMARK SMILES IDX 33 33 34 34 35 35 36 36 37 37 98 38 38 39 97 40 39 41 40 42
REMARK SMILES IDX 41 43 91 44 42 45 96 46 90 47 92 48 43 49 95 50 89 51 88 52
REMARK SMILES IDX 44 54 76 55 56 56 75 57 57 58 60 59 74 60 93 61 58 62 59 63
REMARK SMILES IDX 73 65 94 66 61 67 45 68 46 69 54 70 47 71 48 72 52 73 55 74
REMARK SMILES IDX 49 75 50 76 53 77 51 78 77 79 78 80 86 81 79 82 80 83 84 84
REMARK SMILES IDX 87 85 81 86 82 87 85 88 83 89 62 90 63 91 71 92 64 93 65 94
REMARK SMILES IDX 69 95 72 96 66 97 67 98 70 99 68 100
REMARK H PARENT 92 53 60 64
REMARK Flexibility Score: inf
ROOT
ATOM      1  C   UNL A   1      31.378  29.830  26.102  1.00  0.00     0.274 C 
ENDROOT
BRANCH   1   2
ATOM      2  O   UNL A   1      31.764  28.898  27.136  1.00  0.00    -0.462 OA
BRANCH   2   3
ATOM      3  C   UNL A   1      32.485  27.765  26.966  1.00  0.00     0.311 C 
ATOM      4  O   UNL A   1      33.713  27.827  26.882  1.00  0.00    -0.252 OA
BRANCH   3   5
ATOM      5  C   UNL A   1      31.783  26.444  26.802  1.00  0.00     0.171 C 
BRANCH   5   6
ATOM      6  C   UNL A   1      32.404  25.464  25.867  1.00  0.00     0.046 A 
ATOM      7  S   UNL A   1      32.776  23.915  26.504  1.00  0.00    -0.099 S 
ATOM      8  C   UNL A   1      32.684  25.465  24.511  1.00  0.00     0.087 A 
ATOM      9  C   UNL A   1      33.408  23.423  24.975  1.00  0.00     0.207 A 
ATOM     10  N   UNL A   1      33.359  24.351  24.038  1.00  0.00    -0.218 NA
BRANCH   8  11
ATOM     11  C   UNL A   1      32.236  26.532  23.638  1.00  0.00     0.001 A 
ATOM     12  C   UNL A   1      33.073  27.607  23.327  1.00  0.00     0.010 A 
ATOM     13  C   UNL A   1      30.887  26.568  23.257  1.00  0.00     0.010 A 
ATOM     14  C   UNL A   1      32.542  28.746  22.717  1.00  0.00     0.001 A 
ATOM     15  C   UNL A   1      30.364  27.701  22.635  1.00  0.00     0.001 A 
ATOM     16  C   UNL A   1      31.187  28.798  22.386  1.00  0.00     0.000 A 
ENDBRANCH   8  11
BRANCH   9  17
ATOM     17  N   UNL A   1      33.897  22.162  24.840  1.00  0.00    -0.228 N 
ATOM     18  N   UNL A   1      33.172  21.028  25.091  1.00  0.00    -0.173 NA
ATOM     19  C   UNL A   1      35.257  21.904  24.378  1.00  0.00     0.183 C 
ATOM     20  C   UNL A   1      33.950  20.021  24.851  1.00  0.00     0.081 C 
ATOM     21  C   UNL A   1      35.344  20.371  24.433  1.00  0.00     0.095 C 
BRANCH  19  22
ATOM     22  C   UNL A   1      36.395  22.491  25.173  1.00  0.00     0.128 A 
ATOM     23  C   UNL A   1      36.610  23.746  25.713  1.00  0.00     0.048 A 
ATOM     24  O   UNL A   1      37.480  21.698  25.421  1.00  0.00    -0.467 OA
ATOM     25  C   UNL A   1      37.888  23.709  26.324  1.00  0.00     0.042 A 
ATOM     26  C   UNL A   1      38.370  22.438  26.127  1.00  0.00     0.195 A 
ENDBRANCH  19  22
BRANCH  20  27
ATOM     27  C   UNL A   1      33.520  18.653  24.976  1.00  0.00     0.050 A 
ATOM     28  C   UNL A   1      32.724  18.080  25.946  1.00  0.00     0.022 A 
ATOM     29  S   UNL A   1      34.034  17.499  23.820  1.00  0.00    -0.142 S 
ATOM     30  C   UNL A   1      32.541  16.681  25.737  1.00  0.00     0.012 A 
ATOM     31  C   UNL A   1      33.223  16.231  24.630  1.00  0.00     0.065 A 
ENDBRANCH  20  27
ENDBRANCH   9  17
ENDBRANCH   5   6
ENDBRANCH   3   5
ENDBRANCH   2   3
ENDBRANCH   1   2
BRANCH   1  32
ATOM     32  C   UNL A   1      31.776  31.252  26.495  1.00  0.00     0.275 C 
BRANCH  32  33
ATOM     33  O   UNL A   1      33.191  31.286  26.749  1.00  0.00    -0.458 OA
BRANCH  33  34
ATOM     34  C   UNL A   1      33.648  32.346  27.459  1.00  0.00     0.338 C 
ATOM     35  O   UNL A   1      33.065  33.387  27.697  1.00  0.00    -0.246 OA
BRANCH  34  36
ATOM     36  C   UNL A   1      34.912  31.930  28.103  1.00  0.00     0.060 A 
ATOM     37  C   UNL A   1      35.048  30.596  28.513  1.00  0.00     0.016 A 
ATOM     38  C   UNL A   1      35.981  32.823  28.220  1.00  0.00     0.016 A 
ATOM     39  C   UNL A   1      36.257  30.154  29.052  1.00  0.00     0.010 A 
ATOM     40  C   UNL A   1      37.180  32.386  28.773  1.00  0.00     0.010 A 
ATOM     41  C   UNL A   1      37.315  31.058  29.212  1.00  0.00    -0.014 A 
BRANCH  41  42
ATOM     42  C   UNL A   1      38.498  30.716  30.028  1.00  0.00     0.031 A 
ATOM     43  C   UNL A   1      39.454  29.702  29.475  1.00  0.00     0.074 A 
ATOM     44  C   UNL A   1      38.658  31.205  31.269  1.00  0.00     0.049 A 
ATOM     45  N   UNL A   1      40.449  29.087  30.057  1.00  0.00    -0.248 NA
ATOM     46  C   UNL A   1      39.235  29.309  28.073  1.00  0.00     0.031 C 
ATOM     47  C   UNL A   1      37.794  32.197  31.905  1.00  0.00     0.029 A 
ATOM     48  N   UNL A   1      39.584  30.892  32.231  1.00  0.00    -0.354 N 
ATOM     49  C   UNL A   1      40.962  28.223  29.101  1.00  0.00     0.074 A 
ATOM     50  C   UNL A   1      40.160  28.376  27.908  1.00  0.00     0.031 C 
ATOM     51  C   UNL A   1      38.208  32.382  33.170  1.00  0.00     0.029 A 
ATOM     52  C   UNL A   1      39.342  31.499  33.438  1.00  0.00     0.049 A 
ATOM     53  H   UNL A   1      40.348  30.291  32.071  1.00  0.00     0.167 HD
ATOM     54  C   UNL A   1      42.006  27.370  29.212  1.00  0.00     0.037 A 
ATOM     55  C   UNL A   1      39.947  31.324  34.629  1.00  0.00     0.037 A 
ATOM     56  C   UNL A   1      42.789  27.211  30.406  1.00  0.00     0.049 A 
ATOM     57  C   UNL A   1      41.088  30.347  34.743  1.00  0.00     0.074 A 
ATOM     58  C   UNL A   1      43.890  26.400  30.617  1.00  0.00     0.029 A 
ATOM     59  N   UNL A   1      42.539  27.872  31.600  1.00  0.00    -0.354 N 
ATOM     60  N   UNL A   1      41.602  29.562  33.827  1.00  0.00    -0.248 NA
ATOM     61  C   UNL A   1      41.735  30.229  36.059  1.00  0.00     0.031 C 
ATOM     62  C   UNL A   1      44.278  26.538  31.954  1.00  0.00     0.029 A 
ATOM     63  C   UNL A   1      43.450  27.469  32.561  1.00  0.00     0.049 A 
ATOM     64  H   UNL A   1      41.820  28.530  31.742  1.00  0.00     0.167 HD
ATOM     65  C   UNL A   1      42.642  28.878  34.443  1.00  0.00     0.074 A 
ATOM     66  C   UNL A   1      42.690  29.341  35.814  1.00  0.00     0.031 C 
ATOM     67  C   UNL A   1      43.484  27.952  33.919  1.00  0.00     0.037 A 
BRANCH  54  68
ATOM     68  C   UNL A   1      42.320  26.523  28.017  1.00  0.00     0.064 A 
ATOM     69  C   UNL A   1      43.246  26.931  27.046  1.00  0.00     0.173 A 
ATOM     70  C   UNL A   1      41.664  25.297  27.827  1.00  0.00     0.173 A 
ATOM     71  F   UNL A   1      43.882  28.106  27.172  1.00  0.00    -0.203 F 
ATOM     72  C   UNL A   1      43.476  26.162  25.909  1.00  0.00     0.198 A 
ATOM     73  C   UNL A   1      41.917  24.517  26.703  1.00  0.00     0.198 A 
ATOM     74  F   UNL A   1      40.767  24.864  28.725  1.00  0.00    -0.203 F 
ATOM     75  F   UNL A   1      44.318  26.601  24.963  1.00  0.00    -0.200 F 
ATOM     76  C   UNL A   1      42.814  24.955  25.740  1.00  0.00     0.200 A 
ATOM     77  F   UNL A   1      41.281  23.349  26.543  1.00  0.00    -0.200 F 
ATOM     78  F   UNL A   1      43.030  24.219  24.641  1.00  0.00    -0.200 F 
ENDBRANCH  54  68
BRANCH  55  79
ATOM     79  C   UNL A   1      39.469  32.086  35.811  1.00  0.00     0.064 A 
ATOM     80  C   UNL A   1      40.010  33.337  36.130  1.00  0.00     0.173 A 
ATOM     81  C   UNL A   1      38.449  31.585  36.634  1.00  0.00     0.173 A 
ATOM     82  F   UNL A   1      41.008  33.843  35.390  1.00  0.00    -0.203 F 
ATOM     83  C   UNL A   1      39.553  34.058  37.232  1.00  0.00     0.198 A 
ATOM     84  C   UNL A   1      37.978  32.316  37.723  1.00  0.00     0.198 A 
ATOM     85  F   UNL A   1      37.904  30.387  36.375  1.00  0.00    -0.203 F 
ATOM     86  F   UNL A   1      40.113  35.238  37.537  1.00  0.00    -0.200 F 
ATOM     87  C   UNL A   1      38.533  33.552  38.023  1.00  0.00     0.200 A 
ATOM     88  F   UNL A   1      36.993  31.822  38.486  1.00  0.00    -0.200 F 
ATOM     89  F   UNL A   1      38.092  34.247  39.081  1.00  0.00    -0.200 F 
ENDBRANCH  55  79
BRANCH  67  90
ATOM     90  C   UNL A   1      44.555  27.401  34.812  1.00  0.00     0.064 A 
ATOM     91  C   UNL A   1      45.787  28.051  34.970  1.00  0.00     0.173 A 
ATOM     92  C   UNL A   1      44.311  26.254  35.583  1.00  0.00     0.173 A 
ATOM     93  F   UNL A   1      46.071  29.144  34.247  1.00  0.00    -0.203 F 
ATOM     94  C   UNL A   1      46.740  27.568  35.865  1.00  0.00     0.198 A 
ATOM     95  C   UNL A   1      45.255  25.788  36.493  1.00  0.00     0.198 A 
ATOM     96  F   UNL A   1      43.143  25.602  35.472  1.00  0.00    -0.203 F 
ATOM     97  F   UNL A   1      47.920  28.191  35.984  1.00  0.00    -0.200 F 
ATOM     98  C   UNL A   1      46.468  26.444  36.632  1.00  0.00     0.200 A 
ATOM     99  F   UNL A   1      44.987  24.710  37.242  1.00  0.00    -0.200 F 
ATOM    100  F   UNL A   1      47.379  25.991  37.504  1.00  0.00    -0.200 F 
ENDBRANCH  67  90
ENDBRANCH  41  42
ENDBRANCH  34  36
ENDBRANCH  33  34
ENDBRANCH  32  33
ENDBRANCH   1  32
TORSDOF 16
ENDMDL
MODEL 3
REMARK VINA RESULT:     -12.4      2.136      3.435
REMARK SMILES O=C(Cc1sc(N2N=C(c3cccs3)C[C@@H]2c2ccco2)nc1-c1ccccc1)OCCOC(=O)c1ccc(-c2c3nc(c(-c4c(F)c(F)c(F)c(F)c4F)c4ccc([nH]4)c(-c4c(F)c(F)c(F)c(F)c4F)c4nc(c(-c5c(F)c(F)c(F)c(F)c5F)c5ccc2[nH]5)C=C4)C=C3)cc1
REMARK SMILES IDX 31 1 30 2 2 3 1 4 3 5 4 6 5 7 23 8 6 9 22 10 24 11 25 12
REMARK SMILES IDX 29 13 26 14 28 15 27 16 7 17 8 18 16 19 9 20 15 21 17 22
REMARK SMILES IDX 18 23 21 24 19 25 20 26 10 27 11 28 14 29 12 30 13 31 32 32
REMARK SMILES IDX 33 33 34 34 35 35 36 36 37 37 98 38 38 39 97 40 39 41 40 42
REMARK SMILES IDX 41 43 91 44 42 45 96 46 90 47 92 48 43 49 95 50 89 51 88 52
REMARK SMILES IDX 44 54 76 55 56 56 75 57 57 58 60 59 74 60 93 61 58 62 59 63
REMARK SMILES IDX 73 65 94 66 61 67 45 68 46 69 54 70 47 71 48 72 52 73 55 74
REMARK SMILES IDX 49 75 50 76 53 77 51 78 77 79 78 80 86 81 79 82 80 83 84 84
REMARK SMILES IDX 87 85 81 86 82 87 85 88 83 89 62 90 63 91 71 92 64 93 65 94
REMARK SMILES IDX 69 95 72 96 66 97 67 98 70 99 68 100
REMARK H PARENT 92 53 60 64
REMARK Flexibility Score: inf
ROOT
ATOM      1  C   UNL A   1      31.975  32.305  27.089  1.00  0.00     0.274 C 
ENDROOT
BRANCH   1   2
ATOM      2  O   UNL A   1      32.720  31.067  27.129  1.00  0.00    -0.462 OA
BRANCH   2   3
ATOM      3  C   UNL A   1      32.327  29.878  26.617  1.00  0.00     0.311 C 
ATOM      4  O   UNL A   1      31.502  29.193  27.223  1.00  0.00    -0.252 OA
BRANCH   3   5
ATOM      5  C   UNL A   1      32.955  29.359  25.352  1.00  0.00     0.171 C 
BRANCH   5   6
ATOM      6  C   UNL A   1      32.937  27.883  25.147  1.00  0.00     0.046 A 
ATOM      7  S   UNL A   1      34.011  26.954  26.109  1.00  0.00    -0.099 S 
ATOM      8  C   UNL A   1      32.157  27.022  24.395  1.00  0.00     0.087 A 
ATOM      9  C   UNL A   1      33.460  25.505  25.351  1.00  0.00     0.207 A 
ATOM     10  N   UNL A   1      32.536  25.689  24.427  1.00  0.00    -0.218 NA
BRANCH   8  11
ATOM     11  C   UNL A   1      30.981  27.480  23.681  1.00  0.00     0.001 A 
ATOM     12  C   UNL A   1      31.041  28.587  22.831  1.00  0.00     0.010 A 
ATOM     13  C   UNL A   1      29.738  26.912  23.997  1.00  0.00     0.010 A 
ATOM     14  C   UNL A   1      29.860  29.174  22.372  1.00  0.00     0.001 A 
ATOM     15  C   UNL A   1      28.562  27.492  23.524  1.00  0.00     0.001 A 
ATOM     16  C   UNL A   1      28.623  28.636  22.730  1.00  0.00     0.000 A 
ENDBRANCH   8  11
BRANCH   9  17
ATOM     17  N   UNL A   1      33.992  24.317  25.737  1.00  0.00    -0.228 N 
ATOM     18  N   UNL A   1      35.116  23.763  25.184  1.00  0.00    -0.173 NA
ATOM     19  C   UNL A   1      33.415  23.525  26.819  1.00  0.00     0.183 C 
ATOM     20  C   UNL A   1      35.328  22.644  25.799  1.00  0.00     0.081 C 
ATOM     21  C   UNL A   1      34.322  22.285  26.847  1.00  0.00     0.095 C 
BRANCH  19  22
ATOM     22  C   UNL A   1      31.980  23.084  26.681  1.00  0.00     0.128 A 
ATOM     23  C   UNL A   1      31.335  22.267  25.770  1.00  0.00     0.048 A 
ATOM     24  O   UNL A   1      31.070  23.574  27.575  1.00  0.00    -0.467 OA
ATOM     25  C   UNL A   1      29.967  22.257  26.136  1.00  0.00     0.042 A 
ATOM     26  C   UNL A   1      29.860  23.059  27.246  1.00  0.00     0.195 A 
ENDBRANCH  19  22
BRANCH  20  27
ATOM     27  C   UNL A   1      36.451  21.791  25.507  1.00  0.00     0.050 A 
ATOM     28  C   UNL A   1      36.453  20.501  25.018  1.00  0.00     0.022 A 
ATOM     29  S   UNL A   1      38.040  22.361  25.794  1.00  0.00    -0.142 S 
ATOM     30  C   UNL A   1      37.774  19.978  24.884  1.00  0.00     0.012 A 
ATOM     31  C   UNL A   1      38.730  20.877  25.297  1.00  0.00     0.065 A 
ENDBRANCH  20  27
ENDBRANCH   9  17
ENDBRANCH   5   6
ENDBRANCH   3   5
ENDBRANCH   2   3
ENDBRANCH   1   2
BRANCH   1  32
ATOM     32  C   UNL A   1      32.905  33.491  27.341  1.00  0.00     0.275 C 
BRANCH  32  33
ATOM     33  O   UNL A   1      32.341  34.313  28.378  1.00  0.00    -0.458 OA
BRANCH  33  34
ATOM     34  C   UNL A   1      33.147  35.276  28.885  1.00  0.00     0.338 C 
ATOM     35  O   UNL A   1      32.893  36.457  29.029  1.00  0.00    -0.246 OA
BRANCH  34  36
ATOM     36  C   UNL A   1      34.330  34.601  29.458  1.00  0.00     0.060 A 
ATOM     37  C   UNL A   1      34.147  33.735  30.546  1.00  0.00     0.016 A 
ATOM     38  C   UNL A   1      35.592  34.750  28.874  1.00  0.00     0.016 A 
ATOM     39  C   UNL A   1      35.232  33.022  31.060  1.00  0.00     0.010 A 
ATOM     40  C   UNL A   1      36.675  34.052  29.396  1.00  0.00     0.010 A 
ATOM     41  C   UNL A   1      36.504  33.204  30.504  1.00  0.00    -0.014 A 
BRANCH  41  42
ATOM     42  C   UNL A   1      37.716  32.701  31.183  1.00  0.00     0.031 A 
ATOM     43  C   UNL A   1      38.441  31.553  30.548  1.00  0.00     0.074 A 
ATOM     44  C   UNL A   1      38.094  33.174  32.382  1.00  0.00     0.049 A 
ATOM     45  N   UNL A   1      39.400  30.804  31.025  1.00  0.00    -0.248 NA
ATOM     46  C   UNL A   1      37.998  31.182  29.193  1.00  0.00     0.031 C 
ATOM     47  C   UNL A   1      37.467  34.288  33.088  1.00  0.00     0.029 A 
ATOM     48  N   UNL A   1      39.076  32.738  33.235  1.00  0.00    -0.354 N 
ATOM     49  C   UNL A   1      39.662  29.864  30.038  1.00  0.00     0.074 A 
ATOM     50  C   UNL A   1      38.751  30.122  28.945  1.00  0.00     0.031 C 
ATOM     51  C   UNL A   1      38.054  34.423  34.290  1.00  0.00     0.029 A 
ATOM     52  C   UNL A   1      39.073  33.386  34.445  1.00  0.00     0.049 A 
ATOM     53  H   UNL A   1      39.719  32.030  33.002  1.00  0.00     0.167 HD
ATOM     54  C   UNL A   1      40.578  28.868  30.048  1.00  0.00     0.037 A 
ATOM     55  C   UNL A   1      39.787  33.136  35.560  1.00  0.00     0.037 A 
ATOM     56  C   UNL A   1      41.469  28.609  31.144  1.00  0.00     0.049 A 
ATOM     57  C   UNL A   1      40.780  32.003  35.565  1.00  0.00     0.074 A 
ATOM     58  C   UNL A   1      42.458  27.647  31.245  1.00  0.00     0.029 A 
ATOM     59  N   UNL A   1      41.464  29.310  32.341  1.00  0.00    -0.354 N 
ATOM     60  N   UNL A   1      41.059  31.141  34.616  1.00  0.00    -0.248 NA
ATOM     61  C   UNL A   1      41.558  31.804  36.797  1.00  0.00     0.031 C 
ATOM     62  C   UNL A   1      43.023  27.739  32.522  1.00  0.00     0.029 A 
ATOM     63  C   UNL A   1      42.417  28.788  33.198  1.00  0.00     0.049 A 
ATOM     64  H   UNL A   1      40.871  30.068  32.549  1.00  0.00     0.167 HD
ATOM     65  C   UNL A   1      42.057  30.319  35.122  1.00  0.00     0.074 A 
ATOM     66  C   UNL A   1      42.337  30.783  36.465  1.00  0.00     0.031 C 
ATOM     67  C   UNL A   1      42.686  29.274  34.528  1.00  0.00     0.037 A 
BRANCH  54  68
ATOM     68  C   UNL A   1      40.618  27.972  28.848  1.00  0.00     0.064 A 
ATOM     69  C   UNL A   1      41.393  28.283  27.721  1.00  0.00     0.173 A 
ATOM     70  C   UNL A   1      39.848  26.800  28.815  1.00  0.00     0.173 A 
ATOM     71  F   UNL A   1      42.129  29.405  27.696  1.00  0.00    -0.203 F 
ATOM     72  C   UNL A   1      41.368  27.473  26.589  1.00  0.00     0.198 A 
ATOM     73  C   UNL A   1      39.846  25.978  27.693  1.00  0.00     0.198 A 
ATOM     74  F   UNL A   1      39.087  26.460  29.866  1.00  0.00    -0.203 F 
ATOM     75  F   UNL A   1      42.066  27.822  25.501  1.00  0.00    -0.200 F 
ATOM     76  C   UNL A   1      40.597  26.320  26.577  1.00  0.00     0.200 A 
ATOM     77  F   UNL A   1      39.105  24.861  27.683  1.00  0.00    -0.200 F 
ATOM     78  F   UNL A   1      40.565  25.545  25.484  1.00  0.00    -0.200 F 
ENDBRANCH  54  68
BRANCH  55  79
ATOM     79  C   UNL A   1      39.571  33.971  36.769  1.00  0.00     0.064 A 
ATOM     80  C   UNL A   1      38.756  33.526  37.817  1.00  0.00     0.173 A 
ATOM     81  C   UNL A   1      40.188  35.224  36.907  1.00  0.00     0.173 A 
ATOM     82  F   UNL A   1      38.121  32.349  37.717  1.00  0.00    -0.203 F 
ATOM     83  C   UNL A   1      38.563  34.304  38.958  1.00  0.00     0.198 A 
ATOM     84  C   UNL A   1      40.011  35.991  38.056  1.00  0.00     0.198 A 
ATOM     85  F   UNL A   1      40.970  35.699  35.926  1.00  0.00    -0.203 F 
ATOM     86  F   UNL A   1      37.750  33.870  39.931  1.00  0.00    -0.200 F 
ATOM     87  C   UNL A   1      39.195  35.532  39.080  1.00  0.00     0.200 A 
ATOM     88  F   UNL A   1      40.623  37.179  38.170  1.00  0.00    -0.200 F 
ATOM     89  F   UNL A   1      39.011  36.278  40.178  1.00  0.00    -0.200 F 
ENDBRANCH  55  79
BRANCH  67  90
ATOM     90  C   UNL A   1      43.767  28.581  35.302  1.00  0.00     0.064 A 
ATOM     91  C   UNL A   1      45.107  28.983  35.215  1.00  0.00     0.173 A 
ATOM     92  C   UNL A   1      43.443  27.557  36.206  1.00  0.00     0.173 A 
ATOM     93  F   UNL A   1      45.468  29.949  34.358  1.00  0.00    -0.203 F 
ATOM     94  C   UNL A   1      46.086  28.379  36.002  1.00  0.00     0.198 A 
ATOM     95  C   UNL A   1      44.419  26.974  37.007  1.00  0.00     0.198 A 
ATOM     96  F   UNL A   1      42.172  27.144  36.330  1.00  0.00    -0.203 F 
ATOM     97  F   UNL A   1      47.365  28.762  35.887  1.00  0.00    -0.200 F 
ATOM     98  C   UNL A   1      45.739  27.383  36.904  1.00  0.00     0.200 A 
ATOM     99  F   UNL A   1      44.081  26.021  37.887  1.00  0.00    -0.200 F 
ATOM    100  F   UNL A   1      46.679  26.817  37.671  1.00  0.00    -0.200 F 
ENDBRANCH  67  90
ENDBRANCH  41  42
ENDBRANCH  34  36
ENDBRANCH  33  34
ENDBRANCH  32  33
ENDBRANCH   1  32
TORSDOF 16
ENDMDL
