MODEL 1
REMARK VINA RESULT:     -12.4      0.000      0.000
REMARK SMILES CCn1cnc(S(=O)(=O)N2CCC(C)(C(=O)OCCOC(=O)c3ccc(-c4c5nc(c(-c6c(F)c(F)c(F)c(F)c6F)c6ccc([nH]6)c(-c6c(F)c(F)c(F)c(F)c6F)c6nc(c(-c7c(F)c(F)c(F)c(F)c7F)c7ccc4[nH]7)C=C6)C=C5)cc3)CC2)c1
REMARK SMILES IDX 18 1 17 2 15 3 16 4 13 5 10 6 11 7 87 8 12 9 86 10 14 11
REMARK SMILES IDX 7 12 8 13 9 14 6 15 3 16 4 17 88 18 5 19 2 20 1 21 19 22
REMARK SMILES IDX 20 23 21 24 22 25 23 26 24 27 85 28 25 29 84 30 26 31 27 32
REMARK SMILES IDX 28 33 78 34 29 35 83 36 77 37 79 38 30 39 82 40 76 41 75 42
REMARK SMILES IDX 31 44 63 45 43 46 62 47 44 48 47 49 61 50 80 51 45 52 46 53
REMARK SMILES IDX 60 55 81 56 48 57 32 58 33 59 41 60 34 61 35 62 39 63 42 64
REMARK SMILES IDX 36 65 37 66 40 67 38 68 64 69 65 70 73 71 66 72 67 73 71 74
REMARK SMILES IDX 74 75 68 76 69 77 72 78 70 79 49 80 50 81 58 82 51 83 52 84
REMARK SMILES IDX 56 85 59 86 53 87 54 88 57 89 55 90
REMARK H PARENT 79 43 47 54
REMARK Flexibility Score: inf
ROOT
ATOM      1  C   UNL A   1      34.444  31.078  27.913  1.00  0.00     0.274 C 
ENDROOT
BRANCH   1   2
ATOM      2  O   UNL A   1      34.091  30.267  26.777  1.00  0.00    -0.462 OA
BRANCH   2   3
ATOM      3  C   UNL A   1      32.779  30.077  26.419  1.00  0.00     0.312 C 
ATOM      4  O   UNL A   1      31.833  30.716  26.860  1.00  0.00    -0.252 OA
BRANCH   3   5
ATOM      5  C   UNL A   1      32.660  28.815  25.552  1.00  0.00     0.068 C 
ATOM      6  N   UNL A   1      32.420  28.015  22.790  1.00  0.00    -0.196 NA
ATOM      7  C   UNL A   1      33.554  28.876  23.058  1.00  0.00     0.104 C 
ATOM      8  C   UNL A   1      31.181  28.507  23.362  1.00  0.00     0.104 C 
ATOM      9  C   UNL A   1      33.880  28.776  24.543  1.00  0.00     0.035 C 
ATOM     10  C   UNL A   1      31.268  28.546  24.888  1.00  0.00     0.035 C 
ATOM     11  C   UNL A   1      32.778  27.796  26.717  1.00  0.00     0.024 C 
BRANCH   6  12
ATOM     12  S   UNL A   1      32.634  26.456  22.200  1.00  0.00     0.262 S 
ATOM     13  O   UNL A   1      33.922  26.414  21.555  1.00  0.00    -0.205 OA
ATOM     14  O   UNL A   1      31.413  26.045  21.523  1.00  0.00    -0.205 OA
BRANCH  12  15
ATOM     15  C   UNL A   1      32.776  25.338  23.557  1.00  0.00     0.188 A 
ATOM     16  N   UNL A   1      32.368  24.306  25.449  1.00  0.00    -0.336 N 
ATOM     17  C   UNL A   1      33.697  24.206  25.130  1.00  0.00     0.201 A 
ATOM     18  C   UNL A   1      31.752  24.840  24.348  1.00  0.00     0.129 A 
ATOM     19  N   UNL A   1      33.989  24.881  24.042  1.00  0.00    -0.224 NA
BRANCH  16  20
ATOM     20  C   UNL A   1      31.798  23.806  26.689  1.00  0.00     0.120 C 
ATOM     21  C   UNL A   1      30.389  23.213  26.654  1.00  0.00     0.027 C 
ENDBRANCH  16  20
ENDBRANCH  12  15
ENDBRANCH   6  12
ENDBRANCH   3   5
ENDBRANCH   2   3
ENDBRANCH   1   2
BRANCH   1  22
ATOM     22  C   UNL A   1      35.951  31.269  28.028  1.00  0.00     0.275 C 
BRANCH  22  23
ATOM     23  O   UNL A   1      36.567  30.010  28.263  1.00  0.00    -0.458 OA
BRANCH  23  24
ATOM     24  C   UNL A   1      37.895  30.108  28.459  1.00  0.00     0.338 C 
ATOM     25  O   UNL A   1      38.492  30.873  29.202  1.00  0.00    -0.246 OA
BRANCH  24  26
ATOM     26  C   UNL A   1      38.589  29.155  27.606  1.00  0.00     0.060 A 
ATOM     27  C   UNL A   1      38.502  27.827  28.023  1.00  0.00     0.016 A 
ATOM     28  C   UNL A   1      39.670  29.667  26.902  1.00  0.00     0.016 A 
ATOM     29  C   UNL A   1      39.659  27.112  28.107  1.00  0.00     0.010 A 
ATOM     30  C   UNL A   1      40.817  28.929  26.924  1.00  0.00     0.010 A 
ATOM     31  C   UNL A   1      40.819  27.735  27.652  1.00  0.00    -0.014 A 
BRANCH  31  32
ATOM     32  C   UNL A   1      42.070  27.047  27.839  1.00  0.00     0.031 A 
ATOM     33  C   UNL A   1      42.673  27.345  29.158  1.00  0.00     0.074 A 
ATOM     34  C   UNL A   1      42.460  26.132  26.933  1.00  0.00     0.049 A 
ATOM     35  N   UNL A   1      43.868  27.761  29.407  1.00  0.00    -0.248 NA
ATOM     36  C   UNL A   1      41.769  27.381  30.326  1.00  0.00     0.031 C 
ATOM     37  C   UNL A   1      41.770  25.708  25.707  1.00  0.00     0.029 A 
ATOM     38  N   UNL A   1      43.481  25.246  27.029  1.00  0.00    -0.354 N 
ATOM     39  C   UNL A   1      43.924  27.909  30.789  1.00  0.00     0.074 A 
ATOM     40  C   UNL A   1      42.573  27.859  31.273  1.00  0.00     0.031 C 
ATOM     41  C   UNL A   1      42.229  24.493  25.337  1.00  0.00     0.029 A 
ATOM     42  C   UNL A   1      43.316  24.124  26.219  1.00  0.00     0.049 A 
ATOM     43  H   UNL A   1      44.262  25.381  27.612  1.00  0.00     0.167 HD
ATOM     44  C   UNL A   1      45.101  27.775  31.451  1.00  0.00     0.037 A 
ATOM     45  C   UNL A   1      43.958  22.946  26.417  1.00  0.00     0.037 A 
ATOM     46  C   UNL A   1      46.220  27.987  30.571  1.00  0.00     0.049 A 
ATOM     47  C   UNL A   1      45.153  23.250  27.260  1.00  0.00     0.074 A 
ATOM     48  C   UNL A   1      46.641  29.061  29.811  1.00  0.00     0.029 A 
ATOM     49  N   UNL A   1      46.853  26.883  30.051  1.00  0.00    -0.354 N 
ATOM     50  N   UNL A   1      46.151  23.983  26.840  1.00  0.00    -0.248 NA
ATOM     51  C   UNL A   1      44.985  23.199  28.708  1.00  0.00     0.031 C 
ATOM     52  C   UNL A   1      47.104  28.489  28.589  1.00  0.00     0.029 A 
ATOM     53  C   UNL A   1      47.016  27.101  28.705  1.00  0.00     0.049 A 
ATOM     54  H   UNL A   1      47.139  26.085  30.550  1.00  0.00     0.167 HD
ATOM     55  C   UNL A   1      46.464  24.808  27.913  1.00  0.00     0.074 A 
ATOM     56  C   UNL A   1      45.749  24.241  29.056  1.00  0.00     0.031 C 
ATOM     57  C   UNL A   1      47.015  26.044  27.722  1.00  0.00     0.037 A 
BRANCH  44  58
ATOM     58  C   UNL A   1      45.213  27.061  32.770  1.00  0.00     0.064 A 
ATOM     59  C   UNL A   1      44.778  25.728  32.859  1.00  0.00     0.173 A 
ATOM     60  C   UNL A   1      45.441  27.718  34.001  1.00  0.00     0.173 A 
ATOM     61  F   UNL A   1      44.516  25.020  31.751  1.00  0.00    -0.203 F 
ATOM     62  C   UNL A   1      44.511  25.126  34.091  1.00  0.00     0.198 A 
ATOM     63  C   UNL A   1      45.227  27.097  35.227  1.00  0.00     0.198 A 
ATOM     64  F   UNL A   1      45.762  29.014  34.076  1.00  0.00    -0.203 F 
ATOM     65  F   UNL A   1      43.974  23.901  34.128  1.00  0.00    -0.200 F 
ATOM     66  C   UNL A   1      44.728  25.814  35.272  1.00  0.00     0.200 A 
ATOM     67  F   UNL A   1      45.426  27.788  36.358  1.00  0.00    -0.200 F 
ATOM     68  F   UNL A   1      44.411  25.263  36.450  1.00  0.00    -0.200 F 
ENDBRANCH  44  58
BRANCH  45  69
ATOM     69  C   UNL A   1      43.390  21.587  26.251  1.00  0.00     0.064 A 
ATOM     70  C   UNL A   1      43.958  20.667  25.356  1.00  0.00     0.173 A 
ATOM     71  C   UNL A   1      42.421  21.072  27.139  1.00  0.00     0.173 A 
ATOM     72  F   UNL A   1      44.924  21.059  24.512  1.00  0.00    -0.203 F 
ATOM     73  C   UNL A   1      43.582  19.317  25.352  1.00  0.00     0.198 A 
ATOM     74  C   UNL A   1      42.041  19.730  27.129  1.00  0.00     0.198 A 
ATOM     75  F   UNL A   1      41.884  21.840  28.098  1.00  0.00    -0.203 F 
ATOM     76  F   UNL A   1      44.182  18.459  24.516  1.00  0.00    -0.200 F 
ATOM     77  C   UNL A   1      42.629  18.850  26.242  1.00  0.00     0.200 A 
ATOM     78  F   UNL A   1      41.143  19.288  28.021  1.00  0.00    -0.200 F 
ATOM     79  F   UNL A   1      42.305  17.550  26.273  1.00  0.00    -0.200 F 
ENDBRANCH  45  69
BRANCH  57  80
ATOM     80  C   UNL A   1      47.442  26.418  26.328  1.00  0.00     0.064 A 
ATOM     81  C   UNL A   1      46.640  27.153  25.436  1.00  0.00     0.173 A 
ATOM     82  C   UNL A   1      48.765  26.174  25.945  1.00  0.00     0.173 A 
ATOM     83  F   UNL A   1      45.403  27.528  25.774  1.00  0.00    -0.203 F 
ATOM     84  C   UNL A   1      47.125  27.576  24.199  1.00  0.00     0.198 A 
ATOM     85  C   UNL A   1      49.260  26.630  24.726  1.00  0.00     0.198 A 
ATOM     86  F   UNL A   1      49.598  25.537  26.782  1.00  0.00    -0.203 F 
ATOM     87  F   UNL A   1      46.331  28.264  23.365  1.00  0.00    -0.200 F 
ATOM     88  C   UNL A   1      48.438  27.319  23.848  1.00  0.00     0.200 A 
ATOM     89  F   UNL A   1      50.547  26.425  24.414  1.00  0.00    -0.200 F 
ATOM     90  F   UNL A   1      48.919  27.758  22.677  1.00  0.00    -0.200 F 
ENDBRANCH  57  80
ENDBRANCH  31  32
ENDBRANCH  24  26
ENDBRANCH  23  24
ENDBRANCH  22  23
ENDBRANCH   1  22
TORSDOF 14
ENDMDL
MODEL 2
REMARK VINA RESULT:     -12.3      0.472      1.666
REMARK SMILES CCn1cnc(S(=O)(=O)N2CCC(C)(C(=O)OCCOC(=O)c3ccc(-c4c5nc(c(-c6c(F)c(F)c(F)c(F)c6F)c6ccc([nH]6)c(-c6c(F)c(F)c(F)c(F)c6F)c6nc(c(-c7c(F)c(F)c(F)c(F)c7F)c7ccc4[nH]7)C=C6)C=C5)cc3)CC2)c1
REMARK SMILES IDX 18 1 17 2 15 3 16 4 13 5 10 6 11 7 87 8 12 9 86 10 14 11
REMARK SMILES IDX 7 12 8 13 9 14 6 15 3 16 4 17 88 18 5 19 2 20 1 21 19 22
REMARK SMILES IDX 20 23 21 24 22 25 23 26 24 27 85 28 25 29 84 30 26 31 27 32
REMARK SMILES IDX 28 33 78 34 29 35 83 36 77 37 79 38 30 39 82 40 76 41 75 42
REMARK SMILES IDX 31 44 63 45 43 46 62 47 44 48 47 49 61 50 80 51 45 52 46 53
REMARK SMILES IDX 60 55 81 56 48 57 32 58 33 59 41 60 34 61 35 62 39 63 42 64
REMARK SMILES IDX 36 65 37 66 40 67 38 68 64 69 65 70 73 71 66 72 67 73 71 74
REMARK SMILES IDX 74 75 68 76 69 77 72 78 70 79 49 80 50 81 58 82 51 83 52 84
REMARK SMILES IDX 56 85 59 86 53 87 54 88 57 89 55 90
REMARK H PARENT 79 43 47 54
REMARK Flexibility Score: inf
ROOT
ATOM      1  C   UNL A   1      34.464  31.167  27.724  1.00  0.00     0.274 C 
ENDROOT
BRANCH   1   2
ATOM      2  O   UNL A   1      34.003  30.207  26.755  1.00  0.00    -0.462 OA
BRANCH   2   3
ATOM      3  C   UNL A   1      32.682  30.151  26.382  1.00  0.00     0.312 C 
ATOM      4  O   UNL A   1      31.797  30.865  26.832  1.00  0.00    -0.252 OA
BRANCH   3   5
ATOM      5  C   UNL A   1      32.455  28.929  25.481  1.00  0.00     0.068 C 
ATOM      6  N   UNL A   1      32.546  28.150  22.703  1.00  0.00    -0.196 NA
ATOM      7  C   UNL A   1      33.771  28.754  23.187  1.00  0.00     0.104 C 
ATOM      8  C   UNL A   1      31.359  28.906  23.057  1.00  0.00     0.104 C 
ATOM      9  C   UNL A   1      33.798  28.613  24.704  1.00  0.00     0.035 C 
ATOM     10  C   UNL A   1      31.179  28.952  24.574  1.00  0.00     0.035 C 
ATOM     11  C   UNL A   1      32.143  27.928  26.626  1.00  0.00     0.024 C 
BRANCH   6  12
ATOM     12  S   UNL A   1      32.524  26.572  22.128  1.00  0.00     0.262 S 
ATOM     13  O   UNL A   1      33.820  26.306  21.555  1.00  0.00    -0.205 OA
ATOM     14  O   UNL A   1      31.290  26.366  21.384  1.00  0.00    -0.205 OA
BRANCH  12  15
ATOM     15  C   UNL A   1      32.401  25.460  23.491  1.00  0.00     0.188 A 
ATOM     16  N   UNL A   1      31.696  24.507  25.337  1.00  0.00    -0.336 N 
ATOM     17  C   UNL A   1      33.026  24.241  25.143  1.00  0.00     0.201 A 
ATOM     18  C   UNL A   1      31.255  25.100  24.183  1.00  0.00     0.129 A 
ATOM     19  N   UNL A   1      33.498  24.863  24.087  1.00  0.00    -0.224 NA
BRANCH  16  20
ATOM     20  C   UNL A   1      30.956  24.095  26.518  1.00  0.00     0.120 C 
ATOM     21  C   UNL A   1      30.292  22.718  26.516  1.00  0.00     0.027 C 
ENDBRANCH  16  20
ENDBRANCH  12  15
ENDBRANCH   6  12
ENDBRANCH   3   5
ENDBRANCH   2   3
ENDBRANCH   1   2
BRANCH   1  22
ATOM     22  C   UNL A   1      35.626  30.629  28.549  1.00  0.00     0.275 C 
BRANCH  22  23
ATOM     23  O   UNL A   1      36.824  30.722  27.790  1.00  0.00    -0.458 OA
BRANCH  23  24
ATOM     24  C   UNL A   1      37.900  30.264  28.455  1.00  0.00     0.338 C 
ATOM     25  O   UNL A   1      38.332  30.638  29.535  1.00  0.00    -0.246 OA
BRANCH  24  26
ATOM     26  C   UNL A   1      38.552  29.222  27.677  1.00  0.00     0.060 A 
ATOM     27  C   UNL A   1      38.462  27.942  28.224  1.00  0.00     0.016 A 
ATOM     28  C   UNL A   1      39.616  29.645  26.892  1.00  0.00     0.016 A 
ATOM     29  C   UNL A   1      39.612  27.220  28.339  1.00  0.00     0.010 A 
ATOM     30  C   UNL A   1      40.753  28.895  26.949  1.00  0.00     0.010 A 
ATOM     31  C   UNL A   1      40.764  27.776  27.789  1.00  0.00    -0.014 A 
BRANCH  31  32
ATOM     32  C   UNL A   1      42.011  27.090  28.001  1.00  0.00     0.031 A 
ATOM     33  C   UNL A   1      42.560  27.345  29.352  1.00  0.00     0.074 A 
ATOM     34  C   UNL A   1      42.443  26.209  27.080  1.00  0.00     0.049 A 
ATOM     35  N   UNL A   1      43.741  27.759  29.663  1.00  0.00    -0.248 NA
ATOM     36  C   UNL A   1      41.611  27.335  30.484  1.00  0.00     0.031 C 
ATOM     37  C   UNL A   1      41.805  25.825  25.813  1.00  0.00     0.029 A 
ATOM     38  N   UNL A   1      43.467  25.326  27.185  1.00  0.00    -0.354 N 
ATOM     39  C   UNL A   1      43.742  27.859  31.050  1.00  0.00     0.074 A 
ATOM     40  C   UNL A   1      42.373  27.784  31.478  1.00  0.00     0.031 C 
ATOM     41  C   UNL A   1      42.287  24.626  25.419  1.00  0.00     0.029 A 
ATOM     42  C   UNL A   1      43.341  24.232  26.331  1.00  0.00     0.049 A 
ATOM     43  H   UNL A   1      44.222  25.446  27.804  1.00  0.00     0.167 HD
ATOM     44  C   UNL A   1      44.893  27.708  31.753  1.00  0.00     0.037 A 
ATOM     45  C   UNL A   1      43.983  23.052  26.514  1.00  0.00     0.037 A 
ATOM     46  C   UNL A   1      46.044  27.957  30.926  1.00  0.00     0.049 A 
ATOM     47  C   UNL A   1      45.142  23.333  27.413  1.00  0.00     0.074 A 
ATOM     48  C   UNL A   1      46.487  29.060  30.221  1.00  0.00     0.029 A 
ATOM     49  N   UNL A   1      46.705  26.877  30.393  1.00  0.00    -0.354 N 
ATOM     50  N   UNL A   1      46.150  24.086  27.058  1.00  0.00    -0.248 NA
ATOM     51  C   UNL A   1      44.918  23.230  28.851  1.00  0.00     0.031 C 
ATOM     52  C   UNL A   1      47.001  28.533  29.000  1.00  0.00     0.029 A 
ATOM     53  C   UNL A   1      46.919  27.143  29.063  1.00  0.00     0.049 A 
ATOM     54  H   UNL A   1      46.977  26.063  30.875  1.00  0.00     0.167 HD
ATOM     55  C   UNL A   1      46.415  24.875  28.171  1.00  0.00     0.074 A 
ATOM     56  C   UNL A   1      45.660  24.264  29.264  1.00  0.00     0.031 C 
ATOM     57  C   UNL A   1      46.964  26.120  28.045  1.00  0.00     0.037 A 
BRANCH  44  58
ATOM     58  C   UNL A   1      44.958  26.949  33.050  1.00  0.00     0.064 A 
ATOM     59  C   UNL A   1      45.579  27.550  34.158  1.00  0.00     0.173 A 
ATOM     60  C   UNL A   1      44.714  25.561  33.159  1.00  0.00     0.173 A 
ATOM     61  F   UNL A   1      45.871  28.859  34.149  1.00  0.00    -0.203 F 
ATOM     62  C   UNL A   1      45.998  26.798  35.258  1.00  0.00     0.198 A 
ATOM     63  C   UNL A   1      45.083  24.826  34.280  1.00  0.00     0.198 A 
ATOM     64  F   UNL A   1      44.220  24.836  32.149  1.00  0.00    -0.203 F 
ATOM     65  F   UNL A   1      46.701  27.387  36.233  1.00  0.00    -0.200 F 
ATOM     66  C   UNL A   1      45.756  25.437  35.314  1.00  0.00     0.200 A 
ATOM     67  F   UNL A   1      44.856  23.505  34.305  1.00  0.00    -0.200 F 
ATOM     68  F   UNL A   1      46.216  24.705  36.336  1.00  0.00    -0.200 F 
ENDBRANCH  44  58
BRANCH  45  69
ATOM     69  C   UNL A   1      43.432  21.696  26.278  1.00  0.00     0.064 A 
ATOM     70  C   UNL A   1      44.072  20.791  25.418  1.00  0.00     0.173 A 
ATOM     71  C   UNL A   1      42.393  21.168  27.074  1.00  0.00     0.173 A 
ATOM     72  F   UNL A   1      45.105  21.196  24.664  1.00  0.00    -0.203 F 
ATOM     73  C   UNL A   1      43.700  19.442  25.360  1.00  0.00     0.198 A 
ATOM     74  C   UNL A   1      42.016  19.826  27.010  1.00  0.00     0.198 A 
ATOM     75  F   UNL A   1      41.778  21.919  27.998  1.00  0.00    -0.203 F 
ATOM     76  F   UNL A   1      44.368  18.597  24.562  1.00  0.00    -0.200 F 
ATOM     77  C   UNL A   1      42.676  18.960  26.160  1.00  0.00     0.200 A 
ATOM     78  F   UNL A   1      41.047  19.369  27.816  1.00  0.00    -0.200 F 
ATOM     79  F   UNL A   1      42.352  17.661  26.141  1.00  0.00    -0.200 F 
ENDBRANCH  45  69
BRANCH  57  80
ATOM     80  C   UNL A   1      47.443  26.545  26.683  1.00  0.00     0.064 A 
ATOM     81  C   UNL A   1      48.701  26.202  26.154  1.00  0.00     0.173 A 
ATOM     82  C   UNL A   1      46.538  27.173  25.821  1.00  0.00     0.173 A 
ATOM     83  F   UNL A   1      49.580  25.498  26.874  1.00  0.00    -0.203 F 
ATOM     84  C   UNL A   1      49.052  26.521  24.843  1.00  0.00     0.198 A 
ATOM     85  C   UNL A   1      46.876  27.457  24.500  1.00  0.00     0.198 A 
ATOM     86  F   UNL A   1      45.300  27.465  26.248  1.00  0.00    -0.203 F 
ATOM     87  F   UNL A   1      50.265  26.191  24.373  1.00  0.00    -0.200 F 
ATOM     88  C   UNL A   1      48.136  27.143  24.015  1.00  0.00     0.200 A 
ATOM     89  F   UNL A   1      45.966  28.011  23.687  1.00  0.00    -0.200 F 
ATOM     90  F   UNL A   1      48.455  27.415  22.742  1.00  0.00    -0.200 F 
ENDBRANCH  57  80
ENDBRANCH  31  32
ENDBRANCH  24  26
ENDBRANCH  23  24
ENDBRANCH  22  23
ENDBRANCH   1  22
TORSDOF 14
ENDMDL
MODEL 3
REMARK VINA RESULT:     -12.2      3.455      7.426
REMARK SMILES CCn1cnc(S(=O)(=O)N2CCC(C)(C(=O)OCCOC(=O)c3ccc(-c4c5nc(c(-c6c(F)c(F)c(F)c(F)c6F)c6ccc([nH]6)c(-c6c(F)c(F)c(F)c(F)c6F)c6nc(c(-c7c(F)c(F)c(F)c(F)c7F)c7ccc4[nH]7)C=C6)C=C5)cc3)CC2)c1
REMARK SMILES IDX 18 1 17 2 15 3 16 4 13 5 10 6 11 7 87 8 12 9 86 10 14 11
REMARK SMILES IDX 7 12 8 13 9 14 6 15 3 16 4 17 88 18 5 19 2 20 1 21 19 22
REMARK SMILES IDX 20 23 21 24 22 25 23 26 24 27 85 28 25 29 84 30 26 31 27 32
REMARK SMILES IDX 28 33 78 34 29 35 83 36 77 37 79 38 30 39 82 40 76 41 75 42
REMARK SMILES IDX 31 44 63 45 43 46 62 47 44 48 47 49 61 50 80 51 45 52 46 53
REMARK SMILES IDX 60 55 81 56 48 57 32 58 33 59 41 60 34 61 35 62 39 63 42 64
REMARK SMILES IDX 36 65 37 66 40 67 38 68 64 69 65 70 73 71 66 72 67 73 71 74
REMARK SMILES IDX 74 75 68 76 69 77 72 78 70 79 49 80 50 81 58 82 51 83 52 84
REMARK SMILES IDX 56 85 59 86 53 87 54 88 57 89 55 90
REMARK H PARENT 79 43 47 54
REMARK Flexibility Score: inf
ROOT
ATOM      1  C   UNL A   1      36.785  21.366  25.524  1.00  0.00     0.274 C 
ENDROOT
BRANCH   1   2
ATOM      2  O   UNL A   1      35.777  21.433  24.497  1.00  0.00    -0.462 OA
BRANCH   2   3
ATOM      3  C   UNL A   1      34.531  20.888  24.686  1.00  0.00     0.312 C 
ATOM      4  O   UNL A   1      34.296  19.689  24.762  1.00  0.00    -0.252 OA
BRANCH   3   5
ATOM      5  C   UNL A   1      33.466  21.989  24.578  1.00  0.00     0.068 C 
ATOM      6  N   UNL A   1      32.974  24.712  25.396  1.00  0.00    -0.196 NA
ATOM      7  C   UNL A   1      34.221  24.527  24.679  1.00  0.00     0.104 C 
ATOM      8  C   UNL A   1      32.776  23.743  26.456  1.00  0.00     0.104 C 
ATOM      9  C   UNL A   1      34.107  23.247  23.862  1.00  0.00     0.035 C 
ATOM     10  C   UNL A   1      32.672  22.329  25.883  1.00  0.00     0.035 C 
ATOM     11  C   UNL A   1      32.485  21.189  23.681  1.00  0.00     0.024 C 
BRANCH   6  12
ATOM     12  S   UNL A   1      31.766  25.712  24.792  1.00  0.00     0.262 S 
ATOM     13  O   UNL A   1      30.514  25.017  24.952  1.00  0.00    -0.205 OA
ATOM     14  O   UNL A   1      32.201  26.241  23.508  1.00  0.00    -0.205 OA
BRANCH  12  15
ATOM     15  C   UNL A   1      31.624  27.136  25.823  1.00  0.00     0.188 A 
ATOM     16  N   UNL A   1      31.920  29.154  26.630  1.00  0.00    -0.336 N 
ATOM     17  C   UNL A   1      31.508  28.302  27.621  1.00  0.00     0.201 A 
ATOM     18  C   UNL A   1      31.788  28.462  25.455  1.00  0.00     0.129 A 
ATOM     19  N   UNL A   1      31.397  27.068  27.187  1.00  0.00    -0.224 NA
BRANCH  16  20
ATOM     20  C   UNL A   1      32.290  30.540  26.862  1.00  0.00     0.120 C 
ATOM     21  C   UNL A   1      31.331  31.637  26.398  1.00  0.00     0.027 C 
ENDBRANCH  16  20
ENDBRANCH  12  15
ENDBRANCH   6  12
ENDBRANCH   3   5
ENDBRANCH   2   3
ENDBRANCH   1   2
BRANCH   1  22
ATOM     22  C   UNL A   1      38.070  20.725  25.017  1.00  0.00     0.275 C 
BRANCH  22  23
ATOM     23  O   UNL A   1      39.146  21.091  25.872  1.00  0.00    -0.458 OA
BRANCH  23  24
ATOM     24  C   UNL A   1      40.128  20.172  25.897  1.00  0.00     0.338 C 
ATOM     25  O   UNL A   1      40.065  18.994  25.576  1.00  0.00    -0.246 OA
BRANCH  24  26
ATOM     26  C   UNL A   1      41.349  20.772  26.412  1.00  0.00     0.060 A 
ATOM     27  C   UNL A   1      41.467  20.755  27.802  1.00  0.00     0.016 A 
ATOM     28  C   UNL A   1      41.913  21.754  25.609  1.00  0.00     0.016 A 
ATOM     29  C   UNL A   1      41.786  21.924  28.425  1.00  0.00     0.010 A 
ATOM     30  C   UNL A   1      42.297  22.905  26.230  1.00  0.00     0.010 A 
ATOM     31  C   UNL A   1      42.087  23.012  27.609  1.00  0.00    -0.014 A 
BRANCH  31  32
ATOM     32  C   UNL A   1      42.311  24.286  28.241  1.00  0.00     0.031 A 
ATOM     33  C   UNL A   1      41.148  25.190  28.091  1.00  0.00     0.074 A 
ATOM     34  C   UNL A   1      43.409  24.461  28.998  1.00  0.00     0.049 A 
ATOM     35  N   UNL A   1      41.137  26.399  27.643  1.00  0.00    -0.248 NA
ATOM     36  C   UNL A   1      39.804  24.603  28.268  1.00  0.00     0.031 C 
ATOM     37  C   UNL A   1      44.481  23.499  29.290  1.00  0.00     0.029 A 
ATOM     38  N   UNL A   1      43.695  25.495  29.827  1.00  0.00    -0.354 N 
ATOM     39  C   UNL A   1      39.804  26.792  27.682  1.00  0.00     0.074 A 
ATOM     40  C   UNL A   1      39.020  25.604  27.878  1.00  0.00     0.031 C 
ATOM     41  C   UNL A   1      45.126  23.880  30.413  1.00  0.00     0.029 A 
ATOM     42  C   UNL A   1      44.596  25.160  30.836  1.00  0.00     0.049 A 
ATOM     43  H   UNL A   1      43.304  26.392  29.727  1.00  0.00     0.167 HD
ATOM     44  C   UNL A   1      39.473  28.100  27.836  1.00  0.00     0.037 A 
ATOM     45  C   UNL A   1      44.735  25.859  31.989  1.00  0.00     0.037 A 
ATOM     46  C   UNL A   1      40.556  28.960  27.440  1.00  0.00     0.049 A 
ATOM     47  C   UNL A   1      44.171  27.218  31.734  1.00  0.00     0.074 A 
ATOM     48  C   UNL A   1      41.229  29.154  26.249  1.00  0.00     0.029 A 
ATOM     49  N   UNL A   1      41.371  29.470  28.423  1.00  0.00    -0.354 N 
ATOM     50  N   UNL A   1      44.708  28.063  30.893  1.00  0.00    -0.248 NA
ATOM     51  C   UNL A   1      42.749  27.416  31.993  1.00  0.00     0.031 C 
ATOM     52  C   UNL A   1      42.596  29.313  26.620  1.00  0.00     0.029 A 
ATOM     53  C   UNL A   1      42.669  29.289  28.013  1.00  0.00     0.049 A 
ATOM     54  H   UNL A   1      41.079  29.890  29.264  1.00  0.00     0.167 HD
ATOM     55  C   UNL A   1      43.632  28.613  30.206  1.00  0.00     0.074 A 
ATOM     56  C   UNL A   1      42.447  28.217  30.964  1.00  0.00     0.031 C 
ATOM     57  C   UNL A   1      43.766  29.070  28.925  1.00  0.00     0.037 A 
BRANCH  44  58
ATOM     58  C   UNL A   1      38.340  28.552  28.716  1.00  0.00     0.064 A 
ATOM     59  C   UNL A   1      37.451  29.525  28.231  1.00  0.00     0.173 A 
ATOM     60  C   UNL A   1      38.277  28.297  30.106  1.00  0.00     0.173 A 
ATOM     61  F   UNL A   1      37.442  29.855  26.932  1.00  0.00    -0.203 F 
ATOM     62  C   UNL A   1      36.619  30.248  29.090  1.00  0.00     0.198 A 
ATOM     63  C   UNL A   1      37.407  28.980  30.949  1.00  0.00     0.198 A 
ATOM     64  F   UNL A   1      39.126  27.470  30.725  1.00  0.00    -0.203 F 
ATOM     65  F   UNL A   1      35.882  31.255  28.606  1.00  0.00    -0.200 F 
ATOM     66  C   UNL A   1      36.603  29.979  30.448  1.00  0.00     0.200 A 
ATOM     67  F   UNL A   1      37.423  28.716  32.263  1.00  0.00    -0.200 F 
ATOM     68  F   UNL A   1      35.856  30.715  31.279  1.00  0.00    -0.200 F 
ENDBRANCH  44  58
BRANCH  45  69
ATOM     69  C   UNL A   1      44.958  25.300  33.344  1.00  0.00     0.064 A 
ATOM     70  C   UNL A   1      45.797  25.942  34.266  1.00  0.00     0.173 A 
ATOM     71  C   UNL A   1      44.166  24.247  33.853  1.00  0.00     0.173 A 
ATOM     72  F   UNL A   1      46.545  26.987  33.881  1.00  0.00    -0.203 F 
ATOM     73  C   UNL A   1      45.840  25.559  35.613  1.00  0.00     0.198 A 
ATOM     74  C   UNL A   1      44.215  23.861  35.192  1.00  0.00     0.198 A 
ATOM     75  F   UNL A   1      43.260  23.628  33.084  1.00  0.00    -0.203 F 
ATOM     76  F   UNL A   1      46.618  26.230  36.475  1.00  0.00    -0.200 F 
ATOM     77  C   UNL A   1      45.045  24.523  36.075  1.00  0.00     0.200 A 
ATOM     78  F   UNL A   1      43.413  22.879  35.630  1.00  0.00    -0.200 F 
ATOM     79  F   UNL A   1      45.048  24.189  37.373  1.00  0.00    -0.200 F 
ENDBRANCH  45  69
BRANCH  57  80
ATOM     80  C   UNL A   1      45.151  29.129  28.338  1.00  0.00     0.064 A 
ATOM     81  C   UNL A   1      45.746  28.070  27.629  1.00  0.00     0.173 A 
ATOM     82  C   UNL A   1      45.831  30.353  28.347  1.00  0.00     0.173 A 
ATOM     83  F   UNL A   1      45.110  26.905  27.474  1.00  0.00    -0.203 F 
ATOM     84  C   UNL A   1      46.985  28.215  27.005  1.00  0.00     0.198 A 
ATOM     85  C   UNL A   1      47.049  30.507  27.691  1.00  0.00     0.198 A 
ATOM     86  F   UNL A   1      45.282  31.418  28.950  1.00  0.00    -0.203 F 
ATOM     87  F   UNL A   1      47.531  27.181  26.346  1.00  0.00    -0.200 F 
ATOM     88  C   UNL A   1      47.632  29.437  27.031  1.00  0.00     0.200 A 
ATOM     89  F   UNL A   1      47.646  31.708  27.674  1.00  0.00    -0.200 F 
ATOM     90  F   UNL A   1      48.803  29.591  26.398  1.00  0.00    -0.200 F 
ENDBRANCH  57  80
ENDBRANCH  31  32
ENDBRANCH  24  26
ENDBRANCH  23  24
ENDBRANCH  22  23
ENDBRANCH   1  22
TORSDOF 14
ENDMDL
