MODEL 1
REMARK VINA RESULT:     -12.3      0.000      0.000
REMARK SMILES O=C(OCCOC(=O)c1c(OCc2ccccn2)cnc2ccccc12)c1ccc(-c2c3nc(c(-c4c(F)c(F)c(F)c(F)c4F)c4ccc([nH]4)c(-c4c(F)c(F)c(F)c(F)c4F)c4nc(c(-c5c(F)c(F)c(F)c(F)c5F)c5ccc2[nH]5)C=C4)C=C3)cc1
REMARK SMILES IDX 5 1 4 2 3 3 2 4 1 5 27 6 28 7 89 8 29 9 88 10 30 11 31 12
REMARK SMILES IDX 32 13 82 14 33 15 87 16 81 17 83 18 34 19 86 20 80 21 79 22
REMARK SMILES IDX 35 24 67 25 47 26 66 27 48 28 51 29 65 30 84 31 49 32 50 33
REMARK SMILES IDX 64 35 85 36 52 37 36 38 37 39 45 40 38 41 39 42 43 43 46 44
REMARK SMILES IDX 40 45 41 46 44 47 42 48 68 49 69 50 77 51 70 52 71 53 75 54
REMARK SMILES IDX 78 55 72 56 73 57 76 58 74 59 53 60 54 61 62 62 55 63 56 64
REMARK SMILES IDX 60 65 63 66 57 67 58 68 61 69 59 70 6 71 7 72 8 73 9 74
REMARK SMILES IDX 10 75 26 76 19 77 21 78 25 79 20 80 22 81 24 82 23 83 11 84
REMARK SMILES IDX 12 85 13 86 14 87 18 88 15 89 17 90 16 91
REMARK H PARENT 83 23 51 34
REMARK Flexibility Score: inf
ROOT
ATOM      1  C   UNL A   1      33.151  29.645  25.334  1.00  0.00     0.275 C 
ENDROOT
BRANCH   1   2
ATOM      2  C   UNL A   1      32.641  30.409  26.547  1.00  0.00     0.275 C 
BRANCH   2   3
ATOM      3  O   UNL A   1      33.491  30.298  27.699  1.00  0.00    -0.458 OA
BRANCH   3   4
ATOM      4  C   UNL A   1      34.660  30.925  27.958  1.00  0.00     0.338 C 
ATOM      5  O   UNL A   1      34.747  32.134  27.748  1.00  0.00    -0.246 OA
BRANCH   4   6
ATOM      6  C   UNL A   1      35.902  30.212  28.383  1.00  0.00     0.060 A 
ATOM      7  C   UNL A   1      36.163  29.670  29.648  1.00  0.00     0.016 A 
ATOM      8  C   UNL A   1      36.929  30.177  27.431  1.00  0.00     0.016 A 
ATOM      9  C   UNL A   1      37.401  29.077  29.941  1.00  0.00     0.010 A 
ATOM     10  C   UNL A   1      38.161  29.593  27.721  1.00  0.00     0.010 A 
ATOM     11  C   UNL A   1      38.417  29.059  28.985  1.00  0.00    -0.014 A 
BRANCH  11  12
ATOM     12  C   UNL A   1      39.810  28.685  29.324  1.00  0.00     0.031 A 
ATOM     13  C   UNL A   1      40.672  29.702  30.010  1.00  0.00     0.074 A 
ATOM     14  C   UNL A   1      40.332  27.501  28.963  1.00  0.00     0.049 A 
ATOM     15  N   UNL A   1      41.942  29.646  30.317  1.00  0.00    -0.248 NA
ATOM     16  C   UNL A   1      40.011  30.960  30.394  1.00  0.00     0.031 C 
ATOM     17  C   UNL A   1      39.602  26.435  28.292  1.00  0.00     0.029 A 
ATOM     18  N   UNL A   1      41.613  27.019  29.072  1.00  0.00    -0.354 N 
ATOM     19  C   UNL A   1      42.226  30.852  30.941  1.00  0.00     0.074 A 
ATOM     20  C   UNL A   1      41.018  31.647  30.906  1.00  0.00     0.031 C 
ATOM     21  C   UNL A   1      40.458  25.443  27.993  1.00  0.00     0.029 A 
ATOM     22  C   UNL A   1      41.796  25.815  28.440  1.00  0.00     0.049 A 
ATOM     23  H   UNL A   1      42.329  27.491  29.556  1.00  0.00     0.167 HD
ATOM     24  C   UNL A   1      43.382  31.249  31.521  1.00  0.00     0.037 A 
ATOM     25  C   UNL A   1      42.918  25.103  28.224  1.00  0.00     0.037 A 
ATOM     26  C   UNL A   1      44.586  30.465  31.544  1.00  0.00     0.049 A 
ATOM     27  C   UNL A   1      44.217  25.588  28.804  1.00  0.00     0.074 A 
ATOM     28  C   UNL A   1      45.798  30.755  32.141  1.00  0.00     0.029 A 
ATOM     29  N   UNL A   1      44.726  29.233  30.921  1.00  0.00    -0.354 N 
ATOM     30  N   UNL A   1      44.459  26.689  29.471  1.00  0.00    -0.248 NA
ATOM     31  C   UNL A   1      45.388  24.718  28.634  1.00  0.00     0.031 C 
ATOM     32  C   UNL A   1      46.684  29.709  31.853  1.00  0.00     0.029 A 
ATOM     33  C   UNL A   1      46.012  28.755  31.105  1.00  0.00     0.049 A 
ATOM     34  H   UNL A   1      44.016  28.767  30.423  1.00  0.00     0.167 HD
ATOM     35  C   UNL A   1      45.792  26.623  29.849  1.00  0.00     0.074 A 
ATOM     36  C   UNL A   1      46.315  25.381  29.315  1.00  0.00     0.031 C 
ATOM     37  C   UNL A   1      46.507  27.502  30.592  1.00  0.00     0.037 A 
BRANCH  24  38
ATOM     38  C   UNL A   1      43.367  32.599  32.170  1.00  0.00     0.064 A 
ATOM     39  C   UNL A   1      43.682  33.758  31.441  1.00  0.00     0.173 A 
ATOM     40  C   UNL A   1      43.109  32.731  33.541  1.00  0.00     0.173 A 
ATOM     41  F   UNL A   1      43.960  33.676  30.131  1.00  0.00    -0.203 F 
ATOM     42  C   UNL A   1      43.792  34.992  32.075  1.00  0.00     0.198 A 
ATOM     43  C   UNL A   1      43.192  33.974  34.165  1.00  0.00     0.198 A 
ATOM     44  F   UNL A   1      42.806  31.654  34.279  1.00  0.00    -0.203 F 
ATOM     45  F   UNL A   1      44.172  36.070  31.375  1.00  0.00    -0.200 F 
ATOM     46  C   UNL A   1      43.548  35.099  33.435  1.00  0.00     0.200 A 
ATOM     47  F   UNL A   1      42.956  34.078  35.479  1.00  0.00    -0.200 F 
ATOM     48  F   UNL A   1      43.676  36.283  34.048  1.00  0.00    -0.200 F 
ENDBRANCH  24  38
BRANCH  25  49
ATOM     49  C   UNL A   1      42.844  23.845  27.438  1.00  0.00     0.064 A 
ATOM     50  C   UNL A   1      43.169  23.823  26.077  1.00  0.00     0.173 A 
ATOM     51  C   UNL A   1      42.484  22.633  28.046  1.00  0.00     0.173 A 
ATOM     52  F   UNL A   1      43.502  24.960  25.449  1.00  0.00    -0.203 F 
ATOM     53  C   UNL A   1      43.133  22.636  25.349  1.00  0.00     0.198 A 
ATOM     54  C   UNL A   1      42.466  21.443  27.322  1.00  0.00     0.198 A 
ATOM     55  F   UNL A   1      42.162  22.605  29.347  1.00  0.00    -0.203 F 
ATOM     56  F   UNL A   1      43.429  22.644  24.042  1.00  0.00    -0.200 F 
ATOM     57  C   UNL A   1      42.789  21.445  25.973  1.00  0.00     0.200 A 
ATOM     58  F   UNL A   1      42.144  20.293  27.930  1.00  0.00    -0.200 F 
ATOM     59  F   UNL A   1      42.767  20.302  25.275  1.00  0.00    -0.200 F 
ENDBRANCH  25  49
BRANCH  37  60
ATOM     60  C   UNL A   1      47.914  27.125  30.942  1.00  0.00     0.064 A 
ATOM     61  C   UNL A   1      48.208  26.309  32.041  1.00  0.00     0.173 A 
ATOM     62  C   UNL A   1      48.973  27.535  30.118  1.00  0.00     0.173 A 
ATOM     63  F   UNL A   1      47.230  25.908  32.866  1.00  0.00    -0.203 F 
ATOM     64  C   UNL A   1      49.518  25.919  32.307  1.00  0.00     0.198 A 
ATOM     65  C   UNL A   1      50.277  27.126  30.375  1.00  0.00     0.198 A 
ATOM     66  F   UNL A   1      48.737  28.317  29.053  1.00  0.00    -0.203 F 
ATOM     67  F   UNL A   1      49.784  25.156  33.377  1.00  0.00    -0.200 F 
ATOM     68  C   UNL A   1      50.549  26.320  31.469  1.00  0.00     0.200 A 
ATOM     69  F   UNL A   1      51.270  27.507  29.560  1.00  0.00    -0.200 F 
ATOM     70  F   UNL A   1      51.807  25.930  31.719  1.00  0.00    -0.200 F 
ENDBRANCH  37  60
ENDBRANCH  11  12
ENDBRANCH   4   6
ENDBRANCH   3   4
ENDBRANCH   2   3
ENDBRANCH   1   2
BRANCH   1  71
ATOM     71  O   UNL A   1      33.464  28.274  25.634  1.00  0.00    -0.458 OA
BRANCH  71  72
ATOM     72  C   UNL A   1      32.543  27.366  25.219  1.00  0.00     0.342 C 
ATOM     73  O   UNL A   1      31.461  27.154  25.744  1.00  0.00    -0.246 OA
BRANCH  72  74
ATOM     74  C   UNL A   1      33.029  26.578  24.062  1.00  0.00     0.113 A 
ATOM     75  C   UNL A   1      32.495  26.888  22.800  1.00  0.00     0.153 A 
ATOM     76  C   UNL A   1      33.860  25.433  24.254  1.00  0.00     0.018 A 
ATOM     77  C   UNL A   1      32.744  25.976  21.794  1.00  0.00     0.159 A 
ATOM     78  C   UNL A   1      34.027  24.596  23.133  1.00  0.00     0.071 A 
ATOM     79  C   UNL A   1      34.528  25.061  25.456  1.00  0.00     0.011 A 
ATOM     80  N   UNL A   1      33.466  24.843  21.947  1.00  0.00    -0.252 NA
ATOM     81  C   UNL A   1      34.807  23.454  23.234  1.00  0.00     0.029 A 
ATOM     82  C   UNL A   1      35.345  23.931  25.522  1.00  0.00     0.001 A 
ATOM     83  C   UNL A   1      35.478  23.119  24.409  1.00  0.00     0.002 A 
BRANCH  75  84
ATOM     84  O   UNL A   1      31.842  28.079  22.643  1.00  0.00    -0.485 OA
BRANCH  84  85
ATOM     85  C   UNL A   1      30.423  28.091  22.423  1.00  0.00     0.285 C 
BRANCH  85  86
ATOM     86  C   UNL A   1      29.759  29.462  22.453  1.00  0.00     0.078 A 
ATOM     87  C   UNL A   1      29.663  30.166  23.655  1.00  0.00     0.027 A 
ATOM     88  N   UNL A   1      29.167  29.923  21.322  1.00  0.00    -0.258 NA
ATOM     89  C   UNL A   1      28.966  31.375  23.685  1.00  0.00     0.004 A 
ATOM     90  C   UNL A   1      28.495  31.096  21.378  1.00  0.00     0.111 A 
ATOM     91  C   UNL A   1      28.371  31.853  22.525  1.00  0.00     0.020 A 
ENDBRANCH  85  86
ENDBRANCH  84  85
ENDBRANCH  75  84
ENDBRANCH  72  74
ENDBRANCH  71  72
ENDBRANCH   1  71
TORSDOF 14
ENDMDL
MODEL 2
REMARK VINA RESULT:     -12.2      2.893      4.022
REMARK SMILES O=C(OCCOC(=O)c1c(OCc2ccccn2)cnc2ccccc12)c1ccc(-c2c3nc(c(-c4c(F)c(F)c(F)c(F)c4F)c4ccc([nH]4)c(-c4c(F)c(F)c(F)c(F)c4F)c4nc(c(-c5c(F)c(F)c(F)c(F)c5F)c5ccc2[nH]5)C=C4)C=C3)cc1
REMARK SMILES IDX 5 1 4 2 3 3 2 4 1 5 27 6 28 7 89 8 29 9 88 10 30 11 31 12
REMARK SMILES IDX 32 13 82 14 33 15 87 16 81 17 83 18 34 19 86 20 80 21 79 22
REMARK SMILES IDX 35 24 67 25 47 26 66 27 48 28 51 29 65 30 84 31 49 32 50 33
REMARK SMILES IDX 64 35 85 36 52 37 36 38 37 39 45 40 38 41 39 42 43 43 46 44
REMARK SMILES IDX 40 45 41 46 44 47 42 48 68 49 69 50 77 51 70 52 71 53 75 54
REMARK SMILES IDX 78 55 72 56 73 57 76 58 74 59 53 60 54 61 62 62 55 63 56 64
REMARK SMILES IDX 60 65 63 66 57 67 58 68 61 69 59 70 6 71 7 72 8 73 9 74
REMARK SMILES IDX 10 75 26 76 19 77 21 78 25 79 20 80 22 81 24 82 23 83 11 84
REMARK SMILES IDX 12 85 13 86 14 87 18 88 15 89 17 90 16 91
REMARK H PARENT 83 23 51 34
REMARK Flexibility Score: inf
ROOT
ATOM      1  C   UNL A   1      32.557  29.851  25.481  1.00  0.00     0.275 C 
ENDROOT
BRANCH   1   2
ATOM      2  C   UNL A   1      32.146  30.490  26.800  1.00  0.00     0.275 C 
BRANCH   2   3
ATOM      3  O   UNL A   1      32.527  31.870  26.916  1.00  0.00    -0.458 OA
BRANCH   3   4
ATOM      4  C   UNL A   1      33.563  32.413  27.593  1.00  0.00     0.338 C 
ATOM      5  O   UNL A   1      33.606  33.634  27.737  1.00  0.00    -0.246 OA
BRANCH   4   6
ATOM      6  C   UNL A   1      34.731  31.623  28.086  1.00  0.00     0.060 A 
ATOM      7  C   UNL A   1      34.751  30.253  28.374  1.00  0.00     0.016 A 
ATOM      8  C   UNL A   1      35.884  32.369  28.367  1.00  0.00     0.016 A 
ATOM      9  C   UNL A   1      35.902  29.638  28.894  1.00  0.00     0.010 A 
ATOM     10  C   UNL A   1      37.026  31.762  28.887  1.00  0.00     0.010 A 
ATOM     11  C   UNL A   1      37.038  30.396  29.178  1.00  0.00    -0.014 A 
BRANCH  11  12
ATOM     12  C   UNL A   1      38.172  29.851  29.960  1.00  0.00     0.031 A 
ATOM     13  C   UNL A   1      38.415  30.399  31.335  1.00  0.00     0.074 A 
ATOM     14  C   UNL A   1      39.021  28.950  29.439  1.00  0.00     0.049 A 
ATOM     15  N   UNL A   1      39.395  30.155  32.166  1.00  0.00    -0.248 NA
ATOM     16  C   UNL A   1      37.421  31.361  31.835  1.00  0.00     0.031 C 
ATOM     17  C   UNL A   1      38.896  28.347  28.120  1.00  0.00     0.029 A 
ATOM     18  N   UNL A   1      40.183  28.421  29.945  1.00  0.00    -0.354 N 
ATOM     19  C   UNL A   1      39.126  30.921  33.290  1.00  0.00     0.074 A 
ATOM     20  C   UNL A   1      37.933  31.691  33.009  1.00  0.00     0.031 C 
ATOM     21  C   UNL A   1      39.970  27.573  27.892  1.00  0.00     0.029 A 
ATOM     22  C   UNL A   1      40.862  27.641  29.044  1.00  0.00     0.049 A 
ATOM     23  H   UNL A   1      40.496  28.585  30.864  1.00  0.00     0.167 HD
ATOM     24  C   UNL A   1      39.795  30.956  34.466  1.00  0.00     0.037 A 
ATOM     25  C   UNL A   1      42.077  27.065  29.127  1.00  0.00     0.037 A 
ATOM     26  C   UNL A   1      40.986  30.204  34.741  1.00  0.00     0.049 A 
ATOM     27  C   UNL A   1      42.852  27.172  30.410  1.00  0.00     0.074 A 
ATOM     28  C   UNL A   1      41.718  30.135  35.912  1.00  0.00     0.029 A 
ATOM     29  N   UNL A   1      41.631  29.396  33.814  1.00  0.00    -0.354 N 
ATOM     30  N   UNL A   1      42.548  27.828  31.502  1.00  0.00    -0.248 NA
ATOM     31  C   UNL A   1      44.120  26.434  30.486  1.00  0.00     0.031 C 
ATOM     32  C   UNL A   1      42.824  29.306  35.684  1.00  0.00     0.029 A 
ATOM     33  C   UNL A   1      42.762  28.835  34.382  1.00  0.00     0.049 A 
ATOM     34  H   UNL A   1      41.327  29.243  32.890  1.00  0.00     0.167 HD
ATOM     35  C   UNL A   1      43.552  27.540  32.415  1.00  0.00     0.074 A 
ATOM     36  C   UNL A   1      44.491  26.667  31.738  1.00  0.00     0.031 C 
ATOM     37  C   UNL A   1      43.669  27.944  33.702  1.00  0.00     0.037 A 
BRANCH  24  38
ATOM     38  C   UNL A   1      39.225  31.851  35.524  1.00  0.00     0.064 A 
ATOM     39  C   UNL A   1      39.631  33.192  35.636  1.00  0.00     0.173 A 
ATOM     40  C   UNL A   1      38.327  31.352  36.476  1.00  0.00     0.173 A 
ATOM     41  F   UNL A   1      40.508  33.707  34.761  1.00  0.00    -0.203 F 
ATOM     42  C   UNL A   1      39.197  33.983  36.696  1.00  0.00     0.198 A 
ATOM     43  C   UNL A   1      37.874  32.156  37.520  1.00  0.00     0.198 A 
ATOM     44  F   UNL A   1      37.913  30.078  36.413  1.00  0.00    -0.203 F 
ATOM     45  F   UNL A   1      39.659  35.234  36.827  1.00  0.00    -0.200 F 
ATOM     46  C   UNL A   1      38.321  33.465  37.636  1.00  0.00     0.200 A 
ATOM     47  F   UNL A   1      37.026  31.656  38.428  1.00  0.00    -0.200 F 
ATOM     48  F   UNL A   1      37.922  34.219  38.669  1.00  0.00    -0.200 F 
ENDBRANCH  24  38
BRANCH  25  49
ATOM     49  C   UNL A   1      42.612  26.319  27.959  1.00  0.00     0.064 A 
ATOM     50  C   UNL A   1      42.297  24.970  27.757  1.00  0.00     0.173 A 
ATOM     51  C   UNL A   1      43.415  26.956  27.002  1.00  0.00     0.173 A 
ATOM     52  F   UNL A   1      41.546  24.315  28.654  1.00  0.00    -0.203 F 
ATOM     53  C   UNL A   1      42.770  24.282  26.642  1.00  0.00     0.198 A 
ATOM     54  C   UNL A   1      43.873  26.272  25.878  1.00  0.00     0.198 A 
ATOM     55  F   UNL A   1      43.745  28.247  27.154  1.00  0.00    -0.203 F 
ATOM     56  F   UNL A   1      42.472  22.985  26.480  1.00  0.00    -0.200 F 
ATOM     57  C   UNL A   1      43.551  24.935  25.699  1.00  0.00     0.200 A 
ATOM     58  F   UNL A   1      44.618  26.909  24.964  1.00  0.00    -0.200 F 
ATOM     59  F   UNL A   1      43.995  24.276  24.620  1.00  0.00    -0.200 F 
ENDBRANCH  25  49
BRANCH  37  60
ATOM     60  C   UNL A   1      44.811  27.391  34.499  1.00  0.00     0.064 A 
ATOM     61  C   UNL A   1      46.032  28.069  34.606  1.00  0.00     0.173 A 
ATOM     62  C   UNL A   1      44.649  26.198  35.219  1.00  0.00     0.173 A 
ATOM     63  F   UNL A   1      46.238  29.203  33.922  1.00  0.00    -0.203 F 
ATOM     64  C   UNL A   1      47.055  27.567  35.407  1.00  0.00     0.198 A 
ATOM     65  C   UNL A   1      45.666  25.711  36.033  1.00  0.00     0.198 A 
ATOM     66  F   UNL A   1      43.495  25.516  35.146  1.00  0.00    -0.203 F 
ATOM     67  F   UNL A   1      48.225  28.217  35.480  1.00  0.00    -0.200 F 
ATOM     68  C   UNL A   1      46.868  26.395  36.125  1.00  0.00     0.200 A 
ATOM     69  F   UNL A   1      45.480  24.584  36.733  1.00  0.00    -0.200 F 
ATOM     70  F   UNL A   1      47.850  25.923  36.907  1.00  0.00    -0.200 F 
ENDBRANCH  37  60
ENDBRANCH  11  12
ENDBRANCH   4   6
ENDBRANCH   3   4
ENDBRANCH   2   3
ENDBRANCH   1   2
BRANCH   1  71
ATOM     71  O   UNL A   1      33.066  28.517  25.646  1.00  0.00    -0.458 OA
BRANCH  71  72
ATOM     72  C   UNL A   1      32.237  27.524  25.233  1.00  0.00     0.342 C 
ATOM     73  O   UNL A   1      31.193  27.193  25.773  1.00  0.00    -0.246 OA
BRANCH  72  74
ATOM     74  C   UNL A   1      32.779  26.810  24.053  1.00  0.00     0.113 A 
ATOM     75  C   UNL A   1      32.265  27.160  22.794  1.00  0.00     0.153 A 
ATOM     76  C   UNL A   1      33.646  25.687  24.213  1.00  0.00     0.018 A 
ATOM     77  C   UNL A   1      32.571  26.307  21.753  1.00  0.00     0.159 A 
ATOM     78  C   UNL A   1      33.870  24.911  23.060  1.00  0.00     0.071 A 
ATOM     79  C   UNL A   1      34.297  25.282  25.413  1.00  0.00     0.011 A 
ATOM     80  N   UNL A   1      33.330  25.194  21.871  1.00  0.00    -0.252 NA
ATOM     81  C   UNL A   1      34.689  23.793  23.127  1.00  0.00     0.029 A 
ATOM     82  C   UNL A   1      35.153  24.180  25.448  1.00  0.00     0.001 A 
ATOM     83  C   UNL A   1      35.343  23.426  24.302  1.00  0.00     0.002 A 
BRANCH  75  84
ATOM     84  O   UNL A   1      31.574  28.334  22.674  1.00  0.00    -0.485 OA
BRANCH  84  85
ATOM     85  C   UNL A   1      30.150  28.308  22.491  1.00  0.00     0.285 C 
BRANCH  85  86
ATOM     86  C   UNL A   1      29.463  29.667  22.432  1.00  0.00     0.078 A 
ATOM     87  C   UNL A   1      29.283  30.410  23.599  1.00  0.00     0.027 A 
ATOM     88  N   UNL A   1      28.936  30.078  21.251  1.00  0.00    -0.258 NA
ATOM     89  C   UNL A   1      28.566  31.606  23.544  1.00  0.00     0.004 A 
ATOM     90  C   UNL A   1      28.242  31.239  21.224  1.00  0.00     0.111 A 
ATOM     91  C   UNL A   1      28.036  32.034  22.333  1.00  0.00     0.020 A 
ENDBRANCH  85  86
ENDBRANCH  84  85
ENDBRANCH  75  84
ENDBRANCH  72  74
ENDBRANCH  71  72
ENDBRANCH   1  71
TORSDOF 14
ENDMDL
MODEL 3
REMARK VINA RESULT:     -12.2      3.696      9.269
REMARK SMILES O=C(OCCOC(=O)c1c(OCc2ccccn2)cnc2ccccc12)c1ccc(-c2c3nc(c(-c4c(F)c(F)c(F)c(F)c4F)c4ccc([nH]4)c(-c4c(F)c(F)c(F)c(F)c4F)c4nc(c(-c5c(F)c(F)c(F)c(F)c5F)c5ccc2[nH]5)C=C4)C=C3)cc1
REMARK SMILES IDX 5 1 4 2 3 3 2 4 1 5 27 6 28 7 89 8 29 9 88 10 30 11 31 12
REMARK SMILES IDX 32 13 82 14 33 15 87 16 81 17 83 18 34 19 86 20 80 21 79 22
REMARK SMILES IDX 35 24 67 25 47 26 66 27 48 28 51 29 65 30 84 31 49 32 50 33
REMARK SMILES IDX 64 35 85 36 52 37 36 38 37 39 45 40 38 41 39 42 43 43 46 44
REMARK SMILES IDX 40 45 41 46 44 47 42 48 68 49 69 50 77 51 70 52 71 53 75 54
REMARK SMILES IDX 78 55 72 56 73 57 76 58 74 59 53 60 54 61 62 62 55 63 56 64
REMARK SMILES IDX 60 65 63 66 57 67 58 68 61 69 59 70 6 71 7 72 8 73 9 74
REMARK SMILES IDX 10 75 26 76 19 77 21 78 25 79 20 80 22 81 24 82 23 83 11 84
REMARK SMILES IDX 12 85 13 86 14 87 18 88 15 89 17 90 16 91
REMARK H PARENT 83 23 51 34
REMARK Flexibility Score: inf
ROOT
ATOM      1  C   UNL A   1      36.682  22.233  24.155  1.00  0.00     0.275 C 
ENDROOT
BRANCH   1   2
ATOM      2  C   UNL A   1      37.739  21.529  24.993  1.00  0.00     0.275 C 
BRANCH   2   3
ATOM      3  O   UNL A   1      38.183  22.293  26.125  1.00  0.00    -0.458 OA
BRANCH   3   4
ATOM      4  C   UNL A   1      39.406  22.808  26.379  1.00  0.00     0.338 C 
ATOM      5  O   UNL A   1      40.388  22.070  26.317  1.00  0.00    -0.246 OA
BRANCH   4   6
ATOM      6  C   UNL A   1      39.630  24.209  26.847  1.00  0.00     0.060 A 
ATOM      7  C   UNL A   1      40.312  25.220  26.159  1.00  0.00     0.016 A 
ATOM      8  C   UNL A   1      39.185  24.486  28.147  1.00  0.00     0.016 A 
ATOM      9  C   UNL A   1      40.511  26.484  26.738  1.00  0.00     0.010 A 
ATOM     10  C   UNL A   1      39.384  25.738  28.725  1.00  0.00     0.010 A 
ATOM     11  C   UNL A   1      40.069  26.741  28.036  1.00  0.00    -0.014 A 
BRANCH  11  12
ATOM     12  C   UNL A   1      40.478  27.955  28.780  1.00  0.00     0.031 A 
ATOM     13  C   UNL A   1      41.821  27.961  29.448  1.00  0.00     0.074 A 
ATOM     14  C   UNL A   1      39.651  29.002  28.934  1.00  0.00     0.049 A 
ATOM     15  N   UNL A   1      42.357  28.859  30.233  1.00  0.00    -0.248 NA
ATOM     16  C   UNL A   1      42.672  26.785  29.204  1.00  0.00     0.031 C 
ATOM     17  C   UNL A   1      38.326  29.115  28.341  1.00  0.00     0.029 A 
ATOM     18  N   UNL A   1      39.791  30.149  29.675  1.00  0.00    -0.354 N 
ATOM     19  C   UNL A   1      43.609  28.365  30.563  1.00  0.00     0.074 A 
ATOM     20  C   UNL A   1      43.727  27.057  29.953  1.00  0.00     0.031 C 
ATOM     21  C   UNL A   1      37.745  30.242  28.786  1.00  0.00     0.029 A 
ATOM     22  C   UNL A   1      38.654  30.918  29.706  1.00  0.00     0.049 A 
ATOM     23  H   UNL A   1      40.624  30.396  30.138  1.00  0.00     0.167 HD
ATOM     24  C   UNL A   1      44.588  28.960  31.282  1.00  0.00     0.037 A 
ATOM     25  C   UNL A   1      38.368  32.027  30.414  1.00  0.00     0.037 A 
ATOM     26  C   UNL A   1      44.467  30.251  31.899  1.00  0.00     0.049 A 
ATOM     27  C   UNL A   1      39.434  32.642  31.275  1.00  0.00     0.074 A 
ATOM     28  C   UNL A   1      45.412  30.964  32.613  1.00  0.00     0.029 A 
ATOM     29  N   UNL A   1      43.310  31.018  31.883  1.00  0.00    -0.354 N 
ATOM     30  N   UNL A   1      40.649  32.213  31.511  1.00  0.00    -0.248 NA
ATOM     31  C   UNL A   1      39.106  33.911  31.938  1.00  0.00     0.031 C 
ATOM     32  C   UNL A   1      44.816  32.151  33.056  1.00  0.00     0.029 A 
ATOM     33  C   UNL A   1      43.511  32.191  32.589  1.00  0.00     0.049 A 
ATOM     34  H   UNL A   1      42.471  30.765  31.434  1.00  0.00     0.167 HD
ATOM     35  C   UNL A   1      41.251  33.181  32.302  1.00  0.00     0.074 A 
ATOM     36  C   UNL A   1      40.256  34.212  32.527  1.00  0.00     0.031 C 
ATOM     37  C   UNL A   1      42.519  33.220  32.777  1.00  0.00     0.037 A 
BRANCH  24  38
ATOM     38  C   UNL A   1      45.866  28.191  31.423  1.00  0.00     0.064 A 
ATOM     39  C   UNL A   1      46.894  28.310  30.472  1.00  0.00     0.173 A 
ATOM     40  C   UNL A   1      46.039  27.276  32.469  1.00  0.00     0.173 A 
ATOM     41  F   UNL A   1      46.762  29.157  29.439  1.00  0.00    -0.203 F 
ATOM     42  C   UNL A   1      48.024  27.501  30.536  1.00  0.00     0.198 A 
ATOM     43  C   UNL A   1      47.186  26.488  32.545  1.00  0.00     0.198 A 
ATOM     44  F   UNL A   1      45.086  27.124  33.400  1.00  0.00    -0.203 F 
ATOM     45  F   UNL A   1      48.955  27.576  29.574  1.00  0.00    -0.200 F 
ATOM     46  C   UNL A   1      48.168  26.591  31.571  1.00  0.00     0.200 A 
ATOM     47  F   UNL A   1      47.326  25.608  33.546  1.00  0.00    -0.200 F 
ATOM     48  F   UNL A   1      49.246  25.796  31.620  1.00  0.00    -0.200 F 
ENDBRANCH  24  38
BRANCH  25  49
ATOM     49  C   UNL A   1      37.014  32.628  30.312  1.00  0.00     0.064 A 
ATOM     50  C   UNL A   1      36.037  32.379  31.283  1.00  0.00     0.173 A 
ATOM     51  C   UNL A   1      36.686  33.495  29.259  1.00  0.00     0.173 A 
ATOM     52  F   UNL A   1      36.298  31.543  32.298  1.00  0.00    -0.203 F 
ATOM     53  C   UNL A   1      34.778  32.973  31.204  1.00  0.00     0.198 A 
ATOM     54  C   UNL A   1      35.434  34.103  29.191  1.00  0.00     0.198 A 
ATOM     55  F   UNL A   1      37.589  33.762  28.304  1.00  0.00    -0.203 F 
ATOM     56  F   UNL A   1      33.853  32.703  32.135  1.00  0.00    -0.200 F 
ATOM     57  C   UNL A   1      34.480  33.839  30.163  1.00  0.00     0.200 A 
ATOM     58  F   UNL A   1      35.153  34.948  28.189  1.00  0.00    -0.200 F 
ATOM     59  F   UNL A   1      33.274  34.420  30.095  1.00  0.00    -0.200 F 
ENDBRANCH  25  49
BRANCH  37  60
ATOM     60  C   UNL A   1      42.939  34.448  33.525  1.00  0.00     0.064 A 
ATOM     61  C   UNL A   1      43.351  35.611  32.862  1.00  0.00     0.173 A 
ATOM     62  C   UNL A   1      42.857  34.476  34.925  1.00  0.00     0.173 A 
ATOM     63  F   UNL A   1      43.460  35.625  31.526  1.00  0.00    -0.203 F 
ATOM     64  C   UNL A   1      43.672  36.761  33.579  1.00  0.00     0.198 A 
ATOM     65  C   UNL A   1      43.159  35.633  35.636  1.00  0.00     0.198 A 
ATOM     66  F   UNL A   1      42.466  33.385  35.601  1.00  0.00    -0.203 F 
ATOM     67  F   UNL A   1      44.088  37.859  32.930  1.00  0.00    -0.200 F 
ATOM     68  C   UNL A   1      43.568  36.774  34.962  1.00  0.00     0.200 A 
ATOM     69  F   UNL A   1      43.049  35.646  36.971  1.00  0.00    -0.200 F 
ATOM     70  F   UNL A   1      43.864  37.887  35.648  1.00  0.00    -0.200 F 
ENDBRANCH  37  60
ENDBRANCH  11  12
ENDBRANCH   4   6
ENDBRANCH   3   4
ENDBRANCH   2   3
ENDBRANCH   1   2
BRANCH   1  71
ATOM     71  O   UNL A   1      35.705  22.918  24.957  1.00  0.00    -0.458 OA
BRANCH  71  72
ATOM     72  C   UNL A   1      34.507  23.131  24.355  1.00  0.00     0.342 C 
ATOM     73  O   UNL A   1      34.293  23.088  23.154  1.00  0.00    -0.246 OA
BRANCH  72  74
ATOM     74  C   UNL A   1      33.458  23.504  25.334  1.00  0.00     0.113 A 
ATOM     75  C   UNL A   1      32.625  22.478  25.810  1.00  0.00     0.153 A 
ATOM     76  C   UNL A   1      33.189  24.874  25.630  1.00  0.00     0.018 A 
ATOM     77  C   UNL A   1      31.495  22.879  26.493  1.00  0.00     0.159 A 
ATOM     78  C   UNL A   1      31.999  25.130  26.339  1.00  0.00     0.071 A 
ATOM     79  C   UNL A   1      33.998  25.993  25.281  1.00  0.00     0.011 A 
ATOM     80  N   UNL A   1      31.163  24.168  26.737  1.00  0.00    -0.252 NA
ATOM     81  C   UNL A   1      31.651  26.434  26.659  1.00  0.00     0.029 A 
ATOM     82  C   UNL A   1      33.652  27.294  25.652  1.00  0.00     0.001 A 
ATOM     83  C   UNL A   1      32.469  27.517  26.336  1.00  0.00     0.002 A 
BRANCH  75  84
ATOM     84  O   UNL A   1      33.020  21.181  25.631  1.00  0.00    -0.485 OA
BRANCH  84  85
ATOM     85  C   UNL A   1      32.305  20.338  24.715  1.00  0.00     0.285 C 
BRANCH  85  86
ATOM     86  C   UNL A   1      32.729  18.873  24.692  1.00  0.00     0.078 A 
ATOM     87  C   UNL A   1      33.201  18.302  23.510  1.00  0.00     0.027 A 
ATOM     88  N   UNL A   1      32.529  18.121  25.803  1.00  0.00    -0.258 NA
ATOM     89  C   UNL A   1      33.492  16.937  23.480  1.00  0.00     0.004 A 
ATOM     90  C   UNL A   1      32.815  16.800  25.748  1.00  0.00     0.111 A 
ATOM     91  C   UNL A   1      33.299  16.169  24.620  1.00  0.00     0.020 A 
ENDBRANCH  85  86
ENDBRANCH  84  85
ENDBRANCH  75  84
ENDBRANCH  72  74
ENDBRANCH  71  72
ENDBRANCH   1  71
TORSDOF 14
ENDMDL
