MODEL 1
REMARK VINA RESULT:     -14.1      0.000      0.000
REMARK SMILES Cc1ccc([C@@H]2[C@H](C(=O)OCCOC(=O)c3ccc(-c4c5nc(c(-c6c(F)c(F)c(F)c(F)c6F)c6ccc([nH]6)c(-c6c(F)c(F)c(F)c(F)c6F)c6nc(c(-c7c(F)c(F)c(F)c(F)c7F)c7ccc4[nH]7)C=C6)C=C5)cc3)c3ccccc3C(=O)N2c2ccccc2)cc1
REMARK SMILES IDX 12 1 11 2 10 3 8 4 9 5 7 6 6 7 87 8 79 9 85 10 80 11 84 12
REMARK SMILES IDX 86 13 81 14 83 15 82 16 5 17 1 18 2 19 3 20 95 21 4 22 94 23
REMARK SMILES IDX 88 24 89 25 93 26 90 27 92 28 91 29 13 30 14 31 15 32 16 33
REMARK SMILES IDX 17 34 78 35 18 36 77 37 19 38 20 39 21 40 71 41 22 42 76 43
REMARK SMILES IDX 70 44 72 45 23 46 75 47 69 48 68 49 24 51 56 52 36 53 55 54
REMARK SMILES IDX 37 55 40 56 54 57 73 58 38 59 39 60 53 62 74 63 41 64 25 65
REMARK SMILES IDX 26 66 34 67 27 68 28 69 32 70 35 71 29 72 30 73 33 74 31 75
REMARK SMILES IDX 57 76 58 77 66 78 59 79 60 80 64 81 67 82 61 83 62 84 65 85
REMARK SMILES IDX 63 86 42 87 43 88 51 89 44 90 45 91 49 92 52 93 46 94 47 95
REMARK SMILES IDX 50 96 48 97
REMARK H PARENT 72 50 40 61
REMARK Flexibility Score: inf
ROOT
ATOM      1  C   UNL A   1      47.012  29.464  25.999  1.00  0.00     0.275 C 
ENDROOT
BRANCH   1   2
ATOM      2  C   UNL A   1      46.472  28.277  24.588  1.00  0.00     0.274 C 
BRANCH   2   3
ATOM      3  O   UNL A   1      44.951  27.455  24.625  1.00  0.00    -0.462 OA
BRANCH   3   4
ATOM      4  C   UNL A   1      44.460  26.450  25.540  1.00  0.00     0.316 C 
ATOM      5  O   UNL A   1      44.308  25.319  25.089  1.00  0.00    -0.251 OA
BRANCH   4   6
ATOM      6  C   UNL A   1      43.788  26.855  27.177  1.00  0.00     0.157 C 
ATOM      7  C   UNL A   1      42.393  26.481  28.180  1.00  0.00     0.140 C 
ATOM      8  N   UNL A   1      42.374  25.048  28.641  1.00  0.00    -0.300 N 
ATOM      9  C   UNL A   1      44.961  26.525  28.103  1.00  0.00    -0.019 A 
ATOM     10  C   UNL A   1      43.494  24.868  29.522  1.00  0.00     0.259 C 
ATOM     11  C   UNL A   1      46.226  27.002  27.706  1.00  0.00     0.005 A 
ATOM     12  C   UNL A   1      44.827  25.565  29.143  1.00  0.00     0.044 A 
ATOM     13  O   UNL A   1      43.438  24.168  30.529  1.00  0.00    -0.269 OA
ATOM     14  C   UNL A   1      47.366  26.382  28.180  1.00  0.00     0.000 A 
ATOM     15  C   UNL A   1      46.004  25.024  29.670  1.00  0.00     0.014 A 
ATOM     16  C   UNL A   1      47.255  25.390  29.151  1.00  0.00     0.001 A 
BRANCH   7  17
ATOM     17  C   UNL A   1      40.971  27.153  28.370  1.00  0.00    -0.024 A 
ATOM     18  C   UNL A   1      37.820  29.904  29.364  1.00  0.00     0.044 C 
ATOM     19  C   UNL A   1      38.645  28.751  28.858  1.00  0.00    -0.051 A 
ATOM     20  C   UNL A   1      39.249  28.776  27.611  1.00  0.00     0.004 A 
ATOM     21  C   UNL A   1      38.964  27.675  29.686  1.00  0.00     0.004 A 
ATOM     22  C   UNL A   1      40.386  27.975  27.369  1.00  0.00     0.006 A 
ATOM     23  C   UNL A   1      40.115  26.885  29.447  1.00  0.00     0.006 A 
ENDBRANCH   7  17
BRANCH   8  24
ATOM     24  C   UNL A   1      42.237  24.041  27.573  1.00  0.00     0.045 A 
ATOM     25  C   UNL A   1      40.665  23.730  27.541  1.00  0.00     0.026 A 
ATOM     26  C   UNL A   1      43.388  22.859  26.865  1.00  0.00     0.026 A 
ATOM     27  C   UNL A   1      40.028  22.220  26.989  1.00  0.00     0.002 A 
ATOM     28  C   UNL A   1      42.876  21.281  26.127  1.00  0.00     0.002 A 
ATOM     29  C   UNL A   1      41.113  20.885  26.121  1.00  0.00     0.000 A 
ENDBRANCH   8  24
ENDBRANCH   4   6
ENDBRANCH   3   4
ENDBRANCH   2   3
ENDBRANCH   1   2
BRANCH   1  30
ATOM     30  O   UNL A   1      46.838  31.287  25.883  1.00  0.00    -0.458 OA
BRANCH  30  31
ATOM     31  C   UNL A   1      45.390  32.295  26.195  1.00  0.00     0.338 C 
ATOM     32  O   UNL A   1      45.513  33.235  25.377  1.00  0.00    -0.246 OA
BRANCH  31  33
ATOM     33  C   UNL A   1      44.052  31.601  27.746  1.00  0.00     0.060 A 
ATOM     34  C   UNL A   1      43.032  30.586  27.942  1.00  0.00     0.016 A 
ATOM     35  C   UNL A   1      43.978  32.289  29.194  1.00  0.00     0.016 A 
ATOM     36  C   UNL A   1      42.241  30.290  29.103  1.00  0.00     0.010 A 
ATOM     37  C   UNL A   1      43.270  32.047  30.326  1.00  0.00     0.010 A 
ATOM     38  C   UNL A   1      42.338  31.066  30.234  1.00  0.00    -0.014 A 
BRANCH  38  39
ATOM     39  C   UNL A   1      41.356  31.251  31.268  1.00  0.00     0.031 A 
ATOM     40  C   UNL A   1      40.430  32.388  31.119  1.00  0.00     0.074 A 
ATOM     41  C   UNL A   1      41.146  30.043  31.861  1.00  0.00     0.049 A 
ATOM     42  N   UNL A   1      39.675  32.843  32.050  1.00  0.00    -0.248 NA
ATOM     43  C   UNL A   1      40.304  33.199  29.906  1.00  0.00     0.031 C 
ATOM     44  C   UNL A   1      39.949  29.413  32.385  1.00  0.00     0.029 A 
ATOM     45  N   UNL A   1      42.123  29.039  32.039  1.00  0.00    -0.354 N 
ATOM     46  C   UNL A   1      38.675  33.550  31.402  1.00  0.00     0.074 A 
ATOM     47  C   UNL A   1      39.252  33.978  30.167  1.00  0.00     0.031 C 
ATOM     48  C   UNL A   1      40.312  28.342  33.123  1.00  0.00     0.029 A 
ATOM     49  C   UNL A   1      41.767  28.279  33.169  1.00  0.00     0.049 A 
ATOM     50  H   UNL A   1      42.915  28.895  31.472  1.00  0.00     0.167 HD
ATOM     51  C   UNL A   1      37.399  33.420  31.867  1.00  0.00     0.037 A 
ATOM     52  C   UNL A   1      42.522  28.479  34.296  1.00  0.00     0.037 A 
ATOM     53  C   UNL A   1      37.408  32.482  32.997  1.00  0.00     0.049 A 
ATOM     54  C   UNL A   1      41.947  29.581  35.180  1.00  0.00     0.074 A 
ATOM     55  C   UNL A   1      37.062  31.156  33.173  1.00  0.00     0.029 A 
ATOM     56  N   UNL A   1      38.220  32.792  34.062  1.00  0.00    -0.354 N 
ATOM     57  N   UNL A   1      40.768  30.119  35.025  1.00  0.00    -0.248 NA
ATOM     58  C   UNL A   1      42.696  30.204  36.272  1.00  0.00     0.031 C 
ATOM     59  C   UNL A   1      37.732  30.683  34.354  1.00  0.00     0.029 A 
ATOM     60  C   UNL A   1      38.483  31.720  34.879  1.00  0.00     0.049 A 
ATOM     61  H   UNL A   1      38.577  33.695  34.224  1.00  0.00     0.167 HD
ATOM     62  C   UNL A   1      40.608  31.161  35.893  1.00  0.00     0.074 A 
ATOM     63  C   UNL A   1      41.854  31.182  36.647  1.00  0.00     0.031 C 
ATOM     64  C   UNL A   1      39.474  31.929  35.929  1.00  0.00     0.037 A 
BRANCH  51  65
ATOM     65  C   UNL A   1      36.116  33.908  31.234  1.00  0.00     0.064 A 
ATOM     66  C   UNL A   1      35.301  34.803  31.966  1.00  0.00     0.173 A 
ATOM     67  C   UNL A   1      35.629  33.597  29.948  1.00  0.00     0.173 A 
ATOM     68  F   UNL A   1      35.657  35.246  33.178  1.00  0.00    -0.203 F 
ATOM     69  C   UNL A   1      34.094  35.304  31.477  1.00  0.00     0.198 A 
ATOM     70  C   UNL A   1      34.414  34.097  29.461  1.00  0.00     0.198 A 
ATOM     71  F   UNL A   1      36.309  32.833  29.091  1.00  0.00    -0.203 F 
ATOM     72  F   UNL A   1      33.375  36.144  32.233  1.00  0.00    -0.200 F 
ATOM     73  C   UNL A   1      33.647  34.948  30.226  1.00  0.00     0.200 A 
ATOM     74  F   UNL A   1      34.000  33.753  28.231  1.00  0.00    -0.200 F 
ATOM     75  F   UNL A   1      32.494  35.438  29.752  1.00  0.00    -0.200 F 
ENDBRANCH  51  65
BRANCH  52  76
ATOM     76  C   UNL A   1      43.976  28.340  33.976  1.00  0.00     0.064 A 
ATOM     77  C   UNL A   1      44.541  27.055  33.818  1.00  0.00     0.173 A 
ATOM     78  C   UNL A   1      44.631  29.402  33.361  1.00  0.00     0.173 A 
ATOM     79  F   UNL A   1      43.930  25.988  34.352  1.00  0.00    -0.203 F 
ATOM     80  C   UNL A   1      45.663  26.835  33.011  1.00  0.00     0.198 A 
ATOM     81  C   UNL A   1      45.677  29.140  32.492  1.00  0.00     0.198 A 
ATOM     82  F   UNL A   1      44.136  30.647  33.421  1.00  0.00    -0.203 F 
ATOM     83  F   UNL A   1      46.127  25.596  32.801  1.00  0.00    -0.200 F 
ATOM     84  C   UNL A   1      46.215  27.884  32.320  1.00  0.00     0.200 A 
ATOM     85  F   UNL A   1      46.059  30.091  31.662  1.00  0.00    -0.200 F 
ATOM     86  F   UNL A   1      47.203  27.692  31.437  1.00  0.00    -0.200 F 
ENDBRANCH  52  76
BRANCH  64  87
ATOM     87  C   UNL A   1      39.220  32.991  36.977  1.00  0.00     0.064 A 
ATOM     88  C   UNL A   1      39.872  34.230  36.924  1.00  0.00     0.173 A 
ATOM     89  C   UNL A   1      38.441  32.774  38.144  1.00  0.00     0.173 A 
ATOM     90  F   UNL A   1      40.751  34.508  35.950  1.00  0.00    -0.203 F 
ATOM     91  C   UNL A   1      39.674  35.212  37.897  1.00  0.00     0.198 A 
ATOM     92  C   UNL A   1      38.313  33.721  39.152  1.00  0.00     0.198 A 
ATOM     93  F   UNL A   1      37.745  31.652  38.362  1.00  0.00    -0.203 F 
ATOM     94  F   UNL A   1      40.251  36.410  37.748  1.00  0.00    -0.200 F 
ATOM     95  C   UNL A   1      38.903  34.954  39.014  1.00  0.00     0.200 A 
ATOM     96  F   UNL A   1      37.604  33.423  40.250  1.00  0.00    -0.200 F 
ATOM     97  F   UNL A   1      38.734  35.888  39.957  1.00  0.00    -0.200 F 
ENDBRANCH  64  87
ENDBRANCH  38  39
ENDBRANCH  31  33
ENDBRANCH  30  31
ENDBRANCH   1  30
TORSDOF 13
ENDMDL
MODEL 2
REMARK VINA RESULT:     -14.1      4.496     12.046
REMARK SMILES Cc1ccc([C@@H]2[C@H](C(=O)OCCOC(=O)c3ccc(-c4c5nc(c(-c6c(F)c(F)c(F)c(F)c6F)c6ccc([nH]6)c(-c6c(F)c(F)c(F)c(F)c6F)c6nc(c(-c7c(F)c(F)c(F)c(F)c7F)c7ccc4[nH]7)C=C6)C=C5)cc3)c3ccccc3C(=O)N2c2ccccc2)cc1
REMARK SMILES IDX 12 1 11 2 10 3 8 4 9 5 7 6 6 7 87 8 79 9 85 10 80 11 84 12
REMARK SMILES IDX 86 13 81 14 83 15 82 16 5 17 1 18 2 19 3 20 95 21 4 22 94 23
REMARK SMILES IDX 88 24 89 25 93 26 90 27 92 28 91 29 13 30 14 31 15 32 16 33
REMARK SMILES IDX 17 34 78 35 18 36 77 37 19 38 20 39 21 40 71 41 22 42 76 43
REMARK SMILES IDX 70 44 72 45 23 46 75 47 69 48 68 49 24 51 56 52 36 53 55 54
REMARK SMILES IDX 37 55 40 56 54 57 73 58 38 59 39 60 53 62 74 63 41 64 25 65
REMARK SMILES IDX 26 66 34 67 27 68 28 69 32 70 35 71 29 72 30 73 33 74 31 75
REMARK SMILES IDX 57 76 58 77 66 78 59 79 60 80 64 81 67 82 61 83 62 84 65 85
REMARK SMILES IDX 63 86 42 87 43 88 51 89 44 90 45 91 49 92 52 93 46 94 47 95
REMARK SMILES IDX 50 96 48 97
REMARK H PARENT 72 50 40 61
REMARK Flexibility Score: inf
ROOT
ATOM      1  C   UNL A   1      39.809  32.078  34.811  1.00  0.00     0.275 C 
ENDROOT
BRANCH   1   2
ATOM      2  C   UNL A   1      37.995  31.449  34.881  1.00  0.00     0.274 C 
BRANCH   2   3
ATOM      3  O   UNL A   1      37.067  31.189  33.446  1.00  0.00    -0.462 OA
BRANCH   3   4
ATOM      4  C   UNL A   1      37.078  30.080  32.520  1.00  0.00     0.316 C 
ATOM      5  O   UNL A   1      37.166  28.956  33.005  1.00  0.00    -0.251 OA
BRANCH   4   6
ATOM      6  C   UNL A   1      37.279  30.296  30.730  1.00  0.00     0.157 C 
ATOM      7  C   UNL A   1      36.484  31.099  29.382  1.00  0.00     0.140 C 
ATOM      8  N   UNL A   1      36.565  32.601  29.468  1.00  0.00    -0.300 N 
ATOM      9  C   UNL A   1      38.717  30.810  30.621  1.00  0.00    -0.019 A 
ATOM     10  C   UNL A   1      37.948  32.963  29.322  1.00  0.00     0.259 C 
ATOM     11  C   UNL A   1      39.686  30.122  31.377  1.00  0.00     0.005 A 
ATOM     12  C   UNL A   1      39.003  32.067  30.022  1.00  0.00     0.044 A 
ATOM     13  O   UNL A   1      38.309  33.957  28.701  1.00  0.00    -0.269 OA
ATOM     14  C   UNL A   1      40.862  30.762  31.721  1.00  0.00     0.000 A 
ATOM     15  C   UNL A   1      40.242  32.647  30.313  1.00  0.00     0.014 A 
ATOM     16  C   UNL A   1      41.134  32.023  31.199  1.00  0.00     0.001 A 
BRANCH   7  17
ATOM     17  C   UNL A   1      35.374  30.653  28.343  1.00  0.00    -0.024 A 
ATOM     18  C   UNL A   1      31.809  29.025  26.578  1.00  0.00     0.044 C 
ATOM     19  C   UNL A   1      33.116  29.720  26.850  1.00  0.00    -0.051 A 
ATOM     20  C   UNL A   1      33.168  31.041  27.267  1.00  0.00     0.004 A 
ATOM     21  C   UNL A   1      34.320  29.018  26.845  1.00  0.00     0.004 A 
ATOM     22  C   UNL A   1      34.290  31.502  27.990  1.00  0.00     0.006 A 
ATOM     23  C   UNL A   1      35.437  29.477  27.584  1.00  0.00     0.006 A 
ENDBRANCH   7  17
BRANCH   8  24
ATOM     24  C   UNL A   1      35.866  33.207  30.615  1.00  0.00     0.045 A 
ATOM     25  C   UNL A   1      36.976  34.151  31.283  1.00  0.00     0.026 A 
ATOM     26  C   UNL A   1      34.448  32.686  31.585  1.00  0.00     0.026 A 
ATOM     27  C   UNL A   1      36.951  34.572  32.960  1.00  0.00     0.002 A 
ATOM     28  C   UNL A   1      34.201  33.145  33.324  1.00  0.00     0.002 A 
ATOM     29  C   UNL A   1      35.461  34.170  34.114  1.00  0.00     0.000 A 
ENDBRANCH   8  24
ENDBRANCH   4   6
ENDBRANCH   3   4
ENDBRANCH   2   3
ENDBRANCH   1   2
BRANCH   1  30
ATOM     30  O   UNL A   1      41.226  31.087  35.424  1.00  0.00    -0.458 OA
BRANCH  30  31
ATOM     31  C   UNL A   1      41.479  29.316  35.327  1.00  0.00     0.338 C 
ATOM     32  O   UNL A   1      40.858  28.883  36.324  1.00  0.00    -0.246 OA
BRANCH  31  33
ATOM     33  C   UNL A   1      42.672  28.605  33.669  1.00  0.00     0.060 A 
ATOM     34  C   UNL A   1      44.046  28.660  33.202  1.00  0.00     0.016 A 
ATOM     35  C   UNL A   1      42.048  27.756  32.458  1.00  0.00     0.016 A 
ATOM     36  C   UNL A   1      44.641  28.089  32.028  1.00  0.00     0.010 A 
ATOM     37  C   UNL A   1      42.558  27.181  31.340  1.00  0.00     0.010 A 
ATOM     38  C   UNL A   1      43.871  27.424  31.103  1.00  0.00    -0.014 A 
BRANCH  38  39
ATOM     39  C   UNL A   1      44.145  27.216  29.707  1.00  0.00     0.031 A 
ATOM     40  C   UNL A   1      44.549  25.858  29.298  1.00  0.00     0.074 A 
ATOM     41  C   UNL A   1      43.456  28.156  29.004  1.00  0.00     0.049 A 
ATOM     42  N   UNL A   1      45.064  25.560  28.164  1.00  0.00    -0.248 NA
ATOM     43  C   UNL A   1      44.481  24.678  30.165  1.00  0.00     0.031 C 
ATOM     44  C   UNL A   1      42.765  28.104  27.730  1.00  0.00     0.029 A 
ATOM     45  N   UNL A   1      43.189  29.472  29.443  1.00  0.00    -0.354 N 
ATOM     46  C   UNL A   1      44.856  24.199  28.009  1.00  0.00     0.074 A 
ATOM     47  C   UNL A   1      44.775  23.675  29.336  1.00  0.00     0.031 C 
ATOM     48  C   UNL A   1      42.487  29.366  27.336  1.00  0.00     0.029 A 
ATOM     49  C   UNL A   1      43.055  30.293  28.308  1.00  0.00     0.049 A 
ATOM     50  H   UNL A   1      43.109  29.765  30.380  1.00  0.00     0.167 HD
ATOM     51  C   UNL A   1      44.479  23.747  26.778  1.00  0.00     0.037 A 
ATOM     52  C   UNL A   1      44.095  31.148  28.053  1.00  0.00     0.037 A 
ATOM     53  C   UNL A   1      44.359  24.900  25.875  1.00  0.00     0.049 A 
ATOM     54  C   UNL A   1      45.148  30.516  27.149  1.00  0.00     0.074 A 
ATOM     55  C   UNL A   1      43.311  25.638  25.361  1.00  0.00     0.029 A 
ATOM     56  N   UNL A   1      45.474  25.689  25.717  1.00  0.00    -0.354 N 
ATOM     57  N   UNL A   1      44.993  29.393  26.502  1.00  0.00    -0.248 NA
ATOM     58  C   UNL A   1      46.486  31.078  26.963  1.00  0.00     0.031 C 
ATOM     59  C   UNL A   1      43.837  26.905  24.934  1.00  0.00     0.029 A 
ATOM     60  C   UNL A   1      45.195  26.930  25.199  1.00  0.00     0.049 A 
ATOM     61  H   UNL A   1      46.383  25.394  25.952  1.00  0.00     0.167 HD
ATOM     62  C   UNL A   1      46.162  29.037  25.890  1.00  0.00     0.074 A 
ATOM     63  C   UNL A   1      47.074  30.123  26.222  1.00  0.00     0.031 C 
ATOM     64  C   UNL A   1      46.298  27.884  25.164  1.00  0.00     0.037 A 
BRANCH  51  65
ATOM     65  C   UNL A   1      43.998  22.367  26.392  1.00  0.00     0.064 A 
ATOM     66  C   UNL A   1      42.712  21.958  26.813  1.00  0.00     0.173 A 
ATOM     67  C   UNL A   1      44.684  21.415  25.610  1.00  0.00     0.173 A 
ATOM     68  F   UNL A   1      41.910  22.773  27.510  1.00  0.00    -0.203 F 
ATOM     69  C   UNL A   1      42.180  20.703  26.519  1.00  0.00     0.198 A 
ATOM     70  C   UNL A   1      44.150  20.153  25.319  1.00  0.00     0.198 A 
ATOM     71  F   UNL A   1      45.875  21.663  25.061  1.00  0.00    -0.203 F 
ATOM     72  F   UNL A   1      40.955  20.387  26.959  1.00  0.00    -0.200 F 
ATOM     73  C   UNL A   1      42.899  19.796  25.775  1.00  0.00     0.200 A 
ATOM     74  F   UNL A   1      44.858  19.287  24.578  1.00  0.00    -0.200 F 
ATOM     75  F   UNL A   1      42.383  18.596  25.482  1.00  0.00    -0.200 F 
ENDBRANCH  51  65
BRANCH  52  76
ATOM     76  C   UNL A   1      44.417  31.950  29.275  1.00  0.00     0.064 A 
ATOM     77  C   UNL A   1      45.494  31.566  30.103  1.00  0.00     0.173 A 
ATOM     78  C   UNL A   1      44.019  33.282  29.325  1.00  0.00     0.173 A 
ATOM     79  F   UNL A   1      45.949  30.306  30.065  1.00  0.00    -0.203 F 
ATOM     80  C   UNL A   1      46.194  32.494  30.883  1.00  0.00     0.198 A 
ATOM     81  C   UNL A   1      44.790  34.192  30.028  1.00  0.00     0.198 A 
ATOM     82  F   UNL A   1      43.036  33.740  28.536  1.00  0.00    -0.203 F 
ATOM     83  F   UNL A   1      47.270  32.126  31.590  1.00  0.00    -0.200 F 
ATOM     84  C   UNL A   1      45.855  33.822  30.819  1.00  0.00     0.200 A 
ATOM     85  F   UNL A   1      44.615  35.478  29.794  1.00  0.00    -0.200 F 
ATOM     86  F   UNL A   1      46.582  34.756  31.445  1.00  0.00    -0.200 F 
ENDBRANCH  52  76
BRANCH  64  87
ATOM     87  C   UNL A   1      47.537  27.546  24.362  1.00  0.00     0.064 A 
ATOM     88  C   UNL A   1      48.660  26.972  24.973  1.00  0.00     0.173 A 
ATOM     89  C   UNL A   1      47.714  27.905  23.001  1.00  0.00     0.173 A 
ATOM     90  F   UNL A   1      48.676  26.718  26.289  1.00  0.00    -0.203 F 
ATOM     91  C   UNL A   1      49.822  26.680  24.257  1.00  0.00     0.198 A 
ATOM     92  C   UNL A   1      48.901  27.690  22.312  1.00  0.00     0.198 A 
ATOM     93  F   UNL A   1      46.749  28.458  22.257  1.00  0.00    -0.203 F 
ATOM     94  F   UNL A   1      50.830  26.049  24.871  1.00  0.00    -0.200 F 
ATOM     95  C   UNL A   1      49.946  27.047  22.931  1.00  0.00     0.200 A 
ATOM     96  F   UNL A   1      49.012  28.106  21.042  1.00  0.00    -0.200 F 
ATOM     97  F   UNL A   1      51.069  26.787  22.253  1.00  0.00    -0.200 F 
ENDBRANCH  64  87
ENDBRANCH  38  39
ENDBRANCH  31  33
ENDBRANCH  30  31
ENDBRANCH   1  30
TORSDOF 13
ENDMDL
MODEL 3
REMARK VINA RESULT:     -13.8      5.308     10.833
REMARK SMILES Cc1ccc([C@@H]2[C@H](C(=O)OCCOC(=O)c3ccc(-c4c5nc(c(-c6c(F)c(F)c(F)c(F)c6F)c6ccc([nH]6)c(-c6c(F)c(F)c(F)c(F)c6F)c6nc(c(-c7c(F)c(F)c(F)c(F)c7F)c7ccc4[nH]7)C=C6)C=C5)cc3)c3ccccc3C(=O)N2c2ccccc2)cc1
REMARK SMILES IDX 12 1 11 2 10 3 8 4 9 5 7 6 6 7 87 8 79 9 85 10 80 11 84 12
REMARK SMILES IDX 86 13 81 14 83 15 82 16 5 17 1 18 2 19 3 20 95 21 4 22 94 23
REMARK SMILES IDX 88 24 89 25 93 26 90 27 92 28 91 29 13 30 14 31 15 32 16 33
REMARK SMILES IDX 17 34 78 35 18 36 77 37 19 38 20 39 21 40 71 41 22 42 76 43
REMARK SMILES IDX 70 44 72 45 23 46 75 47 69 48 68 49 24 51 56 52 36 53 55 54
REMARK SMILES IDX 37 55 40 56 54 57 73 58 38 59 39 60 53 62 74 63 41 64 25 65
REMARK SMILES IDX 26 66 34 67 27 68 28 69 32 70 35 71 29 72 30 73 33 74 31 75
REMARK SMILES IDX 57 76 58 77 66 78 59 79 60 80 64 81 67 82 61 83 62 84 65 85
REMARK SMILES IDX 63 86 42 87 43 88 51 89 44 90 45 91 49 92 52 93 46 94 47 95
REMARK SMILES IDX 50 96 48 97
REMARK H PARENT 72 50 40 61
REMARK Flexibility Score: inf
ROOT
ATOM      1  C   UNL A   1      32.567  31.032  26.916  1.00  0.00     0.275 C 
ENDROOT
BRANCH   1   2
ATOM      2  C   UNL A   1      32.004  29.216  27.193  1.00  0.00     0.274 C 
BRANCH   2   3
ATOM      3  O   UNL A   1      33.117  27.896  27.100  1.00  0.00    -0.462 OA
BRANCH   3   4
ATOM      4  C   UNL A   1      32.931  26.558  26.586  1.00  0.00     0.316 C 
ATOM      5  O   UNL A   1      32.102  25.856  27.158  1.00  0.00    -0.251 OA
BRANCH   4   6
ATOM      6  C   UNL A   1      34.056  25.803  25.380  1.00  0.00     0.157 C 
ATOM      7  C   UNL A   1      34.363  24.242  24.630  1.00  0.00     0.140 C 
ATOM      8  N   UNL A   1      33.252  23.810  23.710  1.00  0.00    -0.300 N 
ATOM      9  C   UNL A   1      33.908  26.729  24.170  1.00  0.00    -0.019 A 
ATOM     10  C   UNL A   1      33.231  24.727  22.605  1.00  0.00     0.259 C 
ATOM     11  C   UNL A   1      33.953  28.113  24.430  1.00  0.00     0.005 A 
ATOM     12  C   UNL A   1      33.470  26.229  22.913  1.00  0.00     0.044 A 
ATOM     13  O   UNL A   1      33.002  24.371  21.453  1.00  0.00    -0.269 OA
ATOM     14  C   UNL A   1      33.372  28.993  23.538  1.00  0.00     0.000 A 
ATOM     15  C   UNL A   1      32.975  27.157  21.992  1.00  0.00     0.014 A 
ATOM     16  C   UNL A   1      32.876  28.516  22.328  1.00  0.00     0.001 A 
BRANCH   7  17
ATOM     17  C   UNL A   1      35.302  23.019  24.995  1.00  0.00    -0.024 A 
ATOM     18  C   UNL A   1      38.241  19.888  24.801  1.00  0.00     0.044 C 
ATOM     19  C   UNL A   1      37.196  20.885  25.227  1.00  0.00    -0.051 A 
ATOM     20  C   UNL A   1      37.534  22.157  25.662  1.00  0.00     0.004 A 
ATOM     21  C   UNL A   1      35.838  20.624  25.054  1.00  0.00     0.004 A 
ATOM     22  C   UNL A   1      36.592  23.204  25.561  1.00  0.00     0.006 A 
ATOM     23  C   UNL A   1      34.900  21.678  24.937  1.00  0.00     0.006 A 
ENDBRANCH   7  17
BRANCH   8  24
ATOM     24  C   UNL A   1      31.951  23.565  24.359  1.00  0.00     0.045 A 
ATOM     25  C   UNL A   1      31.061  24.823  23.917  1.00  0.00     0.026 A 
ATOM     26  C   UNL A   1      31.477  22.609  25.803  1.00  0.00     0.026 A 
ATOM     27  C   UNL A   1      29.737  25.404  24.864  1.00  0.00     0.002 A 
ATOM     28  C   UNL A   1      30.038  23.005  26.837  1.00  0.00     0.002 A 
ATOM     29  C   UNL A   1      29.045  24.446  26.386  1.00  0.00     0.000 A 
ENDBRANCH   8  24
ENDBRANCH   4   6
ENDBRANCH   3   4
ENDBRANCH   2   3
ENDBRANCH   1   2
BRANCH   1  30
ATOM     30  O   UNL A   1      33.681  31.913  28.077  1.00  0.00    -0.458 OA
BRANCH  30  31
ATOM     31  C   UNL A   1      35.437  32.235  27.918  1.00  0.00     0.338 C 
ATOM     32  O   UNL A   1      35.474  33.381  27.416  1.00  0.00    -0.246 OA
BRANCH  31  33
ATOM     33  C   UNL A   1      36.766  30.664  28.584  1.00  0.00     0.060 A 
ATOM     34  C   UNL A   1      36.876  29.706  29.670  1.00  0.00     0.016 A 
ATOM     35  C   UNL A   1      38.118  30.288  27.804  1.00  0.00     0.016 A 
ATOM     36  C   UNL A   1      37.882  28.714  29.922  1.00  0.00     0.010 A 
ATOM     37  C   UNL A   1      39.091  29.359  27.983  1.00  0.00     0.010 A 
ATOM     38  C   UNL A   1      38.987  28.613  29.111  1.00  0.00    -0.014 A 
BRANCH  38  39
ATOM     39  C   UNL A   1      40.277  28.065  29.434  1.00  0.00     0.031 A 
ATOM     40  C   UNL A   1      40.535  26.673  29.026  1.00  0.00     0.074 A 
ATOM     41  C   UNL A   1      41.149  29.103  29.552  1.00  0.00     0.049 A 
ATOM     42  N   UNL A   1      41.513  25.958  29.445  1.00  0.00    -0.248 NA
ATOM     43  C   UNL A   1      39.666  25.894  28.140  1.00  0.00     0.031 C 
ATOM     44  C   UNL A   1      42.544  29.247  29.182  1.00  0.00     0.029 A 
ATOM     45  N   UNL A   1      40.829  30.390  30.040  1.00  0.00    -0.354 N 
ATOM     46  C   UNL A   1      41.662  24.949  28.508  1.00  0.00     0.074 A 
ATOM     47  C   UNL A   1      40.371  24.783  27.920  1.00  0.00     0.031 C 
ATOM     48  C   UNL A   1      43.035  30.362  29.765  1.00  0.00     0.029 A 
ATOM     49  C   UNL A   1      41.993  30.948  30.600  1.00  0.00     0.049 A 
ATOM     50  H   UNL A   1      39.945  30.822  29.995  1.00  0.00     0.167 HD
ATOM     51  C   UNL A   1      42.930  24.599  28.145  1.00  0.00     0.037 A 
ATOM     52  C   UNL A   1      42.036  31.012  31.969  1.00  0.00     0.037 A 
ATOM     53  C   UNL A   1      43.877  25.455  28.873  1.00  0.00     0.049 A 
ATOM     54  C   UNL A   1      42.656  29.761  32.581  1.00  0.00     0.074 A 
ATOM     55  C   UNL A   1      44.640  26.562  28.557  1.00  0.00     0.029 A 
ATOM     56  N   UNL A   1      43.807  25.439  30.246  1.00  0.00    -0.354 N 
ATOM     57  N   UNL A   1      43.281  28.835  31.906  1.00  0.00    -0.248 NA
ATOM     58  C   UNL A   1      42.554  29.431  34.003  1.00  0.00     0.031 C 
ATOM     59  C   UNL A   1      44.982  27.223  29.787  1.00  0.00     0.029 A 
ATOM     60  C   UNL A   1      44.417  26.518  30.836  1.00  0.00     0.049 A 
ATOM     61  H   UNL A   1      43.362  24.724  30.756  1.00  0.00     0.167 HD
ATOM     62  C   UNL A   1      43.600  27.789  32.726  1.00  0.00     0.074 A 
ATOM     63  C   UNL A   1      43.109  28.207  34.031  1.00  0.00     0.031 C 
ATOM     64  C   UNL A   1      44.236  26.662  32.276  1.00  0.00     0.037 A 
BRANCH  51  65
ATOM     65  C   UNL A   1      43.366  23.691  27.018  1.00  0.00     0.064 A 
ATOM     66  C   UNL A   1      43.035  22.318  27.090  1.00  0.00     0.173 A 
ATOM     67  C   UNL A   1      44.059  24.061  25.847  1.00  0.00     0.173 A 
ATOM     68  F   UNL A   1      42.322  21.821  28.109  1.00  0.00    -0.203 F 
ATOM     69  C   UNL A   1      43.399  21.396  26.109  1.00  0.00     0.198 A 
ATOM     70  C   UNL A   1      44.429  23.133  24.865  1.00  0.00     0.198 A 
ATOM     71  F   UNL A   1      44.381  25.327  25.575  1.00  0.00    -0.203 F 
ATOM     72  F   UNL A   1      43.052  20.110  26.252  1.00  0.00    -0.200 F 
ATOM     73  C   UNL A   1      44.100  21.801  24.997  1.00  0.00     0.200 A 
ATOM     74  F   UNL A   1      45.098  23.547  23.777  1.00  0.00    -0.200 F 
ATOM     75  F   UNL A   1      44.439  20.918  24.049  1.00  0.00    -0.200 F 
ENDBRANCH  51  65
BRANCH  52  76
ATOM     76  C   UNL A   1      40.802  31.675  32.494  1.00  0.00     0.064 A 
ATOM     77  C   UNL A   1      40.596  33.055  32.269  1.00  0.00     0.173 A 
ATOM     78  C   UNL A   1      39.677  30.896  32.740  1.00  0.00     0.173 A 
ATOM     79  F   UNL A   1      41.639  33.847  31.984  1.00  0.00    -0.203 F 
ATOM     80  C   UNL A   1      39.313  33.610  32.210  1.00  0.00     0.198 A 
ATOM     81  C   UNL A   1      38.419  31.453  32.578  1.00  0.00     0.198 A 
ATOM     82  F   UNL A   1      39.779  29.570  32.916  1.00  0.00    -0.203 F 
ATOM     83  F   UNL A   1      39.136  34.902  31.905  1.00  0.00    -0.200 F 
ATOM     84  C   UNL A   1      38.217  32.794  32.337  1.00  0.00     0.200 A 
ATOM     85  F   UNL A   1      37.382  30.646  32.471  1.00  0.00    -0.200 F 
ATOM     86  F   UNL A   1      36.976  33.264  32.155  1.00  0.00    -0.200 F 
ENDBRANCH  52  76
BRANCH  64  87
ATOM     87  C   UNL A   1      44.725  25.560  33.192  1.00  0.00     0.064 A 
ATOM     88  C   UNL A   1      46.068  25.160  33.189  1.00  0.00     0.173 A 
ATOM     89  C   UNL A   1      43.866  24.767  33.995  1.00  0.00     0.173 A 
ATOM     90  F   UNL A   1      46.957  25.731  32.364  1.00  0.00    -0.203 F 
ATOM     91  C   UNL A   1      46.532  24.127  34.004  1.00  0.00     0.198 A 
ATOM     92  C   UNL A   1      44.316  23.686  34.742  1.00  0.00     0.198 A 
ATOM     93  F   UNL A   1      42.555  25.005  34.123  1.00  0.00    -0.203 F 
ATOM     94  F   UNL A   1      47.841  23.847  34.028  1.00  0.00    -0.200 F 
ATOM     95  C   UNL A   1      45.657  23.385  34.773  1.00  0.00     0.200 A 
ATOM     96  F   UNL A   1      43.436  22.949  35.435  1.00  0.00    -0.200 F 
ATOM     97  F   UNL A   1      46.101  22.380  35.535  1.00  0.00    -0.200 F 
ENDBRANCH  64  87
ENDBRANCH  38  39
ENDBRANCH  31  33
ENDBRANCH  30  31
ENDBRANCH   1  30
TORSDOF 13
ENDMDL
