MODEL 1
REMARK VINA RESULT:     -12.8      0.000      0.000
REMARK SMILES C=C1c2ccccc2C(=O)N1[C@](C)(C(=O)OCCOC(=O)c1ccc(-c2c3nc(c(-c4c(F)c(F)c(F)c(F)c4F)c4ccc([nH]4)c(-c4c(F)c(F)c(F)c(F)c4F)c4nc(c(-c5c(F)c(F)c(F)c(F)c5F)c5ccc2[nH]5)C=C4)C=C3)cc1)C(F)(F)F
REMARK SMILES IDX 18 1 17 2 16 3 14 4 15 5 12 6 13 7 11 8 1 9 2 10 3 11 4 12
REMARK SMILES IDX 8 13 9 14 5 15 7 16 10 17 6 18 85 19 86 20 87 21 88 22 19 23
REMARK SMILES IDX 20 24 21 25 22 26 23 27 84 28 24 29 83 30 25 31 26 32 27 33
REMARK SMILES IDX 77 34 28 35 82 36 76 37 78 38 29 39 81 40 75 41 74 42 30 44
REMARK SMILES IDX 62 45 42 46 61 47 43 48 46 49 60 50 79 51 44 52 45 53 59 55
REMARK SMILES IDX 80 56 47 57 31 58 32 59 40 60 33 61 34 62 38 63 41 64 35 65
REMARK SMILES IDX 36 66 39 67 37 68 63 69 64 70 72 71 65 72 66 73 70 74 73 75
REMARK SMILES IDX 67 76 68 77 71 78 69 79 48 80 49 81 57 82 50 83 51 84 55 85
REMARK SMILES IDX 58 86 52 87 53 88 56 89 54 90
REMARK H PARENT 78 43 46 54
REMARK Flexibility Score: inf
ROOT
ATOM      1  C   UNL A   1      31.736  30.054  26.863  1.00  0.00     0.275 C 
ENDROOT
BRANCH   1   2
ATOM      2  C   UNL A   1      31.709  28.590  27.292  1.00  0.00     0.274 C 
BRANCH   2   3
ATOM      3  O   UNL A   1      32.429  27.774  26.341  1.00  0.00    -0.460 OA
BRANCH   3   4
ATOM      4  C   UNL A   1      31.931  26.534  26.078  1.00  0.00     0.341 C 
ATOM      5  O   UNL A   1      31.449  25.804  26.941  1.00  0.00    -0.249 OA
BRANCH   4   6
ATOM      6  C   UNL A   1      32.127  26.099  24.619  1.00  0.00     0.238 C 
ATOM      7  C   UNL A   1      31.695  24.642  24.337  1.00  0.00     0.058 C 
BRANCH   6   8
ATOM      8  N   UNL A   1      31.284  27.059  23.853  1.00  0.00    -0.283 N 
ATOM      9  C   UNL A   1      32.812  28.643  22.690  1.00  0.00     0.038 C 
ATOM     10  C   UNL A   1      31.626  28.166  23.076  1.00  0.00     0.046 C 
ATOM     11  C   UNL A   1      30.369  28.820  22.688  1.00  0.00     0.010 A 
ATOM     12  C   UNL A   1      30.085  29.950  21.938  1.00  0.00     0.011 A 
ATOM     13  C   UNL A   1      29.323  28.086  23.235  1.00  0.00     0.049 A 
ATOM     14  C   UNL A   1      29.893  26.975  23.987  1.00  0.00     0.260 C 
ATOM     15  C   UNL A   1      28.744  30.311  21.753  1.00  0.00     0.001 A 
ATOM     16  C   UNL A   1      27.990  28.420  23.077  1.00  0.00     0.014 A 
ATOM     17  O   UNL A   1      29.229  26.181  24.632  1.00  0.00    -0.269 OA
ATOM     18  C   UNL A   1      27.704  29.552  22.319  1.00  0.00     0.001 A 
ENDBRANCH   6   8
BRANCH   6  19
ATOM     19  C   UNL A   1      33.639  26.131  24.402  1.00  0.00     0.422 C 
ATOM     20  F   UNL A   1      34.286  25.272  25.226  1.00  0.00    -0.168 F 
ATOM     21  F   UNL A   1      33.966  25.741  23.142  1.00  0.00    -0.168 F 
ATOM     22  F   UNL A   1      34.202  27.343  24.598  1.00  0.00    -0.168 F 
ENDBRANCH   6  19
ENDBRANCH   4   6
ENDBRANCH   3   4
ENDBRANCH   2   3
ENDBRANCH   1   2
BRANCH   1  23
ATOM     23  O   UNL A   1      33.080  30.431  26.512  1.00  0.00    -0.458 OA
BRANCH  23  24
ATOM     24  C   UNL A   1      33.579  31.454  27.241  1.00  0.00     0.338 C 
ATOM     25  O   UNL A   1      32.992  32.450  27.628  1.00  0.00    -0.246 OA
BRANCH  24  26
ATOM     26  C   UNL A   1      34.955  31.153  27.647  1.00  0.00     0.060 A 
ATOM     27  C   UNL A   1      35.265  29.837  27.964  1.00  0.00     0.016 A 
ATOM     28  C   UNL A   1      35.847  32.175  27.949  1.00  0.00     0.016 A 
ATOM     29  C   UNL A   1      36.379  29.554  28.741  1.00  0.00     0.010 A 
ATOM     30  C   UNL A   1      37.054  31.861  28.584  1.00  0.00     0.010 A 
ATOM     31  C   UNL A   1      37.313  30.552  29.035  1.00  0.00    -0.014 A 
BRANCH  31  32
ATOM     32  C   UNL A   1      38.538  30.228  29.823  1.00  0.00     0.031 A 
ATOM     33  C   UNL A   1      39.593  29.317  29.251  1.00  0.00     0.074 A 
ATOM     34  C   UNL A   1      38.711  30.751  31.055  1.00  0.00     0.049 A 
ATOM     35  N   UNL A   1      40.597  28.729  29.852  1.00  0.00    -0.248 NA
ATOM     36  C   UNL A   1      39.496  29.010  27.814  1.00  0.00     0.031 C 
ATOM     37  C   UNL A   1      37.809  31.698  31.715  1.00  0.00     0.029 A 
ATOM     38  N   UNL A   1      39.709  30.557  31.980  1.00  0.00    -0.354 N 
ATOM     39  C   UNL A   1      41.207  27.936  28.888  1.00  0.00     0.074 A 
ATOM     40  C   UNL A   1      40.457  28.110  27.662  1.00  0.00     0.031 C 
ATOM     41  C   UNL A   1      38.311  32.033  32.911  1.00  0.00     0.029 A 
ATOM     42  C   UNL A   1      39.498  31.229  33.160  1.00  0.00     0.049 A 
ATOM     43  H   UNL A   1      40.498  29.992  31.814  1.00  0.00     0.167 HD
ATOM     44  C   UNL A   1      42.293  27.134  29.019  1.00  0.00     0.037 A 
ATOM     45  C   UNL A   1      40.140  31.161  34.341  1.00  0.00     0.037 A 
ATOM     46  C   UNL A   1      43.063  27.011  30.232  1.00  0.00     0.049 A 
ATOM     47  C   UNL A   1      41.296  30.215  34.481  1.00  0.00     0.074 A 
ATOM     48  C   UNL A   1      44.190  26.243  30.467  1.00  0.00     0.029 A 
ATOM     49  N   UNL A   1      42.787  27.685  31.415  1.00  0.00    -0.354 N 
ATOM     50  N   UNL A   1      41.835  29.427  33.583  1.00  0.00    -0.248 NA
ATOM     51  C   UNL A   1      41.923  30.135  35.806  1.00  0.00     0.031 C 
ATOM     52  C   UNL A   1      44.561  26.405  31.805  1.00  0.00     0.029 A 
ATOM     53  C   UNL A   1      43.707  27.328  32.389  1.00  0.00     0.049 A 
ATOM     54  H   UNL A   1      42.047  28.321  31.543  1.00  0.00     0.167 HD
ATOM     55  C   UNL A   1      42.877  28.775  34.225  1.00  0.00     0.074 A 
ATOM     56  C   UNL A   1      42.908  29.277  35.583  1.00  0.00     0.031 C 
ATOM     57  C   UNL A   1      43.730  27.842  33.735  1.00  0.00     0.037 A 
BRANCH  44  58
ATOM     58  C   UNL A   1      42.694  26.292  27.838  1.00  0.00     0.064 A 
ATOM     59  C   UNL A   1      42.131  25.032  27.590  1.00  0.00     0.173 A 
ATOM     60  C   UNL A   1      43.634  26.780  26.915  1.00  0.00     0.173 A 
ATOM     61  F   UNL A   1      41.234  24.512  28.440  1.00  0.00    -0.203 F 
ATOM     62  C   UNL A   1      42.519  24.278  26.482  1.00  0.00     0.198 A 
ATOM     63  C   UNL A   1      43.993  26.040  25.791  1.00  0.00     0.198 A 
ATOM     64  F   UNL A   1      44.199  27.984  27.095  1.00  0.00    -0.203 F 
ATOM     65  F   UNL A   1      42.006  23.054  26.296  1.00  0.00    -0.200 F 
ATOM     66  C   UNL A   1      43.443  24.785  25.581  1.00  0.00     0.200 A 
ATOM     67  F   UNL A   1      44.872  26.541  24.912  1.00  0.00    -0.200 F 
ATOM     68  F   UNL A   1      43.806  24.064  24.512  1.00  0.00    -0.200 F 
ENDBRANCH  44  58
BRANCH  45  69
ATOM     69  C   UNL A   1      39.662  31.970  35.494  1.00  0.00     0.064 A 
ATOM     70  C   UNL A   1      40.198  33.237  35.759  1.00  0.00     0.173 A 
ATOM     71  C   UNL A   1      38.660  31.495  36.356  1.00  0.00     0.173 A 
ATOM     72  F   UNL A   1      41.174  33.726  34.980  1.00  0.00    -0.203 F 
ATOM     73  C   UNL A   1      39.765  33.989  36.848  1.00  0.00     0.198 A 
ATOM     74  C   UNL A   1      38.199  32.264  37.421  1.00  0.00     0.198 A 
ATOM     75  F   UNL A   1      38.109  30.290  36.149  1.00  0.00    -0.203 F 
ATOM     76  F   UNL A   1      40.332  35.175  37.109  1.00  0.00    -0.200 F 
ATOM     77  C   UNL A   1      38.759  33.507  37.673  1.00  0.00     0.200 A 
ATOM     78  F   UNL A   1      37.212  31.803  38.202  1.00  0.00    -0.200 F 
ATOM     79  F   UNL A   1      38.337  34.235  38.715  1.00  0.00    -0.200 F 
ENDBRANCH  45  69
BRANCH  57  80
ATOM     80  C   UNL A   1      44.800  27.343  34.662  1.00  0.00     0.064 A 
ATOM     81  C   UNL A   1      46.036  27.994  34.785  1.00  0.00     0.173 A 
ATOM     82  C   UNL A   1      44.575  26.206  35.454  1.00  0.00     0.173 A 
ATOM     83  F   UNL A   1      46.310  29.073  34.035  1.00  0.00    -0.203 F 
ATOM     84  C   UNL A   1      47.019  27.508  35.644  1.00  0.00     0.198 A 
ATOM     85  C   UNL A   1      45.544  25.745  36.339  1.00  0.00     0.198 A 
ATOM     86  F   UNL A   1      43.408  25.549  35.378  1.00  0.00    -0.203 F 
ATOM     87  F   UNL A   1      48.213  28.111  35.700  1.00  0.00    -0.200 F 
ATOM     88  C   UNL A   1      46.769  26.390  36.425  1.00  0.00     0.200 A 
ATOM     89  F   UNL A   1      45.295  24.674  37.104  1.00  0.00    -0.200 F 
ATOM     90  F   UNL A   1      47.713  25.927  37.256  1.00  0.00    -0.200 F 
ENDBRANCH  57  80
ENDBRANCH  31  32
ENDBRANCH  24  26
ENDBRANCH  23  24
ENDBRANCH   1  23
TORSDOF 13
ENDMDL
MODEL 2
REMARK VINA RESULT:     -12.7      1.684      3.482
REMARK SMILES C=C1c2ccccc2C(=O)N1[C@](C)(C(=O)OCCOC(=O)c1ccc(-c2c3nc(c(-c4c(F)c(F)c(F)c(F)c4F)c4ccc([nH]4)c(-c4c(F)c(F)c(F)c(F)c4F)c4nc(c(-c5c(F)c(F)c(F)c(F)c5F)c5ccc2[nH]5)C=C4)C=C3)cc1)C(F)(F)F
REMARK SMILES IDX 18 1 17 2 16 3 14 4 15 5 12 6 13 7 11 8 1 9 2 10 3 11 4 12
REMARK SMILES IDX 8 13 9 14 5 15 7 16 10 17 6 18 85 19 86 20 87 21 88 22 19 23
REMARK SMILES IDX 20 24 21 25 22 26 23 27 84 28 24 29 83 30 25 31 26 32 27 33
REMARK SMILES IDX 77 34 28 35 82 36 76 37 78 38 29 39 81 40 75 41 74 42 30 44
REMARK SMILES IDX 62 45 42 46 61 47 43 48 46 49 60 50 79 51 44 52 45 53 59 55
REMARK SMILES IDX 80 56 47 57 31 58 32 59 40 60 33 61 34 62 38 63 41 64 35 65
REMARK SMILES IDX 36 66 39 67 37 68 63 69 64 70 72 71 65 72 66 73 70 74 73 75
REMARK SMILES IDX 67 76 68 77 71 78 69 79 48 80 49 81 57 82 50 83 51 84 55 85
REMARK SMILES IDX 58 86 52 87 53 88 56 89 54 90
REMARK H PARENT 78 43 46 54
REMARK Flexibility Score: inf
ROOT
ATOM      1  C   UNL A   1      31.880  30.029  25.658  1.00  0.00     0.275 C 
ENDROOT
BRANCH   1   2
ATOM      2  C   UNL A   1      32.850  29.331  24.709  1.00  0.00     0.274 C 
BRANCH   2   3
ATOM      3  O   UNL A   1      32.289  28.081  24.248  1.00  0.00    -0.460 OA
BRANCH   3   4
ATOM      4  C   UNL A   1      32.680  26.947  24.892  1.00  0.00     0.341 C 
ATOM      5  O   UNL A   1      33.527  26.933  25.781  1.00  0.00    -0.249 OA
BRANCH   4   6
ATOM      6  C   UNL A   1      32.033  25.674  24.324  1.00  0.00     0.238 C 
ATOM      7  C   UNL A   1      31.610  25.794  22.843  1.00  0.00     0.058 C 
BRANCH   6   8
ATOM      8  N   UNL A   1      33.094  24.641  24.489  1.00  0.00    -0.283 N 
ATOM      9  C   UNL A   1      32.790  23.600  26.729  1.00  0.00     0.038 C 
ATOM     10  C   UNL A   1      33.407  23.808  25.564  1.00  0.00     0.046 C 
ATOM     11  C   UNL A   1      34.645  23.103  25.210  1.00  0.00     0.010 A 
ATOM     12  C   UNL A   1      35.425  22.171  25.877  1.00  0.00     0.011 A 
ATOM     13  C   UNL A   1      35.029  23.528  23.943  1.00  0.00     0.049 A 
ATOM     14  C   UNL A   1      34.060  24.514  23.483  1.00  0.00     0.260 C 
ATOM     15  C   UNL A   1      36.577  21.685  25.244  1.00  0.00     0.001 A 
ATOM     16  C   UNL A   1      36.163  23.074  23.295  1.00  0.00     0.014 A 
ATOM     17  O   UNL A   1      34.153  25.116  22.427  1.00  0.00    -0.269 OA
ATOM     18  C   UNL A   1      36.943  22.133  23.962  1.00  0.00     0.001 A 
ENDBRANCH   6   8
BRANCH   6  19
ATOM     19  C   UNL A   1      30.735  25.511  25.113  1.00  0.00     0.422 C 
ATOM     20  F   UNL A   1      29.727  26.247  24.586  1.00  0.00    -0.168 F 
ATOM     21  F   UNL A   1      30.299  24.225  25.085  1.00  0.00    -0.168 F 
ATOM     22  F   UNL A   1      30.828  25.868  26.413  1.00  0.00    -0.168 F 
ENDBRANCH   6  19
ENDBRANCH   4   6
ENDBRANCH   3   4
ENDBRANCH   2   3
ENDBRANCH   1   2
BRANCH   1  23
ATOM     23  O   UNL A   1      32.472  30.132  26.966  1.00  0.00    -0.458 OA
BRANCH  23  24
ATOM     24  C   UNL A   1      33.101  31.304  27.201  1.00  0.00     0.338 C 
ATOM     25  O   UNL A   1      32.616  32.423  27.215  1.00  0.00    -0.246 OA
BRANCH  24  26
ATOM     26  C   UNL A   1      34.494  31.055  27.587  1.00  0.00     0.060 A 
ATOM     27  C   UNL A   1      34.857  29.752  27.901  1.00  0.00     0.016 A 
ATOM     28  C   UNL A   1      35.353  32.110  27.872  1.00  0.00     0.016 A 
ATOM     29  C   UNL A   1      35.993  29.514  28.661  1.00  0.00     0.010 A 
ATOM     30  C   UNL A   1      36.580  31.843  28.488  1.00  0.00     0.010 A 
ATOM     31  C   UNL A   1      36.894  30.546  28.938  1.00  0.00    -0.014 A 
BRANCH  31  32
ATOM     32  C   UNL A   1      38.143  30.270  29.707  1.00  0.00     0.031 A 
ATOM     33  C   UNL A   1      39.217  29.389  29.124  1.00  0.00     0.074 A 
ATOM     34  C   UNL A   1      38.320  30.809  30.932  1.00  0.00     0.049 A 
ATOM     35  N   UNL A   1      40.251  28.839  29.713  1.00  0.00    -0.248 NA
ATOM     36  C   UNL A   1      39.106  29.066  27.692  1.00  0.00     0.031 C 
ATOM     37  C   UNL A   1      37.398  31.732  31.599  1.00  0.00     0.029 A 
ATOM     38  N   UNL A   1      39.339  30.656  31.841  1.00  0.00    -0.354 N 
ATOM     39  C   UNL A   1      40.870  28.059  28.744  1.00  0.00     0.074 A 
ATOM     40  C   UNL A   1      40.093  28.197  27.531  1.00  0.00     0.031 C 
ATOM     41  C   UNL A   1      37.908  32.093  32.783  1.00  0.00     0.029 A 
ATOM     42  C   UNL A   1      39.126  31.331  33.018  1.00  0.00     0.049 A 
ATOM     43  H   UNL A   1      40.143  30.116  31.665  1.00  0.00     0.167 HD
ATOM     44  C   UNL A   1      41.984  27.295  28.863  1.00  0.00     0.037 A 
ATOM     45  C   UNL A   1      39.790  31.295  34.188  1.00  0.00     0.037 A 
ATOM     46  C   UNL A   1      42.778  27.208  30.064  1.00  0.00     0.049 A 
ATOM     47  C   UNL A   1      40.979  30.389  34.317  1.00  0.00     0.074 A 
ATOM     48  C   UNL A   1      43.934  26.479  30.285  1.00  0.00     0.029 A 
ATOM     49  N   UNL A   1      42.500  27.882  31.245  1.00  0.00    -0.354 N 
ATOM     50  N   UNL A   1      41.529  29.611  33.415  1.00  0.00    -0.248 NA
ATOM     51  C   UNL A   1      41.631  30.341  35.631  1.00  0.00     0.031 C 
ATOM     52  C   UNL A   1      44.322  26.666  31.615  1.00  0.00     0.029 A 
ATOM     53  C   UNL A   1      43.449  27.565  32.206  1.00  0.00     0.049 A 
ATOM     54  H   UNL A   1      41.742  28.495  31.382  1.00  0.00     0.167 HD
ATOM     55  C   UNL A   1      42.603  29.000  34.045  1.00  0.00     0.074 A 
ATOM     56  C   UNL A   1      42.640  29.515  35.398  1.00  0.00     0.031 C 
ATOM     57  C   UNL A   1      43.477  28.091  33.547  1.00  0.00     0.037 A 
BRANCH  44  58
ATOM     58  C   UNL A   1      42.392  26.456  27.682  1.00  0.00     0.064 A 
ATOM     59  C   UNL A   1      43.383  26.864  26.779  1.00  0.00     0.173 A 
ATOM     60  C   UNL A   1      41.802  25.197  27.478  1.00  0.00     0.173 A 
ATOM     61  F   UNL A   1      43.977  28.059  26.919  1.00  0.00    -0.203 F 
ATOM     62  C   UNL A   1      43.744  26.061  25.698  1.00  0.00     0.198 A 
ATOM     63  C   UNL A   1      42.189  24.382  26.418  1.00  0.00     0.198 A 
ATOM     64  F   UNL A   1      40.854  24.749  28.316  1.00  0.00    -0.203 F 
ATOM     65  F   UNL A   1      44.656  26.496  24.817  1.00  0.00    -0.200 F 
ATOM     66  C   UNL A   1      43.153  24.818  25.522  1.00  0.00     0.200 A 
ATOM     67  F   UNL A   1      41.629  23.174  26.263  1.00  0.00    -0.200 F 
ATOM     68  F   UNL A   1      43.509  24.043  24.488  1.00  0.00    -0.200 F 
ENDBRANCH  44  58
BRANCH  45  69
ATOM     69  C   UNL A   1      39.305  32.097  35.343  1.00  0.00     0.064 A 
ATOM     70  C   UNL A   1      38.486  31.526  36.326  1.00  0.00     0.173 A 
ATOM     71  C   UNL A   1      39.649  33.451  35.490  1.00  0.00     0.173 A 
ATOM     72  F   UNL A   1      38.108  30.243  36.220  1.00  0.00    -0.203 F 
ATOM     73  C   UNL A   1      38.016  32.279  37.400  1.00  0.00     0.198 A 
ATOM     74  C   UNL A   1      39.213  34.192  36.585  1.00  0.00     0.198 A 
ATOM     75  F   UNL A   1      40.433  34.049  34.581  1.00  0.00    -0.203 F 
ATOM     76  F   UNL A   1      37.192  31.722  38.296  1.00  0.00    -0.200 F 
ATOM     77  C   UNL A   1      38.388  33.609  37.534  1.00  0.00     0.200 A 
ATOM     78  F   UNL A   1      39.592  35.471  36.721  1.00  0.00    -0.200 F 
ATOM     79  F   UNL A   1      37.943  34.330  38.571  1.00  0.00    -0.200 F 
ENDBRANCH  45  69
BRANCH  57  80
ATOM     80  C   UNL A   1      44.580  27.636  34.459  1.00  0.00     0.064 A 
ATOM     81  C   UNL A   1      45.793  28.332  34.560  1.00  0.00     0.173 A 
ATOM     82  C   UNL A   1      44.407  26.496  35.262  1.00  0.00     0.173 A 
ATOM     83  F   UNL A   1      46.016  29.415  33.800  1.00  0.00    -0.203 F 
ATOM     84  C   UNL A   1      46.806  27.885  35.405  1.00  0.00     0.198 A 
ATOM     85  C   UNL A   1      45.406  26.076  36.133  1.00  0.00     0.198 A 
ATOM     86  F   UNL A   1      43.263  25.798  35.207  1.00  0.00    -0.203 F 
ATOM     87  F   UNL A   1      47.979  28.531  35.439  1.00  0.00    -0.200 F 
ATOM     88  C   UNL A   1      46.608  26.764  36.196  1.00  0.00     0.200 A 
ATOM     89  F   UNL A   1      45.208  25.001  36.908  1.00  0.00    -0.200 F 
ATOM     90  F   UNL A   1      47.582  26.340  37.014  1.00  0.00    -0.200 F 
ENDBRANCH  57  80
ENDBRANCH  31  32
ENDBRANCH  24  26
ENDBRANCH  23  24
ENDBRANCH   1  23
TORSDOF 13
ENDMDL
MODEL 3
REMARK VINA RESULT:     -12.7      1.675      3.484
REMARK SMILES C=C1c2ccccc2C(=O)N1[C@](C)(C(=O)OCCOC(=O)c1ccc(-c2c3nc(c(-c4c(F)c(F)c(F)c(F)c4F)c4ccc([nH]4)c(-c4c(F)c(F)c(F)c(F)c4F)c4nc(c(-c5c(F)c(F)c(F)c(F)c5F)c5ccc2[nH]5)C=C4)C=C3)cc1)C(F)(F)F
REMARK SMILES IDX 18 1 17 2 16 3 14 4 15 5 12 6 13 7 11 8 1 9 2 10 3 11 4 12
REMARK SMILES IDX 8 13 9 14 5 15 7 16 10 17 6 18 85 19 86 20 87 21 88 22 19 23
REMARK SMILES IDX 20 24 21 25 22 26 23 27 84 28 24 29 83 30 25 31 26 32 27 33
REMARK SMILES IDX 77 34 28 35 82 36 76 37 78 38 29 39 81 40 75 41 74 42 30 44
REMARK SMILES IDX 62 45 42 46 61 47 43 48 46 49 60 50 79 51 44 52 45 53 59 55
REMARK SMILES IDX 80 56 47 57 31 58 32 59 40 60 33 61 34 62 38 63 41 64 35 65
REMARK SMILES IDX 36 66 39 67 37 68 63 69 64 70 72 71 65 72 66 73 70 74 73 75
REMARK SMILES IDX 67 76 68 77 71 78 69 79 48 80 49 81 57 82 50 83 51 84 55 85
REMARK SMILES IDX 58 86 52 87 53 88 56 89 54 90
REMARK H PARENT 78 43 46 54
REMARK Flexibility Score: inf
ROOT
ATOM      1  C   UNL A   1      31.899  30.063  25.715  1.00  0.00     0.275 C 
ENDROOT
BRANCH   1   2
ATOM      2  C   UNL A   1      32.840  29.311  24.778  1.00  0.00     0.274 C 
BRANCH   2   3
ATOM      3  O   UNL A   1      32.235  28.072  24.346  1.00  0.00    -0.460 OA
BRANCH   3   4
ATOM      4  C   UNL A   1      32.648  26.928  24.958  1.00  0.00     0.341 C 
ATOM      5  O   UNL A   1      33.502  26.906  25.840  1.00  0.00    -0.249 OA
BRANCH   4   6
ATOM      6  C   UNL A   1      32.017  25.660  24.364  1.00  0.00     0.238 C 
ATOM      7  C   UNL A   1      31.608  25.800  22.881  1.00  0.00     0.058 C 
BRANCH   6   8
ATOM      8  N   UNL A   1      33.084  24.632  24.524  1.00  0.00    -0.283 N 
ATOM      9  C   UNL A   1      32.786  23.579  26.760  1.00  0.00     0.038 C 
ATOM     10  C   UNL A   1      33.401  23.796  25.595  1.00  0.00     0.046 C 
ATOM     11  C   UNL A   1      34.644  23.099  25.238  1.00  0.00     0.010 A 
ATOM     12  C   UNL A   1      35.429  22.169  25.902  1.00  0.00     0.011 A 
ATOM     13  C   UNL A   1      35.025  23.532  23.974  1.00  0.00     0.049 A 
ATOM     14  C   UNL A   1      34.050  24.515  23.518  1.00  0.00     0.260 C 
ATOM     15  C   UNL A   1      36.583  21.692  25.266  1.00  0.00     0.001 A 
ATOM     16  C   UNL A   1      36.161  23.087  23.323  1.00  0.00     0.014 A 
ATOM     17  O   UNL A   1      34.140  25.122  22.464  1.00  0.00    -0.269 OA
ATOM     18  C   UNL A   1      36.947  22.148  23.986  1.00  0.00     0.001 A 
ENDBRANCH   6   8
BRANCH   6  19
ATOM     19  C   UNL A   1      30.712  25.475  25.137  1.00  0.00     0.422 C 
ATOM     20  F   UNL A   1      30.797  25.967  26.397  1.00  0.00    -0.168 F 
ATOM     21  F   UNL A   1      29.691  26.152  24.551  1.00  0.00    -0.168 F 
ATOM     22  F   UNL A   1      30.316  24.189  25.257  1.00  0.00    -0.168 F 
ENDBRANCH   6  19
ENDBRANCH   4   6
ENDBRANCH   3   4
ENDBRANCH   2   3
ENDBRANCH   1   2
BRANCH   1  23
ATOM     23  O   UNL A   1      32.502  30.179  27.017  1.00  0.00    -0.458 OA
BRANCH  23  24
ATOM     24  C   UNL A   1      33.149  31.347  27.227  1.00  0.00     0.338 C 
ATOM     25  O   UNL A   1      32.680  32.472  27.221  1.00  0.00    -0.246 OA
BRANCH  24  26
ATOM     26  C   UNL A   1      34.539  31.085  27.613  1.00  0.00     0.060 A 
ATOM     27  C   UNL A   1      34.888  29.781  27.939  1.00  0.00     0.016 A 
ATOM     28  C   UNL A   1      35.411  32.133  27.887  1.00  0.00     0.016 A 
ATOM     29  C   UNL A   1      36.022  29.536  28.700  1.00  0.00     0.010 A 
ATOM     30  C   UNL A   1      36.636  31.857  28.504  1.00  0.00     0.010 A 
ATOM     31  C   UNL A   1      36.936  30.561  28.967  1.00  0.00    -0.014 A 
BRANCH  31  32
ATOM     32  C   UNL A   1      38.182  30.277  29.736  1.00  0.00     0.031 A 
ATOM     33  C   UNL A   1      39.252  29.393  29.153  1.00  0.00     0.074 A 
ATOM     34  C   UNL A   1      38.359  30.813  30.962  1.00  0.00     0.049 A 
ATOM     35  N   UNL A   1      40.283  28.837  29.742  1.00  0.00    -0.248 NA
ATOM     36  C   UNL A   1      39.141  29.073  27.720  1.00  0.00     0.031 C 
ATOM     37  C   UNL A   1      37.441  31.739  31.630  1.00  0.00     0.029 A 
ATOM     38  N   UNL A   1      39.377  30.654  31.872  1.00  0.00    -0.354 N 
ATOM     39  C   UNL A   1      40.900  28.055  28.773  1.00  0.00     0.074 A 
ATOM     40  C   UNL A   1      40.125  28.199  27.559  1.00  0.00     0.031 C 
ATOM     41  C   UNL A   1      37.952  32.096  32.815  1.00  0.00     0.029 A 
ATOM     42  C   UNL A   1      39.165  31.328  33.050  1.00  0.00     0.049 A 
ATOM     43  H   UNL A   1      40.179  30.110  31.697  1.00  0.00     0.167 HD
ATOM     44  C   UNL A   1      42.010  27.286  28.892  1.00  0.00     0.037 A 
ATOM     45  C   UNL A   1      39.828  31.287  34.221  1.00  0.00     0.037 A 
ATOM     46  C   UNL A   1      42.802  27.193  30.093  1.00  0.00     0.049 A 
ATOM     47  C   UNL A   1      41.012  30.375  34.349  1.00  0.00     0.074 A 
ATOM     48  C   UNL A   1      43.955  26.459  30.315  1.00  0.00     0.029 A 
ATOM     49  N   UNL A   1      42.526  27.867  31.276  1.00  0.00    -0.354 N 
ATOM     50  N   UNL A   1      41.560  29.596  33.448  1.00  0.00    -0.248 NA
ATOM     51  C   UNL A   1      41.663  30.321  35.664  1.00  0.00     0.031 C 
ATOM     52  C   UNL A   1      44.342  26.641  31.646  1.00  0.00     0.029 A 
ATOM     53  C   UNL A   1      43.472  27.543  32.237  1.00  0.00     0.049 A 
ATOM     54  H   UNL A   1      41.770  28.483  31.412  1.00  0.00     0.167 HD
ATOM     55  C   UNL A   1      42.630  28.978  34.077  1.00  0.00     0.074 A 
ATOM     56  C   UNL A   1      42.668  29.491  35.431  1.00  0.00     0.031 C 
ATOM     57  C   UNL A   1      43.501  28.067  33.579  1.00  0.00     0.037 A 
BRANCH  44  58
ATOM     58  C   UNL A   1      42.416  26.447  27.710  1.00  0.00     0.064 A 
ATOM     59  C   UNL A   1      43.398  26.860  26.799  1.00  0.00     0.173 A 
ATOM     60  C   UNL A   1      41.832  25.184  27.512  1.00  0.00     0.173 A 
ATOM     61  F   UNL A   1      43.985  28.059  26.933  1.00  0.00    -0.203 F 
ATOM     62  C   UNL A   1      43.757  26.057  25.717  1.00  0.00     0.198 A 
ATOM     63  C   UNL A   1      42.217  24.370  26.451  1.00  0.00     0.198 A 
ATOM     64  F   UNL A   1      40.892  24.732  28.357  1.00  0.00    -0.203 F 
ATOM     65  F   UNL A   1      44.661  26.496  24.830  1.00  0.00    -0.200 F 
ATOM     66  C   UNL A   1      43.173  24.810  25.548  1.00  0.00     0.200 A 
ATOM     67  F   UNL A   1      41.664  23.158  26.302  1.00  0.00    -0.200 F 
ATOM     68  F   UNL A   1      43.526  24.036  24.513  1.00  0.00    -0.200 F 
ENDBRANCH  44  58
BRANCH  45  69
ATOM     69  C   UNL A   1      39.345  32.089  35.377  1.00  0.00     0.064 A 
ATOM     70  C   UNL A   1      39.714  33.433  35.526  1.00  0.00     0.173 A 
ATOM     71  C   UNL A   1      38.507  31.533  36.356  1.00  0.00     0.173 A 
ATOM     72  F   UNL A   1      40.533  34.006  34.632  1.00  0.00    -0.203 F 
ATOM     73  C   UNL A   1      39.278  34.183  36.617  1.00  0.00     0.198 A 
ATOM     74  C   UNL A   1      38.039  32.294  37.424  1.00  0.00     0.198 A 
ATOM     75  F   UNL A   1      38.120  30.252  36.262  1.00  0.00    -0.203 F 
ATOM     76  F   UNL A   1      39.689  35.449  36.763  1.00  0.00    -0.200 F 
ATOM     77  C   UNL A   1      38.433  33.616  37.559  1.00  0.00     0.200 A 
ATOM     78  F   UNL A   1      37.206  31.747  38.320  1.00  0.00    -0.200 F 
ATOM     79  F   UNL A   1      38.007  34.340  38.603  1.00  0.00    -0.200 F 
ENDBRANCH  45  69
BRANCH  57  80
ATOM     80  C   UNL A   1      44.600  27.605  34.492  1.00  0.00     0.064 A 
ATOM     81  C   UNL A   1      44.468  26.457  35.288  1.00  0.00     0.173 A 
ATOM     82  C   UNL A   1      45.812  28.311  34.552  1.00  0.00     0.173 A 
ATOM     83  F   UNL A   1      43.323  25.759  35.282  1.00  0.00    -0.203 F 
ATOM     84  C   UNL A   1      45.497  26.052  36.134  1.00  0.00     0.198 A 
ATOM     85  C   UNL A   1      46.851  27.881  35.371  1.00  0.00     0.198 A 
ATOM     86  F   UNL A   1      45.991  29.412  33.807  1.00  0.00    -0.203 F 
ATOM     87  F   UNL A   1      45.326  24.989  36.930  1.00  0.00    -0.200 F 
ATOM     88  C   UNL A   1      46.690  26.759  36.169  1.00  0.00     0.200 A 
ATOM     89  F   UNL A   1      48.008  28.557  35.391  1.00  0.00    -0.200 F 
ATOM     90  F   UNL A   1      47.681  26.364  36.979  1.00  0.00    -0.200 F 
ENDBRANCH  57  80
ENDBRANCH  31  32
ENDBRANCH  24  26
ENDBRANCH  23  24
ENDBRANCH   1  23
TORSDOF 13
ENDMDL
