MODEL 1
REMARK VINA RESULT:     -12.2      0.000      0.000
REMARK SMILES CC1(C)O[C@](C)([C@H](O)C2CCCCC2)CC[C@H]1C(=O)OCCOC(=O)c1ccc(-c2c3nc(c(-c4c(F)c(F)c(F)c(F)c4F)c4ccc([nH]4)c(-c4c(F)c(F)c(F)c(F)c4F)c4nc(c(-c5c(F)c(F)c(F)c(F)c5F)c5ccc2[nH]5)C=C4)C=C3)cc1
REMARK SMILES IDX 21 1 20 2 18 3 19 4 17 5 1 6 2 7 3 8 4 9 5 10 16 11 6 12
REMARK SMILES IDX 15 13 7 14 9 15 10 16 14 17 11 18 13 19 12 20 8 21 22 23
REMARK SMILES IDX 23 24 24 25 25 26 26 27 27 28 88 29 28 30 87 31 29 32 30 33
REMARK SMILES IDX 31 34 81 35 32 36 86 37 80 38 82 39 33 40 85 41 79 42 78 43
REMARK SMILES IDX 34 45 66 46 46 47 65 48 47 49 50 50 64 51 83 52 48 53 49 54
REMARK SMILES IDX 63 56 84 57 51 58 35 59 36 60 44 61 37 62 38 63 42 64 45 65
REMARK SMILES IDX 39 66 40 67 43 68 41 69 67 70 68 71 76 72 69 73 70 74 74 75
REMARK SMILES IDX 77 76 71 77 72 78 75 79 73 80 52 81 53 82 61 83 54 84 55 85
REMARK SMILES IDX 59 86 62 87 56 88 57 89 60 90 58 91
REMARK H PARENT 8 22 82 44 50 55
REMARK Flexibility Score: inf
ROOT
ATOM      1  C   UNL A   1      31.015  29.745  24.473  1.00  0.00     0.274 C 
ENDROOT
BRANCH   1   2
ATOM      2  O   UNL A   1      30.181  28.589  24.255  1.00  0.00    -0.462 OA
BRANCH   2   3
ATOM      3  C   UNL A   1      30.414  27.908  23.114  1.00  0.00     0.311 C 
ATOM      4  O   UNL A   1      30.084  28.312  22.001  1.00  0.00    -0.252 OA
BRANCH   3   5
ATOM      5  C   UNL A   1      31.160  26.590  23.284  1.00  0.00     0.131 C 
ATOM      6  C   UNL A   1      33.623  27.612  23.128  1.00  0.00     0.043 C 
ATOM      7  C   UNL A   1      32.654  26.450  22.861  1.00  0.00     0.077 C 
ATOM      8  C   UNL A   1      32.681  26.220  21.327  1.00  0.00     0.043 C 
ATOM      9  O   UNL A   1      33.266  25.250  23.395  1.00  0.00    -0.366 OA
ATOM     10  C   UNL A   1      33.027  24.857  24.754  1.00  0.00     0.092 C 
ATOM     11  C   UNL A   1      30.817  26.071  24.684  1.00  0.00     0.021 C 
ATOM     12  C   UNL A   1      33.583  25.836  25.809  1.00  0.00     0.045 C 
ATOM     13  C   UNL A   1      31.505  24.749  24.961  1.00  0.00     0.039 C 
BRANCH  10  14
ATOM     14  C   UNL A   1      33.634  23.415  24.940  1.00  0.00     0.149 C 
BRANCH  14  15
ATOM     15  C   UNL A   1      34.931  23.259  25.798  1.00  0.00     0.021 C 
ATOM     16  C   UNL A   1      35.219  21.886  26.418  1.00  0.00     0.006 C 
ATOM     17  C   UNL A   1      36.196  23.692  25.017  1.00  0.00     0.006 C 
ATOM     18  C   UNL A   1      35.569  20.831  25.376  1.00  0.00     0.000 C 
ATOM     19  C   UNL A   1      36.714  22.655  24.012  1.00  0.00     0.000 C 
ATOM     20  C   UNL A   1      36.807  21.242  24.585  1.00  0.00     0.000 C 
ENDBRANCH  14  15
BRANCH  14  21
ATOM     21  O   UNL A   1      32.615  22.510  25.369  1.00  0.00    -0.390 OA
ATOM     22  H   UNL A   1      31.943  22.427  24.673  1.00  0.00     0.211 HD
ENDBRANCH  14  21
ENDBRANCH  10  14
ENDBRANCH   3   5
ENDBRANCH   2   3
ENDBRANCH   1   2
BRANCH   1  23
ATOM     23  C   UNL A   1      31.661  29.705  25.856  1.00  0.00     0.275 C 
BRANCH  23  24
ATOM     24  O   UNL A   1      32.942  30.358  25.834  1.00  0.00    -0.458 OA
BRANCH  24  25
ATOM     25  C   UNL A   1      33.182  31.191  26.871  1.00  0.00     0.338 C 
ATOM     26  O   UNL A   1      32.473  32.088  27.291  1.00  0.00    -0.246 OA
BRANCH  25  27
ATOM     27  C   UNL A   1      34.485  30.875  27.471  1.00  0.00     0.060 A 
ATOM     28  C   UNL A   1      34.752  29.584  27.927  1.00  0.00     0.016 A 
ATOM     29  C   UNL A   1      35.395  31.905  27.697  1.00  0.00     0.016 A 
ATOM     30  C   UNL A   1      35.906  29.328  28.666  1.00  0.00     0.010 A 
ATOM     31  C   UNL A   1      36.585  31.633  28.376  1.00  0.00     0.010 A 
ATOM     32  C   UNL A   1      36.837  30.349  28.892  1.00  0.00    -0.014 A 
BRANCH  32  33
ATOM     33  C   UNL A   1      38.069  30.101  29.684  1.00  0.00     0.031 A 
ATOM     34  C   UNL A   1      39.146  29.209  29.135  1.00  0.00     0.074 A 
ATOM     35  C   UNL A   1      38.205  30.643  30.908  1.00  0.00     0.049 A 
ATOM     36  N   UNL A   1      40.190  28.701  29.739  1.00  0.00    -0.248 NA
ATOM     37  C   UNL A   1      39.027  28.828  27.720  1.00  0.00     0.031 C 
ATOM     38  C   UNL A   1      37.256  31.558  31.541  1.00  0.00     0.029 A 
ATOM     39  N   UNL A   1      39.194  30.486  31.847  1.00  0.00    -0.354 N 
ATOM     40  C   UNL A   1      40.822  27.903  28.795  1.00  0.00     0.074 A 
ATOM     41  C   UNL A   1      40.047  27.994  27.576  1.00  0.00     0.031 C 
ATOM     42  C   UNL A   1      37.711  31.888  32.759  1.00  0.00     0.029 A 
ATOM     43  C   UNL A   1      38.945  31.154  33.020  1.00  0.00     0.049 A 
ATOM     44  H   UNL A   1      40.004  29.947  31.694  1.00  0.00     0.167 HD
ATOM     45  C   UNL A   1      41.945  27.158  28.938  1.00  0.00     0.037 A 
ATOM     46  C   UNL A   1      39.609  31.141  34.190  1.00  0.00     0.037 A 
ATOM     47  C   UNL A   1      42.739  27.106  30.138  1.00  0.00     0.049 A 
ATOM     48  C   UNL A   1      40.829  30.278  34.336  1.00  0.00     0.074 A 
ATOM     49  C   UNL A   1      43.915  26.412  30.367  1.00  0.00     0.029 A 
ATOM     50  N   UNL A   1      42.439  27.782  31.311  1.00  0.00    -0.354 N 
ATOM     51  N   UNL A   1      41.403  29.502  33.450  1.00  0.00    -0.248 NA
ATOM     52  C   UNL A   1      41.484  30.275  35.652  1.00  0.00     0.031 C 
ATOM     53  C   UNL A   1      44.309  26.643  31.691  1.00  0.00     0.029 A 
ATOM     54  C   UNL A   1      43.398  27.509  32.273  1.00  0.00     0.049 A 
ATOM     55  H   UNL A   1      41.660  28.371  31.441  1.00  0.00     0.167 HD
ATOM     56  C   UNL A   1      42.491  28.929  34.094  1.00  0.00     0.074 A 
ATOM     57  C   UNL A   1      42.505  29.457  35.442  1.00  0.00     0.031 C 
ATOM     58  C   UNL A   1      43.395  28.043  33.611  1.00  0.00     0.037 A 
BRANCH  45  59
ATOM     59  C   UNL A   1      42.367  26.310  27.775  1.00  0.00     0.064 A 
ATOM     60  C   UNL A   1      43.359  26.726  26.876  1.00  0.00     0.173 A 
ATOM     61  C   UNL A   1      41.790  25.046  27.582  1.00  0.00     0.173 A 
ATOM     62  F   UNL A   1      43.930  27.932  27.010  1.00  0.00    -0.203 F 
ATOM     63  C   UNL A   1      43.743  25.915  25.810  1.00  0.00     0.198 A 
ATOM     64  C   UNL A   1      42.194  24.228  26.530  1.00  0.00     0.198 A 
ATOM     65  F   UNL A   1      40.841  24.600  28.417  1.00  0.00    -0.203 F 
ATOM     66  F   UNL A   1      44.664  26.347  24.939  1.00  0.00    -0.200 F 
ATOM     67  C   UNL A   1      43.164  24.664  25.642  1.00  0.00     0.200 A 
ATOM     68  F   UNL A   1      41.640  23.016  26.375  1.00  0.00    -0.200 F 
ATOM     69  F   UNL A   1      43.540  23.884  24.620  1.00  0.00    -0.200 F 
ENDBRANCH  45  59
BRANCH  46  70
ATOM     70  C   UNL A   1      39.110  31.957  35.325  1.00  0.00     0.064 A 
ATOM     71  C   UNL A   1      38.336  31.376  36.338  1.00  0.00     0.173 A 
ATOM     72  C   UNL A   1      39.412  33.322  35.430  1.00  0.00     0.173 A 
ATOM     73  F   UNL A   1      38.001  30.079  36.264  1.00  0.00    -0.203 F 
ATOM     74  C   UNL A   1      37.880  32.132  37.414  1.00  0.00     0.198 A 
ATOM     75  C   UNL A   1      38.976  34.071  36.520  1.00  0.00     0.198 A 
ATOM     76  F   UNL A   1      40.149  33.922  34.484  1.00  0.00    -0.203 F 
ATOM     77  F   UNL A   1      37.118  31.560  38.357  1.00  0.00    -0.200 F 
ATOM     78  C   UNL A   1      38.208  33.477  37.510  1.00  0.00     0.200 A 
ATOM     79  F   UNL A   1      39.305  35.367  36.614  1.00  0.00    -0.200 F 
ATOM     80  F   UNL A   1      37.778  34.201  38.552  1.00  0.00    -0.200 F 
ENDBRANCH  46  70
BRANCH  58  81
ATOM     81  C   UNL A   1      44.490  27.612  34.539  1.00  0.00     0.064 A 
ATOM     82  C   UNL A   1      44.366  26.461  35.331  1.00  0.00     0.173 A 
ATOM     83  C   UNL A   1      45.685  28.341  34.616  1.00  0.00     0.173 A 
ATOM     84  F   UNL A   1      43.234  25.743  35.304  1.00  0.00    -0.203 F 
ATOM     85  C   UNL A   1      45.394  26.068  36.183  1.00  0.00     0.198 A 
ATOM     86  C   UNL A   1      46.720  27.932  35.453  1.00  0.00     0.198 A 
ATOM     87  F   UNL A   1      45.851  29.446  33.875  1.00  0.00    -0.203 F 
ATOM     88  F   UNL A   1      45.240  24.987  36.961  1.00  0.00    -0.200 F 
ATOM     89  C   UNL A   1      46.572  26.799  36.239  1.00  0.00     0.200 A 
ATOM     90  F   UNL A   1      47.859  28.635  35.500  1.00  0.00    -0.200 F 
ATOM     91  F   UNL A   1      47.560  26.418  37.058  1.00  0.00    -0.200 F 
ENDBRANCH  58  81
ENDBRANCH  32  33
ENDBRANCH  25  27
ENDBRANCH  24  25
ENDBRANCH  23  24
ENDBRANCH   1  23
TORSDOF 14
ENDMDL
MODEL 2
REMARK VINA RESULT:     -12.2      0.595      1.820
REMARK SMILES CC1(C)O[C@](C)([C@H](O)C2CCCCC2)CC[C@H]1C(=O)OCCOC(=O)c1ccc(-c2c3nc(c(-c4c(F)c(F)c(F)c(F)c4F)c4ccc([nH]4)c(-c4c(F)c(F)c(F)c(F)c4F)c4nc(c(-c5c(F)c(F)c(F)c(F)c5F)c5ccc2[nH]5)C=C4)C=C3)cc1
REMARK SMILES IDX 21 1 20 2 18 3 19 4 17 5 1 6 2 7 3 8 4 9 5 10 16 11 6 12
REMARK SMILES IDX 15 13 7 14 9 15 10 16 14 17 11 18 13 19 12 20 8 21 22 23
REMARK SMILES IDX 23 24 24 25 25 26 26 27 27 28 88 29 28 30 87 31 29 32 30 33
REMARK SMILES IDX 31 34 81 35 32 36 86 37 80 38 82 39 33 40 85 41 79 42 78 43
REMARK SMILES IDX 34 45 66 46 46 47 65 48 47 49 50 50 64 51 83 52 48 53 49 54
REMARK SMILES IDX 63 56 84 57 51 58 35 59 36 60 44 61 37 62 38 63 42 64 45 65
REMARK SMILES IDX 39 66 40 67 43 68 41 69 67 70 68 71 76 72 69 73 70 74 74 75
REMARK SMILES IDX 77 76 71 77 72 78 75 79 73 80 52 81 53 82 61 83 54 84 55 85
REMARK SMILES IDX 59 86 62 87 56 88 57 89 60 90 58 91
REMARK H PARENT 8 22 82 44 50 55
REMARK Flexibility Score: inf
ROOT
ATOM      1  C   UNL A   1      30.999  29.899  24.546  1.00  0.00     0.274 C 
ENDROOT
BRANCH   1   2
ATOM      2  O   UNL A   1      30.128  28.795  24.226  1.00  0.00    -0.462 OA
BRANCH   2   3
ATOM      3  C   UNL A   1      30.466  28.086  23.129  1.00  0.00     0.311 C 
ATOM      4  O   UNL A   1      30.265  28.472  21.980  1.00  0.00    -0.252 OA
BRANCH   3   5
ATOM      5  C   UNL A   1      31.158  26.756  23.403  1.00  0.00     0.131 C 
ATOM      6  C   UNL A   1      33.654  27.706  23.386  1.00  0.00     0.043 C 
ATOM      7  C   UNL A   1      32.673  26.559  23.095  1.00  0.00     0.077 C 
ATOM      8  C   UNL A   1      32.803  26.267  21.577  1.00  0.00     0.043 C 
ATOM      9  O   UNL A   1      33.211  25.366  23.717  1.00  0.00    -0.366 OA
ATOM     10  C   UNL A   1      32.864  25.035  25.070  1.00  0.00     0.092 C 
ATOM     11  C   UNL A   1      30.702  26.303  24.794  1.00  0.00     0.021 C 
ATOM     12  C   UNL A   1      33.373  26.042  26.124  1.00  0.00     0.045 C 
ATOM     13  C   UNL A   1      31.329  24.976  25.170  1.00  0.00     0.039 C 
BRANCH  10  14
ATOM     14  C   UNL A   1      33.414  23.586  25.354  1.00  0.00     0.149 C 
BRANCH  14  15
ATOM     15  C   UNL A   1      33.997  22.764  24.159  1.00  0.00     0.021 C 
ATOM     16  C   UNL A   1      35.186  21.837  24.441  1.00  0.00     0.006 C 
ATOM     17  C   UNL A   1      32.907  21.923  23.450  1.00  0.00     0.006 C 
ATOM     18  C   UNL A   1      34.808  20.643  25.309  1.00  0.00     0.000 C 
ATOM     19  C   UNL A   1      32.524  20.628  24.178  1.00  0.00     0.000 C 
ATOM     20  C   UNL A   1      33.726  19.805  24.634  1.00  0.00     0.000 C 
ENDBRANCH  14  15
BRANCH  14  21
ATOM     21  O   UNL A   1      34.323  23.619  26.456  1.00  0.00    -0.390 OA
ATOM     22  H   UNL A   1      34.716  22.740  26.577  1.00  0.00     0.211 HD
ENDBRANCH  14  21
ENDBRANCH  10  14
ENDBRANCH   3   5
ENDBRANCH   2   3
ENDBRANCH   1   2
BRANCH   1  23
ATOM     23  C   UNL A   1      31.671  29.694  25.902  1.00  0.00     0.275 C 
BRANCH  23  24
ATOM     24  O   UNL A   1      32.997  30.251  25.898  1.00  0.00    -0.458 OA
BRANCH  24  25
ATOM     25  C   UNL A   1      33.250  31.143  26.881  1.00  0.00     0.338 C 
ATOM     26  O   UNL A   1      32.550  32.069  27.251  1.00  0.00    -0.246 OA
BRANCH  25  27
ATOM     27  C   UNL A   1      34.556  30.854  27.490  1.00  0.00     0.060 A 
ATOM     28  C   UNL A   1      34.908  29.541  27.803  1.00  0.00     0.016 A 
ATOM     29  C   UNL A   1      35.376  31.914  27.870  1.00  0.00     0.016 A 
ATOM     30  C   UNL A   1      36.055  29.284  28.551  1.00  0.00     0.010 A 
ATOM     31  C   UNL A   1      36.562  31.651  28.558  1.00  0.00     0.010 A 
ATOM     32  C   UNL A   1      36.898  30.336  28.930  1.00  0.00    -0.014 A 
BRANCH  32  33
ATOM     33  C   UNL A   1      38.121  30.086  29.735  1.00  0.00     0.031 A 
ATOM     34  C   UNL A   1      39.202  29.191  29.199  1.00  0.00     0.074 A 
ATOM     35  C   UNL A   1      38.246  30.629  30.960  1.00  0.00     0.049 A 
ATOM     36  N   UNL A   1      40.238  28.682  29.813  1.00  0.00    -0.248 NA
ATOM     37  C   UNL A   1      39.096  28.809  27.782  1.00  0.00     0.031 C 
ATOM     38  C   UNL A   1      37.293  31.548  31.581  1.00  0.00     0.029 A 
ATOM     39  N   UNL A   1      39.225  30.472  31.909  1.00  0.00    -0.354 N 
ATOM     40  C   UNL A   1      40.877  27.881  28.877  1.00  0.00     0.074 A 
ATOM     41  C   UNL A   1      40.115  27.973  27.650  1.00  0.00     0.031 C 
ATOM     42  C   UNL A   1      37.736  31.879  32.804  1.00  0.00     0.029 A 
ATOM     43  C   UNL A   1      38.965  31.142  33.078  1.00  0.00     0.049 A 
ATOM     44  H   UNL A   1      40.035  29.930  31.764  1.00  0.00     0.167 HD
ATOM     45  C   UNL A   1      41.998  27.134  29.032  1.00  0.00     0.037 A 
ATOM     46  C   UNL A   1      39.618  31.130  34.255  1.00  0.00     0.037 A 
ATOM     47  C   UNL A   1      42.779  27.081  30.240  1.00  0.00     0.049 A 
ATOM     48  C   UNL A   1      40.835  30.263  34.414  1.00  0.00     0.074 A 
ATOM     49  C   UNL A   1      43.951  26.385  30.482  1.00  0.00     0.029 A 
ATOM     50  N   UNL A   1      42.469  27.759  31.409  1.00  0.00    -0.354 N 
ATOM     51  N   UNL A   1      41.416  29.485  33.535  1.00  0.00    -0.248 NA
ATOM     52  C   UNL A   1      41.476  30.261  35.737  1.00  0.00     0.031 C 
ATOM     53  C   UNL A   1      44.332  26.616  31.809  1.00  0.00     0.029 A 
ATOM     54  C   UNL A   1      43.417  27.485  32.381  1.00  0.00     0.049 A 
ATOM     55  H   UNL A   1      41.690  28.350  31.530  1.00  0.00     0.167 HD
ATOM     56  C   UNL A   1      42.496  28.910  34.191  1.00  0.00     0.074 A 
ATOM     57  C   UNL A   1      42.497  29.440  35.539  1.00  0.00     0.031 C 
ATOM     58  C   UNL A   1      43.403  28.022  33.718  1.00  0.00     0.037 A 
BRANCH  45  59
ATOM     59  C   UNL A   1      42.429  26.283  27.875  1.00  0.00     0.064 A 
ATOM     60  C   UNL A   1      41.883  25.013  27.644  1.00  0.00     0.173 A 
ATOM     61  C   UNL A   1      43.379  26.767  26.963  1.00  0.00     0.173 A 
ATOM     62  F   UNL A   1      40.981  24.501  28.495  1.00  0.00    -0.203 F 
ATOM     63  C   UNL A   1      42.290  24.247  26.554  1.00  0.00     0.198 A 
ATOM     64  C   UNL A   1      43.766  26.008  25.861  1.00  0.00     0.198 A 
ATOM     65  F   UNL A   1      43.928  27.978  27.137  1.00  0.00    -0.203 F 
ATOM     66  F   UNL A   1      41.784  23.019  26.373  1.00  0.00    -0.200 F 
ATOM     67  C   UNL A   1      43.226  24.748  25.660  1.00  0.00     0.200 A 
ATOM     68  F   UNL A   1      44.664  26.498  24.995  1.00  0.00    -0.200 F 
ATOM     69  F   UNL A   1      43.612  24.011  24.610  1.00  0.00    -0.200 F 
ENDBRANCH  45  59
BRANCH  46  70
ATOM     70  C   UNL A   1      39.109  31.948  35.384  1.00  0.00     0.064 A 
ATOM     71  C   UNL A   1      38.309  31.373  36.380  1.00  0.00     0.173 A 
ATOM     72  C   UNL A   1      39.428  33.308  35.500  1.00  0.00     0.173 A 
ATOM     73  F   UNL A   1      37.958  30.082  36.295  1.00  0.00    -0.203 F 
ATOM     74  C   UNL A   1      37.843  32.133  37.451  1.00  0.00     0.198 A 
ATOM     75  C   UNL A   1      38.983  34.059  36.585  1.00  0.00     0.198 A 
ATOM     76  F   UNL A   1      40.190  33.901  34.570  1.00  0.00    -0.203 F 
ATOM     77  F   UNL A   1      37.056  31.567  38.377  1.00  0.00    -0.200 F 
ATOM     78  C   UNL A   1      38.188  33.472  37.558  1.00  0.00     0.200 A 
ATOM     79  F   UNL A   1      39.327  35.350  36.689  1.00  0.00    -0.200 F 
ATOM     80  F   UNL A   1      37.749  34.198  38.595  1.00  0.00    -0.200 F 
ENDBRANCH  46  70
BRANCH  58  81
ATOM     81  C   UNL A   1      44.487  27.589  34.658  1.00  0.00     0.064 A 
ATOM     82  C   UNL A   1      45.687  28.306  34.769  1.00  0.00     0.173 A 
ATOM     83  C   UNL A   1      44.312  26.462  35.474  1.00  0.00     0.173 A 
ATOM     84  F   UNL A   1      45.906  29.379  33.996  1.00  0.00    -0.203 F 
ATOM     85  C   UNL A   1      46.682  27.897  35.652  1.00  0.00     0.198 A 
ATOM     86  C   UNL A   1      45.301  26.069  36.371  1.00  0.00     0.198 A 
ATOM     87  F   UNL A   1      43.180  25.746  35.404  1.00  0.00    -0.203 F 
ATOM     88  F   UNL A   1      47.838  28.573  35.716  1.00  0.00    -0.200 F 
ATOM     89  C   UNL A   1      46.487  26.783  36.456  1.00  0.00     0.200 A 
ATOM     90  F   UNL A   1      45.107  24.997  37.152  1.00  0.00    -0.200 F 
ATOM     91  F   UNL A   1      47.445  26.392  37.306  1.00  0.00    -0.200 F 
ENDBRANCH  58  81
ENDBRANCH  32  33
ENDBRANCH  25  27
ENDBRANCH  24  25
ENDBRANCH  23  24
ENDBRANCH   1  23
TORSDOF 14
ENDMDL
MODEL 3
REMARK VINA RESULT:     -12.0      0.703      1.585
REMARK SMILES CC1(C)O[C@](C)([C@H](O)C2CCCCC2)CC[C@H]1C(=O)OCCOC(=O)c1ccc(-c2c3nc(c(-c4c(F)c(F)c(F)c(F)c4F)c4ccc([nH]4)c(-c4c(F)c(F)c(F)c(F)c4F)c4nc(c(-c5c(F)c(F)c(F)c(F)c5F)c5ccc2[nH]5)C=C4)C=C3)cc1
REMARK SMILES IDX 21 1 20 2 18 3 19 4 17 5 1 6 2 7 3 8 4 9 5 10 16 11 6 12
REMARK SMILES IDX 15 13 7 14 9 15 10 16 14 17 11 18 13 19 12 20 8 21 22 23
REMARK SMILES IDX 23 24 24 25 25 26 26 27 27 28 88 29 28 30 87 31 29 32 30 33
REMARK SMILES IDX 31 34 81 35 32 36 86 37 80 38 82 39 33 40 85 41 79 42 78 43
REMARK SMILES IDX 34 45 66 46 46 47 65 48 47 49 50 50 64 51 83 52 48 53 49 54
REMARK SMILES IDX 63 56 84 57 51 58 35 59 36 60 44 61 37 62 38 63 42 64 45 65
REMARK SMILES IDX 39 66 40 67 43 68 41 69 67 70 68 71 76 72 69 73 70 74 74 75
REMARK SMILES IDX 77 76 71 77 72 78 75 79 73 80 52 81 53 82 61 83 54 84 55 85
REMARK SMILES IDX 59 86 62 87 56 88 57 89 60 90 58 91
REMARK H PARENT 8 22 82 44 50 55
REMARK Flexibility Score: inf
ROOT
ATOM      1  C   UNL A   1      31.185  30.079  24.962  1.00  0.00     0.274 C 
ENDROOT
BRANCH   1   2
ATOM      2  O   UNL A   1      32.153  29.347  24.183  1.00  0.00    -0.462 OA
BRANCH   2   3
ATOM      3  C   UNL A   1      31.700  28.215  23.604  1.00  0.00     0.311 C 
ATOM      4  O   UNL A   1      30.747  28.182  22.828  1.00  0.00    -0.252 OA
BRANCH   3   5
ATOM      5  C   UNL A   1      32.477  26.952  23.951  1.00  0.00     0.131 C 
ATOM      6  C   UNL A   1      31.021  26.278  26.087  1.00  0.00     0.043 C 
ATOM      7  C   UNL A   1      32.379  26.311  25.369  1.00  0.00     0.077 C 
ATOM      8  C   UNL A   1      33.332  27.104  26.302  1.00  0.00     0.043 C 
ATOM      9  O   UNL A   1      32.915  24.965  25.402  1.00  0.00    -0.366 OA
ATOM     10  C   UNL A   1      32.618  24.040  24.346  1.00  0.00     0.092 C 
ATOM     11  C   UNL A   1      32.292  25.987  22.776  1.00  0.00     0.021 C 
ATOM     12  C   UNL A   1      31.129  23.647  24.240  1.00  0.00     0.045 C 
ATOM     13  C   UNL A   1      33.035  24.687  23.012  1.00  0.00     0.039 C 
BRANCH  10  14
ATOM     14  C   UNL A   1      33.528  22.772  24.562  1.00  0.00     0.149 C 
BRANCH  14  15
ATOM     15  C   UNL A   1      34.754  22.891  25.525  1.00  0.00     0.021 C 
ATOM     16  C   UNL A   1      35.334  21.598  26.108  1.00  0.00     0.006 C 
ATOM     17  C   UNL A   1      35.921  23.677  24.879  1.00  0.00     0.006 C 
ATOM     18  C   UNL A   1      36.020  20.734  25.056  1.00  0.00     0.000 C 
ATOM     19  C   UNL A   1      36.761  22.871  23.881  1.00  0.00     0.000 C 
ATOM     20  C   UNL A   1      37.168  21.493  24.398  1.00  0.00     0.000 C 
ENDBRANCH  14  15
BRANCH  14  21
ATOM     21  O   UNL A   1      32.717  21.643  24.889  1.00  0.00    -0.390 OA
ATOM     22  H   UNL A   1      31.797  21.821  24.638  1.00  0.00     0.211 HD
ENDBRANCH  14  21
ENDBRANCH  10  14
ENDBRANCH   3   5
ENDBRANCH   2   3
ENDBRANCH   1   2
BRANCH   1  23
ATOM     23  C   UNL A   1      31.716  30.377  26.362  1.00  0.00     0.275 C 
BRANCH  23  24
ATOM     24  O   UNL A   1      33.121  30.682  26.315  1.00  0.00    -0.458 OA
BRANCH  24  25
ATOM     25  C   UNL A   1      33.532  31.636  27.179  1.00  0.00     0.338 C 
ATOM     26  O   UNL A   1      32.966  32.675  27.472  1.00  0.00    -0.246 OA
BRANCH  25  27
ATOM     27  C   UNL A   1      34.828  31.258  27.758  1.00  0.00     0.060 A 
ATOM     28  C   UNL A   1      35.040  29.955  28.209  1.00  0.00     0.016 A 
ATOM     29  C   UNL A   1      35.789  32.243  27.969  1.00  0.00     0.016 A 
ATOM     30  C   UNL A   1      36.191  29.643  28.930  1.00  0.00     0.010 A 
ATOM     31  C   UNL A   1      36.975  31.914  28.629  1.00  0.00     0.010 A 
ATOM     32  C   UNL A   1      37.174  30.618  29.141  1.00  0.00    -0.014 A 
BRANCH  32  33
ATOM     33  C   UNL A   1      38.405  30.311  29.913  1.00  0.00     0.031 A 
ATOM     34  C   UNL A   1      39.449  29.403  29.329  1.00  0.00     0.074 A 
ATOM     35  C   UNL A   1      38.569  30.813  31.151  1.00  0.00     0.049 A 
ATOM     36  N   UNL A   1      40.483  28.846  29.908  1.00  0.00    -0.248 NA
ATOM     37  C   UNL A   1      39.305  29.066  27.904  1.00  0.00     0.031 C 
ATOM     38  C   UNL A   1      37.654  31.739  31.818  1.00  0.00     0.029 A 
ATOM     39  N   UNL A   1      39.561  30.600  32.075  1.00  0.00    -0.354 N 
ATOM     40  C   UNL A   1      41.081  28.057  28.935  1.00  0.00     0.074 A 
ATOM     41  C   UNL A   1      40.298  28.206  27.727  1.00  0.00     0.031 C 
ATOM     42  C   UNL A   1      38.130  32.020  33.041  1.00  0.00     0.029 A 
ATOM     43  C   UNL A   1      39.343  31.242  33.268  1.00  0.00     0.049 A 
ATOM     44  H   UNL A   1      40.353  30.041  31.898  1.00  0.00     0.167 HD
ATOM     45  C   UNL A   1      42.183  27.275  29.046  1.00  0.00     0.037 A 
ATOM     46  C   UNL A   1      40.017  31.176  34.431  1.00  0.00     0.037 A 
ATOM     47  C   UNL A   1      42.985  27.165  30.236  1.00  0.00     0.049 A 
ATOM     48  C   UNL A   1      41.212  30.272  34.540  1.00  0.00     0.074 A 
ATOM     49  C   UNL A   1      44.141  26.429  30.434  1.00  0.00     0.029 A 
ATOM     50  N   UNL A   1      42.717  27.816  31.430  1.00  0.00    -0.354 N 
ATOM     51  N   UNL A   1      41.754  29.505  33.627  1.00  0.00    -0.248 NA
ATOM     52  C   UNL A   1      41.878  30.213  35.849  1.00  0.00     0.031 C 
ATOM     53  C   UNL A   1      44.555  26.610  31.759  1.00  0.00     0.029 A 
ATOM     54  C   UNL A   1      43.676  27.486  32.375  1.00  0.00     0.049 A 
ATOM     55  H   UNL A   1      41.957  28.424  31.584  1.00  0.00     0.167 HD
ATOM     56  C   UNL A   1      42.830  28.882  34.244  1.00  0.00     0.074 A 
ATOM     57  C   UNL A   1      42.872  29.370  35.606  1.00  0.00     0.031 C 
ATOM     58  C   UNL A   1      43.702  27.983  33.727  1.00  0.00     0.037 A 
BRANCH  45  59
ATOM     59  C   UNL A   1      42.567  26.448  27.855  1.00  0.00     0.064 A 
ATOM     60  C   UNL A   1      43.496  26.900  26.908  1.00  0.00     0.173 A 
ATOM     61  C   UNL A   1      42.021  25.167  27.683  1.00  0.00     0.173 A 
ATOM     62  F   UNL A   1      44.036  28.123  27.021  1.00  0.00    -0.203 F 
ATOM     63  C   UNL A   1      43.848  26.108  25.817  1.00  0.00     0.198 A 
ATOM     64  C   UNL A   1      42.393  24.369  26.604  1.00  0.00     0.198 A 
ATOM     65  F   UNL A   1      41.132  24.687  28.564  1.00  0.00    -0.203 F 
ATOM     66  F   UNL A   1      44.707  26.575  24.901  1.00  0.00    -0.200 F 
ATOM     67  C   UNL A   1      43.300  24.841  25.669  1.00  0.00     0.200 A 
ATOM     68  F   UNL A   1      41.870  23.142  26.470  1.00  0.00    -0.200 F 
ATOM     69  F   UNL A   1      43.644  24.080  24.623  1.00  0.00    -0.200 F 
ENDBRANCH  45  59
BRANCH  46  70
ATOM     70  C   UNL A   1      39.554  31.974  35.593  1.00  0.00     0.064 A 
ATOM     71  C   UNL A   1      38.561  31.480  36.450  1.00  0.00     0.173 A 
ATOM     72  C   UNL A   1      40.105  33.230  35.882  1.00  0.00     0.173 A 
ATOM     73  F   UNL A   1      37.988  30.294  36.197  1.00  0.00    -0.203 F 
ATOM     74  C   UNL A   1      38.135  32.217  37.552  1.00  0.00     0.198 A 
ATOM     75  C   UNL A   1      39.696  33.954  36.999  1.00  0.00     0.198 A 
ATOM     76  F   UNL A   1      41.057  33.743  35.090  1.00  0.00    -0.203 F 
ATOM     77  F   UNL A   1      37.164  31.735  38.341  1.00  0.00    -0.200 F 
ATOM     78  C   UNL A   1      38.709  33.448  37.832  1.00  0.00     0.200 A 
ATOM     79  F   UNL A   1      40.261  35.138  37.271  1.00  0.00    -0.200 F 
ATOM     80  F   UNL A   1      38.306  34.150  38.899  1.00  0.00    -0.200 F 
ENDBRANCH  46  70
BRANCH  58  81
ATOM     81  C   UNL A   1      44.792  27.492  34.631  1.00  0.00     0.064 A 
ATOM     82  C   UNL A   1      46.010  28.177  34.746  1.00  0.00     0.173 A 
ATOM     83  C   UNL A   1      44.604  26.342  35.411  1.00  0.00     0.173 A 
ATOM     84  F   UNL A   1      46.241  29.271  34.007  1.00  0.00    -0.203 F 
ATOM     85  C   UNL A   1      47.010  27.714  35.596  1.00  0.00     0.198 A 
ATOM     86  C   UNL A   1      45.598  25.894  36.276  1.00  0.00     0.198 A 
ATOM     87  F   UNL A   1      43.454  25.655  35.337  1.00  0.00    -0.203 F 
ATOM     88  F   UNL A   1      48.183  28.360  35.662  1.00  0.00    -0.200 F 
ATOM     89  C   UNL A   1      46.802  26.578  36.365  1.00  0.00     0.200 A 
ATOM     90  F   UNL A   1      45.393  24.801  37.023  1.00  0.00    -0.200 F 
ATOM     91  F   UNL A   1      47.766  26.135  37.183  1.00  0.00    -0.200 F 
ENDBRANCH  58  81
ENDBRANCH  32  33
ENDBRANCH  25  27
ENDBRANCH  24  25
ENDBRANCH  23  24
ENDBRANCH   1  23
TORSDOF 14
ENDMDL
