MODEL 1
REMARK VINA RESULT:     -12.3      0.000      0.000
REMARK SMILES Cc1cc(C)n(CC(=O)N[C@H]2C=C[C@@H](C(=O)OCCOC(=O)c3ccc(-c4c5nc(c(-c6c(F)c(F)c(F)c(F)c6F)c6ccc([nH]6)c(-c6c(F)c(F)c(F)c(F)c6F)c6nc(c(-c7c(F)c(F)c(F)c(F)c7F)c7ccc4[nH]7)C=C6)C=C5)cc3)C2)n1
REMARK SMILES IDX 18 1 17 2 15 3 16 4 14 5 11 6 12 7 86 8 13 9 10 10 8 11 9 12
REMARK SMILES IDX 7 14 6 15 1 16 2 17 3 18 87 19 4 20 5 21 19 22 20 23 21 24
REMARK SMILES IDX 22 25 23 26 24 27 85 28 25 29 84 30 26 31 27 32 28 33 78 34
REMARK SMILES IDX 29 35 83 36 77 37 79 38 30 39 82 40 76 41 75 42 31 44 63 45
REMARK SMILES IDX 43 46 62 47 44 48 47 49 61 50 80 51 45 52 46 53 60 55 81 56
REMARK SMILES IDX 48 57 32 58 33 59 41 60 34 61 35 62 39 63 42 64 36 65 37 66
REMARK SMILES IDX 40 67 38 68 64 69 65 70 73 71 66 72 67 73 71 74 74 75 68 76
REMARK SMILES IDX 69 77 72 78 70 79 49 80 50 81 58 82 51 83 52 84 56 85 59 86
REMARK SMILES IDX 53 87 54 88 57 89 55 90
REMARK H PARENT 10 13 79 43 47 54
REMARK Flexibility Score: inf
ROOT
ATOM      1  C   UNL A   1      35.122  30.994  27.596  1.00  0.00     0.274 C 
ENDROOT
BRANCH   1   2
ATOM      2  O   UNL A   1      34.059  30.000  27.785  1.00  0.00    -0.462 OA
BRANCH   2   3
ATOM      3  C   UNL A   1      33.258  29.593  26.778  1.00  0.00     0.312 C 
ATOM      4  O   UNL A   1      32.920  30.384  25.894  1.00  0.00    -0.252 OA
BRANCH   3   5
ATOM      5  C   UNL A   1      32.846  28.040  26.674  1.00  0.00     0.124 C 
ATOM      6  C   UNL A   1      32.248  26.196  25.019  1.00  0.00     0.106 C 
ATOM      7  C   UNL A   1      33.700  26.295  25.246  1.00  0.00    -0.006 C 
ATOM      8  C   UNL A   1      31.687  27.195  26.030  1.00  0.00     0.048 C 
ATOM      9  C   UNL A   1      34.022  27.243  26.140  1.00  0.00    -0.014 C 
BRANCH   6  10
ATOM     10  N   UNL A   1      31.858  26.238  23.604  1.00  0.00    -0.348 N 
ATOM     11  C   UNL A   1      31.453  27.149  22.673  1.00  0.00     0.242 C 
ATOM     12  O   UNL A   1      31.312  26.730  21.515  1.00  0.00    -0.273 OA
ATOM     13  H   UNL A   1      31.904  25.339  23.207  1.00  0.00     0.164 HD
BRANCH  11  14
ATOM     14  C   UNL A   1      31.139  28.594  22.970  1.00  0.00     0.244 C 
BRANCH  14  15
ATOM     15  N   UNL A   1      29.818  28.867  22.463  1.00  0.00    -0.260 N 
ATOM     16  C   UNL A   1      28.253  31.614  21.026  1.00  0.00     0.069 C 
ATOM     17  C   UNL A   1      28.553  30.340  21.670  1.00  0.00     0.060 A 
ATOM     18  C   UNL A   1      27.714  29.466  22.359  1.00  0.00     0.048 A 
ATOM     19  N   UNL A   1      29.782  29.856  21.598  1.00  0.00    -0.178 NA
ATOM     20  C   UNL A   1      28.562  28.498  22.859  1.00  0.00     0.036 A 
ATOM     21  C   UNL A   1      28.246  27.349  23.719  1.00  0.00     0.066 C 
ENDBRANCH  14  15
ENDBRANCH  11  14
ENDBRANCH   6  10
ENDBRANCH   3   5
ENDBRANCH   2   3
ENDBRANCH   1   2
BRANCH   1  22
ATOM     22  C   UNL A   1      36.011  31.074  28.856  1.00  0.00     0.275 C 
BRANCH  22  23
ATOM     23  O   UNL A   1      37.378  31.129  28.413  1.00  0.00    -0.458 OA
BRANCH  23  24
ATOM     24  C   UNL A   1      38.220  30.262  28.966  1.00  0.00     0.338 C 
ATOM     25  O   UNL A   1      38.596  30.188  30.159  1.00  0.00    -0.246 OA
BRANCH  24  26
ATOM     26  C   UNL A   1      38.636  29.308  27.932  1.00  0.00     0.060 A 
ATOM     27  C   UNL A   1      38.525  27.917  28.137  1.00  0.00     0.016 A 
ATOM     28  C   UNL A   1      39.692  29.819  27.221  1.00  0.00     0.016 A 
ATOM     29  C   UNL A   1      39.644  27.138  28.161  1.00  0.00     0.010 A 
ATOM     30  C   UNL A   1      40.774  29.003  27.090  1.00  0.00     0.010 A 
ATOM     31  C   UNL A   1      40.796  27.761  27.749  1.00  0.00    -0.014 A 
BRANCH  31  32
ATOM     32  C   UNL A   1      42.054  27.074  27.895  1.00  0.00     0.031 A 
ATOM     33  C   UNL A   1      42.621  27.327  29.234  1.00  0.00     0.074 A 
ATOM     34  C   UNL A   1      42.440  26.186  26.961  1.00  0.00     0.049 A 
ATOM     35  N   UNL A   1      43.579  28.136  29.561  1.00  0.00    -0.248 NA
ATOM     36  C   UNL A   1      41.783  26.917  30.378  1.00  0.00     0.031 C 
ATOM     37  C   UNL A   1      41.754  25.785  25.725  1.00  0.00     0.029 A 
ATOM     38  N   UNL A   1      43.483  25.318  27.027  1.00  0.00    -0.354 N 
ATOM     39  C   UNL A   1      43.540  28.121  30.953  1.00  0.00     0.074 A 
ATOM     40  C   UNL A   1      42.198  27.780  31.301  1.00  0.00     0.031 C 
ATOM     41  C   UNL A   1      42.255  24.600  25.303  1.00  0.00     0.029 A 
ATOM     42  C   UNL A   1      43.339  24.214  26.182  1.00  0.00     0.049 A 
ATOM     43  H   UNL A   1      44.263  25.453  27.611  1.00  0.00     0.167 HD
ATOM     44  C   UNL A   1      44.653  27.852  31.691  1.00  0.00     0.037 A 
ATOM     45  C   UNL A   1      43.995  23.038  26.373  1.00  0.00     0.037 A 
ATOM     46  C   UNL A   1      45.839  28.047  30.896  1.00  0.00     0.049 A 
ATOM     47  C   UNL A   1      45.122  23.333  27.313  1.00  0.00     0.074 A 
ATOM     48  C   UNL A   1      46.362  29.122  30.205  1.00  0.00     0.029 A 
ATOM     49  N   UNL A   1      46.438  26.927  30.371  1.00  0.00    -0.354 N 
ATOM     50  N   UNL A   1      46.125  24.115  27.009  1.00  0.00    -0.248 NA
ATOM     51  C   UNL A   1      44.841  23.210  28.740  1.00  0.00     0.031 C 
ATOM     52  C   UNL A   1      46.897  28.569  29.005  1.00  0.00     0.029 A 
ATOM     53  C   UNL A   1      46.757  27.182  29.060  1.00  0.00     0.049 A 
ATOM     54  H   UNL A   1      46.611  26.085  30.852  1.00  0.00     0.167 HD
ATOM     55  C   UNL A   1      46.318  24.902  28.140  1.00  0.00     0.074 A 
ATOM     56  C   UNL A   1      45.527  24.265  29.191  1.00  0.00     0.031 C 
ATOM     57  C   UNL A   1      46.851  26.156  28.046  1.00  0.00     0.037 A 
BRANCH  44  58
ATOM     58  C   UNL A   1      44.649  27.014  32.962  1.00  0.00     0.064 A 
ATOM     59  C   UNL A   1      45.098  27.620  34.146  1.00  0.00     0.173 A 
ATOM     60  C   UNL A   1      44.469  25.608  33.046  1.00  0.00     0.173 A 
ATOM     61  F   UNL A   1      45.298  28.945  34.197  1.00  0.00    -0.203 F 
ATOM     62  C   UNL A   1      45.428  26.873  35.282  1.00  0.00     0.198 A 
ATOM     63  C   UNL A   1      44.752  24.874  34.194  1.00  0.00     0.198 A 
ATOM     64  F   UNL A   1      44.106  24.839  32.018  1.00  0.00    -0.203 F 
ATOM     65  F   UNL A   1      45.964  27.488  36.344  1.00  0.00    -0.200 F 
ATOM     66  C   UNL A   1      45.264  25.501  35.302  1.00  0.00     0.200 A 
ATOM     67  F   UNL A   1      44.590  23.543  34.176  1.00  0.00    -0.200 F 
ATOM     68  F   UNL A   1      45.638  24.778  36.364  1.00  0.00    -0.200 F 
ENDBRANCH  44  58
BRANCH  45  69
ATOM     69  C   UNL A   1      43.466  21.669  26.152  1.00  0.00     0.064 A 
ATOM     70  C   UNL A   1      44.155  20.735  25.360  1.00  0.00     0.173 A 
ATOM     71  C   UNL A   1      42.398  21.162  26.919  1.00  0.00     0.173 A 
ATOM     72  F   UNL A   1      45.221  21.118  24.643  1.00  0.00    -0.203 F 
ATOM     73  C   UNL A   1      43.795  19.380  25.340  1.00  0.00     0.198 A 
ATOM     74  C   UNL A   1      42.035  19.815  26.894  1.00  0.00     0.198 A 
ATOM     75  F   UNL A   1      41.740  21.945  27.785  1.00  0.00    -0.203 F 
ATOM     76  F   UNL A   1      44.505  18.508  24.609  1.00  0.00    -0.200 F 
ATOM     77  C   UNL A   1      42.739  18.921  26.110  1.00  0.00     0.200 A 
ATOM     78  F   UNL A   1      41.039  19.380  27.678  1.00  0.00    -0.200 F 
ATOM     79  F   UNL A   1      42.428  17.617  26.132  1.00  0.00    -0.200 F 
ENDBRANCH  45  69
BRANCH  57  80
ATOM     80  C   UNL A   1      47.403  26.582  26.711  1.00  0.00     0.064 A 
ATOM     81  C   UNL A   1      48.677  26.223  26.236  1.00  0.00     0.173 A 
ATOM     82  C   UNL A   1      46.547  27.234  25.815  1.00  0.00     0.173 A 
ATOM     83  F   UNL A   1      49.513  25.503  26.992  1.00  0.00    -0.203 F 
ATOM     84  C   UNL A   1      49.089  26.542  24.942  1.00  0.00     0.198 A 
ATOM     85  C   UNL A   1      46.945  27.519  24.512  1.00  0.00     0.198 A 
ATOM     86  F   UNL A   1      45.296  27.543  26.190  1.00  0.00    -0.203 F 
ATOM     87  F   UNL A   1      50.313  26.192  24.519  1.00  0.00    -0.200 F 
ATOM     88  C   UNL A   1      48.219  27.184  24.079  1.00  0.00     0.200 A 
ATOM     89  F   UNL A   1      46.080  28.090  23.664  1.00  0.00    -0.200 F 
ATOM     90  F   UNL A   1      48.595  27.454  22.821  1.00  0.00    -0.200 F 
ENDBRANCH  57  80
ENDBRANCH  31  32
ENDBRANCH  24  26
ENDBRANCH  23  24
ENDBRANCH  22  23
ENDBRANCH   1  22
TORSDOF 14
ENDMDL
MODEL 2
REMARK VINA RESULT:     -12.3      4.245      9.596
REMARK SMILES Cc1cc(C)n(CC(=O)N[C@H]2C=C[C@@H](C(=O)OCCOC(=O)c3ccc(-c4c5nc(c(-c6c(F)c(F)c(F)c(F)c6F)c6ccc([nH]6)c(-c6c(F)c(F)c(F)c(F)c6F)c6nc(c(-c7c(F)c(F)c(F)c(F)c7F)c7ccc4[nH]7)C=C6)C=C5)cc3)C2)n1
REMARK SMILES IDX 18 1 17 2 15 3 16 4 14 5 11 6 12 7 86 8 13 9 10 10 8 11 9 12
REMARK SMILES IDX 7 14 6 15 1 16 2 17 3 18 87 19 4 20 5 21 19 22 20 23 21 24
REMARK SMILES IDX 22 25 23 26 24 27 85 28 25 29 84 30 26 31 27 32 28 33 78 34
REMARK SMILES IDX 29 35 83 36 77 37 79 38 30 39 82 40 76 41 75 42 31 44 63 45
REMARK SMILES IDX 43 46 62 47 44 48 47 49 61 50 80 51 45 52 46 53 60 55 81 56
REMARK SMILES IDX 48 57 32 58 33 59 41 60 34 61 35 62 39 63 42 64 36 65 37 66
REMARK SMILES IDX 40 67 38 68 64 69 65 70 73 71 66 72 67 73 71 74 74 75 68 76
REMARK SMILES IDX 69 77 72 78 70 79 49 80 50 81 58 82 51 83 52 84 56 85 59 86
REMARK SMILES IDX 53 87 54 88 57 89 55 90
REMARK H PARENT 10 13 79 43 47 54
REMARK Flexibility Score: inf
ROOT
ATOM      1  C   UNL A   1      33.303  29.527  26.257  1.00  0.00     0.274 C 
ENDROOT
BRANCH   1   2
ATOM      2  O   UNL A   1      33.372  28.177  26.830  1.00  0.00    -0.462 OA
BRANCH   2   3
ATOM      3  C   UNL A   1      32.269  27.464  27.141  1.00  0.00     0.312 C 
ATOM      4  O   UNL A   1      31.381  27.965  27.835  1.00  0.00    -0.252 OA
BRANCH   3   5
ATOM      5  C   UNL A   1      32.068  26.000  26.503  1.00  0.00     0.124 C 
ATOM      6  C   UNL A   1      31.892  24.748  24.290  1.00  0.00     0.106 C 
ATOM      7  C   UNL A   1      33.286  24.887  24.745  1.00  0.00    -0.006 C 
ATOM      8  C   UNL A   1      31.102  25.316  25.468  1.00  0.00     0.048 C 
ATOM      9  C   UNL A   1      33.386  25.518  25.926  1.00  0.00    -0.014 C 
BRANCH   6  10
ATOM     10  N   UNL A   1      31.660  25.213  22.916  1.00  0.00    -0.348 N 
ATOM     11  C   UNL A   1      31.468  26.383  22.244  1.00  0.00     0.242 C 
ATOM     12  O   UNL A   1      31.399  26.306  21.008  1.00  0.00    -0.273 OA
ATOM     13  H   UNL A   1      31.639  24.451  22.294  1.00  0.00     0.164 HD
BRANCH  11  14
ATOM     14  C   UNL A   1      31.301  27.731  22.901  1.00  0.00     0.244 C 
BRANCH  14  15
ATOM     15  N   UNL A   1      29.984  28.215  22.577  1.00  0.00    -0.260 N 
ATOM     16  C   UNL A   1      28.659  31.263  21.571  1.00  0.00     0.069 C 
ATOM     17  C   UNL A   1      28.851  29.904  22.066  1.00  0.00     0.060 A 
ATOM     18  C   UNL A   1      27.980  29.078  22.774  1.00  0.00     0.048 A 
ATOM     19  N   UNL A   1      29.990  29.281  21.810  1.00  0.00    -0.178 NA
ATOM     20  C   UNL A   1      28.738  27.967  23.087  1.00  0.00     0.036 A 
ATOM     21  C   UNL A   1      28.363  26.787  23.879  1.00  0.00     0.066 C 
ENDBRANCH  14  15
ENDBRANCH  11  14
ENDBRANCH   6  10
ENDBRANCH   3   5
ENDBRANCH   2   3
ENDBRANCH   1   2
BRANCH   1  22
ATOM     22  C   UNL A   1      34.333  30.451  26.941  1.00  0.00     0.275 C 
BRANCH  22  23
ATOM     23  O   UNL A   1      33.674  31.076  28.057  1.00  0.00    -0.458 OA
BRANCH  23  24
ATOM     24  C   UNL A   1      33.297  32.341  27.895  1.00  0.00     0.338 C 
ATOM     25  O   UNL A   1      32.319  32.790  27.256  1.00  0.00    -0.246 OA
BRANCH  24  26
ATOM     26  C   UNL A   1      34.214  33.190  28.663  1.00  0.00     0.060 A 
ATOM     27  C   UNL A   1      35.273  33.877  28.032  1.00  0.00     0.016 A 
ATOM     28  C   UNL A   1      34.379  32.679  29.926  1.00  0.00     0.016 A 
ATOM     29  C   UNL A   1      36.565  33.583  28.353  1.00  0.00     0.010 A 
ATOM     30  C   UNL A   1      35.665  32.519  30.343  1.00  0.00     0.010 A 
ATOM     31  C   UNL A   1      36.724  32.780  29.455  1.00  0.00    -0.014 A 
BRANCH  31  32
ATOM     32  C   UNL A   1      38.038  32.283  29.774  1.00  0.00     0.031 A 
ATOM     33  C   UNL A   1      38.171  30.878  29.338  1.00  0.00     0.074 A 
ATOM     34  C   UNL A   1      38.987  33.134  30.204  1.00  0.00     0.049 A 
ATOM     35  N   UNL A   1      38.118  29.805  30.061  1.00  0.00    -0.248 NA
ATOM     36  C   UNL A   1      37.966  30.627  27.898  1.00  0.00     0.031 C 
ATOM     37  C   UNL A   1      38.895  34.583  30.433  1.00  0.00     0.029 A 
ATOM     38  N   UNL A   1      40.311  32.882  30.366  1.00  0.00    -0.354 N 
ATOM     39  C   UNL A   1      38.090  28.787  29.110  1.00  0.00     0.074 A 
ATOM     40  C   UNL A   1      37.529  29.372  27.934  1.00  0.00     0.031 C 
ATOM     41  C   UNL A   1      40.143  35.109  30.452  1.00  0.00     0.029 A 
ATOM     42  C   UNL A   1      41.104  34.032  30.325  1.00  0.00     0.049 A 
ATOM     43  H   UNL A   1      40.678  31.978  30.500  1.00  0.00     0.167 HD
ATOM     44  C   UNL A   1      38.977  27.755  29.147  1.00  0.00     0.037 A 
ATOM     45  C   UNL A   1      42.432  34.014  30.034  1.00  0.00     0.037 A 
ATOM     46  C   UNL A   1      39.563  27.648  30.461  1.00  0.00     0.049 A 
ATOM     47  C   UNL A   1      42.881  32.597  30.210  1.00  0.00     0.074 A 
ATOM     48  C   UNL A   1      39.045  27.459  31.727  1.00  0.00     0.029 A 
ATOM     49  N   UNL A   1      40.821  28.173  30.636  1.00  0.00    -0.354 N 
ATOM     50  N   UNL A   1      42.885  31.983  31.365  1.00  0.00    -0.248 NA
ATOM     51  C   UNL A   1      42.788  31.725  29.043  1.00  0.00     0.031 C 
ATOM     52  C   UNL A   1      39.824  28.298  32.576  1.00  0.00     0.029 A 
ATOM     53  C   UNL A   1      40.831  28.885  31.810  1.00  0.00     0.049 A 
ATOM     54  H   UNL A   1      41.585  28.058  30.025  1.00  0.00     0.167 HD
ATOM     55  C   UNL A   1      42.370  30.719  31.096  1.00  0.00     0.074 A 
ATOM     56  C   UNL A   1      42.374  30.603  29.640  1.00  0.00     0.031 C 
ATOM     57  C   UNL A   1      41.709  30.006  32.057  1.00  0.00     0.037 A 
BRANCH  44  58
ATOM     58  C   UNL A   1      39.620  27.141  27.913  1.00  0.00     0.064 A 
ATOM     59  C   UNL A   1      39.586  25.743  27.785  1.00  0.00     0.173 A 
ATOM     60  C   UNL A   1      40.469  27.801  26.985  1.00  0.00     0.173 A 
ATOM     61  F   UNL A   1      38.816  25.006  28.597  1.00  0.00    -0.203 F 
ATOM     62  C   UNL A   1      40.399  25.061  26.873  1.00  0.00     0.198 A 
ATOM     63  C   UNL A   1      41.239  27.122  26.046  1.00  0.00     0.198 A 
ATOM     64  F   UNL A   1      40.687  29.116  26.978  1.00  0.00    -0.203 F 
ATOM     65  F   UNL A   1      40.414  23.723  26.874  1.00  0.00    -0.200 F 
ATOM     66  C   UNL A   1      41.232  25.751  26.012  1.00  0.00     0.200 A 
ATOM     67  F   UNL A   1      42.044  27.821  25.232  1.00  0.00    -0.200 F 
ATOM     68  F   UNL A   1      42.056  25.099  25.183  1.00  0.00    -0.200 F 
ENDBRANCH  44  58
BRANCH  45  69
ATOM     69  C   UNL A   1      43.189  35.007  29.231  1.00  0.00     0.064 A 
ATOM     70  C   UNL A   1      42.662  35.551  28.049  1.00  0.00     0.173 A 
ATOM     71  C   UNL A   1      44.345  35.633  29.740  1.00  0.00     0.173 A 
ATOM     72  F   UNL A   1      41.532  35.056  27.526  1.00  0.00    -0.203 F 
ATOM     73  C   UNL A   1      43.255  36.654  27.418  1.00  0.00     0.198 A 
ATOM     74  C   UNL A   1      44.940  36.726  29.108  1.00  0.00     0.198 A 
ATOM     75  F   UNL A   1      44.870  35.258  30.915  1.00  0.00    -0.203 F 
ATOM     76  F   UNL A   1      42.696  37.178  26.318  1.00  0.00    -0.200 F 
ATOM     77  C   UNL A   1      44.390  37.243  27.951  1.00  0.00     0.200 A 
ATOM     78  F   UNL A   1      46.012  37.310  29.662  1.00  0.00    -0.200 F 
ATOM     79  F   UNL A   1      44.927  38.330  27.379  1.00  0.00    -0.200 F 
ENDBRANCH  45  69
BRANCH  57  80
ATOM     80  C   UNL A   1      41.730  30.545  33.463  1.00  0.00     0.064 A 
ATOM     81  C   UNL A   1      40.759  31.419  33.985  1.00  0.00     0.173 A 
ATOM     82  C   UNL A   1      42.671  30.027  34.360  1.00  0.00     0.173 A 
ATOM     83  F   UNL A   1      39.760  31.872  33.218  1.00  0.00    -0.203 F 
ATOM     84  C   UNL A   1      40.759  31.790  35.329  1.00  0.00     0.198 A 
ATOM     85  C   UNL A   1      42.649  30.368  35.709  1.00  0.00     0.198 A 
ATOM     86  F   UNL A   1      43.582  29.139  33.934  1.00  0.00    -0.203 F 
ATOM     87  F   UNL A   1      39.823  32.629  35.797  1.00  0.00    -0.200 F 
ATOM     88  C   UNL A   1      41.701  31.257  36.192  1.00  0.00     0.200 A 
ATOM     89  F   UNL A   1      43.527  29.806  36.550  1.00  0.00    -0.200 F 
ATOM     90  F   UNL A   1      41.678  31.576  37.493  1.00  0.00    -0.200 F 
ENDBRANCH  57  80
ENDBRANCH  31  32
ENDBRANCH  24  26
ENDBRANCH  23  24
ENDBRANCH  22  23
ENDBRANCH   1  22
TORSDOF 14
ENDMDL
MODEL 3
REMARK VINA RESULT:     -12.2      1.683      2.795
REMARK SMILES Cc1cc(C)n(CC(=O)N[C@H]2C=C[C@@H](C(=O)OCCOC(=O)c3ccc(-c4c5nc(c(-c6c(F)c(F)c(F)c(F)c6F)c6ccc([nH]6)c(-c6c(F)c(F)c(F)c(F)c6F)c6nc(c(-c7c(F)c(F)c(F)c(F)c7F)c7ccc4[nH]7)C=C6)C=C5)cc3)C2)n1
REMARK SMILES IDX 18 1 17 2 15 3 16 4 14 5 11 6 12 7 86 8 13 9 10 10 8 11 9 12
REMARK SMILES IDX 7 14 6 15 1 16 2 17 3 18 87 19 4 20 5 21 19 22 20 23 21 24
REMARK SMILES IDX 22 25 23 26 24 27 85 28 25 29 84 30 26 31 27 32 28 33 78 34
REMARK SMILES IDX 29 35 83 36 77 37 79 38 30 39 82 40 76 41 75 42 31 44 63 45
REMARK SMILES IDX 43 46 62 47 44 48 47 49 61 50 80 51 45 52 46 53 60 55 81 56
REMARK SMILES IDX 48 57 32 58 33 59 41 60 34 61 35 62 39 63 42 64 36 65 37 66
REMARK SMILES IDX 40 67 38 68 64 69 65 70 73 71 66 72 67 73 71 74 74 75 68 76
REMARK SMILES IDX 69 77 72 78 70 79 49 80 50 81 58 82 51 83 52 84 56 85 59 86
REMARK SMILES IDX 53 87 54 88 57 89 55 90
REMARK H PARENT 10 13 79 43 47 54
REMARK Flexibility Score: inf
ROOT
ATOM      1  C   UNL A   1      35.369  30.509  27.632  1.00  0.00     0.274 C 
ENDROOT
BRANCH   1   2
ATOM      2  O   UNL A   1      33.985  30.995  27.647  1.00  0.00    -0.462 OA
BRANCH   2   3
ATOM      3  C   UNL A   1      33.000  30.402  26.940  1.00  0.00     0.312 C 
ATOM      4  O   UNL A   1      31.854  30.859  26.966  1.00  0.00    -0.252 OA
BRANCH   3   5
ATOM      5  C   UNL A   1      33.356  29.168  25.969  1.00  0.00     0.124 C 
ATOM      6  C   UNL A   1      32.649  26.803  25.334  1.00  0.00     0.106 C 
ATOM      7  C   UNL A   1      31.925  27.829  24.564  1.00  0.00    -0.006 C 
ATOM      8  C   UNL A   1      33.663  27.634  26.119  1.00  0.00     0.048 C 
ATOM      9  C   UNL A   1      32.313  29.078  24.869  1.00  0.00    -0.014 C 
BRANCH   6  10
ATOM     10  N   UNL A   1      31.776  25.829  26.002  1.00  0.00    -0.348 N 
ATOM     11  C   UNL A   1      31.864  24.605  26.598  1.00  0.00     0.242 C 
ATOM     12  O   UNL A   1      30.831  24.176  27.134  1.00  0.00    -0.273 OA
ATOM     13  H   UNL A   1      30.849  26.158  26.030  1.00  0.00     0.164 HD
BRANCH  11  14
ATOM     14  C   UNL A   1      33.104  23.746  26.610  1.00  0.00     0.244 C 
BRANCH  14  15
ATOM     15  N   UNL A   1      33.514  23.552  25.242  1.00  0.00    -0.260 N 
ATOM     16  C   UNL A   1      32.319  21.711  22.552  1.00  0.00     0.069 C 
ATOM     17  C   UNL A   1      33.133  22.503  23.467  1.00  0.00     0.060 A 
ATOM     18  C   UNL A   1      34.506  22.743  23.465  1.00  0.00     0.048 A 
ATOM     19  N   UNL A   1      32.541  23.157  24.453  1.00  0.00    -0.178 NA
ATOM     20  C   UNL A   1      34.733  23.445  24.632  1.00  0.00     0.036 A 
ATOM     21  C   UNL A   1      36.008  23.917  25.191  1.00  0.00     0.066 C 
ENDBRANCH  14  15
ENDBRANCH  11  14
ENDBRANCH   6  10
ENDBRANCH   3   5
ENDBRANCH   2   3
ENDBRANCH   1   2
BRANCH   1  22
ATOM     22  C   UNL A   1      36.141  31.054  28.853  1.00  0.00     0.275 C 
BRANCH  22  23
ATOM     23  O   UNL A   1      37.519  31.190  28.463  1.00  0.00    -0.458 OA
BRANCH  23  24
ATOM     24  C   UNL A   1      38.380  30.332  29.003  1.00  0.00     0.338 C 
ATOM     25  O   UNL A   1      38.793  30.278  30.184  1.00  0.00    -0.246 OA
BRANCH  24  26
ATOM     26  C   UNL A   1      38.763  29.363  27.972  1.00  0.00     0.060 A 
ATOM     27  C   UNL A   1      38.644  27.975  28.196  1.00  0.00     0.016 A 
ATOM     28  C   UNL A   1      39.808  29.855  27.231  1.00  0.00     0.016 A 
ATOM     29  C   UNL A   1      39.757  27.186  28.204  1.00  0.00     0.010 A 
ATOM     30  C   UNL A   1      40.879  29.027  27.085  1.00  0.00     0.010 A 
ATOM     31  C   UNL A   1      40.905  27.794  27.759  1.00  0.00    -0.014 A 
BRANCH  31  32
ATOM     32  C   UNL A   1      42.159  27.096  27.885  1.00  0.00     0.031 A 
ATOM     33  C   UNL A   1      42.749  27.344  29.215  1.00  0.00     0.074 A 
ATOM     34  C   UNL A   1      42.523  26.205  26.945  1.00  0.00     0.049 A 
ATOM     35  N   UNL A   1      43.718  28.146  29.527  1.00  0.00    -0.248 NA
ATOM     36  C   UNL A   1      41.926  26.940  30.372  1.00  0.00     0.031 C 
ATOM     37  C   UNL A   1      41.815  25.811  25.719  1.00  0.00     0.029 A 
ATOM     38  N   UNL A   1      43.560  25.329  26.994  1.00  0.00    -0.354 N 
ATOM     39  C   UNL A   1      43.701  28.130  30.920  1.00  0.00     0.074 A 
ATOM     40  C   UNL A   1      42.362  27.800  31.288  1.00  0.00     0.031 C 
ATOM     41  C   UNL A   1      42.300  24.622  25.290  1.00  0.00     0.029 A 
ATOM     42  C   UNL A   1      43.395  24.227  26.152  1.00  0.00     0.049 A 
ATOM     43  H   UNL A   1      44.351  25.458  27.566  1.00  0.00     0.167 HD
ATOM     44  C   UNL A   1      44.823  27.852  31.640  1.00  0.00     0.037 A 
ATOM     45  C   UNL A   1      44.044  23.046  26.332  1.00  0.00     0.037 A 
ATOM     46  C   UNL A   1      45.999  28.038  30.826  1.00  0.00     0.049 A 
ATOM     47  C   UNL A   1      45.188  23.331  27.254  1.00  0.00     0.074 A 
ATOM     48  C   UNL A   1      46.519  29.109  30.127  1.00  0.00     0.029 A 
ATOM     49  N   UNL A   1      46.581  26.913  30.291  1.00  0.00    -0.354 N 
ATOM     50  N   UNL A   1      46.192  24.105  26.934  1.00  0.00    -0.248 NA
ATOM     51  C   UNL A   1      44.928  23.210  28.686  1.00  0.00     0.031 C 
ATOM     52  C   UNL A   1      47.030  28.552  28.919  1.00  0.00     0.029 A 
ATOM     53  C   UNL A   1      46.880  27.167  28.976  1.00  0.00     0.049 A 
ATOM     54  H   UNL A   1      46.754  26.070  30.770  1.00  0.00     0.167 HD
ATOM     55  C   UNL A   1      46.409  24.890  28.062  1.00  0.00     0.074 A 
ATOM     56  C   UNL A   1      45.630  24.259  29.125  1.00  0.00     0.031 C 
ATOM     57  C   UNL A   1      46.950  26.140  27.960  1.00  0.00     0.037 A 
BRANCH  44  58
ATOM     58  C   UNL A   1      44.833  27.014  32.910  1.00  0.00     0.064 A 
ATOM     59  C   UNL A   1      45.341  27.603  34.079  1.00  0.00     0.173 A 
ATOM     60  C   UNL A   1      44.609  25.615  33.001  1.00  0.00     0.173 A 
ATOM     61  F   UNL A   1      45.587  28.920  34.123  1.00  0.00    -0.203 F 
ATOM     62  C   UNL A   1      45.682  26.845  35.204  1.00  0.00     0.198 A 
ATOM     63  C   UNL A   1      44.904  24.871  34.139  1.00  0.00     0.198 A 
ATOM     64  F   UNL A   1      44.187  24.859  31.986  1.00  0.00    -0.203 F 
ATOM     65  F   UNL A   1      46.273  27.441  36.247  1.00  0.00    -0.200 F 
ATOM     66  C   UNL A   1      45.473  25.479  35.229  1.00  0.00     0.200 A 
ATOM     67  F   UNL A   1      44.697  23.546  34.127  1.00  0.00    -0.200 F 
ATOM     68  F   UNL A   1      45.857  24.743  36.279  1.00  0.00    -0.200 F 
ENDBRANCH  44  58
BRANCH  45  69
ATOM     69  C   UNL A   1      43.501  21.680  26.119  1.00  0.00     0.064 A 
ATOM     70  C   UNL A   1      44.171  20.741  25.319  1.00  0.00     0.173 A 
ATOM     71  C   UNL A   1      42.439  21.183  26.901  1.00  0.00     0.173 A 
ATOM     72  F   UNL A   1      45.231  21.114  24.587  1.00  0.00    -0.203 F 
ATOM     73  C   UNL A   1      43.800  19.389  25.304  1.00  0.00     0.198 A 
ATOM     74  C   UNL A   1      42.064  19.839  26.881  1.00  0.00     0.198 A 
ATOM     75  F   UNL A   1      41.799  21.973  27.775  1.00  0.00    -0.203 F 
ATOM     76  F   UNL A   1      44.493  18.510  24.565  1.00  0.00    -0.200 F 
ATOM     77  C   UNL A   1      42.750  18.938  26.089  1.00  0.00     0.200 A 
ATOM     78  F   UNL A   1      41.075  19.413  27.679  1.00  0.00    -0.200 F 
ATOM     79  F   UNL A   1      42.428  17.638  26.116  1.00  0.00    -0.200 F 
ENDBRANCH  45  69
BRANCH  57  80
ATOM     80  C   UNL A   1      47.484  26.562  26.617  1.00  0.00     0.064 A 
ATOM     81  C   UNL A   1      48.751  26.199  26.125  1.00  0.00     0.173 A 
ATOM     82  C   UNL A   1      46.618  27.215  25.732  1.00  0.00     0.173 A 
ATOM     83  F   UNL A   1      49.595  25.476  26.870  1.00  0.00    -0.203 F 
ATOM     84  C   UNL A   1      49.146  26.514  24.824  1.00  0.00     0.198 A 
ATOM     85  C   UNL A   1      46.999  27.497  24.423  1.00  0.00     0.198 A 
ATOM     86  F   UNL A   1      45.374  27.529  26.124  1.00  0.00    -0.203 F 
ATOM     87  F   UNL A   1      50.362  26.159  24.385  1.00  0.00    -0.200 F 
ATOM     88  C   UNL A   1      48.265  27.157  23.973  1.00  0.00     0.200 A 
ATOM     89  F   UNL A   1      46.123  28.069  23.586  1.00  0.00    -0.200 F 
ATOM     90  F   UNL A   1      48.624  27.423  22.709  1.00  0.00    -0.200 F 
ENDBRANCH  57  80
ENDBRANCH  31  32
ENDBRANCH  24  26
ENDBRANCH  23  24
ENDBRANCH  22  23
ENDBRANCH   1  22
TORSDOF 14
ENDMDL
