MODEL 1
REMARK VINA RESULT:     -13.0      0.000      0.000
REMARK SMILES Cc1nc2ccc(Cl)cc2cc1C(=O)N1CCC(C(=O)OCCOC(=O)c2ccc(-c3c4nc(c(-c5c(F)c(F)c(F)c(F)c5F)c5ccc([nH]5)c(-c5c(F)c(F)c(F)c(F)c5F)c5nc(c(-c6c(F)c(F)c(F)c(F)c6F)c6ccc3[nH]6)C=C5)C=C4)cc2)CC1
REMARK SMILES IDX 23 1 22 2 21 3 19 4 20 5 18 6 13 7 14 8 15 9 16 10 91 11
REMARK SMILES IDX 17 12 90 13 12 14 1 15 2 16 3 17 4 18 11 19 5 20 10 21 6 22
REMARK SMILES IDX 9 23 7 24 8 25 24 26 25 27 26 28 27 29 28 30 89 31 29 32
REMARK SMILES IDX 88 33 30 34 31 35 32 36 82 37 33 38 87 39 81 40 83 41 34 42
REMARK SMILES IDX 86 43 80 44 79 45 35 47 67 48 47 49 66 50 48 51 51 52 65 53
REMARK SMILES IDX 84 54 49 55 50 56 64 58 85 59 52 60 36 61 37 62 45 63 38 64
REMARK SMILES IDX 39 65 43 66 46 67 40 68 41 69 44 70 42 71 68 72 69 73 77 74
REMARK SMILES IDX 70 75 71 76 75 77 78 78 72 79 73 80 76 81 74 82 53 83 54 84
REMARK SMILES IDX 62 85 55 86 56 87 60 88 63 89 57 90 58 91 61 92 59 93
REMARK H PARENT 83 46 51 57
REMARK Flexibility Score: inf
ROOT
ATOM      1  C   UNL A   1      32.214  33.093  26.716  1.00  0.00     0.275 C 
ENDROOT
BRANCH   1   2
ATOM      2  C   UNL A   1      31.388  31.820  26.513  1.00  0.00     0.274 C 
BRANCH   2   3
ATOM      3  O   UNL A   1      31.974  30.712  27.221  1.00  0.00    -0.462 OA
BRANCH   3   4
ATOM      4  C   UNL A   1      33.141  30.225  26.733  1.00  0.00     0.309 C 
ATOM      5  O   UNL A   1      34.254  30.665  26.997  1.00  0.00    -0.252 OA
BRANCH   4   6
ATOM      6  C   UNL A   1      32.947  29.017  25.838  1.00  0.00     0.103 C 
ATOM      7  C   UNL A   1      33.578  26.001  22.882  1.00  0.00     0.255 C 
ATOM      8  O   UNL A   1      33.650  26.320  21.699  1.00  0.00    -0.269 OA
ATOM      9  N   UNL A   1      33.346  26.924  23.907  1.00  0.00    -0.339 N 
ATOM     10  C   UNL A   1      32.507  28.071  23.570  1.00  0.00     0.120 C 
ATOM     11  C   UNL A   1      33.642  26.677  25.322  1.00  0.00     0.120 C 
ATOM     12  C   UNL A   1      32.862  29.327  24.345  1.00  0.00     0.037 C 
ATOM     13  C   UNL A   1      34.020  27.957  26.070  1.00  0.00     0.037 C 
BRANCH   7  14
ATOM     14  C   UNL A   1      33.571  24.557  23.209  1.00  0.00     0.061 A 
ATOM     15  C   UNL A   1      31.038  24.456  23.288  1.00  0.00     0.067 C 
ATOM     16  C   UNL A   1      32.399  23.848  23.457  1.00  0.00     0.051 A 
ATOM     17  N   UNL A   1      32.415  22.567  23.928  1.00  0.00    -0.252 NA
ATOM     18  C   UNL A   1      33.595  21.972  24.182  1.00  0.00     0.071 A 
ATOM     19  C   UNL A   1      34.793  23.928  23.467  1.00  0.00     0.026 A 
ATOM     20  C   UNL A   1      33.624  20.690  24.716  1.00  0.00     0.030 A 
ATOM     21  C   UNL A   1      34.824  22.617  23.946  1.00  0.00     0.002 A 
ATOM     22  C   UNL A   1      34.831  20.039  25.001  1.00  0.00     0.023 A 
ATOM     23  C   UNL A   1      36.040  21.968  24.217  1.00  0.00     0.030 A 
ATOM     24  C   UNL A   1      36.036  20.680  24.741  1.00  0.00     0.041 A 
ATOM     25  Cl  UNL A   1      37.525  19.886  25.071  1.00  0.00    -0.084 Cl
ENDBRANCH   7  14
ENDBRANCH   4   6
ENDBRANCH   3   4
ENDBRANCH   2   3
ENDBRANCH   1   2
BRANCH   1  26
ATOM     26  O   UNL A   1      32.107  33.582  28.069  1.00  0.00    -0.458 OA
BRANCH  26  27
ATOM     27  C   UNL A   1      33.014  34.522  28.416  1.00  0.00     0.338 C 
ATOM     28  O   UNL A   1      32.874  35.732  28.411  1.00  0.00    -0.246 OA
BRANCH  27  29
ATOM     29  C   UNL A   1      34.225  33.874  28.938  1.00  0.00     0.060 A 
ATOM     30  C   UNL A   1      34.067  32.748  29.750  1.00  0.00     0.016 A 
ATOM     31  C   UNL A   1      35.491  34.422  28.723  1.00  0.00     0.016 A 
ATOM     32  C   UNL A   1      35.175  32.162  30.357  1.00  0.00     0.010 A 
ATOM     33  C   UNL A   1      36.603  33.831  29.331  1.00  0.00     0.010 A 
ATOM     34  C   UNL A   1      36.450  32.705  30.160  1.00  0.00    -0.014 A 
BRANCH  34  35
ATOM     35  C   UNL A   1      37.615  32.119  30.866  1.00  0.00     0.031 A 
ATOM     36  C   UNL A   1      38.427  31.043  30.206  1.00  0.00     0.074 A 
ATOM     37  C   UNL A   1      37.953  32.568  32.088  1.00  0.00     0.049 A 
ATOM     38  N   UNL A   1      39.425  30.347  30.685  1.00  0.00    -0.248 NA
ATOM     39  C   UNL A   1      38.068  30.709  28.819  1.00  0.00     0.031 C 
ATOM     40  C   UNL A   1      37.270  33.641  32.810  1.00  0.00     0.029 A 
ATOM     41  N   UNL A   1      38.955  32.175  32.938  1.00  0.00    -0.354 N 
ATOM     42  C   UNL A   1      39.801  29.477  29.670  1.00  0.00     0.074 A 
ATOM     43  C   UNL A   1      38.916  29.726  28.551  1.00  0.00     0.031 C 
ATOM     44  C   UNL A   1      37.872  33.819  33.997  1.00  0.00     0.029 A 
ATOM     45  C   UNL A   1      38.950  32.845  34.136  1.00  0.00     0.049 A 
ATOM     46  H   UNL A   1      39.614  31.479  32.711  1.00  0.00     0.167 HD
ATOM     47  C   UNL A   1      40.795  28.557  29.675  1.00  0.00     0.037 A 
ATOM     48  C   UNL A   1      39.713  32.671  35.233  1.00  0.00     0.037 A 
ATOM     49  C   UNL A   1      41.683  28.324  30.784  1.00  0.00     0.049 A 
ATOM     50  C   UNL A   1      40.774  31.603  35.231  1.00  0.00     0.074 A 
ATOM     51  C   UNL A   1      42.728  27.422  30.879  1.00  0.00     0.029 A 
ATOM     52  N   UNL A   1      41.628  29.002  31.992  1.00  0.00    -0.354 N 
ATOM     53  N   UNL A   1      41.114  30.777  34.272  1.00  0.00    -0.248 NA
ATOM     54  C   UNL A   1      41.549  31.440  36.468  1.00  0.00     0.031 C 
ATOM     55  C   UNL A   1      43.284  27.528  32.159  1.00  0.00     0.029 A 
ATOM     56  C   UNL A   1      42.609  28.525  32.847  1.00  0.00     0.049 A 
ATOM     57  H   UNL A   1      40.988  29.717  32.211  1.00  0.00     0.167 HD
ATOM     58  C   UNL A   1      42.152  30.010  34.781  1.00  0.00     0.074 A 
ATOM     59  C   UNL A   1      42.396  30.477  36.129  1.00  0.00     0.031 C 
ATOM     60  C   UNL A   1      42.840  29.005  34.185  1.00  0.00     0.037 A 
BRANCH  47  61
ATOM     61  C   UNL A   1      40.957  27.709  28.448  1.00  0.00     0.064 A 
ATOM     62  C   UNL A   1      40.255  26.506  28.286  1.00  0.00     0.173 A 
ATOM     63  C   UNL A   1      41.801  28.126  27.408  1.00  0.00     0.173 A 
ATOM     64  F   UNL A   1      39.448  26.059  29.259  1.00  0.00    -0.203 F 
ATOM     65  C   UNL A   1      40.408  25.741  27.133  1.00  0.00     0.198 A 
ATOM     66  C   UNL A   1      41.933  27.369  26.247  1.00  0.00     0.198 A 
ATOM     67  F   UNL A   1      42.492  29.270  27.515  1.00  0.00    -0.203 F 
ATOM     68  F   UNL A   1      39.757  24.574  27.014  1.00  0.00    -0.200 F 
ATOM     69  C   UNL A   1      41.242  26.175  26.113  1.00  0.00     0.200 A 
ATOM     70  F   UNL A   1      42.733  27.795  25.259  1.00  0.00    -0.200 F 
ATOM     71  F   UNL A   1      41.384  25.438  25.002  1.00  0.00    -0.200 F 
ENDBRANCH  47  61
BRANCH  48  72
ATOM     72  C   UNL A   1      39.482  33.513  36.432  1.00  0.00     0.064 A 
ATOM     73  C   UNL A   1      38.645  33.079  37.469  1.00  0.00     0.173 A 
ATOM     74  C   UNL A   1      40.092  34.769  36.566  1.00  0.00     0.173 A 
ATOM     75  F   UNL A   1      38.020  31.897  37.374  1.00  0.00    -0.203 F 
ATOM     76  C   UNL A   1      38.418  33.875  38.590  1.00  0.00     0.198 A 
ATOM     77  C   UNL A   1      39.885  35.553  37.699  1.00  0.00     0.198 A 
ATOM     78  F   UNL A   1      40.900  35.230  35.599  1.00  0.00    -0.203 F 
ATOM     79  F   UNL A   1      37.584  33.454  39.550  1.00  0.00    -0.200 F 
ATOM     80  C   UNL A   1      39.044  35.107  38.707  1.00  0.00     0.200 A 
ATOM     81  F   UNL A   1      40.500  36.739  37.812  1.00  0.00    -0.200 F 
ATOM     82  F   UNL A   1      38.830  35.870  39.788  1.00  0.00    -0.200 F 
ENDBRANCH  48  72
BRANCH  60  83
ATOM     83  C   UNL A   1      43.938  28.363  34.978  1.00  0.00     0.064 A 
ATOM     84  C   UNL A   1      43.708  27.215  35.750  1.00  0.00     0.173 A 
ATOM     85  C   UNL A   1      45.241  28.881  34.937  1.00  0.00     0.173 A 
ATOM     86  F   UNL A   1      42.475  26.693  35.834  1.00  0.00    -0.203 F 
ATOM     87  C   UNL A   1      44.742  26.620  36.470  1.00  0.00     0.198 A 
ATOM     88  C   UNL A   1      46.277  28.269  35.638  1.00  0.00     0.198 A 
ATOM     89  F   UNL A   1      45.511  29.974  34.209  1.00  0.00    -0.203 F 
ATOM     90  F   UNL A   1      44.492  25.548  37.233  1.00  0.00    -0.200 F 
ATOM     91  C   UNL A   1      46.025  27.143  36.408  1.00  0.00     0.200 A 
ATOM     92  F   UNL A   1      47.518  28.770  35.570  1.00  0.00    -0.200 F 
ATOM     93  F   UNL A   1      47.019  26.567  37.097  1.00  0.00    -0.200 F 
ENDBRANCH  60  83
ENDBRANCH  34  35
ENDBRANCH  27  29
ENDBRANCH  26  27
ENDBRANCH   1  26
TORSDOF 12
ENDMDL
MODEL 2
REMARK VINA RESULT:     -12.8      1.975      2.983
REMARK SMILES Cc1nc2ccc(Cl)cc2cc1C(=O)N1CCC(C(=O)OCCOC(=O)c2ccc(-c3c4nc(c(-c5c(F)c(F)c(F)c(F)c5F)c5ccc([nH]5)c(-c5c(F)c(F)c(F)c(F)c5F)c5nc(c(-c6c(F)c(F)c(F)c(F)c6F)c6ccc3[nH]6)C=C5)C=C4)cc2)CC1
REMARK SMILES IDX 23 1 22 2 21 3 19 4 20 5 18 6 13 7 14 8 15 9 16 10 91 11
REMARK SMILES IDX 17 12 90 13 12 14 1 15 2 16 3 17 4 18 11 19 5 20 10 21 6 22
REMARK SMILES IDX 9 23 7 24 8 25 24 26 25 27 26 28 27 29 28 30 89 31 29 32
REMARK SMILES IDX 88 33 30 34 31 35 32 36 82 37 33 38 87 39 81 40 83 41 34 42
REMARK SMILES IDX 86 43 80 44 79 45 35 47 67 48 47 49 66 50 48 51 51 52 65 53
REMARK SMILES IDX 84 54 49 55 50 56 64 58 85 59 52 60 36 61 37 62 45 63 38 64
REMARK SMILES IDX 39 65 43 66 46 67 40 68 41 69 44 70 42 71 68 72 69 73 77 74
REMARK SMILES IDX 70 75 71 76 75 77 78 78 72 79 73 80 76 81 74 82 53 83 54 84
REMARK SMILES IDX 62 85 55 86 56 87 60 88 63 89 57 90 58 91 61 92 59 93
REMARK H PARENT 83 46 51 57
REMARK Flexibility Score: inf
ROOT
ATOM      1  C   UNL A   1      31.772  30.158  25.648  1.00  0.00     0.275 C 
ENDROOT
BRANCH   1   2
ATOM      2  C   UNL A   1      31.664  29.329  24.365  1.00  0.00     0.274 C 
BRANCH   2   3
ATOM      3  O   UNL A   1      30.305  29.294  23.892  1.00  0.00    -0.462 OA
BRANCH   3   4
ATOM      4  C   UNL A   1      29.813  28.082  23.536  1.00  0.00     0.309 C 
ATOM      5  O   UNL A   1      28.889  27.899  22.752  1.00  0.00    -0.252 OA
BRANCH   4   6
ATOM      6  C   UNL A   1      30.560  26.931  24.180  1.00  0.00     0.103 C 
ATOM      7  C   UNL A   1      31.818  22.997  25.263  1.00  0.00     0.255 C 
ATOM      8  O   UNL A   1      31.044  22.260  25.869  1.00  0.00    -0.269 OA
ATOM      9  N   UNL A   1      31.492  24.306  24.897  1.00  0.00    -0.339 N 
ATOM     10  C   UNL A   1      30.599  25.030  25.797  1.00  0.00     0.120 C 
ATOM     11  C   UNL A   1      32.191  25.070  23.857  1.00  0.00     0.120 C 
ATOM     12  C   UNL A   1      29.715  26.040  25.088  1.00  0.00     0.037 C 
ATOM     13  C   UNL A   1      31.270  26.061  23.145  1.00  0.00     0.037 C 
BRANCH   7  14
ATOM     14  C   UNL A   1      33.208  22.526  25.066  1.00  0.00     0.061 A 
ATOM     15  C   UNL A   1      32.454  20.261  24.209  1.00  0.00     0.067 C 
ATOM     16  C   UNL A   1      33.510  21.237  24.634  1.00  0.00     0.051 A 
ATOM     17  N   UNL A   1      34.789  20.759  24.625  1.00  0.00    -0.252 NA
ATOM     18  C   UNL A   1      35.789  21.544  25.065  1.00  0.00     0.071 A 
ATOM     19  C   UNL A   1      34.255  23.338  25.513  1.00  0.00     0.026 A 
ATOM     20  C   UNL A   1      37.086  21.050  25.116  1.00  0.00     0.030 A 
ATOM     21  C   UNL A   1      35.567  22.863  25.507  1.00  0.00     0.002 A 
ATOM     22  C   UNL A   1      38.154  21.832  25.574  1.00  0.00     0.023 A 
ATOM     23  C   UNL A   1      36.634  23.660  25.956  1.00  0.00     0.030 A 
ATOM     24  C   UNL A   1      37.923  23.139  25.985  1.00  0.00     0.041 A 
ATOM     25  Cl  UNL A   1      39.227  24.116  26.534  1.00  0.00    -0.084 Cl
ENDBRANCH   7  14
ENDBRANCH   4   6
ENDBRANCH   3   4
ENDBRANCH   2   3
ENDBRANCH   1   2
BRANCH   1  26
ATOM     26  O   UNL A   1      33.112  30.139  26.178  1.00  0.00    -0.458 OA
BRANCH  26  27
ATOM     27  C   UNL A   1      33.427  31.175  26.989  1.00  0.00     0.338 C 
ATOM     28  O   UNL A   1      32.746  32.150  27.252  1.00  0.00    -0.246 OA
BRANCH  27  29
ATOM     29  C   UNL A   1      34.718  30.919  27.642  1.00  0.00     0.060 A 
ATOM     30  C   UNL A   1      35.011  29.606  28.021  1.00  0.00     0.016 A 
ATOM     31  C   UNL A   1      35.582  31.963  27.975  1.00  0.00     0.016 A 
ATOM     32  C   UNL A   1      36.171  29.328  28.739  1.00  0.00     0.010 A 
ATOM     33  C   UNL A   1      36.748  31.683  28.695  1.00  0.00     0.010 A 
ATOM     34  C   UNL A   1      37.043  30.366  29.090  1.00  0.00    -0.014 A 
BRANCH  34  35
ATOM     35  C   UNL A   1      38.239  30.071  29.916  1.00  0.00     0.031 A 
ATOM     36  C   UNL A   1      39.331  29.198  29.368  1.00  0.00     0.074 A 
ATOM     37  C   UNL A   1      38.353  30.605  31.144  1.00  0.00     0.049 A 
ATOM     38  N   UNL A   1      40.411  28.755  29.957  1.00  0.00    -0.248 NA
ATOM     39  C   UNL A   1      39.186  28.768  27.968  1.00  0.00     0.031 C 
ATOM     40  C   UNL A   1      37.382  31.506  31.764  1.00  0.00     0.029 A 
ATOM     41  N   UNL A   1      39.334  30.464  32.092  1.00  0.00    -0.354 N 
ATOM     42  C   UNL A   1      41.066  27.978  29.011  1.00  0.00     0.074 A 
ATOM     43  C   UNL A   1      40.256  28.000  27.811  1.00  0.00     0.031 C 
ATOM     44  C   UNL A   1      37.815  31.836  32.992  1.00  0.00     0.029 A 
ATOM     45  C   UNL A   1      39.068  31.136  33.260  1.00  0.00     0.049 A 
ATOM     46  H   UNL A   1      40.151  29.934  31.949  1.00  0.00     0.167 HD
ATOM     47  C   UNL A   1      42.236  27.308  29.136  1.00  0.00     0.037 A 
ATOM     48  C   UNL A   1      39.745  31.157  34.424  1.00  0.00     0.037 A 
ATOM     49  C   UNL A   1      43.048  27.302  30.325  1.00  0.00     0.049 A 
ATOM     50  C   UNL A   1      41.015  30.360  34.553  1.00  0.00     0.074 A 
ATOM     51  C   UNL A   1      44.256  26.663  30.544  1.00  0.00     0.029 A 
ATOM     52  N   UNL A   1      42.730  27.969  31.499  1.00  0.00    -0.354 N 
ATOM     53  N   UNL A   1      41.620  29.618  33.659  1.00  0.00    -0.248 NA
ATOM     54  C   UNL A   1      41.689  30.397  35.858  1.00  0.00     0.031 C 
ATOM     55  C   UNL A   1      44.652  26.914  31.863  1.00  0.00     0.029 A 
ATOM     56  C   UNL A   1      43.710  27.742  32.452  1.00  0.00     0.049 A 
ATOM     57  H   UNL A   1      41.928  28.523  31.635  1.00  0.00     0.167 HD
ATOM     58  C   UNL A   1      42.752  29.115  34.284  1.00  0.00     0.074 A 
ATOM     59  C   UNL A   1      42.759  29.647  35.630  1.00  0.00     0.031 C 
ATOM     60  C   UNL A   1      43.701  28.284  33.787  1.00  0.00     0.037 A 
BRANCH  47  61
ATOM     61  C   UNL A   1      42.699  26.500  27.960  1.00  0.00     0.064 A 
ATOM     62  C   UNL A   1      43.540  27.042  26.978  1.00  0.00     0.173 A 
ATOM     63  C   UNL A   1      42.321  25.155  27.836  1.00  0.00     0.173 A 
ATOM     64  F   UNL A   1      43.916  28.327  27.046  1.00  0.00    -0.203 F 
ATOM     65  C   UNL A   1      43.971  26.270  25.902  1.00  0.00     0.198 A 
ATOM     66  C   UNL A   1      42.773  24.380  26.770  1.00  0.00     0.198 A 
ATOM     67  F   UNL A   1      41.520  24.589  28.751  1.00  0.00    -0.203 F 
ATOM     68  F   UNL A   1      44.743  26.818  24.953  1.00  0.00    -0.200 F 
ATOM     69  C   UNL A   1      43.592  24.939  25.802  1.00  0.00     0.200 A 
ATOM     70  F   UNL A   1      42.413  23.092  26.681  1.00  0.00    -0.200 F 
ATOM     71  F   UNL A   1      44.012  24.197  24.768  1.00  0.00    -0.200 F 
ENDBRANCH  47  61
BRANCH  48  72
ATOM     72  C   UNL A   1      39.220  31.944  35.567  1.00  0.00     0.064 A 
ATOM     73  C   UNL A   1      38.372  31.361  36.517  1.00  0.00     0.173 A 
ATOM     74  C   UNL A   1      39.555  33.296  35.732  1.00  0.00     0.173 A 
ATOM     75  F   UNL A   1      38.003  30.078  36.386  1.00  0.00    -0.203 F 
ATOM     76  C   UNL A   1      37.868  32.102  37.584  1.00  0.00     0.198 A 
ATOM     77  C   UNL A   1      39.073  34.031  36.814  1.00  0.00     0.198 A 
ATOM     78  F   UNL A   1      40.362  33.902  34.849  1.00  0.00    -0.203 F 
ATOM     79  F   UNL A   1      37.029  31.530  38.457  1.00  0.00    -0.200 F 
ATOM     80  C   UNL A   1      38.226  33.434  37.735  1.00  0.00     0.200 A 
ATOM     81  F   UNL A   1      39.428  35.314  36.962  1.00  0.00    -0.200 F 
ATOM     82  F   UNL A   1      37.746  34.145  38.765  1.00  0.00    -0.200 F 
ENDBRANCH  48  72
BRANCH  60  83
ATOM     83  C   UNL A   1      44.838  27.921  34.695  1.00  0.00     0.064 A 
ATOM     84  C   UNL A   1      44.795  26.772  35.497  1.00  0.00     0.173 A 
ATOM     85  C   UNL A   1      45.994  28.715  34.738  1.00  0.00     0.173 A 
ATOM     86  F   UNL A   1      43.704  25.992  35.503  1.00  0.00    -0.203 F 
ATOM     87  C   UNL A   1      45.865  26.439  36.325  1.00  0.00     0.198 A 
ATOM     88  C   UNL A   1      47.071  28.365  35.547  1.00  0.00     0.198 A 
ATOM     89  F   UNL A   1      46.083  29.821  33.985  1.00  0.00    -0.203 F 
ATOM     90  F   UNL A   1      45.789  25.358  37.112  1.00  0.00    -0.200 F 
ATOM     91  C   UNL A   1      47.004  27.231  36.344  1.00  0.00     0.200 A 
ATOM     92  F   UNL A   1      48.174  29.127  35.559  1.00  0.00    -0.200 F 
ATOM     93  F   UNL A   1      48.033  26.908  37.138  1.00  0.00    -0.200 F 
ENDBRANCH  60  83
ENDBRANCH  34  35
ENDBRANCH  27  29
ENDBRANCH  26  27
ENDBRANCH   1  26
TORSDOF 12
ENDMDL
MODEL 3
REMARK VINA RESULT:     -12.7      1.975      3.190
REMARK SMILES Cc1nc2ccc(Cl)cc2cc1C(=O)N1CCC(C(=O)OCCOC(=O)c2ccc(-c3c4nc(c(-c5c(F)c(F)c(F)c(F)c5F)c5ccc([nH]5)c(-c5c(F)c(F)c(F)c(F)c5F)c5nc(c(-c6c(F)c(F)c(F)c(F)c6F)c6ccc3[nH]6)C=C5)C=C4)cc2)CC1
REMARK SMILES IDX 23 1 22 2 21 3 19 4 20 5 18 6 13 7 14 8 15 9 16 10 91 11
REMARK SMILES IDX 17 12 90 13 12 14 1 15 2 16 3 17 4 18 11 19 5 20 10 21 6 22
REMARK SMILES IDX 9 23 7 24 8 25 24 26 25 27 26 28 27 29 28 30 89 31 29 32
REMARK SMILES IDX 88 33 30 34 31 35 32 36 82 37 33 38 87 39 81 40 83 41 34 42
REMARK SMILES IDX 86 43 80 44 79 45 35 47 67 48 47 49 66 50 48 51 51 52 65 53
REMARK SMILES IDX 84 54 49 55 50 56 64 58 85 59 52 60 36 61 37 62 45 63 38 64
REMARK SMILES IDX 39 65 43 66 46 67 40 68 41 69 44 70 42 71 68 72 69 73 77 74
REMARK SMILES IDX 70 75 71 76 75 77 78 78 72 79 73 80 76 81 74 82 53 83 54 84
REMARK SMILES IDX 62 85 55 86 56 87 60 88 63 89 57 90 58 91 61 92 59 93
REMARK H PARENT 83 46 51 57
REMARK Flexibility Score: inf
ROOT
ATOM      1  C   UNL A   1      31.848  30.151  25.461  1.00  0.00     0.275 C 
ENDROOT
BRANCH   1   2
ATOM      2  C   UNL A   1      31.771  29.171  24.287  1.00  0.00     0.274 C 
BRANCH   2   3
ATOM      3  O   UNL A   1      30.469  29.208  23.674  1.00  0.00    -0.462 OA
BRANCH   3   4
ATOM      4  C   UNL A   1      29.782  28.041  23.627  1.00  0.00     0.309 C 
ATOM      5  O   UNL A   1      28.680  27.892  23.113  1.00  0.00    -0.252 OA
BRANCH   4   6
ATOM      6  C   UNL A   1      30.542  26.885  24.249  1.00  0.00     0.103 C 
ATOM      7  C   UNL A   1      31.821  22.944  25.281  1.00  0.00     0.255 C 
ATOM      8  O   UNL A   1      31.059  22.203  25.896  1.00  0.00    -0.269 OA
ATOM      9  N   UNL A   1      31.488  24.256  24.929  1.00  0.00    -0.339 N 
ATOM     10  C   UNL A   1      30.612  24.973  25.852  1.00  0.00     0.120 C 
ATOM     11  C   UNL A   1      32.166  25.027  23.881  1.00  0.00     0.120 C 
ATOM     12  C   UNL A   1      29.714  25.988  25.167  1.00  0.00     0.037 C 
ATOM     13  C   UNL A   1      31.231  26.023  23.194  1.00  0.00     0.037 C 
BRANCH   7  14
ATOM     14  C   UNL A   1      33.207  22.475  25.053  1.00  0.00     0.061 A 
ATOM     15  C   UNL A   1      32.434  20.267  24.071  1.00  0.00     0.067 C 
ATOM     16  C   UNL A   1      33.499  21.211  24.548  1.00  0.00     0.051 A 
ATOM     17  N   UNL A   1      34.774  20.725  24.509  1.00  0.00    -0.252 NA
ATOM     18  C   UNL A   1      35.781  21.476  24.989  1.00  0.00     0.071 A 
ATOM     19  C   UNL A   1      34.261  23.252  25.543  1.00  0.00     0.026 A 
ATOM     20  C   UNL A   1      37.074  20.971  25.009  1.00  0.00     0.030 A 
ATOM     21  C   UNL A   1      35.570  22.769  25.506  1.00  0.00     0.002 A 
ATOM     22  C   UNL A   1      38.149  21.718  25.507  1.00  0.00     0.023 A 
ATOM     23  C   UNL A   1      36.643  23.532  25.996  1.00  0.00     0.030 A 
ATOM     24  C   UNL A   1      37.928  23.001  25.992  1.00  0.00     0.041 A 
ATOM     25  Cl  UNL A   1      39.241  23.935  26.592  1.00  0.00    -0.084 Cl
ENDBRANCH   7  14
ENDBRANCH   4   6
ENDBRANCH   3   4
ENDBRANCH   2   3
ENDBRANCH   1   2
BRANCH   1  26
ATOM     26  O   UNL A   1      33.117  30.063  26.139  1.00  0.00    -0.458 OA
BRANCH  26  27
ATOM     27  C   UNL A   1      33.406  31.100  26.958  1.00  0.00     0.338 C 
ATOM     28  O   UNL A   1      32.697  32.050  27.239  1.00  0.00    -0.246 OA
BRANCH  27  29
ATOM     29  C   UNL A   1      34.712  30.879  27.596  1.00  0.00     0.060 A 
ATOM     30  C   UNL A   1      35.039  29.577  27.984  1.00  0.00     0.016 A 
ATOM     31  C   UNL A   1      35.557  31.945  27.905  1.00  0.00     0.016 A 
ATOM     32  C   UNL A   1      36.215  29.332  28.688  1.00  0.00     0.010 A 
ATOM     33  C   UNL A   1      36.739  31.697  28.610  1.00  0.00     0.010 A 
ATOM     34  C   UNL A   1      37.069  30.392  29.015  1.00  0.00    -0.014 A 
BRANCH  34  35
ATOM     35  C   UNL A   1      38.283  30.132  29.827  1.00  0.00     0.031 A 
ATOM     36  C   UNL A   1      39.384  29.276  29.273  1.00  0.00     0.074 A 
ATOM     37  C   UNL A   1      38.403  30.683  31.047  1.00  0.00     0.049 A 
ATOM     38  N   UNL A   1      40.482  28.862  29.851  1.00  0.00    -0.248 NA
ATOM     39  C   UNL A   1      39.229  28.826  27.881  1.00  0.00     0.031 C 
ATOM     40  C   UNL A   1      37.422  31.571  31.671  1.00  0.00     0.029 A 
ATOM     41  N   UNL A   1      39.401  30.574  31.982  1.00  0.00    -0.354 N 
ATOM     42  C   UNL A   1      41.139  28.087  28.906  1.00  0.00     0.074 A 
ATOM     43  C   UNL A   1      40.311  28.078  27.718  1.00  0.00     0.031 C 
ATOM     44  C   UNL A   1      37.867  31.925  32.888  1.00  0.00     0.029 A 
ATOM     45  C   UNL A   1      39.138  31.254  33.146  1.00  0.00     0.049 A 
ATOM     46  H   UNL A   1      40.226  30.059  31.833  1.00  0.00     0.167 HD
ATOM     47  C   UNL A   1      42.325  27.444  29.021  1.00  0.00     0.037 A 
ATOM     48  C   UNL A   1      39.831  31.304  34.299  1.00  0.00     0.037 A 
ATOM     49  C   UNL A   1      43.153  27.468  30.198  1.00  0.00     0.049 A 
ATOM     50  C   UNL A   1      41.118  30.534  34.419  1.00  0.00     0.074 A 
ATOM     51  C   UNL A   1      44.378  26.857  30.407  1.00  0.00     0.029 A 
ATOM     52  N   UNL A   1      42.839  28.143  31.368  1.00  0.00    -0.354 N 
ATOM     53  N   UNL A   1      41.726  29.794  33.524  1.00  0.00    -0.248 NA
ATOM     54  C   UNL A   1      41.811  30.602  35.713  1.00  0.00     0.031 C 
ATOM     55  C   UNL A   1      44.788  27.132  31.716  1.00  0.00     0.029 A 
ATOM     56  C   UNL A   1      43.837  27.948  32.310  1.00  0.00     0.049 A 
ATOM     57  H   UNL A   1      42.027  28.682  31.510  1.00  0.00     0.167 HD
ATOM     58  C   UNL A   1      42.877  29.322  34.139  1.00  0.00     0.074 A 
ATOM     59  C   UNL A   1      42.893  29.871  35.478  1.00  0.00     0.031 C 
ATOM     60  C   UNL A   1      43.836  28.505  33.637  1.00  0.00     0.037 A 
BRANCH  47  61
ATOM     61  C   UNL A   1      42.787  26.631  27.848  1.00  0.00     0.064 A 
ATOM     62  C   UNL A   1      42.420  25.286  27.693  1.00  0.00     0.173 A 
ATOM     63  C   UNL A   1      43.580  27.218  26.850  1.00  0.00     0.173 A 
ATOM     64  F   UNL A   1      41.676  24.677  28.628  1.00  0.00    -0.203 F 
ATOM     65  C   UNL A   1      42.847  24.553  26.589  1.00  0.00     0.198 A 
ATOM     66  C   UNL A   1      43.985  26.487  25.736  1.00  0.00     0.198 A 
ATOM     67  F   UNL A   1      43.955  28.501  26.952  1.00  0.00    -0.203 F 
ATOM     68  F   UNL A   1      42.517  23.258  26.479  1.00  0.00    -0.200 F 
ATOM     69  C   UNL A   1      43.623  25.155  25.609  1.00  0.00     0.200 A 
ATOM     70  F   UNL A   1      44.727  27.073  24.786  1.00  0.00    -0.200 F 
ATOM     71  F   UNL A   1      44.029  24.448  24.545  1.00  0.00    -0.200 F 
ENDBRANCH  47  61
BRANCH  48  72
ATOM     72  C   UNL A   1      39.306  32.093  35.441  1.00  0.00     0.064 A 
ATOM     73  C   UNL A   1      39.624  33.449  35.588  1.00  0.00     0.173 A 
ATOM     74  C   UNL A   1      38.477  31.506  36.409  1.00  0.00     0.173 A 
ATOM     75  F   UNL A   1      40.434  34.046  34.702  1.00  0.00    -0.203 F 
ATOM     76  C   UNL A   1      39.142  34.188  36.667  1.00  0.00     0.198 A 
ATOM     77  C   UNL A   1      37.974  32.252  37.473  1.00  0.00     0.198 A 
ATOM     78  F   UNL A   1      38.145  30.211  36.313  1.00  0.00    -0.203 F 
ATOM     79  F   UNL A   1      39.492  35.473  36.805  1.00  0.00    -0.200 F 
ATOM     80  C   UNL A   1      38.311  33.590  37.603  1.00  0.00     0.200 A 
ATOM     81  F   UNL A   1      37.163  31.673  38.370  1.00  0.00    -0.200 F 
ATOM     82  F   UNL A   1      37.842  34.303  38.637  1.00  0.00    -0.200 F 
ENDBRANCH  48  72
BRANCH  60  83
ATOM     83  C   UNL A   1      44.993  28.177  34.533  1.00  0.00     0.064 A 
ATOM     84  C   UNL A   1      46.130  28.996  34.590  1.00  0.00     0.173 A 
ATOM     85  C   UNL A   1      44.948  27.051  35.368  1.00  0.00     0.173 A 
ATOM     86  F   UNL A   1      46.226  30.074  33.798  1.00  0.00    -0.203 F 
ATOM     87  C   UNL A   1      47.191  28.688  35.439  1.00  0.00     0.198 A 
ATOM     88  C   UNL A   1      45.999  26.759  36.233  1.00  0.00     0.198 A 
ATOM     89  F   UNL A   1      43.880  26.240  35.353  1.00  0.00    -0.203 F 
ATOM     90  F   UNL A   1      48.284  29.461  35.449  1.00  0.00    -0.200 F 
ATOM     91  C   UNL A   1      47.122  27.574  36.263  1.00  0.00     0.200 A 
ATOM     92  F   UNL A   1      45.928  25.688  37.036  1.00  0.00    -0.200 F 
ATOM     93  F   UNL A   1      48.141  27.281  37.082  1.00  0.00    -0.200 F 
ENDBRANCH  60  83
ENDBRANCH  34  35
ENDBRANCH  27  29
ENDBRANCH  26  27
ENDBRANCH   1  26
TORSDOF 12
ENDMDL
