MODEL 1
REMARK VINA RESULT:     -12.3      0.000      0.000
REMARK SMILES O=C(OCCOC(=O)[C@H]1CCCN(C(=O)C2CC[NH+](Cc3ccco3)CC2)C1)c1ccc(-c2c3nc(c(-c4c(F)c(F)c(F)c(F)c4F)c4ccc([nH]4)c(-c4c(F)c(F)c(F)c(F)c4F)c4nc(c(-c5c(F)c(F)c(F)c(F)c5F)c5ccc2[nH]5)C=C4)C=C3)cc1
REMARK SMILES IDX 5 1 4 2 3 3 2 4 1 5 29 6 30 7 91 8 31 9 90 10 32 11 33 12
REMARK SMILES IDX 34 13 84 14 35 15 89 16 83 17 85 18 36 19 88 20 82 21 81 22
REMARK SMILES IDX 37 24 69 25 49 26 68 27 50 28 53 29 67 30 86 31 51 32 52 33
REMARK SMILES IDX 66 35 87 36 54 37 38 38 39 39 47 40 40 41 41 42 45 43 48 44
REMARK SMILES IDX 42 45 43 46 46 47 44 48 70 49 71 50 79 51 72 52 73 53 77 54
REMARK SMILES IDX 80 55 74 56 75 57 78 58 76 59 55 60 56 61 64 62 57 63 58 64
REMARK SMILES IDX 62 65 65 66 59 67 60 68 63 69 61 70 6 71 7 72 8 73 9 74
REMARK SMILES IDX 10 75 28 76 11 77 13 78 12 79 14 80 15 81 16 82 17 83 27 84
REMARK SMILES IDX 18 85 26 86 19 87 20 89 21 90 22 91 25 92 23 93 24 94
REMARK H PARENT 85 23 53 34 19 88
REMARK Flexibility Score: inf
ROOT
ATOM      1  C   UNL A   1      31.623  31.098  26.222  1.00  0.00     0.274 C 
ENDROOT
BRANCH   1   2
ATOM      2  C   UNL A   1      31.354  32.499  26.770  1.00  0.00     0.275 C 
BRANCH   2   3
ATOM      3  O   UNL A   1      32.535  33.315  26.908  1.00  0.00    -0.458 OA
BRANCH   3   4
ATOM      4  C   UNL A   1      33.223  33.730  27.998  1.00  0.00     0.338 C 
ATOM      5  O   UNL A   1      32.842  34.757  28.559  1.00  0.00    -0.246 OA
BRANCH   4   6
ATOM      6  C   UNL A   1      34.488  33.106  28.520  1.00  0.00     0.060 A 
ATOM      7  C   UNL A   1      35.773  33.228  27.980  1.00  0.00     0.016 A 
ATOM      8  C   UNL A   1      34.354  32.330  29.692  1.00  0.00     0.016 A 
ATOM      9  C   UNL A   1      36.895  32.669  28.624  1.00  0.00     0.010 A 
ATOM     10  C   UNL A   1      35.469  31.779  30.338  1.00  0.00     0.010 A 
ATOM     11  C   UNL A   1      36.759  31.959  29.819  1.00  0.00    -0.014 A 
BRANCH  11  12
ATOM     12  C   UNL A   1      37.911  31.260  30.448  1.00  0.00     0.031 A 
ATOM     13  C   UNL A   1      38.376  31.752  31.785  1.00  0.00     0.074 A 
ATOM     14  C   UNL A   1      38.529  30.195  29.895  1.00  0.00     0.049 A 
ATOM     15  N   UNL A   1      39.340  31.298  32.541  1.00  0.00    -0.248 NA
ATOM     16  C   UNL A   1      37.621  32.872  32.372  1.00  0.00     0.031 C 
ATOM     17  C   UNL A   1      38.111  29.496  28.685  1.00  0.00     0.029 A 
ATOM     18  N   UNL A   1      39.671  29.520  30.276  1.00  0.00    -0.354 N 
ATOM     19  C   UNL A   1      39.239  32.006  33.726  1.00  0.00     0.074 A 
ATOM     20  C   UNL A   1      38.218  33.014  33.543  1.00  0.00     0.031 C 
ATOM     21  C   UNL A   1      39.025  28.557  28.379  1.00  0.00     0.029 A 
ATOM     22  C   UNL A   1      40.104  28.600  29.348  1.00  0.00     0.049 A 
ATOM     23  H   UNL A   1      40.133  29.683  31.129  1.00  0.00     0.167 HD
ATOM     24  C   UNL A   1      39.884  31.779  34.892  1.00  0.00     0.037 A 
ATOM     25  C   UNL A   1      41.250  27.893  29.272  1.00  0.00     0.037 A 
ATOM     26  C   UNL A   1      40.938  30.821  35.054  1.00  0.00     0.049 A 
ATOM     27  C   UNL A   1      42.171  27.905  30.451  1.00  0.00     0.074 A 
ATOM     28  C   UNL A   1      41.665  30.519  36.190  1.00  0.00     0.029 A 
ATOM     29  N   UNL A   1      41.445  30.033  34.030  1.00  0.00    -0.354 N 
ATOM     30  N   UNL A   1      42.037  28.542  31.585  1.00  0.00    -0.248 NA
ATOM     31  C   UNL A   1      43.353  27.037  30.373  1.00  0.00     0.031 C 
ATOM     32  C   UNL A   1      42.661  29.601  35.836  1.00  0.00     0.029 A 
ATOM     33  C   UNL A   1      42.514  29.284  34.495  1.00  0.00     0.049 A 
ATOM     34  H   UNL A   1      41.097  30.010  33.110  1.00  0.00     0.167 HD
ATOM     35  C   UNL A   1      43.063  28.084  32.394  1.00  0.00     0.074 A 
ATOM     36  C   UNL A   1      43.844  27.156  31.598  1.00  0.00     0.031 C 
ATOM     37  C   UNL A   1      43.292  28.370  33.697  1.00  0.00     0.037 A 
BRANCH  24  38
ATOM     38  C   UNL A   1      39.437  32.603  36.060  1.00  0.00     0.064 A 
ATOM     39  C   UNL A   1      40.041  33.838  36.350  1.00  0.00     0.173 A 
ATOM     40  C   UNL A   1      38.449  32.130  36.932  1.00  0.00     0.173 A 
ATOM     41  F   UNL A   1      41.012  34.318  35.558  1.00  0.00    -0.203 F 
ATOM     42  C   UNL A   1      39.701  34.549  37.497  1.00  0.00     0.198 A 
ATOM     43  C   UNL A   1      38.092  32.857  38.063  1.00  0.00     0.198 A 
ATOM     44  F   UNL A   1      37.852  30.951  36.702  1.00  0.00    -0.203 F 
ATOM     45  F   UNL A   1      40.343  35.687  37.794  1.00  0.00    -0.200 F 
ATOM     46  C   UNL A   1      38.727  34.058  38.352  1.00  0.00     0.200 A 
ATOM     47  F   UNL A   1      37.150  32.384  38.891  1.00  0.00    -0.200 F 
ATOM     48  F   UNL A   1      38.411  34.731  39.466  1.00  0.00    -0.200 F 
ENDBRANCH  24  38
BRANCH  25  49
ATOM     49  C   UNL A   1      41.624  27.127  28.054  1.00  0.00     0.064 A 
ATOM     50  C   UNL A   1      42.335  27.696  26.993  1.00  0.00     0.173 A 
ATOM     51  C   UNL A   1      41.174  25.809  27.894  1.00  0.00     0.173 A 
ATOM     52  F   UNL A   1      42.704  28.983  27.050  1.00  0.00    -0.203 F 
ATOM     53  C   UNL A   1      42.616  26.961  25.838  1.00  0.00     0.198 A 
ATOM     54  C   UNL A   1      41.488  25.061  26.760  1.00  0.00     0.198 A 
ATOM     55  F   UNL A   1      40.369  25.269  28.820  1.00  0.00    -0.203 F 
ATOM     56  F   UNL A   1      43.253  27.544  24.812  1.00  0.00    -0.200 F 
ATOM     57  C   UNL A   1      42.211  25.637  25.731  1.00  0.00     0.200 A 
ATOM     58  F   UNL A   1      41.066  23.793  26.655  1.00  0.00    -0.200 F 
ATOM     59  F   UNL A   1      42.485  24.933  24.624  1.00  0.00    -0.200 F 
ENDBRANCH  25  49
BRANCH  37  60
ATOM     60  C   UNL A   1      44.394  27.615  34.372  1.00  0.00     0.064 A 
ATOM     61  C   UNL A   1      45.694  28.126  34.470  1.00  0.00     0.173 A 
ATOM     62  C   UNL A   1      44.127  26.367  34.955  1.00  0.00     0.173 A 
ATOM     63  F   UNL A   1      46.003  29.301  33.900  1.00  0.00    -0.203 F 
ATOM     64  C   UNL A   1      46.694  27.406  35.116  1.00  0.00     0.198 A 
ATOM     65  C   UNL A   1      45.119  25.667  35.631  1.00  0.00     0.198 A 
ATOM     66  F   UNL A   1      42.899  25.832  34.879  1.00  0.00    -0.203 F 
ATOM     67  F   UNL A   1      47.943  27.887  35.155  1.00  0.00    -0.200 F 
ATOM     68  C   UNL A   1      46.403  26.183  35.706  1.00  0.00     0.200 A 
ATOM     69  F   UNL A   1      44.832  24.492  36.209  1.00  0.00    -0.200 F 
ATOM     70  F   UNL A   1      47.365  25.498  36.340  1.00  0.00    -0.200 F 
ENDBRANCH  37  60
ENDBRANCH  11  12
ENDBRANCH   4   6
ENDBRANCH   3   4
ENDBRANCH   2   3
ENDBRANCH   1   2
BRANCH   1  71
ATOM     71  O   UNL A   1      32.191  30.273  27.236  1.00  0.00    -0.462 OA
BRANCH  71  72
ATOM     72  C   UNL A   1      33.310  29.537  26.940  1.00  0.00     0.310 C 
ATOM     73  O   UNL A   1      34.433  29.775  27.337  1.00  0.00    -0.252 OA
BRANCH  72  74
ATOM     74  C   UNL A   1      32.890  28.337  26.102  1.00  0.00     0.119 C 
ATOM     75  C   UNL A   1      34.164  27.516  25.809  1.00  0.00     0.019 C 
ATOM     76  C   UNL A   1      31.739  27.497  26.727  1.00  0.00     0.134 C 
ATOM     77  C   UNL A   1      33.816  26.234  25.115  1.00  0.00     0.022 C 
ATOM     78  N   UNL A   1      31.672  26.128  26.155  1.00  0.00    -0.342 N 
ATOM     79  C   UNL A   1      32.948  25.512  26.094  1.00  0.00     0.119 C 
BRANCH  78  80
ATOM     80  C   UNL A   1      30.508  25.469  25.808  1.00  0.00     0.226 C 
ATOM     81  O   UNL A   1      29.904  24.809  26.663  1.00  0.00    -0.275 OA
BRANCH  80  82
ATOM     82  C   UNL A   1      29.913  25.500  24.343  1.00  0.00     0.090 C 
ATOM     83  C   UNL A   1      30.911  25.608  23.190  1.00  0.00     0.075 C 
ATOM     84  C   UNL A   1      28.673  26.347  24.026  1.00  0.00     0.075 C 
ATOM     85  C   UNL A   1      31.296  27.035  22.820  1.00  0.00     0.263 C 
ATOM     86  C   UNL A   1      28.902  27.708  23.328  1.00  0.00     0.263 C 
ATOM     87  N   UNL A   1      30.208  27.992  22.727  1.00  0.00    -0.329 N 
ATOM     88  H   UNL A   1      29.961  27.759  21.764  1.00  0.00     0.348 HD
BRANCH  87  89
ATOM     89  C   UNL A   1      30.592  29.422  22.707  1.00  0.00     0.338 C 
BRANCH  89  90
ATOM     90  C   UNL A   1      29.503  30.471  22.622  1.00  0.00     0.157 A 
ATOM     91  C   UNL A   1      28.898  31.330  23.523  1.00  0.00     0.052 A 
ATOM     92  O   UNL A   1      28.953  30.688  21.388  1.00  0.00    -0.463 OA
ATOM     93  C   UNL A   1      27.892  32.043  22.818  1.00  0.00     0.042 A 
ATOM     94  C   UNL A   1      27.984  31.634  21.514  1.00  0.00     0.195 A 
ENDBRANCH  89  90
ENDBRANCH  87  89
ENDBRANCH  80  82
ENDBRANCH  78  80
ENDBRANCH  72  74
ENDBRANCH  71  72
ENDBRANCH   1  71
TORSDOF 15
ENDMDL
MODEL 2
REMARK VINA RESULT:     -12.2      5.620     10.973
REMARK SMILES O=C(OCCOC(=O)[C@H]1CCCN(C(=O)C2CC[NH+](Cc3ccco3)CC2)C1)c1ccc(-c2c3nc(c(-c4c(F)c(F)c(F)c(F)c4F)c4ccc([nH]4)c(-c4c(F)c(F)c(F)c(F)c4F)c4nc(c(-c5c(F)c(F)c(F)c(F)c5F)c5ccc2[nH]5)C=C4)C=C3)cc1
REMARK SMILES IDX 5 1 4 2 3 3 2 4 1 5 29 6 30 7 91 8 31 9 90 10 32 11 33 12
REMARK SMILES IDX 34 13 84 14 35 15 89 16 83 17 85 18 36 19 88 20 82 21 81 22
REMARK SMILES IDX 37 24 69 25 49 26 68 27 50 28 53 29 67 30 86 31 51 32 52 33
REMARK SMILES IDX 66 35 87 36 54 37 38 38 39 39 47 40 40 41 41 42 45 43 48 44
REMARK SMILES IDX 42 45 43 46 46 47 44 48 70 49 71 50 79 51 72 52 73 53 77 54
REMARK SMILES IDX 80 55 74 56 75 57 78 58 76 59 55 60 56 61 64 62 57 63 58 64
REMARK SMILES IDX 62 65 65 66 59 67 60 68 63 69 61 70 6 71 7 72 8 73 9 74
REMARK SMILES IDX 10 75 28 76 11 77 13 78 12 79 14 80 15 81 16 82 17 83 27 84
REMARK SMILES IDX 18 85 26 86 19 87 20 89 21 90 22 91 25 92 23 93 24 94
REMARK H PARENT 85 23 53 34 19 88
REMARK Flexibility Score: inf
ROOT
ATOM      1  C   UNL A   1      38.123  19.864  24.630  1.00  0.00     0.274 C 
ENDROOT
BRANCH   1   2
ATOM      2  C   UNL A   1      38.914  19.203  25.758  1.00  0.00     0.275 C 
BRANCH   2   3
ATOM      3  O   UNL A   1      40.342  19.201  25.554  1.00  0.00    -0.458 OA
BRANCH   3   4
ATOM      4  C   UNL A   1      41.368  19.568  26.357  1.00  0.00     0.338 C 
ATOM      5  O   UNL A   1      42.034  18.675  26.882  1.00  0.00    -0.246 OA
BRANCH   4   6
ATOM      6  C   UNL A   1      41.701  20.980  26.757  1.00  0.00     0.060 A 
ATOM      7  C   UNL A   1      41.994  21.444  28.044  1.00  0.00     0.016 A 
ATOM      8  C   UNL A   1      41.733  21.925  25.709  1.00  0.00     0.016 A 
ATOM      9  C   UNL A   1      42.385  22.778  28.270  1.00  0.00     0.010 A 
ATOM     10  C   UNL A   1      42.128  23.252  25.930  1.00  0.00     0.010 A 
ATOM     11  C   UNL A   1      42.478  23.690  27.215  1.00  0.00    -0.014 A 
BRANCH  11  12
ATOM     12  C   UNL A   1      42.770  25.129  27.450  1.00  0.00     0.031 A 
ATOM     13  C   UNL A   1      44.174  25.599  27.217  1.00  0.00     0.074 A 
ATOM     14  C   UNL A   1      41.836  26.028  27.824  1.00  0.00     0.049 A 
ATOM     15  N   UNL A   1      44.670  26.802  27.331  1.00  0.00    -0.248 NA
ATOM     16  C   UNL A   1      45.136  24.589  26.743  1.00  0.00     0.031 C 
ATOM     17  C   UNL A   1      40.404  25.775  27.943  1.00  0.00     0.029 A 
ATOM     18  N   UNL A   1      41.960  27.350  28.201  1.00  0.00    -0.354 N 
ATOM     19  C   UNL A   1      45.964  26.711  26.848  1.00  0.00     0.074 A 
ATOM     20  C   UNL A   1      46.226  25.316  26.572  1.00  0.00     0.031 C 
ATOM     21  C   UNL A   1      39.803  26.871  28.443  1.00  0.00     0.029 A 
ATOM     22  C   UNL A   1      40.800  27.892  28.705  1.00  0.00     0.049 A 
ATOM     23  H   UNL A   1      42.800  27.856  28.118  1.00  0.00     0.167 HD
ATOM     24  C   UNL A   1      46.828  27.715  26.579  1.00  0.00     0.037 A 
ATOM     25  C   UNL A   1      40.570  29.064  29.331  1.00  0.00     0.037 A 
ATOM     26  C   UNL A   1      46.590  29.091  26.910  1.00  0.00     0.049 A 
ATOM     27  C   UNL A   1      41.662  30.086  29.347  1.00  0.00     0.074 A 
ATOM     28  C   UNL A   1      47.404  30.185  26.691  1.00  0.00     0.029 A 
ATOM     29  N   UNL A   1      45.461  29.553  27.572  1.00  0.00    -0.354 N 
ATOM     30  N   UNL A   1      42.865  30.003  28.841  1.00  0.00    -0.248 NA
ATOM     31  C   UNL A   1      41.337  31.389  29.941  1.00  0.00     0.031 C 
ATOM     32  C   UNL A   1      46.800  31.300  27.285  1.00  0.00     0.029 A 
ATOM     33  C   UNL A   1      45.581  30.911  27.819  1.00  0.00     0.049 A 
ATOM     34  H   UNL A   1      44.689  28.999  27.828  1.00  0.00     0.167 HD
ATOM     35  C   UNL A   1      43.413  31.268  28.970  1.00  0.00     0.074 A 
ATOM     36  C   UNL A   1      42.428  32.085  29.652  1.00  0.00     0.031 C 
ATOM     37  C   UNL A   1      44.603  31.716  28.506  1.00  0.00     0.037 A 
BRANCH  24  38
ATOM     38  C   UNL A   1      48.099  27.322  25.892  1.00  0.00     0.064 A 
ATOM     39  C   UNL A   1      49.252  27.001  26.630  1.00  0.00     0.173 A 
ATOM     40  C   UNL A   1      48.189  27.327  24.495  1.00  0.00     0.173 A 
ATOM     41  F   UNL A   1      49.221  27.010  27.971  1.00  0.00    -0.203 F 
ATOM     42  C   UNL A   1      50.461  26.743  25.990  1.00  0.00     0.198 A 
ATOM     43  C   UNL A   1      49.393  27.041  23.859  1.00  0.00     0.198 A 
ATOM     44  F   UNL A   1      47.118  27.637  23.751  1.00  0.00    -0.203 F 
ATOM     45  F   UNL A   1      51.565  26.515  26.714  1.00  0.00    -0.200 F 
ATOM     46  C   UNL A   1      50.530  26.763  24.606  1.00  0.00     0.200 A 
ATOM     47  F   UNL A   1      49.461  27.060  22.521  1.00  0.00    -0.200 F 
ATOM     48  F   UNL A   1      51.697  26.533  23.990  1.00  0.00    -0.200 F 
ENDBRANCH  24  38
BRANCH  25  49
ATOM     49  C   UNL A   1      39.281  29.354  30.013  1.00  0.00     0.064 A 
ATOM     50  C   UNL A   1      38.233  30.036  29.388  1.00  0.00     0.173 A 
ATOM     51  C   UNL A   1      39.121  29.029  31.367  1.00  0.00     0.173 A 
ATOM     52  F   UNL A   1      38.371  30.458  28.124  1.00  0.00    -0.203 F 
ATOM     53  C   UNL A   1      37.059  30.343  30.081  1.00  0.00     0.198 A 
ATOM     54  C   UNL A   1      37.935  29.298  32.048  1.00  0.00     0.198 A 
ATOM     55  F   UNL A   1      40.149  28.504  32.048  1.00  0.00    -0.203 F 
ATOM     56  F   UNL A   1      36.089  31.044  29.476  1.00  0.00    -0.200 F 
ATOM     57  C   UNL A   1      36.902  29.955  31.405  1.00  0.00     0.200 A 
ATOM     58  F   UNL A   1      37.806  28.946  33.336  1.00  0.00    -0.200 F 
ATOM     59  F   UNL A   1      35.773  30.247  32.066  1.00  0.00    -0.200 F 
ENDBRANCH  25  49
BRANCH  37  60
ATOM     60  C   UNL A   1      44.881  33.179  28.657  1.00  0.00     0.064 A 
ATOM     61  C   UNL A   1      44.459  34.118  27.708  1.00  0.00     0.173 A 
ATOM     62  C   UNL A   1      45.559  33.645  29.794  1.00  0.00     0.173 A 
ATOM     63  F   UNL A   1      43.835  33.715  26.590  1.00  0.00    -0.203 F 
ATOM     64  C   UNL A   1      44.721  35.473  27.883  1.00  0.00     0.198 A 
ATOM     65  C   UNL A   1      45.786  35.003  29.984  1.00  0.00     0.198 A 
ATOM     66  F   UNL A   1      45.990  32.782  30.726  1.00  0.00    -0.203 F 
ATOM     67  F   UNL A   1      44.356  36.350  26.939  1.00  0.00    -0.200 F 
ATOM     68  C   UNL A   1      45.374  35.915  29.026  1.00  0.00     0.200 A 
ATOM     69  F   UNL A   1      46.406  35.426  31.094  1.00  0.00    -0.200 F 
ATOM     70  F   UNL A   1      45.611  37.222  29.199  1.00  0.00    -0.200 F 
ENDBRANCH  37  60
ENDBRANCH  11  12
ENDBRANCH   4   6
ENDBRANCH   3   4
ENDBRANCH   2   3
ENDBRANCH   1   2
BRANCH   1  71
ATOM     71  O   UNL A   1      37.001  20.566  25.161  1.00  0.00    -0.462 OA
BRANCH  71  72
ATOM     72  C   UNL A   1      37.105  21.918  25.368  1.00  0.00     0.310 C 
ATOM     73  O   UNL A   1      38.132  22.511  25.634  1.00  0.00    -0.252 OA
BRANCH  72  74
ATOM     74  C   UNL A   1      35.741  22.549  25.129  1.00  0.00     0.119 C 
ATOM     75  C   UNL A   1      35.656  23.807  26.018  1.00  0.00     0.019 C 
ATOM     76  C   UNL A   1      35.421  22.824  23.631  1.00  0.00     0.134 C 
ATOM     77  C   UNL A   1      34.401  24.574  25.730  1.00  0.00     0.022 C 
ATOM     78  N   UNL A   1      34.339  23.827  23.466  1.00  0.00    -0.342 N 
ATOM     79  C   UNL A   1      34.533  24.962  24.293  1.00  0.00     0.119 C 
BRANCH  78  80
ATOM     80  C   UNL A   1      33.308  23.739  22.550  1.00  0.00     0.226 C 
ATOM     81  O   UNL A   1      33.361  24.405  21.508  1.00  0.00    -0.275 OA
BRANCH  80  82
ATOM     82  C   UNL A   1      32.035  22.830  22.782  1.00  0.00     0.090 C 
ATOM     83  C   UNL A   1      31.417  22.843  24.180  1.00  0.00     0.075 C 
ATOM     84  C   UNL A   1      31.984  21.404  22.215  1.00  0.00     0.075 C 
ATOM     85  C   UNL A   1      32.030  21.840  25.149  1.00  0.00     0.263 C 
ATOM     86  C   UNL A   1      32.265  20.240  23.193  1.00  0.00     0.263 C 
ATOM     87  N   UNL A   1      32.254  20.500  24.635  1.00  0.00    -0.329 N 
ATOM     88  H   UNL A   1      31.305  20.170  24.819  1.00  0.00     0.348 HD
BRANCH  87  89
ATOM     89  C   UNL A   1      33.144  19.629  25.437  1.00  0.00     0.338 C 
BRANCH  89  90
ATOM     90  C   UNL A   1      33.436  18.228  24.940  1.00  0.00     0.157 A 
ATOM     91  C   UNL A   1      34.449  17.643  24.199  1.00  0.00     0.052 A 
ATOM     92  O   UNL A   1      32.539  17.254  25.284  1.00  0.00    -0.463 OA
ATOM     93  C   UNL A   1      34.111  16.274  24.028  1.00  0.00     0.042 A 
ATOM     94  C   UNL A   1      32.951  16.082  24.731  1.00  0.00     0.195 A 
ENDBRANCH  89  90
ENDBRANCH  87  89
ENDBRANCH  80  82
ENDBRANCH  78  80
ENDBRANCH  72  74
ENDBRANCH  71  72
ENDBRANCH   1  71
TORSDOF 15
ENDMDL
MODEL 3
REMARK VINA RESULT:     -12.0      1.226      7.379
REMARK SMILES O=C(OCCOC(=O)[C@H]1CCCN(C(=O)C2CC[NH+](Cc3ccco3)CC2)C1)c1ccc(-c2c3nc(c(-c4c(F)c(F)c(F)c(F)c4F)c4ccc([nH]4)c(-c4c(F)c(F)c(F)c(F)c4F)c4nc(c(-c5c(F)c(F)c(F)c(F)c5F)c5ccc2[nH]5)C=C4)C=C3)cc1
REMARK SMILES IDX 5 1 4 2 3 3 2 4 1 5 29 6 30 7 91 8 31 9 90 10 32 11 33 12
REMARK SMILES IDX 34 13 84 14 35 15 89 16 83 17 85 18 36 19 88 20 82 21 81 22
REMARK SMILES IDX 37 24 69 25 49 26 68 27 50 28 53 29 67 30 86 31 51 32 52 33
REMARK SMILES IDX 66 35 87 36 54 37 38 38 39 39 47 40 40 41 41 42 45 43 48 44
REMARK SMILES IDX 42 45 43 46 46 47 44 48 70 49 71 50 79 51 72 52 73 53 77 54
REMARK SMILES IDX 80 55 74 56 75 57 78 58 76 59 55 60 56 61 64 62 57 63 58 64
REMARK SMILES IDX 62 65 65 66 59 67 60 68 63 69 61 70 6 71 7 72 8 73 9 74
REMARK SMILES IDX 10 75 28 76 11 77 13 78 12 79 14 80 15 81 16 82 17 83 27 84
REMARK SMILES IDX 18 85 26 86 19 87 20 89 21 90 22 91 25 92 23 93 24 94
REMARK H PARENT 85 23 53 34 19 88
REMARK Flexibility Score: inf
ROOT
ATOM      1  C   UNL A   1      31.509  31.737  26.906  1.00  0.00     0.274 C 
ENDROOT
BRANCH   1   2
ATOM      2  C   UNL A   1      32.446  32.940  26.798  1.00  0.00     0.275 C 
BRANCH   2   3
ATOM      3  O   UNL A   1      32.164  33.994  27.741  1.00  0.00    -0.458 OA
BRANCH   3   4
ATOM      4  C   UNL A   1      32.958  34.668  28.605  1.00  0.00     0.338 C 
ATOM      5  O   UNL A   1      32.689  35.848  28.832  1.00  0.00    -0.246 OA
BRANCH   4   6
ATOM      6  C   UNL A   1      34.217  34.132  29.232  1.00  0.00     0.060 A 
ATOM      7  C   UNL A   1      35.524  34.283  28.757  1.00  0.00     0.016 A 
ATOM      8  C   UNL A   1      34.049  33.416  30.436  1.00  0.00     0.016 A 
ATOM      9  C   UNL A   1      36.630  33.812  29.492  1.00  0.00     0.010 A 
ATOM     10  C   UNL A   1      35.147  32.952  31.174  1.00  0.00     0.010 A 
ATOM     11  C   UNL A   1      36.456  33.163  30.717  1.00  0.00    -0.014 A 
BRANCH  11  12
ATOM     12  C   UNL A   1      37.599  32.553  31.447  1.00  0.00     0.031 A 
ATOM     13  C   UNL A   1      38.183  31.289  30.891  1.00  0.00     0.074 A 
ATOM     14  C   UNL A   1      38.152  33.095  32.552  1.00  0.00     0.049 A 
ATOM     15  N   UNL A   1      39.191  30.584  31.331  1.00  0.00    -0.248 NA
ATOM     16  C   UNL A   1      37.585  30.781  29.644  1.00  0.00     0.031 C 
ATOM     17  C   UNL A   1      37.812  34.389  33.133  1.00  0.00     0.029 A 
ATOM     18  N   UNL A   1      39.115  32.602  33.409  1.00  0.00    -0.354 N 
ATOM     19  C   UNL A   1      39.408  29.615  30.366  1.00  0.00     0.074 A 
ATOM     20  C   UNL A   1      38.348  29.732  29.390  1.00  0.00     0.031 C 
ATOM     21  C   UNL A   1      38.486  34.546  34.287  1.00  0.00     0.029 A 
ATOM     22  C   UNL A   1      39.284  33.362  34.545  1.00  0.00     0.049 A 
ATOM     23  H   UNL A   1      39.632  31.785  33.226  1.00  0.00     0.167 HD
ATOM     24  C   UNL A   1      40.449  28.761  30.260  1.00  0.00     0.037 A 
ATOM     25  C   UNL A   1      39.979  33.120  35.675  1.00  0.00     0.037 A 
ATOM     26  C   UNL A   1      41.466  28.605  31.259  1.00  0.00     0.049 A 
ATOM     27  C   UNL A   1      40.904  31.945  35.702  1.00  0.00     0.074 A 
ATOM     28  C   UNL A   1      42.559  27.759  31.256  1.00  0.00     0.029 A 
ATOM     29  N   UNL A   1      41.489  29.288  32.467  1.00  0.00    -0.354 N 
ATOM     30  N   UNL A   1      41.136  31.067  34.761  1.00  0.00    -0.248 NA
ATOM     31  C   UNL A   1      41.724  31.779  36.909  1.00  0.00     0.031 C 
ATOM     32  C   UNL A   1      43.203  27.879  32.493  1.00  0.00     0.029 A 
ATOM     33  C   UNL A   1      42.548  28.844  33.242  1.00  0.00     0.049 A 
ATOM     34  H   UNL A   1      40.848  29.985  32.734  1.00  0.00     0.167 HD
ATOM     35  C   UNL A   1      42.191  30.298  35.220  1.00  0.00     0.074 A 
ATOM     36  C   UNL A   1      42.517  30.780  36.548  1.00  0.00     0.031 C 
ATOM     37  C   UNL A   1      42.862  29.321  34.565  1.00  0.00     0.037 A 
BRANCH  24  38
ATOM     38  C   UNL A   1      40.504  27.945  29.005  1.00  0.00     0.064 A 
ATOM     39  C   UNL A   1      41.231  28.386  27.886  1.00  0.00     0.173 A 
ATOM     40  C   UNL A   1      39.779  26.753  28.894  1.00  0.00     0.173 A 
ATOM     41  F   UNL A   1      41.919  29.537  27.936  1.00  0.00    -0.203 F 
ATOM     42  C   UNL A   1      41.192  27.682  26.686  1.00  0.00     0.198 A 
ATOM     43  C   UNL A   1      39.765  26.037  27.701  1.00  0.00     0.198 A 
ATOM     44  F   UNL A   1      39.063  26.299  29.933  1.00  0.00    -0.203 F 
ATOM     45  F   UNL A   1      41.830  28.160  25.609  1.00  0.00    -0.200 F 
ATOM     46  C   UNL A   1      40.459  26.509  26.595  1.00  0.00     0.200 A 
ATOM     47  F   UNL A   1      39.058  24.903  27.612  1.00  0.00    -0.200 F 
ATOM     48  F   UNL A   1      40.406  25.840  25.435  1.00  0.00    -0.200 F 
ENDBRANCH  24  38
BRANCH  25  49
ATOM     49  C   UNL A   1      39.835  33.971  36.886  1.00  0.00     0.064 A 
ATOM     50  C   UNL A   1      38.973  33.649  37.938  1.00  0.00     0.173 A 
ATOM     51  C   UNL A   1      40.505  35.200  36.957  1.00  0.00     0.173 A 
ATOM     52  F   UNL A   1      38.231  32.534  37.875  1.00  0.00    -0.203 F 
ATOM     53  C   UNL A   1      38.819  34.504  39.032  1.00  0.00     0.198 A 
ATOM     54  C   UNL A   1      40.386  36.035  38.066  1.00  0.00     0.198 A 
ATOM     55  F   UNL A   1      41.232  35.618  35.911  1.00  0.00    -0.203 F 
ATOM     56  F   UNL A   1      37.946  34.199  40.002  1.00  0.00    -0.200 F 
ATOM     57  C   UNL A   1      39.543  35.687  39.106  1.00  0.00     0.200 A 
ATOM     58  F   UNL A   1      41.066  37.190  38.113  1.00  0.00    -0.200 F 
ATOM     59  F   UNL A   1      39.398  36.505  40.158  1.00  0.00    -0.200 F 
ENDBRANCH  25  49
BRANCH  37  60
ATOM     60  C   UNL A   1      44.066  28.752  35.247  1.00  0.00     0.064 A 
ATOM     61  C   UNL A   1      43.990  27.622  36.071  1.00  0.00     0.173 A 
ATOM     62  C   UNL A   1      45.324  29.339  35.042  1.00  0.00     0.173 A 
ATOM     63  F   UNL A   1      42.804  27.047  36.321  1.00  0.00    -0.203 F 
ATOM     64  C   UNL A   1      45.130  27.109  36.681  1.00  0.00     0.198 A 
ATOM     65  C   UNL A   1      46.467  28.802  35.623  1.00  0.00     0.198 A 
ATOM     66  F   UNL A   1      45.445  30.428  34.268  1.00  0.00    -0.203 F 
ATOM     67  F   UNL A   1      45.030  26.060  37.507  1.00  0.00    -0.200 F 
ATOM     68  C   UNL A   1      46.369  27.692  36.447  1.00  0.00     0.200 A 
ATOM     69  F   UNL A   1      47.661  29.360  35.386  1.00  0.00    -0.200 F 
ATOM     70  F   UNL A   1      47.468  27.186  37.024  1.00  0.00    -0.200 F 
ENDBRANCH  37  60
ENDBRANCH  11  12
ENDBRANCH   4   6
ENDBRANCH   3   4
ENDBRANCH   2   3
ENDBRANCH   1   2
BRANCH   1  71
ATOM     71  O   UNL A   1      31.977  30.673  26.081  1.00  0.00    -0.462 OA
BRANCH  71  72
ATOM     72  C   UNL A   1      32.815  29.734  26.626  1.00  0.00     0.310 C 
ATOM     73  O   UNL A   1      33.555  29.918  27.573  1.00  0.00    -0.252 OA
BRANCH  72  74
ATOM     74  C   UNL A   1      32.601  28.414  25.898  1.00  0.00     0.119 C 
ATOM     75  C   UNL A   1      33.982  27.742  25.753  1.00  0.00     0.019 C 
ATOM     76  C   UNL A   1      31.528  27.496  26.551  1.00  0.00     0.134 C 
ATOM     77  C   UNL A   1      33.841  26.365  25.180  1.00  0.00     0.022 C 
ATOM     78  N   UNL A   1      31.667  26.082  26.121  1.00  0.00    -0.342 N 
ATOM     79  C   UNL A   1      33.011  25.634  26.186  1.00  0.00     0.119 C 
BRANCH  78  80
ATOM     80  C   UNL A   1      30.618  25.246  25.789  1.00  0.00     0.226 C 
ATOM     81  O   UNL A   1      30.214  24.419  26.616  1.00  0.00    -0.275 OA
BRANCH  80  82
ATOM     82  C   UNL A   1      29.913  25.281  24.374  1.00  0.00     0.090 C 
ATOM     83  C   UNL A   1      30.822  25.330  23.146  1.00  0.00     0.075 C 
ATOM     84  C   UNL A   1      28.687  26.174  24.138  1.00  0.00     0.075 C 
ATOM     85  C   UNL A   1      31.235  26.735  22.723  1.00  0.00     0.263 C 
ATOM     86  C   UNL A   1      28.917  27.515  23.402  1.00  0.00     0.263 C 
ATOM     87  N   UNL A   1      30.183  27.736  22.697  1.00  0.00    -0.329 N 
ATOM     88  H   UNL A   1      29.852  27.499  21.760  1.00  0.00     0.348 HD
BRANCH  87  89
ATOM     89  C   UNL A   1      30.622  29.148  22.623  1.00  0.00     0.338 C 
BRANCH  89  90
ATOM     90  C   UNL A   1      29.587  30.222  22.360  1.00  0.00     0.157 A 
ATOM     91  C   UNL A   1      29.022  31.241  23.108  1.00  0.00     0.052 A 
ATOM     92  O   UNL A   1      29.057  30.270  21.100  1.00  0.00    -0.463 OA
ATOM     93  C   UNL A   1      28.057  31.883  22.286  1.00  0.00     0.042 A 
ATOM     94  C   UNL A   1      28.137  31.270  21.063  1.00  0.00     0.195 A 
ENDBRANCH  89  90
ENDBRANCH  87  89
ENDBRANCH  80  82
ENDBRANCH  78  80
ENDBRANCH  72  74
ENDBRANCH  71  72
ENDBRANCH   1  71
TORSDOF 15
ENDMDL
