MODEL 1
REMARK VINA RESULT:     -11.8      0.000      0.000
REMARK SMILES CC(=O)NC(C)(C)C(=O)N1C[C@@H](C(=O)OCCOC(=O)c2ccc(-c3c4nc(c(-c5c(F)c(F)c(F)c(F)c5F)c5ccc([nH]5)c(-c5c(F)c(F)c(F)c(F)c5F)c5nc(c(-c6c(F)c(F)c(F)c(F)c6F)c6ccc3[nH]6)C=C5)C=C4)cc2)[C@H](c2ccccc2C)C1
REMARK SMILES IDX 16 1 15 2 13 3 14 4 12 5 10 6 11 7 92 8 84 9 8 10 9 11 5 12
REMARK SMILES IDX 6 13 7 14 4 15 1 16 2 17 3 18 85 20 86 21 90 22 87 23 89 24
REMARK SMILES IDX 91 25 88 26 17 27 18 28 19 29 20 30 21 31 22 32 83 33 23 34
REMARK SMILES IDX 82 35 24 36 25 37 26 38 76 39 27 40 81 41 75 42 77 43 28 44
REMARK SMILES IDX 80 45 74 46 73 47 29 49 61 50 41 51 60 52 42 53 45 54 59 55
REMARK SMILES IDX 78 56 43 57 44 58 58 60 79 61 46 62 30 63 31 64 39 65 32 66
REMARK SMILES IDX 33 67 37 68 40 69 34 70 35 71 38 72 36 73 62 74 63 75 71 76
REMARK SMILES IDX 64 77 65 78 69 79 72 80 66 81 67 82 70 83 68 84 47 85 48 86
REMARK SMILES IDX 56 87 49 88 50 89 54 90 57 91 51 92 52 93 55 94 53 95
REMARK H PARENT 4 19 77 48 45 59
REMARK Flexibility Score: inf
ROOT
ATOM      1  C   UNL A   1      36.905  20.858  24.449  1.00  0.00     0.274 C 
ENDROOT
BRANCH   1   2
ATOM      2  O   UNL A   1      36.992  22.294  24.567  1.00  0.00    -0.462 OA
BRANCH   2   3
ATOM      3  C   UNL A   1      36.339  22.982  23.603  1.00  0.00     0.311 C 
ATOM      4  O   UNL A   1      36.650  22.955  22.416  1.00  0.00    -0.252 OA
BRANCH   3   5
ATOM      5  C   UNL A   1      35.058  23.632  24.088  1.00  0.00     0.128 C 
ATOM      6  N   UNL A   1      32.983  22.672  24.760  1.00  0.00    -0.339 N 
ATOM      7  C   UNL A   1      34.396  22.599  25.005  1.00  0.00     0.135 C 
ATOM      8  C   UNL A   1      32.791  23.111  23.382  1.00  0.00     0.128 C 
ATOM      9  C   UNL A   1      33.976  24.069  23.074  1.00  0.00     0.055 C 
BRANCH   6  10
ATOM     10  C   UNL A   1      31.942  22.180  25.538  1.00  0.00     0.247 C 
ATOM     11  O   UNL A   1      31.393  21.131  25.189  1.00  0.00    -0.272 OA
BRANCH  10  12
ATOM     12  C   UNL A   1      31.426  22.982  26.814  1.00  0.00     0.113 C 
ATOM     13  C   UNL A   1      32.333  22.572  28.000  1.00  0.00     0.045 C 
ATOM     14  C   UNL A   1      29.946  22.713  27.138  1.00  0.00     0.045 C 
BRANCH  12  15
ATOM     15  N   UNL A   1      31.584  24.473  26.773  1.00  0.00    -0.342 N 
ATOM     16  C   UNL A   1      30.332  25.277  24.780  1.00  0.00     0.114 C 
ATOM     17  C   UNL A   1      30.898  25.465  26.151  1.00  0.00     0.217 C 
ATOM     18  O   UNL A   1      30.822  26.552  26.729  1.00  0.00    -0.275 OA
ATOM     19  H   UNL A   1      32.342  24.801  27.308  1.00  0.00     0.164 HD
ENDBRANCH  12  15
ENDBRANCH  10  12
ENDBRANCH   6  10
BRANCH   9  20
ATOM     20  C   UNL A   1      33.649  25.577  23.201  1.00  0.00    -0.039 A 
ATOM     21  C   UNL A   1      33.995  26.302  24.361  1.00  0.00     0.004 A 
ATOM     22  C   UNL A   1      32.990  26.297  22.169  1.00  0.00    -0.048 A 
ATOM     23  C   UNL A   1      33.668  27.654  24.517  1.00  0.00     0.000 A 
ATOM     24  C   UNL A   1      32.685  27.665  22.336  1.00  0.00     0.004 A 
ATOM     25  C   UNL A   1      32.608  25.689  20.850  1.00  0.00     0.044 C 
ATOM     26  C   UNL A   1      33.010  28.336  23.506  1.00  0.00     0.000 A 
ENDBRANCH   9  20
ENDBRANCH   3   5
ENDBRANCH   2   3
ENDBRANCH   1   2
BRANCH   1  27
ATOM     27  C   UNL A   1      38.177  20.199  24.996  1.00  0.00     0.275 C 
BRANCH  27  28
ATOM     28  O   UNL A   1      38.589  20.819  26.235  1.00  0.00    -0.458 OA
BRANCH  28  29
ATOM     29  C   UNL A   1      39.908  20.747  26.529  1.00  0.00     0.338 C 
ATOM     30  O   UNL A   1      40.623  19.762  26.505  1.00  0.00    -0.246 OA
BRANCH  29  31
ATOM     31  C   UNL A   1      40.413  22.077  26.912  1.00  0.00     0.060 A 
ATOM     32  C   UNL A   1      39.978  23.214  26.229  1.00  0.00     0.016 A 
ATOM     33  C   UNL A   1      41.420  22.180  27.869  1.00  0.00     0.016 A 
ATOM     34  C   UNL A   1      40.572  24.451  26.469  1.00  0.00     0.010 A 
ATOM     35  C   UNL A   1      41.980  23.430  28.151  1.00  0.00     0.010 A 
ATOM     36  C   UNL A   1      41.574  24.572  27.439  1.00  0.00    -0.014 A 
BRANCH  36  37
ATOM     37  C   UNL A   1      42.199  25.891  27.707  1.00  0.00     0.031 A 
ATOM     38  C   UNL A   1      41.464  26.929  28.503  1.00  0.00     0.074 A 
ATOM     39  C   UNL A   1      43.428  26.153  27.226  1.00  0.00     0.049 A 
ATOM     40  N   UNL A   1      41.783  28.178  28.730  1.00  0.00    -0.248 NA
ATOM     41  C   UNL A   1      40.201  26.508  29.128  1.00  0.00     0.031 C 
ATOM     42  C   UNL A   1      44.258  25.211  26.474  1.00  0.00     0.029 A 
ATOM     43  N   UNL A   1      44.191  27.291  27.292  1.00  0.00    -0.354 N 
ATOM     44  C   UNL A   1      40.750  28.701  29.496  1.00  0.00     0.074 A 
ATOM     45  C   UNL A   1      39.790  27.635  29.693  1.00  0.00     0.031 C 
ATOM     46  C   UNL A   1      45.414  25.809  26.149  1.00  0.00     0.029 A 
ATOM     47  C   UNL A   1      45.384  27.190  26.620  1.00  0.00     0.049 A 
ATOM     48  H   UNL A   1      43.910  28.102  27.775  1.00  0.00     0.167 HD
ATOM     49  C   UNL A   1      40.617  29.957  29.985  1.00  0.00     0.037 A 
ATOM     50  C   UNL A   1      46.329  28.118  26.378  1.00  0.00     0.037 A 
ATOM     51  C   UNL A   1      41.585  31.007  29.803  1.00  0.00     0.049 A 
ATOM     52  C   UNL A   1      46.137  29.516  26.895  1.00  0.00     0.074 A 
ATOM     53  C   UNL A   1      41.546  32.310  30.269  1.00  0.00     0.029 A 
ATOM     54  N   UNL A   1      42.773  30.871  29.099  1.00  0.00    -0.354 N 
ATOM     55  N   UNL A   1      45.144  30.007  27.596  1.00  0.00    -0.248 NA
ATOM     56  C   UNL A   1      47.190  30.489  26.578  1.00  0.00     0.031 C 
ATOM     57  C   UNL A   1      42.695  32.972  29.820  1.00  0.00     0.029 A 
ATOM     58  C   UNL A   1      43.466  32.071  29.104  1.00  0.00     0.049 A 
ATOM     59  H   UNL A   1      43.077  30.044  28.660  1.00  0.00     0.167 HD
ATOM     60  C   UNL A   1      45.455  31.341  27.813  1.00  0.00     0.074 A 
ATOM     61  C   UNL A   1      46.740  31.579  27.184  1.00  0.00     0.031 C 
ATOM     62  C   UNL A   1      44.741  32.286  28.471  1.00  0.00     0.037 A 
BRANCH  49  63
ATOM     63  C   UNL A   1      39.362  30.275  30.742  1.00  0.00     0.064 A 
ATOM     64  C   UNL A   1      39.250  30.040  32.119  1.00  0.00     0.173 A 
ATOM     65  C   UNL A   1      38.269  30.860  30.083  1.00  0.00     0.173 A 
ATOM     66  F   UNL A   1      40.263  29.471  32.790  1.00  0.00    -0.203 F 
ATOM     67  C   UNL A   1      38.083  30.361  32.806  1.00  0.00     0.198 A 
ATOM     68  C   UNL A   1      37.112  31.200  30.778  1.00  0.00     0.198 A 
ATOM     69  F   UNL A   1      38.328  31.108  28.765  1.00  0.00    -0.203 F 
ATOM     70  F   UNL A   1      37.983  30.094  34.117  1.00  0.00    -0.200 F 
ATOM     71  C   UNL A   1      37.017  30.945  32.137  1.00  0.00     0.200 A 
ATOM     72  F   UNL A   1      36.086  31.771  30.130  1.00  0.00    -0.200 F 
ATOM     73  F   UNL A   1      35.896  31.257  32.802  1.00  0.00    -0.200 F 
ENDBRANCH  49  63
BRANCH  50  74
ATOM     74  C   UNL A   1      47.528  27.753  25.582  1.00  0.00     0.064 A 
ATOM     75  C   UNL A   1      47.500  27.787  24.181  1.00  0.00     0.173 A 
ATOM     76  C   UNL A   1      48.728  27.380  26.205  1.00  0.00     0.173 A 
ATOM     77  F   UNL A   1      46.368  28.115  23.542  1.00  0.00    -0.203 F 
ATOM     78  C   UNL A   1      48.628  27.456  23.433  1.00  0.00     0.198 A 
ATOM     79  C   UNL A   1      49.862  27.074  25.456  1.00  0.00     0.198 A 
ATOM     80  F   UNL A   1      48.803  27.333  27.542  1.00  0.00    -0.203 F 
ATOM     81  F   UNL A   1      48.567  27.466  22.095  1.00  0.00    -0.200 F 
ATOM     82  C   UNL A   1      49.809  27.108  24.071  1.00  0.00     0.200 A 
ATOM     83  F   UNL A   1      51.004  26.749  26.077  1.00  0.00    -0.200 F 
ATOM     84  F   UNL A   1      50.896  26.800  23.351  1.00  0.00    -0.200 F 
ENDBRANCH  50  74
BRANCH  62  85
ATOM     85  C   UNL A   1      45.342  33.656  28.554  1.00  0.00     0.064 A 
ATOM     86  C   UNL A   1      45.049  34.642  27.601  1.00  0.00     0.173 A 
ATOM     87  C   UNL A   1      46.197  33.995  29.614  1.00  0.00     0.173 A 
ATOM     88  F   UNL A   1      44.250  34.358  26.561  1.00  0.00    -0.203 F 
ATOM     89  C   UNL A   1      45.609  35.913  27.694  1.00  0.00     0.198 A 
ATOM     90  C   UNL A   1      46.737  35.273  29.715  1.00  0.00     0.198 A 
ATOM     91  F   UNL A   1      46.504  33.086  30.551  1.00  0.00    -0.203 F 
ATOM     92  F   UNL A   1      45.347  36.829  26.750  1.00  0.00    -0.200 F 
ATOM     93  C   UNL A   1      46.447  36.229  28.753  1.00  0.00     0.200 A 
ATOM     94  F   UNL A   1      47.542  35.580  30.741  1.00  0.00    -0.200 F 
ATOM     95  F   UNL A   1      46.984  37.454  28.841  1.00  0.00    -0.200 F 
ENDBRANCH  62  85
ENDBRANCH  36  37
ENDBRANCH  29  31
ENDBRANCH  28  29
ENDBRANCH  27  28
ENDBRANCH   1  27
TORSDOF 15
ENDMDL
MODEL 2
REMARK VINA RESULT:     -11.7      1.795      3.065
REMARK SMILES CC(=O)NC(C)(C)C(=O)N1C[C@@H](C(=O)OCCOC(=O)c2ccc(-c3c4nc(c(-c5c(F)c(F)c(F)c(F)c5F)c5ccc([nH]5)c(-c5c(F)c(F)c(F)c(F)c5F)c5nc(c(-c6c(F)c(F)c(F)c(F)c6F)c6ccc3[nH]6)C=C5)C=C4)cc2)[C@H](c2ccccc2C)C1
REMARK SMILES IDX 16 1 15 2 13 3 14 4 12 5 10 6 11 7 92 8 84 9 8 10 9 11 5 12
REMARK SMILES IDX 6 13 7 14 4 15 1 16 2 17 3 18 85 20 86 21 90 22 87 23 89 24
REMARK SMILES IDX 91 25 88 26 17 27 18 28 19 29 20 30 21 31 22 32 83 33 23 34
REMARK SMILES IDX 82 35 24 36 25 37 26 38 76 39 27 40 81 41 75 42 77 43 28 44
REMARK SMILES IDX 80 45 74 46 73 47 29 49 61 50 41 51 60 52 42 53 45 54 59 55
REMARK SMILES IDX 78 56 43 57 44 58 58 60 79 61 46 62 30 63 31 64 39 65 32 66
REMARK SMILES IDX 33 67 37 68 40 69 34 70 35 71 38 72 36 73 62 74 63 75 71 76
REMARK SMILES IDX 64 77 65 78 69 79 72 80 66 81 67 82 70 83 68 84 47 85 48 86
REMARK SMILES IDX 56 87 49 88 50 89 54 90 57 91 51 92 52 93 55 94 53 95
REMARK H PARENT 4 19 77 48 45 59
REMARK Flexibility Score: inf
ROOT
ATOM      1  C   UNL A   1      38.687  20.989  25.712  1.00  0.00     0.274 C 
ENDROOT
BRANCH   1   2
ATOM      2  O   UNL A   1      37.545  21.046  24.832  1.00  0.00    -0.462 OA
BRANCH   2   3
ATOM      3  C   UNL A   1      36.792  22.163  24.954  1.00  0.00     0.311 C 
ATOM      4  O   UNL A   1      37.260  23.295  25.045  1.00  0.00    -0.252 OA
BRANCH   3   5
ATOM      5  C   UNL A   1      35.310  21.915  24.762  1.00  0.00     0.128 C 
ATOM      6  N   UNL A   1      33.419  22.837  25.883  1.00  0.00    -0.339 N 
ATOM      7  C   UNL A   1      34.618  23.214  25.189  1.00  0.00     0.135 C 
ATOM      8  C   UNL A   1      33.650  21.532  26.496  1.00  0.00     0.128 C 
ATOM      9  C   UNL A   1      34.605  20.775  25.532  1.00  0.00     0.055 C 
BRANCH   6  10
ATOM     10  C   UNL A   1      32.311  23.618  26.188  1.00  0.00     0.247 C 
ATOM     11  O   UNL A   1      31.947  23.687  27.365  1.00  0.00    -0.272 OA
BRANCH  10  12
ATOM     12  C   UNL A   1      31.493  24.358  25.039  1.00  0.00     0.113 C 
ATOM     13  C   UNL A   1      30.280  25.041  25.718  1.00  0.00     0.045 C 
ATOM     14  C   UNL A   1      31.030  23.408  23.920  1.00  0.00     0.045 C 
BRANCH  12  15
ATOM     15  N   UNL A   1      32.185  25.503  24.359  1.00  0.00    -0.342 N 
ATOM     16  C   UNL A   1      33.176  26.914  26.150  1.00  0.00     0.114 C 
ATOM     17  C   UNL A   1      33.140  26.380  24.754  1.00  0.00     0.217 C 
ATOM     18  O   UNL A   1      33.937  26.776  23.900  1.00  0.00    -0.275 OA
ATOM     19  H   UNL A   1      31.882  25.647  23.434  1.00  0.00     0.164 HD
ENDBRANCH  12  15
ENDBRANCH  10  12
ENDBRANCH   6  10
BRANCH   9  20
ATOM     20  C   UNL A   1      33.911  19.779  24.570  1.00  0.00    -0.039 A 
ATOM     21  C   UNL A   1      32.751  20.145  23.856  1.00  0.00     0.004 A 
ATOM     22  C   UNL A   1      34.400  18.462  24.364  1.00  0.00    -0.048 A 
ATOM     23  C   UNL A   1      32.080  19.247  23.017  1.00  0.00     0.000 A 
ATOM     24  C   UNL A   1      33.722  17.576  23.500  1.00  0.00     0.004 A 
ATOM     25  C   UNL A   1      35.655  17.936  25.001  1.00  0.00     0.044 C 
ATOM     26  C   UNL A   1      32.563  17.960  22.841  1.00  0.00     0.000 A 
ENDBRANCH   9  20
ENDBRANCH   3   5
ENDBRANCH   2   3
ENDBRANCH   1   2
BRANCH   1  27
ATOM     27  C   UNL A   1      39.345  19.606  25.645  1.00  0.00     0.275 C 
BRANCH  27  28
ATOM     28  O   UNL A   1      40.421  19.497  26.603  1.00  0.00    -0.458 OA
BRANCH  28  29
ATOM     29  C   UNL A   1      41.677  19.574  26.103  1.00  0.00     0.338 C 
ATOM     30  O   UNL A   1      42.287  18.716  25.492  1.00  0.00    -0.246 OA
BRANCH  29  31
ATOM     31  C   UNL A   1      42.260  20.892  26.405  1.00  0.00     0.060 A 
ATOM     32  C   UNL A   1      42.515  21.258  27.727  1.00  0.00     0.016 A 
ATOM     33  C   UNL A   1      42.434  21.818  25.378  1.00  0.00     0.016 A 
ATOM     34  C   UNL A   1      42.907  22.559  28.036  1.00  0.00     0.010 A 
ATOM     35  C   UNL A   1      42.880  23.109  25.679  1.00  0.00     0.010 A 
ATOM     36  C   UNL A   1      43.101  23.495  27.013  1.00  0.00    -0.014 A 
BRANCH  36  37
ATOM     37  C   UNL A   1      43.532  24.878  27.337  1.00  0.00     0.031 A 
ATOM     38  C   UNL A   1      42.564  25.847  27.952  1.00  0.00     0.074 A 
ATOM     39  C   UNL A   1      44.794  25.259  27.073  1.00  0.00     0.049 A 
ATOM     40  N   UNL A   1      42.709  27.126  28.184  1.00  0.00    -0.248 NA
ATOM     41  C   UNL A   1      41.258  25.305  28.357  1.00  0.00     0.031 C 
ATOM     42  C   UNL A   1      45.837  24.397  26.516  1.00  0.00     0.029 A 
ATOM     43  N   UNL A   1      45.414  26.473  27.231  1.00  0.00    -0.354 N 
ATOM     44  C   UNL A   1      41.508  27.551  28.734  1.00  0.00     0.074 A 
ATOM     45  C   UNL A   1      40.640  26.393  28.797  1.00  0.00     0.031 C 
ATOM     46  C   UNL A   1      46.967  25.108  26.379  1.00  0.00     0.029 A 
ATOM     47  C   UNL A   1      46.713  26.487  26.785  1.00  0.00     0.049 A 
ATOM     48  H   UNL A   1      44.970  27.259  27.625  1.00  0.00     0.167 HD
ATOM     49  C   UNL A   1      41.162  28.794  29.145  1.00  0.00     0.037 A 
ATOM     50  C   UNL A   1      47.587  27.505  26.680  1.00  0.00     0.037 A 
ATOM     51  C   UNL A   1      42.036  29.938  29.099  1.00  0.00     0.049 A 
ATOM     52  C   UNL A   1      47.165  28.884  27.102  1.00  0.00     0.074 A 
ATOM     53  C   UNL A   1      41.782  31.238  29.501  1.00  0.00     0.029 A 
ATOM     54  N   UNL A   1      43.339  29.916  28.622  1.00  0.00    -0.354 N 
ATOM     55  N   UNL A   1      46.017  29.280  27.597  1.00  0.00    -0.248 NA
ATOM     56  C   UNL A   1      48.154  29.957  26.941  1.00  0.00     0.031 C 
ATOM     57  C   UNL A   1      42.920  32.010  29.238  1.00  0.00     0.029 A 
ATOM     58  C   UNL A   1      43.895  31.182  28.705  1.00  0.00     0.049 A 
ATOM     59  H   UNL A   1      43.799  29.117  28.275  1.00  0.00     0.167 HD
ATOM     60  C   UNL A   1      46.148  30.643  27.815  1.00  0.00     0.074 A 
ATOM     61  C   UNL A   1      47.494  31.005  27.416  1.00  0.00     0.031 C 
ATOM     62  C   UNL A   1      45.235  31.520  28.300  1.00  0.00     0.037 A 
BRANCH  49  63
ATOM     63  C   UNL A   1      39.765  28.992  29.654  1.00  0.00     0.064 A 
ATOM     64  C   UNL A   1      39.438  28.801  31.004  1.00  0.00     0.173 A 
ATOM     65  C   UNL A   1      38.750  29.417  28.784  1.00  0.00     0.173 A 
ATOM     66  F   UNL A   1      40.371  28.382  31.871  1.00  0.00    -0.203 F 
ATOM     67  C   UNL A   1      38.139  29.008  31.460  1.00  0.00     0.198 A 
ATOM     68  C   UNL A   1      37.457  29.645  29.248  1.00  0.00     0.198 A 
ATOM     69  F   UNL A   1      39.014  29.618  27.483  1.00  0.00    -0.203 F 
ATOM     70  F   UNL A   1      37.838  28.784  32.747  1.00  0.00    -0.200 F 
ATOM     71  C   UNL A   1      37.152  29.435  30.584  1.00  0.00     0.200 A 
ATOM     72  F   UNL A   1      36.507  30.065  28.401  1.00  0.00    -0.200 F 
ATOM     73  F   UNL A   1      35.903  29.638  31.027  1.00  0.00    -0.200 F 
ENDBRANCH  49  63
BRANCH  50  74
ATOM     74  C   UNL A   1      48.941  27.255  26.123  1.00  0.00     0.064 A 
ATOM     75  C   UNL A   1      49.171  27.302  24.742  1.00  0.00     0.173 A 
ATOM     76  C   UNL A   1      50.031  26.980  26.962  1.00  0.00     0.173 A 
ATOM     77  F   UNL A   1      48.154  27.536  23.901  1.00  0.00    -0.203 F 
ATOM     78  C   UNL A   1      50.443  27.078  24.219  1.00  0.00     0.198 A 
ATOM     79  C   UNL A   1      51.307  26.782  26.439  1.00  0.00     0.198 A 
ATOM     80  F   UNL A   1      49.860  26.925  28.290  1.00  0.00    -0.203 F 
ATOM     81  F   UNL A   1      50.632  27.097  22.893  1.00  0.00    -0.200 F 
ATOM     82  C   UNL A   1      51.511  26.827  25.068  1.00  0.00     0.200 A 
ATOM     83  F   UNL A   1      52.338  26.552  27.264  1.00  0.00    -0.200 F 
ATOM     84  F   UNL A   1      52.736  26.622  24.565  1.00  0.00    -0.200 F 
ENDBRANCH  50  74
BRANCH  62  85
ATOM     85  C   UNL A   1      45.670  32.947  28.438  1.00  0.00     0.064 A 
ATOM     86  C   UNL A   1      45.449  33.879  27.414  1.00  0.00     0.173 A 
ATOM     87  C   UNL A   1      46.287  33.393  29.616  1.00  0.00     0.173 A 
ATOM     88  F   UNL A   1      44.877  33.495  26.264  1.00  0.00    -0.203 F 
ATOM     89  C   UNL A   1      45.851  35.205  27.557  1.00  0.00     0.198 A 
ATOM     90  C   UNL A   1      46.668  34.723  29.764  1.00  0.00     0.198 A 
ATOM     91  F   UNL A   1      46.517  32.537  30.623  1.00  0.00    -0.203 F 
ATOM     92  F   UNL A   1      45.667  36.071  26.551  1.00  0.00    -0.200 F 
ATOM     93  C   UNL A   1      46.455  35.626  28.733  1.00  0.00     0.200 A 
ATOM     94  F   UNL A   1      47.246  35.130  30.901  1.00  0.00    -0.200 F 
ATOM     95  F   UNL A   1      46.841  36.902  28.869  1.00  0.00    -0.200 F 
ENDBRANCH  62  85
ENDBRANCH  36  37
ENDBRANCH  29  31
ENDBRANCH  28  29
ENDBRANCH  27  28
ENDBRANCH   1  27
TORSDOF 15
ENDMDL
MODEL 3
REMARK VINA RESULT:     -11.7      1.407      7.762
REMARK SMILES CC(=O)NC(C)(C)C(=O)N1C[C@@H](C(=O)OCCOC(=O)c2ccc(-c3c4nc(c(-c5c(F)c(F)c(F)c(F)c5F)c5ccc([nH]5)c(-c5c(F)c(F)c(F)c(F)c5F)c5nc(c(-c6c(F)c(F)c(F)c(F)c6F)c6ccc3[nH]6)C=C5)C=C4)cc2)[C@H](c2ccccc2C)C1
REMARK SMILES IDX 16 1 15 2 13 3 14 4 12 5 10 6 11 7 92 8 84 9 8 10 9 11 5 12
REMARK SMILES IDX 6 13 7 14 4 15 1 16 2 17 3 18 85 20 86 21 90 22 87 23 89 24
REMARK SMILES IDX 91 25 88 26 17 27 18 28 19 29 20 30 21 31 22 32 83 33 23 34
REMARK SMILES IDX 82 35 24 36 25 37 26 38 76 39 27 40 81 41 75 42 77 43 28 44
REMARK SMILES IDX 80 45 74 46 73 47 29 49 61 50 41 51 60 52 42 53 45 54 59 55
REMARK SMILES IDX 78 56 43 57 44 58 58 60 79 61 46 62 30 63 31 64 39 65 32 66
REMARK SMILES IDX 33 67 37 68 40 69 34 70 35 71 38 72 36 73 62 74 63 75 71 76
REMARK SMILES IDX 64 77 65 78 69 79 72 80 66 81 67 82 70 83 68 84 47 85 48 86
REMARK SMILES IDX 56 87 49 88 50 89 54 90 57 91 51 92 52 93 55 94 53 95
REMARK H PARENT 4 19 77 48 45 59
REMARK Flexibility Score: inf
ROOT
ATOM      1  C   UNL A   1      38.148  20.154  24.882  1.00  0.00     0.274 C 
ENDROOT
BRANCH   1   2
ATOM      2  O   UNL A   1      37.345  21.026  25.705  1.00  0.00    -0.462 OA
BRANCH   2   3
ATOM      3  C   UNL A   1      36.716  22.018  25.034  1.00  0.00     0.311 C 
ATOM      4  O   UNL A   1      37.301  22.953  24.495  1.00  0.00    -0.252 OA
BRANCH   3   5
ATOM      5  C   UNL A   1      35.236  21.765  24.828  1.00  0.00     0.128 C 
ATOM      6  N   UNL A   1      33.340  22.552  26.037  1.00  0.00    -0.339 N 
ATOM      7  C   UNL A   1      34.528  23.009  25.374  1.00  0.00     0.135 C 
ATOM      8  C   UNL A   1      33.594  21.201  26.529  1.00  0.00     0.128 C 
ATOM      9  C   UNL A   1      34.554  20.549  25.496  1.00  0.00     0.055 C 
BRANCH   6  10
ATOM     10  C   UNL A   1      32.222  23.285  26.417  1.00  0.00     0.247 C 
ATOM     11  O   UNL A   1      31.785  23.139  27.562  1.00  0.00    -0.272 OA
BRANCH  10  12
ATOM     12  C   UNL A   1      31.486  24.246  25.381  1.00  0.00     0.113 C 
ATOM     13  C   UNL A   1      30.277  24.867  26.124  1.00  0.00     0.045 C 
ATOM     14  C   UNL A   1      31.028  23.519  24.105  1.00  0.00     0.045 C 
BRANCH  12  15
ATOM     15  N   UNL A   1      32.255  25.451  24.926  1.00  0.00    -0.342 N 
ATOM     16  C   UNL A   1      33.163  24.921  22.673  1.00  0.00     0.114 C 
ATOM     17  C   UNL A   1      32.679  25.881  23.712  1.00  0.00     0.217 C 
ATOM     18  O   UNL A   1      32.719  27.099  23.522  1.00  0.00    -0.275 OA
ATOM     19  H   UNL A   1      32.503  26.056  25.662  1.00  0.00     0.164 HD
ENDBRANCH  12  15
ENDBRANCH  10  12
ENDBRANCH   6  10
BRANCH   9  20
ATOM     20  C   UNL A   1      33.869  19.633  24.452  1.00  0.00    -0.039 A 
ATOM     21  C   UNL A   1      32.807  20.106  23.653  1.00  0.00     0.004 A 
ATOM     22  C   UNL A   1      34.269  18.285  24.252  1.00  0.00    -0.048 A 
ATOM     23  C   UNL A   1      32.143  19.283  22.737  1.00  0.00     0.000 A 
ATOM     24  C   UNL A   1      33.600  17.475  23.310  1.00  0.00     0.004 A 
ATOM     25  C   UNL A   1      35.419  17.646  24.977  1.00  0.00     0.044 C 
ATOM     26  C   UNL A   1      32.536  17.965  22.567  1.00  0.00     0.000 A 
ENDBRANCH   9  20
ENDBRANCH   3   5
ENDBRANCH   2   3
ENDBRANCH   1   2
BRANCH   1  27
ATOM     27  C   UNL A   1      39.123  19.350  25.750  1.00  0.00     0.275 C 
BRANCH  27  28
ATOM     28  O   UNL A   1      40.368  20.063  25.926  1.00  0.00    -0.458 OA
BRANCH  28  29
ATOM     29  C   UNL A   1      40.748  20.295  27.205  1.00  0.00     0.338 C 
ATOM     30  O   UNL A   1      40.847  19.486  28.109  1.00  0.00    -0.246 OA
BRANCH  29  31
ATOM     31  C   UNL A   1      41.038  21.727  27.393  1.00  0.00     0.060 A 
ATOM     32  C   UNL A   1      40.517  22.670  26.506  1.00  0.00     0.016 A 
ATOM     33  C   UNL A   1      41.939  22.121  28.381  1.00  0.00     0.016 A 
ATOM     34  C   UNL A   1      40.921  24.001  26.574  1.00  0.00     0.010 A 
ATOM     35  C   UNL A   1      42.304  23.467  28.486  1.00  0.00     0.010 A 
ATOM     36  C   UNL A   1      41.812  24.414  27.571  1.00  0.00    -0.014 A 
BRANCH  36  37
ATOM     37  C   UNL A   1      42.233  25.834  27.655  1.00  0.00     0.031 A 
ATOM     38  C   UNL A   1      43.528  26.278  27.039  1.00  0.00     0.074 A 
ATOM     39  C   UNL A   1      41.449  26.723  28.291  1.00  0.00     0.049 A 
ATOM     40  N   UNL A   1      44.129  27.437  27.119  1.00  0.00    -0.248 NA
ATOM     41  C   UNL A   1      44.244  25.283  26.224  1.00  0.00     0.031 C 
ATOM     42  C   UNL A   1      40.150  26.423  28.894  1.00  0.00     0.029 A 
ATOM     43  N   UNL A   1      41.633  28.059  28.544  1.00  0.00    -0.354 N 
ATOM     44  C   UNL A   1      45.306  27.306  26.393  1.00  0.00     0.074 A 
ATOM     45  C   UNL A   1      45.337  25.951  25.882  1.00  0.00     0.031 C 
ATOM     46  C   UNL A   1      39.654  27.540  29.446  1.00  0.00     0.029 A 
ATOM     47  C   UNL A   1      40.622  28.620  29.285  1.00  0.00     0.049 A 
ATOM     48  H   UNL A   1      42.414  28.567  28.226  1.00  0.00     0.167 HD
ATOM     49  C   UNL A   1      46.270  28.232  26.178  1.00  0.00     0.037 A 
ATOM     50  C   UNL A   1      40.508  29.855  29.809  1.00  0.00     0.037 A 
ATOM     51  C   UNL A   1      46.223  29.584  26.671  1.00  0.00     0.049 A 
ATOM     52  C   UNL A   1      41.611  30.851  29.592  1.00  0.00     0.074 A 
ATOM     53  C   UNL A   1      47.146  30.601  26.497  1.00  0.00     0.029 A 
ATOM     54  N   UNL A   1      45.191  30.109  27.435  1.00  0.00    -0.354 N 
ATOM     55  N   UNL A   1      42.732  30.709  28.926  1.00  0.00    -0.248 NA
ATOM     56  C   UNL A   1      41.441  32.174  30.208  1.00  0.00     0.031 C 
ATOM     57  C   UNL A   1      46.688  31.732  27.183  1.00  0.00     0.029 A 
ATOM     58  C   UNL A   1      45.462  31.430  27.754  1.00  0.00     0.049 A 
ATOM     59  H   UNL A   1      44.385  29.615  27.710  1.00  0.00     0.167 HD
ATOM     60  C   UNL A   1      43.394  31.923  29.033  1.00  0.00     0.074 A 
ATOM     61  C   UNL A   1      42.542  32.798  29.813  1.00  0.00     0.031 C 
ATOM     62  C   UNL A   1      44.602  32.282  28.533  1.00  0.00     0.037 A 
BRANCH  49  63
ATOM     63  C   UNL A   1      47.477  27.806  25.396  1.00  0.00     0.064 A 
ATOM     64  C   UNL A   1      47.497  27.836  23.995  1.00  0.00     0.173 A 
ATOM     65  C   UNL A   1      48.642  27.398  26.063  1.00  0.00     0.173 A 
ATOM     66  F   UNL A   1      46.404  28.206  23.312  1.00  0.00    -0.203 F 
ATOM     67  C   UNL A   1      48.635  27.454  23.289  1.00  0.00     0.198 A 
ATOM     68  C   UNL A   1      49.785  27.038  25.354  1.00  0.00     0.198 A 
ATOM     69  F   UNL A   1      48.674  27.355  27.404  1.00  0.00    -0.203 F 
ATOM     70  F   UNL A   1      48.622  27.455  21.948  1.00  0.00    -0.200 F 
ATOM     71  C   UNL A   1      49.779  27.061  23.968  1.00  0.00     0.200 A 
ATOM     72  F   UNL A   1      50.891  26.665  26.013  1.00  0.00    -0.200 F 
ATOM     73  F   UNL A   1      50.874  26.698  23.286  1.00  0.00    -0.200 F 
ENDBRANCH  49  63
BRANCH  50  74
ATOM     74  C   UNL A   1      39.309  30.203  30.613  1.00  0.00     0.064 A 
ATOM     75  C   UNL A   1      39.283  29.983  31.997  1.00  0.00     0.173 A 
ATOM     76  C   UNL A   1      38.176  30.775  30.018  1.00  0.00     0.173 A 
ATOM     77  F   UNL A   1      40.334  29.415  32.605  1.00  0.00    -0.203 F 
ATOM     78  C   UNL A   1      38.162  30.318  32.755  1.00  0.00     0.198 A 
ATOM     79  C   UNL A   1      37.067  31.134  30.781  1.00  0.00     0.198 A 
ATOM     80  F   UNL A   1      38.154  31.005  28.698  1.00  0.00    -0.203 F 
ATOM     81  F   UNL A   1      38.149  30.069  34.071  1.00  0.00    -0.200 F 
ATOM     82  C   UNL A   1      37.060  30.901  32.148  1.00  0.00     0.200 A 
ATOM     83  F   UNL A   1      36.008  31.708  30.192  1.00  0.00    -0.200 F 
ATOM     84  F   UNL A   1      35.988  31.234  32.879  1.00  0.00    -0.200 F 
ENDBRANCH  50  74
BRANCH  62  85
ATOM     85  C   UNL A   1      45.061  33.682  28.804  1.00  0.00     0.064 A 
ATOM     86  C   UNL A   1      44.709  34.743  27.958  1.00  0.00     0.173 A 
ATOM     87  C   UNL A   1      45.838  33.969  29.936  1.00  0.00     0.173 A 
ATOM     88  F   UNL A   1      43.981  34.512  26.855  1.00  0.00    -0.203 F 
ATOM     89  C   UNL A   1      45.136  36.041  28.225  1.00  0.00     0.198 A 
ATOM     90  C   UNL A   1      46.245  35.271  30.212  1.00  0.00     0.198 A 
ATOM     91  F   UNL A   1      46.197  32.987  30.776  1.00  0.00    -0.203 F 
ATOM     92  F   UNL A   1      44.822  37.034  27.383  1.00  0.00    -0.200 F 
ATOM     93  C   UNL A   1      45.899  36.304  29.354  1.00  0.00     0.200 A 
ATOM     94  F   UNL A   1      46.976  35.526  31.305  1.00  0.00    -0.200 F 
ATOM     95  F   UNL A   1      46.308  37.554  29.610  1.00  0.00    -0.200 F 
ENDBRANCH  62  85
ENDBRANCH  36  37
ENDBRANCH  29  31
ENDBRANCH  28  29
ENDBRANCH  27  28
ENDBRANCH   1  27
TORSDOF 15
ENDMDL
