MODEL 1
REMARK VINA RESULT:     -13.0      0.000      0.000
REMARK SMILES CN(C)C(=O)C[NH+]1CC[NH+]([C@@H](C(=O)OCCOC(=O)c2ccc(-c3c4nc(c(-c5c(F)c(F)c(F)c(F)c5F)c5ccc([nH]5)c(-c5c(F)c(F)c(F)c(F)c5F)c5nc(c(-c6c(F)c(F)c(F)c(F)c6F)c6ccc3[nH]6)C=C5)C=C4)cc2)c2c[nH]c3ccc(Cl)cc23)CC1
REMARK SMILES IDX 15 1 14 2 12 3 13 4 11 5 10 6 7 7 8 8 94 9 9 11 93 12 6 14
REMARK SMILES IDX 4 15 1 16 2 17 3 18 5 19 83 20 84 21 92 22 85 23 86 24 91 25
REMARK SMILES IDX 87 27 89 28 88 29 90 30 16 31 17 32 18 33 19 34 20 35 21 36
REMARK SMILES IDX 82 37 22 38 81 39 23 40 24 41 25 42 75 43 26 44 80 45 74 46
REMARK SMILES IDX 76 47 27 48 79 49 73 50 72 51 28 53 60 54 40 55 59 56 41 57
REMARK SMILES IDX 44 58 58 59 77 60 42 61 43 62 57 64 78 65 45 66 29 67 30 68
REMARK SMILES IDX 38 69 31 70 32 71 36 72 39 73 33 74 34 75 37 76 35 77 61 78
REMARK SMILES IDX 62 79 70 80 63 81 64 82 68 83 71 84 65 85 66 86 69 87 67 88
REMARK SMILES IDX 46 89 47 90 55 91 48 92 49 93 53 94 56 95 50 96 51 97 54 98
REMARK SMILES IDX 52 99
REMARK H PARENT 7 10 10 13 85 26 76 52 44 63
REMARK Flexibility Score: inf
ROOT
ATOM      1  C   UNL A   1      31.973  28.118  26.998  1.00  0.00     0.274 C 
ENDROOT
BRANCH   1   2
ATOM      2  O   UNL A   1      33.228  27.459  26.685  1.00  0.00    -0.457 OA
BRANCH   2   3
ATOM      3  C   UNL A   1      33.151  26.363  25.882  1.00  0.00     0.370 C 
ATOM      4  O   UNL A   1      34.129  25.655  25.627  1.00  0.00    -0.245 OA
BRANCH   3   5
ATOM      5  C   UNL A   1      31.805  26.131  25.188  1.00  0.00     0.328 C 
BRANCH   5   6
ATOM      6  N   UNL A   1      31.175  24.772  25.290  1.00  0.00    -0.310 N 
ATOM      7  N   UNL A   1      33.027  22.410  25.125  1.00  0.00    -0.318 N 
ATOM      8  C   UNL A   1      32.706  23.316  24.021  1.00  0.00     0.325 C 
ATOM      9  C   UNL A   1      32.502  22.863  26.435  1.00  0.00     0.325 C 
ATOM     10  H   UNL A   1      34.039  22.419  25.250  1.00  0.00     0.348 HD
ATOM     11  C   UNL A   1      31.294  23.880  24.139  1.00  0.00     0.325 C 
ATOM     12  C   UNL A   1      31.441  24.012  26.514  1.00  0.00     0.325 C 
ATOM     13  H   UNL A   1      30.206  25.091  25.320  1.00  0.00     0.349 HD
BRANCH   7  14
ATOM     14  C   UNL A   1      32.617  21.037  24.778  1.00  0.00     0.364 C 
BRANCH  14  15
ATOM     15  C   UNL A   1      33.795  20.064  24.845  1.00  0.00     0.277 C 
ATOM     16  C   UNL A   1      34.773  17.899  24.353  1.00  0.00     0.146 C 
ATOM     17  N   UNL A   1      33.610  18.764  24.378  1.00  0.00    -0.344 N 
ATOM     18  C   UNL A   1      32.428  18.306  23.659  1.00  0.00     0.146 C 
ATOM     19  O   UNL A   1      34.868  20.442  25.324  1.00  0.00    -0.268 OA
ENDBRANCH  14  15
ENDBRANCH   7  14
ENDBRANCH   5   6
BRANCH   5  20
ATOM     20  C   UNL A   1      31.496  26.751  23.825  1.00  0.00     0.046 A 
ATOM     21  C   UNL A   1      32.521  27.037  22.925  1.00  0.00     0.094 A 
ATOM     22  C   UNL A   1      30.336  27.451  23.315  1.00  0.00     0.011 A 
ATOM     23  N   UNL A   1      32.143  28.118  22.183  1.00  0.00    -0.361 N 
ATOM     24  C   UNL A   1      30.836  28.437  22.452  1.00  0.00     0.046 A 
ATOM     25  C   UNL A   1      28.954  27.498  23.603  1.00  0.00     0.031 A 
ATOM     26  H   UNL A   1      32.723  28.598  21.548  1.00  0.00     0.166 HD
ATOM     27  C   UNL A   1      30.093  29.551  22.036  1.00  0.00     0.028 A 
ATOM     28  C   UNL A   1      28.166  28.528  23.065  1.00  0.00     0.041 A 
ATOM     29  C   UNL A   1      28.737  29.577  22.354  1.00  0.00     0.022 A 
ATOM     30  Cl  UNL A   1      26.461  28.514  23.304  1.00  0.00    -0.084 Cl
ENDBRANCH   5  20
ENDBRANCH   3   5
ENDBRANCH   2   3
ENDBRANCH   1   2
BRANCH   1  31
ATOM     31  C   UNL A   1      31.908  29.513  26.391  1.00  0.00     0.275 C 
BRANCH  31  32
ATOM     32  O   UNL A   1      33.243  30.028  26.343  1.00  0.00    -0.458 OA
BRANCH  32  33
ATOM     33  C   UNL A   1      33.466  31.126  27.092  1.00  0.00     0.338 C 
ATOM     34  O   UNL A   1      32.708  32.078  27.241  1.00  0.00    -0.246 OA
BRANCH  33  35
ATOM     35  C   UNL A   1      34.718  30.972  27.857  1.00  0.00     0.060 A 
ATOM     36  C   UNL A   1      35.636  32.023  27.940  1.00  0.00     0.016 A 
ATOM     37  C   UNL A   1      35.060  29.713  28.350  1.00  0.00     0.016 A 
ATOM     38  C   UNL A   1      36.920  31.805  28.422  1.00  0.00     0.010 A 
ATOM     39  C   UNL A   1      36.311  29.519  28.935  1.00  0.00     0.010 A 
ATOM     40  C   UNL A   1      37.254  30.560  28.962  1.00  0.00    -0.014 A 
BRANCH  40  41
ATOM     41  C   UNL A   1      38.537  30.360  29.671  1.00  0.00     0.031 A 
ATOM     42  C   UNL A   1      39.578  29.435  29.126  1.00  0.00     0.074 A 
ATOM     43  C   UNL A   1      38.707  30.957  30.865  1.00  0.00     0.049 A 
ATOM     44  N   UNL A   1      40.590  28.880  29.742  1.00  0.00    -0.248 NA
ATOM     45  C   UNL A   1      39.467  29.082  27.703  1.00  0.00     0.031 C 
ATOM     46  C   UNL A   1      37.786  31.925  31.463  1.00  0.00     0.029 A 
ATOM     47  N   UNL A   1      39.690  30.802  31.809  1.00  0.00    -0.354 N 
ATOM     48  C   UNL A   1      41.215  28.079  28.796  1.00  0.00     0.074 A 
ATOM     49  C   UNL A   1      40.477  28.233  27.559  1.00  0.00     0.031 C 
ATOM     50  C   UNL A   1      38.230  32.259  32.681  1.00  0.00     0.029 A 
ATOM     51  C   UNL A   1      39.407  31.454  32.983  1.00  0.00     0.049 A 
ATOM     52  H   UNL A   1      40.511  30.279  31.660  1.00  0.00     0.167 HD
ATOM     53  C   UNL A   1      42.297  27.283  28.970  1.00  0.00     0.037 A 
ATOM     54  C   UNL A   1      39.971  31.354  34.198  1.00  0.00     0.037 A 
ATOM     55  C   UNL A   1      43.024  27.171  30.211  1.00  0.00     0.049 A 
ATOM     56  C   UNL A   1      41.122  30.418  34.387  1.00  0.00     0.074 A 
ATOM     57  C   UNL A   1      44.151  26.417  30.489  1.00  0.00     0.029 A 
ATOM     58  N   UNL A   1      42.694  27.838  31.384  1.00  0.00    -0.354 N 
ATOM     59  N   UNL A   1      41.673  29.608  33.516  1.00  0.00    -0.248 NA
ATOM     60  C   UNL A   1      41.724  30.373  35.723  1.00  0.00     0.031 C 
ATOM     61  C   UNL A   1      44.479  26.597  31.838  1.00  0.00     0.029 A 
ATOM     62  C   UNL A   1      43.587  27.501  32.390  1.00  0.00     0.049 A 
ATOM     63  H   UNL A   1      41.938  28.459  31.486  1.00  0.00     0.167 HD
ATOM     64  C   UNL A   1      42.692  28.958  34.193  1.00  0.00     0.074 A 
ATOM     65  C   UNL A   1      42.690  29.483  35.546  1.00  0.00     0.031 C 
ATOM     66  C   UNL A   1      43.551  28.016  33.735  1.00  0.00     0.037 A 
BRANCH  53  67
ATOM     67  C   UNL A   1      42.751  26.442  27.813  1.00  0.00     0.064 A 
ATOM     68  C   UNL A   1      42.180  25.193  27.532  1.00  0.00     0.173 A 
ATOM     69  C   UNL A   1      43.715  26.937  26.919  1.00  0.00     0.173 A 
ATOM     70  F   UNL A   1      41.264  24.667  28.359  1.00  0.00    -0.203 F 
ATOM     71  C   UNL A   1      42.560  24.468  26.403  1.00  0.00     0.198 A 
ATOM     72  C   UNL A   1      44.074  26.222  25.779  1.00  0.00     0.198 A 
ATOM     73  F   UNL A   1      44.291  28.128  27.138  1.00  0.00    -0.203 F 
ATOM     74  F   UNL A   1      42.016  23.266  26.166  1.00  0.00    -0.200 F 
ATOM     75  C   UNL A   1      43.497  24.988  25.522  1.00  0.00     0.200 A 
ATOM     76  F   UNL A   1      44.971  26.732  24.923  1.00  0.00    -0.200 F 
ATOM     77  F   UNL A   1      43.845  24.299  24.427  1.00  0.00    -0.200 F 
ENDBRANCH  53  67
BRANCH  54  78
ATOM     78  C   UNL A   1      39.386  32.128  35.320  1.00  0.00     0.064 A 
ATOM     79  C   UNL A   1      38.528  31.521  36.243  1.00  0.00     0.173 A 
ATOM     80  C   UNL A   1      39.767  33.459  35.552  1.00  0.00     0.173 A 
ATOM     81  F   UNL A   1      38.124  30.257  36.051  1.00  0.00    -0.203 F 
ATOM     82  C   UNL A   1      38.083  32.212  37.368  1.00  0.00     0.198 A 
ATOM     83  C   UNL A   1      39.345  34.140  36.690  1.00  0.00     0.198 A 
ATOM     84  F   UNL A   1      40.597  34.079  34.698  1.00  0.00    -0.203 F 
ATOM     85  F   UNL A   1      37.257  31.613  38.235  1.00  0.00    -0.200 F 
ATOM     86  C   UNL A   1      38.505  33.514  37.599  1.00  0.00     0.200 A 
ATOM     87  F   UNL A   1      39.774  35.388  36.922  1.00  0.00    -0.200 F 
ATOM     88  F   UNL A   1      38.106  34.164  38.700  1.00  0.00    -0.200 F 
ENDBRANCH  54  78
BRANCH  66  89
ATOM     89  C   UNL A   1      44.572  27.515  34.711  1.00  0.00     0.064 A 
ATOM     90  C   UNL A   1      45.806  28.160  34.875  1.00  0.00     0.173 A 
ATOM     91  C   UNL A   1      44.313  26.375  35.484  1.00  0.00     0.173 A 
ATOM     92  F   UNL A   1      46.104  29.244  34.142  1.00  0.00    -0.203 F 
ATOM     93  C   UNL A   1      46.760  27.659  35.757  1.00  0.00     0.198 A 
ATOM     94  C   UNL A   1      45.259  25.892  36.383  1.00  0.00     0.198 A 
ATOM     95  F   UNL A   1      43.145  25.726  35.363  1.00  0.00    -0.203 F 
ATOM     96  F   UNL A   1      47.954  28.259  35.859  1.00  0.00    -0.200 F 
ATOM     97  C   UNL A   1      46.485  26.529  36.511  1.00  0.00     0.200 A 
ATOM     98  F   UNL A   1      44.991  24.802  37.116  1.00  0.00    -0.200 F 
ATOM     99  F   UNL A   1      47.407  26.044  37.354  1.00  0.00    -0.200 F 
ENDBRANCH  66  89
ENDBRANCH  40  41
ENDBRANCH  33  35
ENDBRANCH  32  33
ENDBRANCH  31  32
ENDBRANCH   1  31
TORSDOF 15
ENDMDL
MODEL 2
REMARK VINA RESULT:     -12.9      0.396      1.597
REMARK SMILES CN(C)C(=O)C[NH+]1CC[NH+]([C@@H](C(=O)OCCOC(=O)c2ccc(-c3c4nc(c(-c5c(F)c(F)c(F)c(F)c5F)c5ccc([nH]5)c(-c5c(F)c(F)c(F)c(F)c5F)c5nc(c(-c6c(F)c(F)c(F)c(F)c6F)c6ccc3[nH]6)C=C5)C=C4)cc2)c2c[nH]c3ccc(Cl)cc23)CC1
REMARK SMILES IDX 15 1 14 2 12 3 13 4 11 5 10 6 7 7 8 8 94 9 9 11 93 12 6 14
REMARK SMILES IDX 4 15 1 16 2 17 3 18 5 19 83 20 84 21 92 22 85 23 86 24 91 25
REMARK SMILES IDX 87 27 89 28 88 29 90 30 16 31 17 32 18 33 19 34 20 35 21 36
REMARK SMILES IDX 82 37 22 38 81 39 23 40 24 41 25 42 75 43 26 44 80 45 74 46
REMARK SMILES IDX 76 47 27 48 79 49 73 50 72 51 28 53 60 54 40 55 59 56 41 57
REMARK SMILES IDX 44 58 58 59 77 60 42 61 43 62 57 64 78 65 45 66 29 67 30 68
REMARK SMILES IDX 38 69 31 70 32 71 36 72 39 73 33 74 34 75 37 76 35 77 61 78
REMARK SMILES IDX 62 79 70 80 63 81 64 82 68 83 71 84 65 85 66 86 69 87 67 88
REMARK SMILES IDX 46 89 47 90 55 91 48 92 49 93 53 94 56 95 50 96 51 97 54 98
REMARK SMILES IDX 52 99
REMARK H PARENT 7 10 10 13 85 26 76 52 44 63
REMARK Flexibility Score: inf
ROOT
ATOM      1  C   UNL A   1      32.094  28.242  27.005  1.00  0.00     0.274 C 
ENDROOT
BRANCH   1   2
ATOM      2  O   UNL A   1      33.340  27.586  26.651  1.00  0.00    -0.457 OA
BRANCH   2   3
ATOM      3  C   UNL A   1      33.237  26.467  25.883  1.00  0.00     0.370 C 
ATOM      4  O   UNL A   1      34.201  25.737  25.639  1.00  0.00    -0.245 OA
BRANCH   3   5
ATOM      5  C   UNL A   1      31.880  26.235  25.213  1.00  0.00     0.328 C 
BRANCH   5   6
ATOM      6  N   UNL A   1      31.244  24.882  25.342  1.00  0.00    -0.310 N 
ATOM      7  N   UNL A   1      33.086  22.509  25.235  1.00  0.00    -0.318 N 
ATOM      8  C   UNL A   1      32.773  23.391  24.110  1.00  0.00     0.325 C 
ATOM      9  C   UNL A   1      32.558  22.992  26.532  1.00  0.00     0.325 C 
ATOM     10  H   UNL A   1      34.098  22.516  25.364  1.00  0.00     0.348 HD
ATOM     11  C   UNL A   1      31.364  23.964  24.210  1.00  0.00     0.325 C 
ATOM     12  C   UNL A   1      31.501  24.147  26.583  1.00  0.00     0.325 C 
ATOM     13  H   UNL A   1      30.276  25.205  25.360  1.00  0.00     0.349 HD
BRANCH   7  14
ATOM     14  C   UNL A   1      32.671  21.130  24.916  1.00  0.00     0.364 C 
BRANCH  14  15
ATOM     15  C   UNL A   1      33.864  20.173  24.900  1.00  0.00     0.277 C 
ATOM     16  C   UNL A   1      34.817  17.999  24.398  1.00  0.00     0.146 C 
ATOM     17  N   UNL A   1      33.651  18.852  24.510  1.00  0.00    -0.344 N 
ATOM     18  C   UNL A   1      32.407  18.352  23.939  1.00  0.00     0.146 C 
ATOM     19  O   UNL A   1      34.976  20.583  25.246  1.00  0.00    -0.268 OA
ENDBRANCH  14  15
ENDBRANCH   7  14
ENDBRANCH   5   6
BRANCH   5  20
ATOM     20  C   UNL A   1      31.555  26.839  23.846  1.00  0.00     0.046 A 
ATOM     21  C   UNL A   1      32.571  27.144  22.943  1.00  0.00     0.094 A 
ATOM     22  C   UNL A   1      30.377  27.508  23.333  1.00  0.00     0.011 A 
ATOM     23  N   UNL A   1      32.166  28.211  22.195  1.00  0.00    -0.361 N 
ATOM     24  C   UNL A   1      30.853  28.500  22.464  1.00  0.00     0.046 A 
ATOM     25  C   UNL A   1      28.995  27.524  23.623  1.00  0.00     0.031 A 
ATOM     26  H   UNL A   1      32.734  28.701  21.556  1.00  0.00     0.166 HD
ATOM     27  C   UNL A   1      30.082  29.593  22.042  1.00  0.00     0.028 A 
ATOM     28  C   UNL A   1      28.182  28.532  23.081  1.00  0.00     0.041 A 
ATOM     29  C   UNL A   1      28.727  29.590  22.362  1.00  0.00     0.022 A 
ATOM     30  Cl  UNL A   1      26.478  28.478  23.322  1.00  0.00    -0.084 Cl
ENDBRANCH   5  20
ENDBRANCH   3   5
ENDBRANCH   2   3
ENDBRANCH   1   2
BRANCH   1  31
ATOM     31  C   UNL A   1      32.010  29.642  26.410  1.00  0.00     0.275 C 
BRANCH  31  32
ATOM     32  O   UNL A   1      33.337  30.179  26.376  1.00  0.00    -0.458 OA
BRANCH  32  33
ATOM     33  C   UNL A   1      33.565  31.210  27.213  1.00  0.00     0.338 C 
ATOM     34  O   UNL A   1      32.794  32.128  27.472  1.00  0.00    -0.246 OA
BRANCH  33  35
ATOM     35  C   UNL A   1      34.844  31.015  27.921  1.00  0.00     0.060 A 
ATOM     36  C   UNL A   1      35.801  32.034  27.958  1.00  0.00     0.016 A 
ATOM     37  C   UNL A   1      35.167  29.747  28.402  1.00  0.00     0.016 A 
ATOM     38  C   UNL A   1      37.098  31.774  28.381  1.00  0.00     0.010 A 
ATOM     39  C   UNL A   1      36.436  29.511  28.929  1.00  0.00     0.010 A 
ATOM     40  C   UNL A   1      37.414  30.520  28.909  1.00  0.00    -0.014 A 
BRANCH  40  41
ATOM     41  C   UNL A   1      38.721  30.279  29.559  1.00  0.00     0.031 A 
ATOM     42  C   UNL A   1      39.706  29.322  28.968  1.00  0.00     0.074 A 
ATOM     43  C   UNL A   1      38.963  30.868  30.745  1.00  0.00     0.049 A 
ATOM     44  N   UNL A   1      40.727  28.734  29.537  1.00  0.00    -0.248 NA
ATOM     45  C   UNL A   1      39.520  28.976  27.552  1.00  0.00     0.031 C 
ATOM     46  C   UNL A   1      38.102  31.864  31.385  1.00  0.00     0.029 A 
ATOM     47  N   UNL A   1      39.982  30.681  31.644  1.00  0.00    -0.354 N 
ATOM     48  C   UNL A   1      41.282  27.916  28.563  1.00  0.00     0.074 A 
ATOM     49  C   UNL A   1      40.495  28.095  27.361  1.00  0.00     0.031 C 
ATOM     50  C   UNL A   1      38.611  32.182  32.581  1.00  0.00     0.029 A 
ATOM     51  C   UNL A   1      39.774  31.340  32.829  1.00  0.00     0.049 A 
ATOM     52  H   UNL A   1      40.779  30.132  31.457  1.00  0.00     0.167 HD
ATOM     53  C   UNL A   1      42.346  27.086  28.688  1.00  0.00     0.037 A 
ATOM     54  C   UNL A   1      40.389  31.220  34.017  1.00  0.00     0.037 A 
ATOM     55  C   UNL A   1      43.125  26.949  29.895  1.00  0.00     0.049 A 
ATOM     56  C   UNL A   1      41.517  30.247  34.154  1.00  0.00     0.074 A 
ATOM     57  C   UNL A   1      44.238  26.158  30.121  1.00  0.00     0.029 A 
ATOM     58  N   UNL A   1      42.869  27.624  31.082  1.00  0.00    -0.354 N 
ATOM     59  N   UNL A   1      42.002  29.422  33.258  1.00  0.00    -0.248 NA
ATOM     60  C   UNL A   1      42.177  30.181  35.461  1.00  0.00     0.031 C 
ATOM     61  C   UNL A   1      44.633  26.326  31.454  1.00  0.00     0.029 A 
ATOM     62  C   UNL A   1      43.795  27.257  32.047  1.00  0.00     0.049 A 
ATOM     63  H   UNL A   1      42.138  28.268  31.218  1.00  0.00     0.167 HD
ATOM     64  C   UNL A   1      43.030  28.738  33.889  1.00  0.00     0.074 A 
ATOM     65  C   UNL A   1      43.106  29.261  35.240  1.00  0.00     0.031 C 
ATOM     66  C   UNL A   1      43.837  27.771  33.392  1.00  0.00     0.037 A 
BRANCH  53  67
ATOM     67  C   UNL A   1      42.720  26.232  27.512  1.00  0.00     0.064 A 
ATOM     68  C   UNL A   1      43.730  26.604  26.614  1.00  0.00     0.173 A 
ATOM     69  C   UNL A   1      42.115  24.977  27.333  1.00  0.00     0.173 A 
ATOM     70  F   UNL A   1      44.333  27.797  26.730  1.00  0.00    -0.203 F 
ATOM     71  C   UNL A   1      44.118  25.754  25.578  1.00  0.00     0.198 A 
ATOM     72  C   UNL A   1      42.521  24.120  26.313  1.00  0.00     0.198 A 
ATOM     73  F   UNL A   1      41.146  24.570  28.166  1.00  0.00    -0.203 F 
ATOM     74  F   UNL A   1      45.071  26.141  24.718  1.00  0.00    -0.200 F 
ATOM     75  C   UNL A   1      43.521  24.510  25.436  1.00  0.00     0.200 A 
ATOM     76  F   UNL A   1      41.952  22.914  26.185  1.00  0.00    -0.200 F 
ATOM     77  F   UNL A   1      43.910  23.687  24.452  1.00  0.00    -0.200 F 
ENDBRANCH  53  67
BRANCH  54  78
ATOM     78  C   UNL A   1      39.880  32.009  35.165  1.00  0.00     0.064 A 
ATOM     79  C   UNL A   1      40.292  33.330  35.369  1.00  0.00     0.173 A 
ATOM     80  C   UNL A   1      38.886  31.491  36.011  1.00  0.00     0.173 A 
ATOM     81  F   UNL A   1      41.250  33.860  34.596  1.00  0.00    -0.203 F 
ATOM     82  C   UNL A   1      39.716  34.112  36.368  1.00  0.00     0.198 A 
ATOM     83  C   UNL A   1      38.292  32.281  36.991  1.00  0.00     0.198 A 
ATOM     84  F   UNL A   1      38.454  30.231  35.846  1.00  0.00    -0.203 F 
ATOM     85  F   UNL A   1      40.130  35.373  36.549  1.00  0.00    -0.200 F 
ATOM     86  C   UNL A   1      38.707  33.593  37.166  1.00  0.00     0.200 A 
ATOM     87  F   UNL A   1      37.302  31.783  37.743  1.00  0.00    -0.200 F 
ATOM     88  F   UNL A   1      38.129  34.358  38.102  1.00  0.00    -0.200 F 
ENDBRANCH  54  78
BRANCH  66  89
ATOM     89  C   UNL A   1      44.884  27.236  34.321  1.00  0.00     0.064 A 
ATOM     90  C   UNL A   1      46.147  27.837  34.423  1.00  0.00     0.173 A 
ATOM     91  C   UNL A   1      44.623  26.107  35.109  1.00  0.00     0.173 A 
ATOM     92  F   UNL A   1      46.449  28.907  33.672  1.00  0.00    -0.203 F 
ATOM     93  C   UNL A   1      47.123  27.305  35.261  1.00  0.00     0.198 A 
ATOM     94  C   UNL A   1      45.593  25.593  35.964  1.00  0.00     0.198 A 
ATOM     95  F   UNL A   1      43.428  25.500  35.046  1.00  0.00    -0.203 F 
ATOM     96  F   UNL A   1      48.342  27.862  35.304  1.00  0.00    -0.200 F 
ATOM     97  C   UNL A   1      46.844  26.187  36.032  1.00  0.00     0.200 A 
ATOM     98  F   UNL A   1      45.321  24.516  36.714  1.00  0.00    -0.200 F 
ATOM     99  F   UNL A   1      47.789  25.672  36.833  1.00  0.00    -0.200 F 
ENDBRANCH  66  89
ENDBRANCH  40  41
ENDBRANCH  33  35
ENDBRANCH  32  33
ENDBRANCH  31  32
ENDBRANCH   1  31
TORSDOF 15
ENDMDL
MODEL 3
REMARK VINA RESULT:     -12.6      4.163      9.828
REMARK SMILES CN(C)C(=O)C[NH+]1CC[NH+]([C@@H](C(=O)OCCOC(=O)c2ccc(-c3c4nc(c(-c5c(F)c(F)c(F)c(F)c5F)c5ccc([nH]5)c(-c5c(F)c(F)c(F)c(F)c5F)c5nc(c(-c6c(F)c(F)c(F)c(F)c6F)c6ccc3[nH]6)C=C5)C=C4)cc2)c2c[nH]c3ccc(Cl)cc23)CC1
REMARK SMILES IDX 15 1 14 2 12 3 13 4 11 5 10 6 7 7 8 8 94 9 9 11 93 12 6 14
REMARK SMILES IDX 4 15 1 16 2 17 3 18 5 19 83 20 84 21 92 22 85 23 86 24 91 25
REMARK SMILES IDX 87 27 89 28 88 29 90 30 16 31 17 32 18 33 19 34 20 35 21 36
REMARK SMILES IDX 82 37 22 38 81 39 23 40 24 41 25 42 75 43 26 44 80 45 74 46
REMARK SMILES IDX 76 47 27 48 79 49 73 50 72 51 28 53 60 54 40 55 59 56 41 57
REMARK SMILES IDX 44 58 58 59 77 60 42 61 43 62 57 64 78 65 45 66 29 67 30 68
REMARK SMILES IDX 38 69 31 70 32 71 36 72 39 73 33 74 34 75 37 76 35 77 61 78
REMARK SMILES IDX 62 79 70 80 63 81 64 82 68 83 71 84 65 85 66 86 69 87 67 88
REMARK SMILES IDX 46 89 47 90 55 91 48 92 49 93 53 94 56 95 50 96 51 97 54 98
REMARK SMILES IDX 52 99
REMARK H PARENT 7 10 10 13 85 26 76 52 44 63
REMARK Flexibility Score: inf
ROOT
ATOM      1  C   UNL A   1      36.236  22.953  23.534  1.00  0.00     0.274 C 
ENDROOT
BRANCH   1   2
ATOM      2  O   UNL A   1      35.230  23.758  24.204  1.00  0.00    -0.457 OA
BRANCH   2   3
ATOM      3  C   UNL A   1      34.121  24.067  23.479  1.00  0.00     0.370 C 
ATOM      4  O   UNL A   1      34.181  24.589  22.363  1.00  0.00    -0.245 OA
BRANCH   3   5
ATOM      5  C   UNL A   1      32.777  23.860  24.184  1.00  0.00     0.328 C 
BRANCH   5   6
ATOM      6  N   UNL A   1      32.182  25.014  24.936  1.00  0.00    -0.310 N 
ATOM      7  N   UNL A   1      30.521  26.949  23.345  1.00  0.00    -0.318 N 
ATOM      8  C   UNL A   1      31.971  26.782  23.233  1.00  0.00     0.325 C 
ATOM      9  C   UNL A   1      29.872  25.927  24.200  1.00  0.00     0.325 C 
ATOM     10  H   UNL A   1      30.116  26.791  22.423  1.00  0.00     0.348 HD
ATOM     11  C   UNL A   1      32.601  26.361  24.555  1.00  0.00     0.325 C 
ATOM     12  C   UNL A   1      30.730  25.000  25.126  1.00  0.00     0.325 C 
ATOM     13  H   UNL A   1      32.621  24.811  25.836  1.00  0.00     0.349 HD
BRANCH   7  14
ATOM     14  C   UNL A   1      30.210  28.332  23.755  1.00  0.00     0.364 C 
BRANCH  14  15
ATOM     15  C   UNL A   1      29.774  29.186  22.564  1.00  0.00     0.277 C 
ATOM     16  C   UNL A   1      28.028  30.244  21.253  1.00  0.00     0.146 C 
ATOM     17  N   UNL A   1      28.411  29.340  22.319  1.00  0.00    -0.344 N 
ATOM     18  C   UNL A   1      27.357  28.896  23.222  1.00  0.00     0.146 C 
ATOM     19  O   UNL A   1      30.632  29.702  21.841  1.00  0.00    -0.268 OA
ENDBRANCH  14  15
ENDBRANCH   7  14
ENDBRANCH   5   6
BRANCH   5  20
ATOM     20  C   UNL A   1      32.446  22.546  24.893  1.00  0.00     0.046 A 
ATOM     21  C   UNL A   1      32.474  22.461  26.283  1.00  0.00     0.094 A 
ATOM     22  C   UNL A   1      32.402  21.175  24.429  1.00  0.00     0.011 A 
ATOM     23  N   UNL A   1      32.825  21.186  26.623  1.00  0.00    -0.361 N 
ATOM     24  C   UNL A   1      32.858  20.395  25.503  1.00  0.00     0.046 A 
ATOM     25  C   UNL A   1      32.208  20.511  23.198  1.00  0.00     0.031 A 
ATOM     26  H   UNL A   1      33.026  20.880  27.537  1.00  0.00     0.166 HD
ATOM     27  C   UNL A   1      33.309  19.075  25.363  1.00  0.00     0.028 A 
ATOM     28  C   UNL A   1      32.514  19.146  23.087  1.00  0.00     0.041 A 
ATOM     29  C   UNL A   1      33.123  18.456  24.130  1.00  0.00     0.022 A 
ATOM     30  Cl  UNL A   1      32.154  18.304  21.629  1.00  0.00    -0.084 Cl
ENDBRANCH   5  20
ENDBRANCH   3   5
ENDBRANCH   2   3
ENDBRANCH   1   2
BRANCH   1  31
ATOM     31  C   UNL A   1      36.494  21.649  24.278  1.00  0.00     0.275 C 
BRANCH  31  32
ATOM     32  O   UNL A   1      36.960  21.983  25.591  1.00  0.00    -0.458 OA
BRANCH  32  33
ATOM     33  C   UNL A   1      38.233  21.634  25.859  1.00  0.00     0.338 C 
ATOM     34  O   UNL A   1      38.787  20.585  25.546  1.00  0.00    -0.246 OA
BRANCH  33  35
ATOM     35  C   UNL A   1      38.952  22.768  26.469  1.00  0.00     0.060 A 
ATOM     36  C   UNL A   1      38.617  24.085  26.139  1.00  0.00     0.016 A 
ATOM     37  C   UNL A   1      40.084  22.516  27.242  1.00  0.00     0.016 A 
ATOM     38  C   UNL A   1      39.450  25.138  26.492  1.00  0.00     0.010 A 
ATOM     39  C   UNL A   1      40.864  23.582  27.691  1.00  0.00     0.010 A 
ATOM     40  C   UNL A   1      40.559  24.898  27.307  1.00  0.00    -0.014 A 
BRANCH  40  41
ATOM     41  C   UNL A   1      41.341  26.020  27.872  1.00  0.00     0.031 A 
ATOM     42  C   UNL A   1      40.677  27.084  28.686  1.00  0.00     0.074 A 
ATOM     43  C   UNL A   1      42.646  26.113  27.555  1.00  0.00     0.049 A 
ATOM     44  N   UNL A   1      41.104  28.286  28.975  1.00  0.00    -0.248 NA
ATOM     45  C   UNL A   1      39.359  26.758  29.248  1.00  0.00     0.031 C 
ATOM     46  C   UNL A   1      43.410  25.103  26.819  1.00  0.00     0.029 A 
ATOM     47  N   UNL A   1      43.549  27.122  27.772  1.00  0.00    -0.354 N 
ATOM     48  C   UNL A   1      40.091  28.878  29.717  1.00  0.00     0.074 A 
ATOM     49  C   UNL A   1      39.034  27.896  29.848  1.00  0.00     0.031 C 
ATOM     50  C   UNL A   1      44.655  25.551  26.623  1.00  0.00     0.029 A 
ATOM     51  C   UNL A   1      44.743  26.915  27.129  1.00  0.00     0.049 A 
ATOM     52  H   UNL A   1      43.359  27.912  28.330  1.00  0.00     0.167 HD
ATOM     53  C   UNL A   1      40.060  30.135  30.222  1.00  0.00     0.037 A 
ATOM     54  C   UNL A   1      45.766  27.753  26.891  1.00  0.00     0.037 A 
ATOM     55  C   UNL A   1      41.142  31.082  30.093  1.00  0.00     0.049 A 
ATOM     56  C   UNL A   1      45.683  29.158  27.396  1.00  0.00     0.074 A 
ATOM     57  C   UNL A   1      41.227  32.371  30.589  1.00  0.00     0.029 A 
ATOM     58  N   UNL A   1      42.331  30.837  29.418  1.00  0.00    -0.354 N 
ATOM     59  N   UNL A   1      44.701  29.743  28.038  1.00  0.00    -0.248 NA
ATOM     60  C   UNL A   1      46.841  30.021  27.140  1.00  0.00     0.031 C 
ATOM     61  C   UNL A   1      42.449  32.920  30.182  1.00  0.00     0.029 A 
ATOM     62  C   UNL A   1      43.148  31.956  29.473  1.00  0.00     0.049 A 
ATOM     63  H   UNL A   1      42.560  29.994  28.967  1.00  0.00     0.167 HD
ATOM     64  C   UNL A   1      45.121  31.044  28.269  1.00  0.00     0.074 A 
ATOM     65  C   UNL A   1      46.456  31.154  27.711  1.00  0.00     0.031 C 
ATOM     66  C   UNL A   1      44.462  32.051  28.890  1.00  0.00     0.037 A 
BRANCH  53  67
ATOM     67  C   UNL A   1      38.816  30.585  30.929  1.00  0.00     0.064 A 
ATOM     68  C   UNL A   1      38.665  30.466  32.318  1.00  0.00     0.173 A 
ATOM     69  C   UNL A   1      37.793  31.227  30.213  1.00  0.00     0.173 A 
ATOM     70  F   UNL A   1      39.606  29.850  33.050  1.00  0.00    -0.203 F 
ATOM     71  C   UNL A   1      37.536  30.968  32.963  1.00  0.00     0.198 A 
ATOM     72  C   UNL A   1      36.677  31.750  30.863  1.00  0.00     0.198 A 
ATOM     73  F   UNL A   1      37.887  31.371  28.883  1.00  0.00    -0.203 F 
ATOM     74  F   UNL A   1      37.403  30.823  34.289  1.00  0.00    -0.200 F 
ATOM     75  C   UNL A   1      36.549  31.619  32.236  1.00  0.00     0.200 A 
ATOM     76  F   UNL A   1      35.731  32.388  30.160  1.00  0.00    -0.200 F 
ATOM     77  F   UNL A   1      35.474  32.118  32.861  1.00  0.00    -0.200 F 
ENDBRANCH  53  67
BRANCH  54  78
ATOM     78  C   UNL A   1      46.907  27.269  26.077  1.00  0.00     0.064 A 
ATOM     79  C   UNL A   1      46.998  27.567  24.714  1.00  0.00     0.173 A 
ATOM     80  C   UNL A   1      47.984  26.596  26.677  1.00  0.00     0.173 A 
ATOM     81  F   UNL A   1      45.985  28.193  24.097  1.00  0.00    -0.203 F 
ATOM     82  C   UNL A   1      48.132  27.225  23.981  1.00  0.00     0.198 A 
ATOM     83  C   UNL A   1      49.128  26.279  25.950  1.00  0.00     0.198 A 
ATOM     84  F   UNL A   1      47.945  26.297  27.985  1.00  0.00    -0.203 F 
ATOM     85  F   UNL A   1      48.194  27.516  22.675  1.00  0.00    -0.200 F 
ATOM     86  C   UNL A   1      49.201  26.596  24.602  1.00  0.00     0.200 A 
ATOM     87  F   UNL A   1      50.168  25.694  26.560  1.00  0.00    -0.200 F 
ATOM     88  F   UNL A   1      50.306  26.301  23.904  1.00  0.00    -0.200 F 
ENDBRANCH  54  78
BRANCH  66  89
ATOM     89  C   UNL A   1      45.196  33.353  29.010  1.00  0.00     0.064 A 
ATOM     90  C   UNL A   1      45.069  34.356  28.038  1.00  0.00     0.173 A 
ATOM     91  C   UNL A   1      46.038  33.594  30.104  1.00  0.00     0.173 A 
ATOM     92  F   UNL A   1      44.289  34.161  26.964  1.00  0.00    -0.203 F 
ATOM     93  C   UNL A   1      45.787  35.544  28.143  1.00  0.00     0.198 A 
ATOM     94  C   UNL A   1      46.735  34.792  30.217  1.00  0.00     0.198 A 
ATOM     95  F   UNL A   1      46.189  32.664  31.059  1.00  0.00    -0.203 F 
ATOM     96  F   UNL A   1      45.693  36.468  27.176  1.00  0.00    -0.200 F 
ATOM     97  C   UNL A   1      46.616  35.762  29.232  1.00  0.00     0.200 A 
ATOM     98  F   UNL A   1      47.532  35.005  31.274  1.00  0.00    -0.200 F 
ATOM     99  F   UNL A   1      47.313  36.904  29.328  1.00  0.00    -0.200 F 
ENDBRANCH  66  89
ENDBRANCH  40  41
ENDBRANCH  33  35
ENDBRANCH  32  33
ENDBRANCH  31  32
ENDBRANCH   1  31
TORSDOF 15
ENDMDL
