MODEL 1
REMARK VINA RESULT:     -12.2      0.000      0.000
REMARK SMILES O=C(Cc1ccccc1Nc1c(Cl)cccc1Cl)OCCOC(=O)c1ccc(-c2c3nc(c(-c4c(F)c(F)c(F)c(F)c4F)c4ccc([nH]4)c(-c4c(F)c(F)c(F)c(F)c4F)c4nc(c(-c5c(F)c(F)c(F)c(F)c5F)c5ccc2[nH]5)C=C4)C=C3)cc1
REMARK SMILES IDX 20 1 19 2 2 3 1 4 3 5 4 6 5 7 9 8 6 9 8 10 7 11 10 12 11 14
REMARK SMILES IDX 12 15 17 16 13 17 14 18 16 19 18 20 15 21 21 22 22 23 23 24
REMARK SMILES IDX 24 25 25 26 26 27 87 28 27 29 86 30 28 31 29 32 30 33 80 34
REMARK SMILES IDX 31 35 85 36 79 37 81 38 32 39 84 40 78 41 77 42 33 44 65 45
REMARK SMILES IDX 45 46 64 47 46 48 49 49 63 50 82 51 47 52 48 53 62 55 83 56
REMARK SMILES IDX 50 57 34 58 35 59 43 60 36 61 37 62 41 63 44 64 38 65 39 66
REMARK SMILES IDX 42 67 40 68 66 69 67 70 75 71 68 72 69 73 73 74 76 75 70 76
REMARK SMILES IDX 71 77 74 78 72 79 51 80 52 81 60 82 53 83 54 84 58 85 61 86
REMARK SMILES IDX 55 87 56 88 59 89 57 90
REMARK H PARENT 10 13 81 43 49 54
REMARK Flexibility Score: inf
ROOT
ATOM      1  C   UNL A   1      31.837  29.727  26.014  1.00  0.00     0.274 C 
ENDROOT
BRANCH   1   2
ATOM      2  O   UNL A   1      32.224  28.737  26.983  1.00  0.00    -0.462 OA
BRANCH   2   3
ATOM      3  C   UNL A   1      32.319  27.432  26.593  1.00  0.00     0.310 C 
ATOM      4  O   UNL A   1      31.455  26.621  26.917  1.00  0.00    -0.252 OA
BRANCH   3   5
ATOM      5  C   UNL A   1      33.649  27.016  25.994  1.00  0.00     0.160 C 
BRANCH   5   6
ATOM      6  C   UNL A   1      33.592  26.525  24.566  1.00  0.00    -0.013 A 
ATOM      7  C   UNL A   1      33.212  27.416  23.549  1.00  0.00     0.006 A 
ATOM      8  C   UNL A   1      33.903  25.190  24.236  1.00  0.00     0.042 A 
ATOM      9  C   UNL A   1      33.095  26.981  22.231  1.00  0.00     0.000 A 
ATOM     10  C   UNL A   1      33.765  24.766  22.908  1.00  0.00     0.026 A 
ATOM     11  C   UNL A   1      33.366  25.655  21.910  1.00  0.00     0.002 A 
BRANCH   8  12
ATOM     12  N   UNL A   1      34.188  24.253  25.247  1.00  0.00    -0.353 N 
ATOM     13  H   UNL A   1      34.132  24.606  26.165  1.00  0.00     0.167 HD
BRANCH  12  14
ATOM     14  C   UNL A   1      34.540  22.881  25.157  1.00  0.00     0.076 A 
ATOM     15  C   UNL A   1      35.913  22.538  25.138  1.00  0.00     0.066 A 
ATOM     16  C   UNL A   1      33.618  21.824  25.011  1.00  0.00     0.066 A 
ATOM     17  Cl  UNL A   1      37.125  23.777  25.220  1.00  0.00    -0.082 Cl
ATOM     18  C   UNL A   1      36.346  21.213  25.037  1.00  0.00     0.023 A 
ATOM     19  C   UNL A   1      34.055  20.494  24.914  1.00  0.00     0.023 A 
ATOM     20  Cl  UNL A   1      31.914  22.070  24.830  1.00  0.00    -0.082 Cl
ATOM     21  C   UNL A   1      35.414  20.188  24.935  1.00  0.00     0.003 A 
ENDBRANCH  12  14
ENDBRANCH   8  12
ENDBRANCH   5   6
ENDBRANCH   3   5
ENDBRANCH   2   3
ENDBRANCH   1   2
BRANCH   1  22
ATOM     22  C   UNL A   1      31.990  31.168  26.514  1.00  0.00     0.275 C 
BRANCH  22  23
ATOM     23  O   UNL A   1      32.807  31.228  27.694  1.00  0.00    -0.458 OA
BRANCH  23  24
ATOM     24  C   UNL A   1      33.623  32.309  27.733  1.00  0.00     0.338 C 
ATOM     25  O   UNL A   1      33.281  33.481  27.714  1.00  0.00    -0.246 OA
BRANCH  24  26
ATOM     26  C   UNL A   1      35.021  31.892  27.965  1.00  0.00     0.060 A 
ATOM     27  C   UNL A   1      35.269  30.516  28.013  1.00  0.00     0.016 A 
ATOM     28  C   UNL A   1      36.058  32.804  28.185  1.00  0.00     0.016 A 
ATOM     29  C   UNL A   1      36.528  30.046  28.377  1.00  0.00     0.010 A 
ATOM     30  C   UNL A   1      37.326  32.330  28.547  1.00  0.00     0.010 A 
ATOM     31  C   UNL A   1      37.546  30.951  28.704  1.00  0.00    -0.014 A 
BRANCH  31  32
ATOM     32  C   UNL A   1      38.733  30.434  29.430  1.00  0.00     0.031 A 
ATOM     33  C   UNL A   1      38.932  30.854  30.862  1.00  0.00     0.074 A 
ATOM     34  C   UNL A   1      39.561  29.533  28.873  1.00  0.00     0.049 A 
ATOM     35  N   UNL A   1      39.793  30.418  31.747  1.00  0.00    -0.248 NA
ATOM     36  C   UNL A   1      38.033  31.904  31.367  1.00  0.00     0.031 C 
ATOM     37  C   UNL A   1      39.471  29.030  27.505  1.00  0.00     0.029 A 
ATOM     38  N   UNL A   1      40.636  28.867  29.410  1.00  0.00    -0.354 N 
ATOM     39  C   UNL A   1      39.526  31.126  32.911  1.00  0.00     0.074 A 
ATOM     40  C   UNL A   1      38.461  32.056  32.610  1.00  0.00     0.031 C 
ATOM     41  C   UNL A   1      40.445  28.123  27.311  1.00  0.00     0.029 A 
ATOM     42  C   UNL A   1      41.226  27.984  28.540  1.00  0.00     0.049 A 
ATOM     43  H   UNL A   1      40.952  29.010  30.331  1.00  0.00     0.167 HD
ATOM     44  C   UNL A   1      40.100  30.999  34.131  1.00  0.00     0.037 A 
ATOM     45  C   UNL A   1      42.267  27.150  28.726  1.00  0.00     0.037 A 
ATOM     46  C   UNL A   1      41.160  30.080  34.440  1.00  0.00     0.049 A 
ATOM     47  C   UNL A   1      42.922  27.062  30.081  1.00  0.00     0.074 A 
ATOM     48  C   UNL A   1      41.794  29.866  35.651  1.00  0.00     0.029 A 
ATOM     49  N   UNL A   1      41.751  29.225  33.521  1.00  0.00    -0.354 N 
ATOM     50  N   UNL A   1      42.617  27.683  31.194  1.00  0.00    -0.248 NA
ATOM     51  C   UNL A   1      44.057  26.136  30.208  1.00  0.00     0.031 C 
ATOM     52  C   UNL A   1      42.799  28.912  35.456  1.00  0.00     0.029 A 
ATOM     53  C   UNL A   1      42.757  28.498  34.134  1.00  0.00     0.049 A 
ATOM     54  H   UNL A   1      41.493  29.148  32.574  1.00  0.00     0.167 HD
ATOM     55  C   UNL A   1      43.487  27.192  32.159  1.00  0.00     0.074 A 
ATOM     56  C   UNL A   1      44.334  26.219  31.502  1.00  0.00     0.031 C 
ATOM     57  C   UNL A   1      43.576  27.514  33.473  1.00  0.00     0.037 A 
BRANCH  44  58
ATOM     58  C   UNL A   1      39.592  31.893  35.223  1.00  0.00     0.064 A 
ATOM     59  C   UNL A   1      38.648  31.443  36.158  1.00  0.00     0.173 A 
ATOM     60  C   UNL A   1      40.065  33.207  35.343  1.00  0.00     0.173 A 
ATOM     61  F   UNL A   1      38.153  30.200  36.073  1.00  0.00    -0.203 F 
ATOM     62  C   UNL A   1      38.175  32.288  37.160  1.00  0.00     0.198 A 
ATOM     63  C   UNL A   1      39.609  34.040  36.360  1.00  0.00     0.198 A 
ATOM     64  F   UNL A   1      40.967  33.684  34.472  1.00  0.00    -0.203 F 
ATOM     65  F   UNL A   1      37.238  31.854  38.013  1.00  0.00    -0.200 F 
ATOM     66  C   UNL A   1      38.660  33.583  37.263  1.00  0.00     0.200 A 
ATOM     67  F   UNL A   1      40.083  35.289  36.465  1.00  0.00    -0.200 F 
ATOM     68  F   UNL A   1      38.205  34.394  38.228  1.00  0.00    -0.200 F 
ENDBRANCH  44  58
BRANCH  45  69
ATOM     69  C   UNL A   1      42.742  26.293  27.609  1.00  0.00     0.064 A 
ATOM     70  C   UNL A   1      43.753  26.731  26.742  1.00  0.00     0.173 A 
ATOM     71  C   UNL A   1      42.168  25.038  27.362  1.00  0.00     0.173 A 
ATOM     72  F   UNL A   1      44.313  27.937  26.921  1.00  0.00    -0.203 F 
ATOM     73  C   UNL A   1      44.154  25.956  25.655  1.00  0.00     0.198 A 
ATOM     74  C   UNL A   1      42.586  24.254  26.289  1.00  0.00     0.198 A 
ATOM     75  F   UNL A   1      41.194  24.577  28.161  1.00  0.00    -0.203 F 
ATOM     76  F   UNL A   1      45.085  26.422  24.811  1.00  0.00    -0.200 F 
ATOM     77  C   UNL A   1      43.572  24.718  25.432  1.00  0.00     0.200 A 
ATOM     78  F   UNL A   1      42.026  23.055  26.080  1.00  0.00    -0.200 F 
ATOM     79  F   UNL A   1      43.954  23.977  24.382  1.00  0.00    -0.200 F 
ENDBRANCH  45  69
BRANCH  57  80
ATOM     80  C   UNL A   1      44.580  26.770  34.305  1.00  0.00     0.064 A 
ATOM     81  C   UNL A   1      44.266  25.554  34.931  1.00  0.00     0.173 A 
ATOM     82  C   UNL A   1      45.888  27.261  34.442  1.00  0.00     0.173 A 
ATOM     83  F   UNL A   1      43.027  25.048  34.840  1.00  0.00    -0.203 F 
ATOM     84  C   UNL A   1      45.218  24.873  35.685  1.00  0.00     0.198 A 
ATOM     85  C   UNL A   1      46.844  26.563  35.173  1.00  0.00     0.198 A 
ATOM     86  F   UNL A   1      46.241  28.415  33.855  1.00  0.00    -0.203 F 
ATOM     87  F   UNL A   1      44.884  23.737  36.313  1.00  0.00    -0.200 F 
ATOM     88  C   UNL A   1      46.507  25.374  35.801  1.00  0.00     0.200 A 
ATOM     89  F   UNL A   1      48.092  27.041  35.272  1.00  0.00    -0.200 F 
ATOM     90  F   UNL A   1      47.421  24.713  36.524  1.00  0.00    -0.200 F 
ENDBRANCH  57  80
ENDBRANCH  31  32
ENDBRANCH  24  26
ENDBRANCH  23  24
ENDBRANCH  22  23
ENDBRANCH   1  22
TORSDOF 14
ENDMDL
MODEL 2
REMARK VINA RESULT:     -12.2      4.367      9.905
REMARK SMILES O=C(Cc1ccccc1Nc1c(Cl)cccc1Cl)OCCOC(=O)c1ccc(-c2c3nc(c(-c4c(F)c(F)c(F)c(F)c4F)c4ccc([nH]4)c(-c4c(F)c(F)c(F)c(F)c4F)c4nc(c(-c5c(F)c(F)c(F)c(F)c5F)c5ccc2[nH]5)C=C4)C=C3)cc1
REMARK SMILES IDX 20 1 19 2 2 3 1 4 3 5 4 6 5 7 9 8 6 9 8 10 7 11 10 12 11 14
REMARK SMILES IDX 12 15 17 16 13 17 14 18 16 19 18 20 15 21 21 22 22 23 23 24
REMARK SMILES IDX 24 25 25 26 26 27 87 28 27 29 86 30 28 31 29 32 30 33 80 34
REMARK SMILES IDX 31 35 85 36 79 37 81 38 32 39 84 40 78 41 77 42 33 44 65 45
REMARK SMILES IDX 45 46 64 47 46 48 49 49 63 50 82 51 47 52 48 53 62 55 83 56
REMARK SMILES IDX 50 57 34 58 35 59 43 60 36 61 37 62 41 63 44 64 38 65 39 66
REMARK SMILES IDX 42 67 40 68 66 69 67 70 75 71 68 72 69 73 73 74 76 75 70 76
REMARK SMILES IDX 71 77 74 78 72 79 51 80 52 81 60 82 53 83 54 84 58 85 61 86
REMARK SMILES IDX 55 87 56 88 59 89 57 90
REMARK H PARENT 10 13 81 43 49 54
REMARK Flexibility Score: inf
ROOT
ATOM      1  C   UNL A   1      36.277  20.521  24.990  1.00  0.00     0.274 C 
ENDROOT
BRANCH   1   2
ATOM      2  O   UNL A   1      35.861  21.384  26.062  1.00  0.00    -0.462 OA
BRANCH   2   3
ATOM      3  C   UNL A   1      35.285  22.585  25.760  1.00  0.00     0.310 C 
ATOM      4  O   UNL A   1      35.513  23.131  24.683  1.00  0.00    -0.252 OA
BRANCH   3   5
ATOM      5  C   UNL A   1      34.597  23.296  26.908  1.00  0.00     0.160 C 
BRANCH   5   6
ATOM      6  C   UNL A   1      33.140  23.629  26.686  1.00  0.00    -0.013 A 
ATOM      7  C   UNL A   1      32.159  22.703  27.079  1.00  0.00     0.006 A 
ATOM      8  C   UNL A   1      32.747  24.841  26.086  1.00  0.00     0.042 A 
ATOM      9  C   UNL A   1      30.810  22.953  26.837  1.00  0.00     0.000 A 
ATOM     10  C   UNL A   1      31.387  25.070  25.836  1.00  0.00     0.026 A 
ATOM     11  C   UNL A   1      30.423  24.134  26.210  1.00  0.00     0.002 A 
BRANCH   8  12
ATOM     12  N   UNL A   1      33.713  25.739  25.591  1.00  0.00    -0.353 N 
ATOM     13  H   UNL A   1      34.557  25.756  26.096  1.00  0.00     0.167 HD
BRANCH  12  14
ATOM     14  C   UNL A   1      33.665  26.622  24.481  1.00  0.00     0.076 A 
ATOM     15  C   UNL A   1      33.684  28.015  24.729  1.00  0.00     0.066 A 
ATOM     16  C   UNL A   1      33.526  26.215  23.139  1.00  0.00     0.066 A 
ATOM     17  Cl  UNL A   1      33.761  28.615  26.355  1.00  0.00    -0.082 Cl
ATOM     18  C   UNL A   1      33.626  28.954  23.694  1.00  0.00     0.023 A 
ATOM     19  C   UNL A   1      33.472  27.159  22.101  1.00  0.00     0.023 A 
ATOM     20  Cl  UNL A   1      33.303  24.566  22.665  1.00  0.00    -0.082 Cl
ATOM     21  C   UNL A   1      33.531  28.524  22.376  1.00  0.00     0.003 A 
ENDBRANCH  12  14
ENDBRANCH   8  12
ENDBRANCH   5   6
ENDBRANCH   3   5
ENDBRANCH   2   3
ENDBRANCH   1   2
BRANCH   1  22
ATOM     22  C   UNL A   1      37.777  20.206  25.001  1.00  0.00     0.275 C 
BRANCH  22  23
ATOM     23  O   UNL A   1      38.554  21.375  25.306  1.00  0.00    -0.458 OA
BRANCH  23  24
ATOM     24  C   UNL A   1      39.628  21.120  26.094  1.00  0.00     0.338 C 
ATOM     25  O   UNL A   1      40.310  20.108  26.089  1.00  0.00    -0.246 OA
BRANCH  24  26
ATOM     26  C   UNL A   1      39.985  22.317  26.881  1.00  0.00     0.060 A 
ATOM     27  C   UNL A   1      39.256  23.483  26.624  1.00  0.00     0.016 A 
ATOM     28  C   UNL A   1      41.033  22.331  27.808  1.00  0.00     0.016 A 
ATOM     29  C   UNL A   1      39.632  24.686  27.214  1.00  0.00     0.010 A 
ATOM     30  C   UNL A   1      41.409  23.542  28.405  1.00  0.00     0.010 A 
ATOM     31  C   UNL A   1      40.747  24.733  28.061  1.00  0.00    -0.014 A 
BRANCH  31  32
ATOM     32  C   UNL A   1      41.333  26.061  28.371  1.00  0.00     0.031 A 
ATOM     33  C   UNL A   1      42.713  26.370  27.853  1.00  0.00     0.074 A 
ATOM     34  C   UNL A   1      40.627  27.012  29.006  1.00  0.00     0.049 A 
ATOM     35  N   UNL A   1      43.370  27.503  27.854  1.00  0.00    -0.248 NA
ATOM     36  C   UNL A   1      43.450  25.251  27.243  1.00  0.00     0.031 C 
ATOM     37  C   UNL A   1      39.277  26.849  29.542  1.00  0.00     0.029 A 
ATOM     38  N   UNL A   1      40.950  28.317  29.288  1.00  0.00    -0.354 N 
ATOM     39  C   UNL A   1      44.583  27.234  27.234  1.00  0.00     0.074 A 
ATOM     40  C   UNL A   1      44.596  25.824  26.915  1.00  0.00     0.031 C 
ATOM     41  C   UNL A   1      38.881  28.017  30.081  1.00  0.00     0.029 A 
ATOM     42  C   UNL A   1      39.949  29.005  29.927  1.00  0.00     0.049 A 
ATOM     43  H   UNL A   1      41.817  28.719  29.054  1.00  0.00     0.167 HD
ATOM     44  C   UNL A   1      45.589  28.089  26.934  1.00  0.00     0.037 A 
ATOM     45  C   UNL A   1      39.899  30.291  30.325  1.00  0.00     0.037 A 
ATOM     46  C   UNL A   1      45.587  29.491  27.249  1.00  0.00     0.049 A 
ATOM     47  C   UNL A   1      41.054  31.212  30.023  1.00  0.00     0.074 A 
ATOM     48  C   UNL A   1      46.553  30.441  26.970  1.00  0.00     0.029 A 
ATOM     49  N   UNL A   1      44.567  30.142  27.925  1.00  0.00    -0.354 N 
ATOM     50  N   UNL A   1      42.166  30.967  29.374  1.00  0.00    -0.248 NA
ATOM     51  C   UNL A   1      40.934  32.600  30.495  1.00  0.00     0.031 C 
ATOM     52  C   UNL A   1      46.137  31.661  27.515  1.00  0.00     0.029 A 
ATOM     53  C   UNL A   1      44.890  31.478  28.092  1.00  0.00     0.049 A 
ATOM     54  H   UNL A   1      43.736  29.717  28.240  1.00  0.00     0.167 HD
ATOM     55  C   UNL A   1      42.853  32.173  29.318  1.00  0.00     0.074 A 
ATOM     56  C   UNL A   1      42.033  33.152  30.000  1.00  0.00     0.031 C 
ATOM     57  C   UNL A   1      44.053  32.447  28.751  1.00  0.00     0.037 A 
BRANCH  44  58
ATOM     58  C   UNL A   1      46.787  27.518  26.236  1.00  0.00     0.064 A 
ATOM     59  C   UNL A   1      47.814  26.878  26.948  1.00  0.00     0.173 A 
ATOM     60  C   UNL A   1      46.904  27.600  24.841  1.00  0.00     0.173 A 
ATOM     61  F   UNL A   1      47.755  26.791  28.285  1.00  0.00    -0.203 F 
ATOM     62  C   UNL A   1      48.927  26.362  26.288  1.00  0.00     0.198 A 
ATOM     63  C   UNL A   1      48.006  27.061  24.184  1.00  0.00     0.198 A 
ATOM     64  F   UNL A   1      45.950  28.203  24.117  1.00  0.00    -0.203 F 
ATOM     65  F   UNL A   1      49.918  25.797  26.991  1.00  0.00    -0.200 F 
ATOM     66  C   UNL A   1      49.020  26.450  24.907  1.00  0.00     0.200 A 
ATOM     67  F   UNL A   1      48.092  27.140  22.849  1.00  0.00    -0.200 F 
ATOM     68  F   UNL A   1      50.091  25.953  24.274  1.00  0.00    -0.200 F 
ENDBRANCH  44  58
BRANCH  45  69
ATOM     69  C   UNL A   1      38.696  30.807  31.026  1.00  0.00     0.064 A 
ATOM     70  C   UNL A   1      37.644  31.401  30.316  1.00  0.00     0.173 A 
ATOM     71  C   UNL A   1      38.591  30.753  32.423  1.00  0.00     0.173 A 
ATOM     72  F   UNL A   1      37.711  31.501  28.980  1.00  0.00    -0.203 F 
ATOM     73  C   UNL A   1      36.544  31.944  30.978  1.00  0.00     0.198 A 
ATOM     74  C   UNL A   1      37.481  31.274  33.083  1.00  0.00     0.198 A 
ATOM     75  F   UNL A   1      39.575  30.199  33.149  1.00  0.00    -0.203 F 
ATOM     76  F   UNL A   1      35.577  32.553  30.278  1.00  0.00    -0.200 F 
ATOM     77  C   UNL A   1      36.462  31.876  32.360  1.00  0.00     0.200 A 
ATOM     78  F   UNL A   1      37.403  31.203  34.419  1.00  0.00    -0.200 F 
ATOM     79  F   UNL A   1      35.408  32.405  32.997  1.00  0.00    -0.200 F 
ENDBRANCH  45  69
BRANCH  57  80
ATOM     80  C   UNL A   1      44.530  33.871  28.786  1.00  0.00     0.064 A 
ATOM     81  C   UNL A   1      45.350  34.351  29.818  1.00  0.00     0.173 A 
ATOM     82  C   UNL A   1      44.194  34.754  27.748  1.00  0.00     0.173 A 
ATOM     83  F   UNL A   1      45.690  33.549  30.838  1.00  0.00    -0.203 F 
ATOM     84  C   UNL A   1      45.793  35.671  29.822  1.00  0.00     0.198 A 
ATOM     85  C   UNL A   1      44.661  36.065  27.742  1.00  0.00     0.198 A 
ATOM     86  F   UNL A   1      43.419  34.342  26.733  1.00  0.00    -0.203 F 
ATOM     87  F   UNL A   1      46.537  36.122  30.842  1.00  0.00    -0.200 F 
ATOM     88  C   UNL A   1      45.454  36.525  28.783  1.00  0.00     0.200 A 
ATOM     89  F   UNL A   1      44.345  36.885  26.730  1.00  0.00    -0.200 F 
ATOM     90  F   UNL A   1      45.886  37.793  28.788  1.00  0.00    -0.200 F 
ENDBRANCH  57  80
ENDBRANCH  31  32
ENDBRANCH  24  26
ENDBRANCH  23  24
ENDBRANCH  22  23
ENDBRANCH   1  22
TORSDOF 14
ENDMDL
MODEL 3
REMARK VINA RESULT:     -12.2      1.064      2.060
REMARK SMILES O=C(Cc1ccccc1Nc1c(Cl)cccc1Cl)OCCOC(=O)c1ccc(-c2c3nc(c(-c4c(F)c(F)c(F)c(F)c4F)c4ccc([nH]4)c(-c4c(F)c(F)c(F)c(F)c4F)c4nc(c(-c5c(F)c(F)c(F)c(F)c5F)c5ccc2[nH]5)C=C4)C=C3)cc1
REMARK SMILES IDX 20 1 19 2 2 3 1 4 3 5 4 6 5 7 9 8 6 9 8 10 7 11 10 12 11 14
REMARK SMILES IDX 12 15 17 16 13 17 14 18 16 19 18 20 15 21 21 22 22 23 23 24
REMARK SMILES IDX 24 25 25 26 26 27 87 28 27 29 86 30 28 31 29 32 30 33 80 34
REMARK SMILES IDX 31 35 85 36 79 37 81 38 32 39 84 40 78 41 77 42 33 44 65 45
REMARK SMILES IDX 45 46 64 47 46 48 49 49 63 50 82 51 47 52 48 53 62 55 83 56
REMARK SMILES IDX 50 57 34 58 35 59 43 60 36 61 37 62 41 63 44 64 38 65 39 66
REMARK SMILES IDX 42 67 40 68 66 69 67 70 75 71 68 72 69 73 73 74 76 75 70 76
REMARK SMILES IDX 71 77 74 78 72 79 51 80 52 81 60 82 53 83 54 84 58 85 61 86
REMARK SMILES IDX 55 87 56 88 59 89 57 90
REMARK H PARENT 10 13 81 43 49 54
REMARK Flexibility Score: inf
ROOT
ATOM      1  C   UNL A   1      32.136  30.921  26.575  1.00  0.00     0.274 C 
ENDROOT
BRANCH   1   2
ATOM      2  O   UNL A   1      31.529  29.794  27.231  1.00  0.00    -0.462 OA
BRANCH   2   3
ATOM      3  C   UNL A   1      32.089  28.558  27.075  1.00  0.00     0.310 C 
ATOM      4  O   UNL A   1      31.582  27.574  27.607  1.00  0.00    -0.252 OA
BRANCH   3   5
ATOM      5  C   UNL A   1      33.472  28.532  26.455  1.00  0.00     0.160 C 
BRANCH   5   6
ATOM      6  C   UNL A   1      33.537  28.025  25.033  1.00  0.00    -0.013 A 
ATOM      7  C   UNL A   1      33.631  28.951  23.980  1.00  0.00     0.006 A 
ATOM      8  C   UNL A   1      33.497  26.647  24.742  1.00  0.00     0.042 A 
ATOM      9  C   UNL A   1      33.635  28.520  22.656  1.00  0.00     0.000 A 
ATOM     10  C   UNL A   1      33.487  26.233  23.403  1.00  0.00     0.026 A 
ATOM     11  C   UNL A   1      33.558  27.162  22.366  1.00  0.00     0.002 A 
BRANCH   8  12
ATOM     12  N   UNL A   1      33.301  25.706  25.771  1.00  0.00    -0.353 N 
ATOM     13  H   UNL A   1      33.571  26.012  26.667  1.00  0.00     0.167 HD
BRANCH  12  14
ATOM     14  C   UNL A   1      32.775  24.388  25.724  1.00  0.00     0.076 A 
ATOM     15  C   UNL A   1      33.683  23.303  25.680  1.00  0.00     0.066 A 
ATOM     16  C   UNL A   1      31.403  24.075  25.646  1.00  0.00     0.066 A 
ATOM     17  Cl  UNL A   1      35.393  23.592  25.679  1.00  0.00    -0.082 Cl
ATOM     18  C   UNL A   1      33.250  21.976  25.618  1.00  0.00     0.023 A 
ATOM     19  C   UNL A   1      30.970  22.741  25.588  1.00  0.00     0.023 A 
ATOM     20  Cl  UNL A   1      30.162  25.273  25.504  1.00  0.00    -0.082 Cl
ATOM     21  C   UNL A   1      31.890  21.694  25.583  1.00  0.00     0.003 A 
ENDBRANCH  12  14
ENDBRANCH   8  12
ENDBRANCH   5   6
ENDBRANCH   3   5
ENDBRANCH   2   3
ENDBRANCH   1   2
BRANCH   1  22
ATOM     22  C   UNL A   1      31.804  32.266  27.232  1.00  0.00     0.275 C 
BRANCH  22  23
ATOM     23  O   UNL A   1      32.893  33.194  27.102  1.00  0.00    -0.458 OA
BRANCH  23  24
ATOM     24  C   UNL A   1      33.462  33.529  28.286  1.00  0.00     0.338 C 
ATOM     25  O   UNL A   1      32.946  34.175  29.184  1.00  0.00    -0.246 OA
BRANCH  24  26
ATOM     26  C   UNL A   1      34.773  32.866  28.434  1.00  0.00     0.060 A 
ATOM     27  C   UNL A   1      34.760  31.524  28.831  1.00  0.00     0.016 A 
ATOM     28  C   UNL A   1      35.987  33.535  28.248  1.00  0.00     0.016 A 
ATOM     29  C   UNL A   1      35.953  30.876  29.138  1.00  0.00     0.010 A 
ATOM     30  C   UNL A   1      37.188  32.881  28.553  1.00  0.00     0.010 A 
ATOM     31  C   UNL A   1      37.169  31.569  29.058  1.00  0.00    -0.014 A 
BRANCH  31  32
ATOM     32  C   UNL A   1      38.353  30.982  29.732  1.00  0.00     0.031 A 
ATOM     33  C   UNL A   1      38.595  31.328  31.177  1.00  0.00     0.074 A 
ATOM     34  C   UNL A   1      39.140  30.083  29.116  1.00  0.00     0.049 A 
ATOM     35  N   UNL A   1      39.461  30.824  32.022  1.00  0.00    -0.248 NA
ATOM     36  C   UNL A   1      37.742  32.380  31.751  1.00  0.00     0.031 C 
ATOM     37  C   UNL A   1      39.004  29.648  27.728  1.00  0.00     0.029 A 
ATOM     38  N   UNL A   1      40.203  29.359  29.597  1.00  0.00    -0.354 N 
ATOM     39  C   UNL A   1      39.241  31.484  33.223  1.00  0.00     0.074 A 
ATOM     40  C   UNL A   1      38.201  32.460  32.990  1.00  0.00     0.031 C 
ATOM     41  C   UNL A   1      39.945  28.721  27.470  1.00  0.00     0.029 A 
ATOM     42  C   UNL A   1      40.746  28.500  28.674  1.00  0.00     0.049 A 
ATOM     43  H   UNL A   1      40.544  29.448  30.516  1.00  0.00     0.167 HD
ATOM     44  C   UNL A   1      39.836  31.282  34.422  1.00  0.00     0.037 A 
ATOM     45  C   UNL A   1      41.763  27.626  28.797  1.00  0.00     0.037 A 
ATOM     46  C   UNL A   1      40.873  30.316  34.664  1.00  0.00     0.049 A 
ATOM     47  C   UNL A   1      42.443  27.454  30.131  1.00  0.00     0.074 A 
ATOM     48  C   UNL A   1      41.525  30.026  35.849  1.00  0.00     0.029 A 
ATOM     49  N   UNL A   1      41.416  29.488  33.694  1.00  0.00    -0.354 N 
ATOM     50  N   UNL A   1      42.183  28.031  31.278  1.00  0.00    -0.248 NA
ATOM     51  C   UNL A   1      43.551  26.488  30.189  1.00  0.00     0.031 C 
ATOM     52  C   UNL A   1      42.494  29.051  35.587  1.00  0.00     0.029 A 
ATOM     53  C   UNL A   1      42.411  28.701  34.249  1.00  0.00     0.049 A 
ATOM     54  H   UNL A   1      41.135  29.463  32.750  1.00  0.00     0.167 HD
ATOM     55  C   UNL A   1      43.057  27.468  32.200  1.00  0.00     0.074 A 
ATOM     56  C   UNL A   1      43.857  26.501  31.479  1.00  0.00     0.031 C 
ATOM     57  C   UNL A   1      43.183  27.725  33.525  1.00  0.00     0.037 A 
BRANCH  44  58
ATOM     58  C   UNL A   1      39.381  32.139  35.565  1.00  0.00     0.064 A 
ATOM     59  C   UNL A   1      38.437  31.677  36.496  1.00  0.00     0.173 A 
ATOM     60  C   UNL A   1      39.903  33.428  35.740  1.00  0.00     0.173 A 
ATOM     61  F   UNL A   1      37.896  30.458  36.361  1.00  0.00    -0.203 F 
ATOM     62  C   UNL A   1      38.014  32.488  37.546  1.00  0.00     0.198 A 
ATOM     63  C   UNL A   1      39.496  34.225  36.805  1.00  0.00     0.198 A 
ATOM     64  F   UNL A   1      40.806  33.914  34.876  1.00  0.00    -0.203 F 
ATOM     65  F   UNL A   1      37.077  32.046  38.396  1.00  0.00    -0.200 F 
ATOM     66  C   UNL A   1      38.547  33.759  37.703  1.00  0.00     0.200 A 
ATOM     67  F   UNL A   1      40.017  35.450  36.960  1.00  0.00    -0.200 F 
ATOM     68  F   UNL A   1      38.139  34.537  38.714  1.00  0.00    -0.200 F 
ENDBRANCH  44  58
BRANCH  45  69
ATOM     69  C   UNL A   1      42.188  26.809  27.631  1.00  0.00     0.064 A 
ATOM     70  C   UNL A   1      41.615  25.554  27.380  1.00  0.00     0.173 A 
ATOM     71  C   UNL A   1      43.201  27.248  26.767  1.00  0.00     0.173 A 
ATOM     72  F   UNL A   1      40.662  25.079  28.195  1.00  0.00    -0.203 F 
ATOM     73  C   UNL A   1      42.058  24.758  26.325  1.00  0.00     0.198 A 
ATOM     74  C   UNL A   1      43.627  26.463  25.699  1.00  0.00     0.198 A 
ATOM     75  F   UNL A   1      43.783  28.440  26.968  1.00  0.00    -0.203 F 
ATOM     76  F   UNL A   1      41.531  23.541  26.140  1.00  0.00    -0.200 F 
ATOM     77  C   UNL A   1      43.061  25.216  25.484  1.00  0.00     0.200 A 
ATOM     78  F   UNL A   1      44.593  26.910  24.884  1.00  0.00    -0.200 F 
ATOM     79  F   UNL A   1      43.491  24.447  24.473  1.00  0.00    -0.200 F 
ENDBRANCH  45  69
BRANCH  57  80
ATOM     80  C   UNL A   1      44.180  26.911  34.299  1.00  0.00     0.064 A 
ATOM     81  C   UNL A   1      45.522  27.300  34.413  1.00  0.00     0.173 A 
ATOM     82  C   UNL A   1      43.773  25.747  34.970  1.00  0.00     0.173 A 
ATOM     83  F   UNL A   1      45.963  28.398  33.781  1.00  0.00    -0.203 F 
ATOM     84  C   UNL A   1      46.426  26.538  35.149  1.00  0.00     0.198 A 
ATOM     85  C   UNL A   1      44.673  25.004  35.727  1.00  0.00     0.198 A 
ATOM     86  F   UNL A   1      42.497  25.337  34.900  1.00  0.00    -0.203 F 
ATOM     87  F   UNL A   1      47.715  26.902  35.207  1.00  0.00    -0.200 F 
ATOM     88  C   UNL A   1      46.001  25.394  35.810  1.00  0.00     0.200 A 
ATOM     89  F   UNL A   1      44.257  23.907  36.376  1.00  0.00    -0.200 F 
ATOM     90  F   UNL A   1      46.872  24.666  36.521  1.00  0.00    -0.200 F 
ENDBRANCH  57  80
ENDBRANCH  31  32
ENDBRANCH  24  26
ENDBRANCH  23  24
ENDBRANCH  22  23
ENDBRANCH   1  22
TORSDOF 14
ENDMDL
