MODEL 1
REMARK VINA RESULT:     -10.3      0.000      0.000
REMARK SMILES O=C(OCCOC(=O)[C@@H]1CCCC[C@@H]1C(=O)Nc1cccc(C(F)(F)F)c1)c1ccc(-c2c3nc(c(-c4c(F)c(F)c(F)c(F)c4F)c4ccc([nH]4)c(-c4c(F)c(F)c(F)c(F)c4F)c4nc(c(-c5c(F)c(F)c(F)c(F)c5F)c5ccc2[nH]5)C=C4)C=C3)cc1
REMARK SMILES IDX 5 1 4 2 3 3 2 4 1 5 28 6 29 7 90 8 30 9 89 10 31 11 32 12
REMARK SMILES IDX 33 13 83 14 34 15 88 16 82 17 84 18 35 19 87 20 81 21 80 22
REMARK SMILES IDX 36 24 68 25 48 26 67 27 49 28 52 29 66 30 85 31 50 32 51 33
REMARK SMILES IDX 65 35 86 36 53 37 37 38 38 39 46 40 39 41 40 42 44 43 47 44
REMARK SMILES IDX 41 45 42 46 45 47 43 48 69 49 70 50 78 51 71 52 72 53 76 54
REMARK SMILES IDX 79 55 73 56 74 57 77 58 75 59 54 60 55 61 63 62 56 63 57 64
REMARK SMILES IDX 61 65 64 66 58 67 59 68 62 69 60 70 6 71 7 72 8 73 9 74
REMARK SMILES IDX 10 75 14 76 11 77 13 78 12 79 15 80 16 81 17 82 18 84 19 85
REMARK SMILES IDX 27 86 20 87 22 88 21 89 23 90 24 91 25 92 26 93
REMARK H PARENT 84 23 52 34 17 83
REMARK Flexibility Score: inf
ROOT
ATOM      1  C   UNL A   1      46.192  23.012  24.714  1.00  0.00     0.274 C 
ENDROOT
BRANCH   1   2
ATOM      2  C   UNL A   1      44.983  22.507  23.876  1.00  0.00     0.275 C 
BRANCH   2   3
ATOM      3  O   UNL A   1      43.766  23.277  24.125  1.00  0.00    -0.458 OA
BRANCH   3   4
ATOM      4  C   UNL A   1      42.900  22.960  25.143  1.00  0.00     0.338 C 
ATOM      5  O   UNL A   1      42.534  21.827  25.424  1.00  0.00    -0.246 OA
BRANCH   4   6
ATOM      6  C   UNL A   1      42.332  24.224  25.748  1.00  0.00     0.060 A 
ATOM      7  C   UNL A   1      41.477  24.052  26.808  1.00  0.00     0.016 A 
ATOM      8  C   UNL A   1      42.610  25.549  25.424  1.00  0.00     0.016 A 
ATOM      9  C   UNL A   1      41.113  25.087  27.680  1.00  0.00     0.010 A 
ATOM     10  C   UNL A   1      42.222  26.623  26.315  1.00  0.00     0.010 A 
ATOM     11  C   UNL A   1      41.557  26.383  27.537  1.00  0.00    -0.014 A 
BRANCH  11  12
ATOM     12  C   UNL A   1      41.160  27.354  28.649  1.00  0.00     0.031 A 
ATOM     13  C   UNL A   1      42.111  27.471  29.798  1.00  0.00     0.074 A 
ATOM     14  C   UNL A   1      40.277  28.398  28.587  1.00  0.00     0.049 A 
ATOM     15  N   UNL A   1      42.023  28.216  30.866  1.00  0.00    -0.248 NA
ATOM     16  C   UNL A   1      43.383  26.743  29.662  1.00  0.00     0.031 C 
ATOM     17  C   UNL A   1      39.654  28.911  27.392  1.00  0.00     0.029 A 
ATOM     18  N   UNL A   1      39.753  29.273  29.529  1.00  0.00    -0.354 N 
ATOM     19  C   UNL A   1      43.219  28.046  31.531  1.00  0.00     0.074 A 
ATOM     20  C   UNL A   1      44.035  27.156  30.734  1.00  0.00     0.031 C 
ATOM     21  C   UNL A   1      38.702  29.814  27.635  1.00  0.00     0.029 A 
ATOM     22  C   UNL A   1      38.696  30.046  29.057  1.00  0.00     0.049 A 
ATOM     23  H   UNL A   1      40.096  29.340  30.449  1.00  0.00     0.167 HD
ATOM     24  C   UNL A   1      43.585  28.566  32.721  1.00  0.00     0.037 A 
ATOM     25  C   UNL A   1      37.812  30.871  29.656  1.00  0.00     0.037 A 
ATOM     26  C   UNL A   1      42.757  29.421  33.527  1.00  0.00     0.049 A 
ATOM     27  C   UNL A   1      38.064  31.194  31.087  1.00  0.00     0.074 A 
ATOM     28  C   UNL A   1      42.978  29.850  34.822  1.00  0.00     0.029 A 
ATOM     29  N   UNL A   1      41.546  29.970  33.124  1.00  0.00    -0.354 N 
ATOM     30  N   UNL A   1      39.104  30.861  31.806  1.00  0.00    -0.248 NA
ATOM     31  C   UNL A   1      37.076  32.021  31.787  1.00  0.00     0.031 C 
ATOM     32  C   UNL A   1      41.869  30.596  35.231  1.00  0.00     0.029 A 
ATOM     33  C   UNL A   1      40.988  30.698  34.167  1.00  0.00     0.049 A 
ATOM     34  H   UNL A   1      41.143  29.860  32.233  1.00  0.00     0.167 HD
ATOM     35  C   UNL A   1      38.921  31.461  33.032  1.00  0.00     0.074 A 
ATOM     36  C   UNL A   1      37.671  32.194  32.960  1.00  0.00     0.031 C 
ATOM     37  C   UNL A   1      39.737  31.411  34.110  1.00  0.00     0.037 A 
BRANCH  24  38
ATOM     38  C   UNL A   1      44.872  28.050  33.276  1.00  0.00     0.064 A 
ATOM     39  C   UNL A   1      44.979  26.800  33.900  1.00  0.00     0.173 A 
ATOM     40  C   UNL A   1      45.999  28.884  33.258  1.00  0.00     0.173 A 
ATOM     41  F   UNL A   1      43.907  25.998  33.996  1.00  0.00    -0.203 F 
ATOM     42  C   UNL A   1      46.169  26.413  34.507  1.00  0.00     0.198 A 
ATOM     43  C   UNL A   1      47.193  28.482  33.839  1.00  0.00     0.198 A 
ATOM     44  F   UNL A   1      45.927  30.104  32.702  1.00  0.00    -0.203 F 
ATOM     45  F   UNL A   1      46.235  25.247  35.165  1.00  0.00    -0.200 F 
ATOM     46  C   UNL A   1      47.275  27.251  34.471  1.00  0.00     0.200 A 
ATOM     47  F   UNL A   1      48.256  29.298  33.811  1.00  0.00    -0.200 F 
ATOM     48  F   UNL A   1      48.417  26.882  35.068  1.00  0.00    -0.200 F 
ENDBRANCH  24  38
BRANCH  25  49
ATOM     49  C   UNL A   1      36.607  31.397  28.936  1.00  0.00     0.064 A 
ATOM     50  C   UNL A   1      36.464  32.745  28.576  1.00  0.00     0.173 A 
ATOM     51  C   UNL A   1      35.519  30.547  28.664  1.00  0.00     0.173 A 
ATOM     52  F   UNL A   1      37.452  33.615  28.832  1.00  0.00    -0.203 F 
ATOM     53  C   UNL A   1      35.282  33.225  28.002  1.00  0.00     0.198 A 
ATOM     54  C   UNL A   1      34.349  31.021  28.068  1.00  0.00     0.198 A 
ATOM     55  F   UNL A   1      35.582  29.250  29.000  1.00  0.00    -0.203 F 
ATOM     56  F   UNL A   1      35.154  34.530  27.725  1.00  0.00    -0.200 F 
ATOM     57  C   UNL A   1      34.226  32.362  27.747  1.00  0.00     0.200 A 
ATOM     58  F   UNL A   1      33.333  30.180  27.827  1.00  0.00    -0.200 F 
ATOM     59  F   UNL A   1      33.087  32.826  27.214  1.00  0.00    -0.200 F 
ENDBRANCH  25  49
BRANCH  37  60
ATOM     60  C   UNL A   1      39.308  32.195  35.308  1.00  0.00     0.064 A 
ATOM     61  C   UNL A   1      38.550  31.614  36.334  1.00  0.00     0.173 A 
ATOM     62  C   UNL A   1      39.673  33.542  35.433  1.00  0.00     0.173 A 
ATOM     63  F   UNL A   1      38.154  30.335  36.243  1.00  0.00    -0.203 F 
ATOM     64  C   UNL A   1      38.150  32.365  37.434  1.00  0.00     0.198 A 
ATOM     65  C   UNL A   1      39.303  34.279  36.551  1.00  0.00     0.198 A 
ATOM     66  F   UNL A   1      40.394  34.141  34.473  1.00  0.00    -0.203 F 
ATOM     67  F   UNL A   1      37.375  31.809  38.376  1.00  0.00    -0.200 F 
ATOM     68  C   UNL A   1      38.534  33.693  37.546  1.00  0.00     0.200 A 
ATOM     69  F   UNL A   1      39.684  35.559  36.662  1.00  0.00    -0.200 F 
ATOM     70  F   UNL A   1      38.154  34.413  38.610  1.00  0.00    -0.200 F 
ENDBRANCH  37  60
ENDBRANCH  11  12
ENDBRANCH   4   6
ENDBRANCH   3   4
ENDBRANCH   2   3
ENDBRANCH   1   2
BRANCH   1  71
ATOM     71  O   UNL A   1      46.734  24.200  24.143  1.00  0.00    -0.462 OA
BRANCH  71  72
ATOM     72  C   UNL A   1      46.566  25.309  24.913  1.00  0.00     0.309 C 
ATOM     73  O   UNL A   1      45.911  26.293  24.590  1.00  0.00    -0.252 OA
BRANCH  72  74
ATOM     74  C   UNL A   1      47.037  25.039  26.315  1.00  0.00     0.111 C 
ATOM     75  C   UNL A   1      45.974  25.282  27.402  1.00  0.00     0.016 C 
ATOM     76  C   UNL A   1      48.451  25.595  26.614  1.00  0.00     0.093 C 
ATOM     77  C   UNL A   1      46.393  24.702  28.755  1.00  0.00     0.001 C 
ATOM     78  C   UNL A   1      48.737  24.970  28.028  1.00  0.00     0.014 C 
ATOM     79  C   UNL A   1      47.741  25.264  29.145  1.00  0.00     0.001 C 
BRANCH  76  80
ATOM     80  C   UNL A   1      48.682  27.135  26.250  1.00  0.00     0.228 C 
ATOM     81  O   UNL A   1      49.589  27.376  25.434  1.00  0.00    -0.274 OA
ATOM     82  N   UNL A   1      47.905  28.256  26.567  1.00  0.00    -0.326 N 
ATOM     83  H   UNL A   1      48.145  28.975  25.938  1.00  0.00     0.169 HD
BRANCH  82  84
ATOM     84  C   UNL A   1      46.893  28.770  27.456  1.00  0.00     0.041 A 
ATOM     85  C   UNL A   1      47.316  29.116  28.764  1.00  0.00     0.026 A 
ATOM     86  C   UNL A   1      45.542  29.024  27.176  1.00  0.00     0.039 A 
ATOM     87  C   UNL A   1      46.512  29.876  29.644  1.00  0.00     0.003 A 
ATOM     88  C   UNL A   1      44.733  29.869  28.023  1.00  0.00     0.058 A 
ATOM     89  C   UNL A   1      45.245  30.288  29.257  1.00  0.00     0.013 A 
BRANCH  88  90
ATOM     90  C   UNL A   1      43.404  30.492  27.600  1.00  0.00     0.416 C 
ATOM     91  F   UNL A   1      42.536  30.687  28.624  1.00  0.00    -0.166 F 
ATOM     92  F   UNL A   1      43.572  31.715  27.010  1.00  0.00    -0.166 F 
ATOM     93  F   UNL A   1      42.728  29.765  26.672  1.00  0.00    -0.166 F 
ENDBRANCH  88  90
ENDBRANCH  82  84
ENDBRANCH  76  80
ENDBRANCH  72  74
ENDBRANCH  71  72
ENDBRANCH   1  71
TORSDOF 14
ENDMDL
MODEL 2
REMARK VINA RESULT:     -10.1      3.620      7.114
REMARK SMILES O=C(OCCOC(=O)[C@@H]1CCCC[C@@H]1C(=O)Nc1cccc(C(F)(F)F)c1)c1ccc(-c2c3nc(c(-c4c(F)c(F)c(F)c(F)c4F)c4ccc([nH]4)c(-c4c(F)c(F)c(F)c(F)c4F)c4nc(c(-c5c(F)c(F)c(F)c(F)c5F)c5ccc2[nH]5)C=C4)C=C3)cc1
REMARK SMILES IDX 5 1 4 2 3 3 2 4 1 5 28 6 29 7 90 8 30 9 89 10 31 11 32 12
REMARK SMILES IDX 33 13 83 14 34 15 88 16 82 17 84 18 35 19 87 20 81 21 80 22
REMARK SMILES IDX 36 24 68 25 48 26 67 27 49 28 52 29 66 30 85 31 50 32 51 33
REMARK SMILES IDX 65 35 86 36 53 37 37 38 38 39 46 40 39 41 40 42 44 43 47 44
REMARK SMILES IDX 41 45 42 46 45 47 43 48 69 49 70 50 78 51 71 52 72 53 76 54
REMARK SMILES IDX 79 55 73 56 74 57 77 58 75 59 54 60 55 61 63 62 56 63 57 64
REMARK SMILES IDX 61 65 64 66 58 67 59 68 62 69 60 70 6 71 7 72 8 73 9 74
REMARK SMILES IDX 10 75 14 76 11 77 13 78 12 79 15 80 16 81 17 82 18 84 19 85
REMARK SMILES IDX 27 86 20 87 22 88 21 89 23 90 24 91 25 92 26 93
REMARK H PARENT 84 23 52 34 17 83
REMARK Flexibility Score: inf
ROOT
ATOM      1  C   UNL A   1      37.525  20.895  25.135  1.00  0.00     0.274 C 
ENDROOT
BRANCH   1   2
ATOM      2  C   UNL A   1      39.049  20.767  25.420  1.00  0.00     0.275 C 
BRANCH   2   3
ATOM      3  O   UNL A   1      39.537  21.794  26.337  1.00  0.00    -0.458 OA
BRANCH   3   4
ATOM      4  C   UNL A   1      40.703  22.483  26.104  1.00  0.00     0.338 C 
ATOM      5  O   UNL A   1      41.750  21.980  25.723  1.00  0.00    -0.246 OA
BRANCH   4   6
ATOM      6  C   UNL A   1      40.549  23.920  26.551  1.00  0.00     0.060 A 
ATOM      7  C   UNL A   1      39.574  24.157  27.487  1.00  0.00     0.016 A 
ATOM      8  C   UNL A   1      41.309  25.031  26.196  1.00  0.00     0.016 A 
ATOM      9  C   UNL A   1      39.500  25.338  28.239  1.00  0.00     0.010 A 
ATOM     10  C   UNL A   1      41.224  26.258  26.961  1.00  0.00     0.010 A 
ATOM     11  C   UNL A   1      40.383  26.384  28.088  1.00  0.00    -0.014 A 
BRANCH  11  12
ATOM     12  C   UNL A   1      40.228  27.540  29.076  1.00  0.00     0.031 A 
ATOM     13  C   UNL A   1      41.293  27.668  30.119  1.00  0.00     0.074 A 
ATOM     14  C   UNL A   1      39.489  28.683  28.933  1.00  0.00     0.049 A 
ATOM     15  N   UNL A   1      41.409  28.552  31.072  1.00  0.00    -0.248 NA
ATOM     16  C   UNL A   1      42.437  26.752  29.990  1.00  0.00     0.031 C 
ATOM     17  C   UNL A   1      38.827  29.120  27.728  1.00  0.00     0.029 A 
ATOM     18  N   UNL A   1      39.180  29.741  29.777  1.00  0.00    -0.354 N 
ATOM     19  C   UNL A   1      42.630  28.300  31.660  1.00  0.00     0.074 A 
ATOM     20  C   UNL A   1      43.240  27.204  30.937  1.00  0.00     0.031 C 
ATOM     21  C   UNL A   1      38.031  30.176  27.912  1.00  0.00     0.029 A 
ATOM     22  C   UNL A   1      38.194  30.591  29.282  1.00  0.00     0.049 A 
ATOM     23  H   UNL A   1      39.617  29.878  30.649  1.00  0.00     0.167 HD
ATOM     24  C   UNL A   1      43.176  28.913  32.731  1.00  0.00     0.037 A 
ATOM     25  C   UNL A   1      37.490  31.606  29.823  1.00  0.00     0.037 A 
ATOM     26  C   UNL A   1      42.551  29.978  33.466  1.00  0.00     0.049 A 
ATOM     27  C   UNL A   1      37.920  32.075  31.169  1.00  0.00     0.074 A 
ATOM     28  C   UNL A   1      42.952  30.537  34.665  1.00  0.00     0.029 A 
ATOM     29  N   UNL A   1      41.390  30.639  33.084  1.00  0.00    -0.354 N 
ATOM     30  N   UNL A   1      38.971  31.692  31.845  1.00  0.00    -0.248 NA
ATOM     31  C   UNL A   1      37.124  33.122  31.817  1.00  0.00     0.031 C 
ATOM     32  C   UNL A   1      41.997  31.483  35.047  1.00  0.00     0.029 A 
ATOM     33  C   UNL A   1      41.037  31.570  34.052  1.00  0.00     0.049 A 
ATOM     34  H   UNL A   1      40.892  30.472  32.252  1.00  0.00     0.167 HD
ATOM     35  C   UNL A   1      38.990  32.469  32.983  1.00  0.00     0.074 A 
ATOM     36  C   UNL A   1      37.847  33.359  32.903  1.00  0.00     0.031 C 
ATOM     37  C   UNL A   1      39.892  32.443  33.990  1.00  0.00     0.037 A 
BRANCH  24  38
ATOM     38  C   UNL A   1      44.431  28.293  33.251  1.00  0.00     0.064 A 
ATOM     39  C   UNL A   1      45.705  28.708  32.842  1.00  0.00     0.173 A 
ATOM     40  C   UNL A   1      44.334  27.189  34.111  1.00  0.00     0.173 A 
ATOM     41  F   UNL A   1      45.840  29.719  31.969  1.00  0.00    -0.203 F 
ATOM     42  C   UNL A   1      46.840  28.022  33.262  1.00  0.00     0.198 A 
ATOM     43  C   UNL A   1      45.470  26.526  34.551  1.00  0.00     0.198 A 
ATOM     44  F   UNL A   1      43.129  26.739  34.496  1.00  0.00    -0.203 F 
ATOM     45  F   UNL A   1      48.047  28.383  32.804  1.00  0.00    -0.200 F 
ATOM     46  C   UNL A   1      46.722  26.936  34.119  1.00  0.00     0.200 A 
ATOM     47  F   UNL A   1      45.351  25.472  35.371  1.00  0.00    -0.200 F 
ATOM     48  F   UNL A   1      47.815  26.268  34.512  1.00  0.00    -0.200 F 
ENDBRANCH  24  38
BRANCH  25  49
ATOM     49  C   UNL A   1      36.302  32.202  29.131  1.00  0.00     0.064 A 
ATOM     50  C   UNL A   1      36.206  33.566  28.820  1.00  0.00     0.173 A 
ATOM     51  C   UNL A   1      35.181  31.403  28.836  1.00  0.00     0.173 A 
ATOM     52  F   UNL A   1      37.228  34.390  29.099  1.00  0.00    -0.203 F 
ATOM     53  C   UNL A   1      35.040  34.110  28.271  1.00  0.00     0.198 A 
ATOM     54  C   UNL A   1      34.026  31.941  28.265  1.00  0.00     0.198 A 
ATOM     55  F   UNL A   1      35.197  30.094  29.125  1.00  0.00    -0.203 F 
ATOM     56  F   UNL A   1      34.959  35.429  28.042  1.00  0.00    -0.200 F 
ATOM     57  C   UNL A   1      33.951  33.297  27.993  1.00  0.00     0.200 A 
ATOM     58  F   UNL A   1      32.978  31.148  28.002  1.00  0.00    -0.200 F 
ATOM     59  F   UNL A   1      32.828  33.821  27.485  1.00  0.00    -0.200 F 
ENDBRANCH  25  49
BRANCH  37  60
ATOM     60  C   UNL A   1      39.690  33.432  35.093  1.00  0.00     0.064 A 
ATOM     61  C   UNL A   1      40.238  34.720  35.035  1.00  0.00     0.173 A 
ATOM     62  C   UNL A   1      38.927  33.085  36.215  1.00  0.00     0.173 A 
ATOM     63  F   UNL A   1      40.999  35.086  33.991  1.00  0.00    -0.203 F 
ATOM     64  C   UNL A   1      40.049  35.621  36.078  1.00  0.00     0.198 A 
ATOM     65  C   UNL A   1      38.709  33.999  37.239  1.00  0.00     0.198 A 
ATOM     66  F   UNL A   1      38.387  31.860  36.316  1.00  0.00    -0.203 F 
ATOM     67  F   UNL A   1      40.630  36.828  36.032  1.00  0.00    -0.200 F 
ATOM     68  C   UNL A   1      39.278  35.263  37.173  1.00  0.00     0.200 A 
ATOM     69  F   UNL A   1      37.955  33.655  38.291  1.00  0.00    -0.200 F 
ATOM     70  F   UNL A   1      39.090  36.134  38.174  1.00  0.00    -0.200 F 
ENDBRANCH  37  60
ENDBRANCH  11  12
ENDBRANCH   4   6
ENDBRANCH   3   4
ENDBRANCH   2   3
ENDBRANCH   1   2
BRANCH   1  71
ATOM     71  O   UNL A   1      37.265  22.027  24.310  1.00  0.00    -0.462 OA
BRANCH  71  72
ATOM     72  C   UNL A   1      36.236  22.803  24.745  1.00  0.00     0.309 C 
ATOM     73  O   UNL A   1      36.362  23.829  25.405  1.00  0.00    -0.252 OA
BRANCH  72  74
ATOM     74  C   UNL A   1      34.961  22.399  24.059  1.00  0.00     0.111 C 
ATOM     75  C   UNL A   1      34.328  23.501  23.191  1.00  0.00     0.016 C 
ATOM     76  C   UNL A   1      33.987  21.612  24.971  1.00  0.00     0.093 C 
ATOM     77  C   UNL A   1      33.226  22.954  22.280  1.00  0.00     0.001 C 
ATOM     78  C   UNL A   1      32.897  21.151  23.934  1.00  0.00     0.014 C 
ATOM     79  C   UNL A   1      32.196  22.232  23.118  1.00  0.00     0.001 C 
BRANCH  76  80
ATOM     80  C   UNL A   1      33.654  22.290  26.380  1.00  0.00     0.228 C 
ATOM     81  O   UNL A   1      33.902  21.607  27.389  1.00  0.00    -0.274 OA
ATOM     82  N   UNL A   1      33.291  23.610  26.675  1.00  0.00    -0.326 N 
ATOM     83  H   UNL A   1      33.474  23.765  27.630  1.00  0.00     0.169 HD
BRANCH  82  84
ATOM     84  C   UNL A   1      32.753  24.831  26.127  1.00  0.00     0.041 A 
ATOM     85  C   UNL A   1      31.344  24.901  26.001  1.00  0.00     0.026 A 
ATOM     86  C   UNL A   1      33.448  25.990  25.747  1.00  0.00     0.039 A 
ATOM     87  C   UNL A   1      30.665  26.114  25.744  1.00  0.00     0.003 A 
ATOM     88  C   UNL A   1      32.777  27.255  25.563  1.00  0.00     0.058 A 
ATOM     89  C   UNL A   1      31.377  27.292  25.571  1.00  0.00     0.013 A 
BRANCH  88  90
ATOM     90  C   UNL A   1      33.485  28.608  25.529  1.00  0.00     0.416 C 
ATOM     91  F   UNL A   1      34.131  28.863  24.364  1.00  0.00    -0.166 F 
ATOM     92  F   UNL A   1      32.618  29.650  25.715  1.00  0.00    -0.166 F 
ATOM     93  F   UNL A   1      34.411  28.767  26.510  1.00  0.00    -0.166 F 
ENDBRANCH  88  90
ENDBRANCH  82  84
ENDBRANCH  76  80
ENDBRANCH  72  74
ENDBRANCH  71  72
ENDBRANCH   1  71
TORSDOF 14
ENDMDL
MODEL 3
REMARK VINA RESULT:     -10.1      5.498     11.767
REMARK SMILES O=C(OCCOC(=O)[C@@H]1CCCC[C@@H]1C(=O)Nc1cccc(C(F)(F)F)c1)c1ccc(-c2c3nc(c(-c4c(F)c(F)c(F)c(F)c4F)c4ccc([nH]4)c(-c4c(F)c(F)c(F)c(F)c4F)c4nc(c(-c5c(F)c(F)c(F)c(F)c5F)c5ccc2[nH]5)C=C4)C=C3)cc1
REMARK SMILES IDX 5 1 4 2 3 3 2 4 1 5 28 6 29 7 90 8 30 9 89 10 31 11 32 12
REMARK SMILES IDX 33 13 83 14 34 15 88 16 82 17 84 18 35 19 87 20 81 21 80 22
REMARK SMILES IDX 36 24 68 25 48 26 67 27 49 28 52 29 66 30 85 31 50 32 51 33
REMARK SMILES IDX 65 35 86 36 53 37 37 38 38 39 46 40 39 41 40 42 44 43 47 44
REMARK SMILES IDX 41 45 42 46 45 47 43 48 69 49 70 50 78 51 71 52 72 53 76 54
REMARK SMILES IDX 79 55 73 56 74 57 77 58 75 59 54 60 55 61 63 62 56 63 57 64
REMARK SMILES IDX 61 65 64 66 58 67 59 68 62 69 60 70 6 71 7 72 8 73 9 74
REMARK SMILES IDX 10 75 14 76 11 77 13 78 12 79 15 80 16 81 17 82 18 84 19 85
REMARK SMILES IDX 27 86 20 87 22 88 21 89 23 90 24 91 25 92 26 93
REMARK H PARENT 84 23 52 34 17 83
REMARK Flexibility Score: inf
ROOT
ATOM      1  C   UNL A   1      32.836  30.441  27.237  1.00  0.00     0.274 C 
ENDROOT
BRANCH   1   2
ATOM      2  C   UNL A   1      33.072  31.962  27.468  1.00  0.00     0.275 C 
BRANCH   2   3
ATOM      3  O   UNL A   1      34.398  32.248  28.008  1.00  0.00    -0.458 OA
BRANCH   3   4
ATOM      4  C   UNL A   1      34.723  31.988  29.317  1.00  0.00     0.338 C 
ATOM      5  O   UNL A   1      34.293  32.605  30.282  1.00  0.00    -0.246 OA
BRANCH   4   6
ATOM      6  C   UNL A   1      35.818  30.946  29.379  1.00  0.00     0.060 A 
ATOM      7  C   UNL A   1      36.442  30.659  28.191  1.00  0.00     0.016 A 
ATOM      8  C   UNL A   1      36.331  30.284  30.491  1.00  0.00     0.016 A 
ATOM      9  C   UNL A   1      37.663  29.975  28.108  1.00  0.00     0.010 A 
ATOM     10  C   UNL A   1      37.585  29.563  30.405  1.00  0.00     0.010 A 
ATOM     11  C   UNL A   1      38.336  29.501  29.212  1.00  0.00    -0.014 A 
BRANCH  11  12
ATOM     12  C   UNL A   1      39.712  28.889  28.946  1.00  0.00     0.031 A 
ATOM     13  C   UNL A   1      40.893  29.756  29.249  1.00  0.00     0.074 A 
ATOM     14  C   UNL A   1      40.044  27.566  28.835  1.00  0.00     0.049 A 
ATOM     15  N   UNL A   1      42.164  29.489  29.120  1.00  0.00    -0.248 NA
ATOM     16  C   UNL A   1      40.600  31.045  29.896  1.00  0.00     0.031 C 
ATOM     17  C   UNL A   1      39.177  26.448  29.119  1.00  0.00     0.029 A 
ATOM     18  N   UNL A   1      41.208  26.890  28.495  1.00  0.00    -0.354 N 
ATOM     19  C   UNL A   1      42.823  30.572  29.662  1.00  0.00     0.074 A 
ATOM     20  C   UNL A   1      41.817  31.488  30.156  1.00  0.00     0.031 C 
ATOM     21  C   UNL A   1      39.693  25.271  28.759  1.00  0.00     0.029 A 
ATOM     22  C   UNL A   1      41.030  25.526  28.285  1.00  0.00     0.049 A 
ATOM     23  H   UNL A   1      42.081  27.336  28.408  1.00  0.00     0.167 HD
ATOM     24  C   UNL A   1      44.154  30.791  29.711  1.00  0.00     0.037 A 
ATOM     25  C   UNL A   1      41.823  24.553  27.788  1.00  0.00     0.037 A 
ATOM     26  C   UNL A   1      45.148  29.895  29.187  1.00  0.00     0.049 A 
ATOM     27  C   UNL A   1      43.248  24.911  27.552  1.00  0.00     0.074 A 
ATOM     28  C   UNL A   1      46.503  30.117  29.038  1.00  0.00     0.029 A 
ATOM     29  N   UNL A   1      44.898  28.611  28.718  1.00  0.00    -0.354 N 
ATOM     30  N   UNL A   1      43.852  26.026  27.871  1.00  0.00    -0.248 NA
ATOM     31  C   UNL A   1      44.115  23.901  26.937  1.00  0.00     0.031 C 
ATOM     32  C   UNL A   1      47.063  29.001  28.410  1.00  0.00     0.029 A 
ATOM     33  C   UNL A   1      46.072  28.049  28.235  1.00  0.00     0.049 A 
ATOM     34  H   UNL A   1      44.020  28.167  28.726  1.00  0.00     0.167 HD
ATOM     35  C   UNL A   1      45.175  25.848  27.531  1.00  0.00     0.074 A 
ATOM     36  C   UNL A   1      45.293  24.508  26.989  1.00  0.00     0.031 C 
ATOM     37  C   UNL A   1      46.194  26.726  27.676  1.00  0.00     0.037 A 
BRANCH  24  38
ATOM     38  C   UNL A   1      44.561  32.145  30.192  1.00  0.00     0.064 A 
ATOM     39  C   UNL A   1      44.635  33.258  29.344  1.00  0.00     0.173 A 
ATOM     40  C   UNL A   1      44.978  32.293  31.523  1.00  0.00     0.173 A 
ATOM     41  F   UNL A   1      44.308  33.143  28.047  1.00  0.00    -0.203 F 
ATOM     42  C   UNL A   1      45.134  34.470  29.810  1.00  0.00     0.198 A 
ATOM     43  C   UNL A   1      45.447  33.512  31.992  1.00  0.00     0.198 A 
ATOM     44  F   UNL A   1      44.957  31.242  32.357  1.00  0.00    -0.203 F 
ATOM     45  F   UNL A   1      45.270  35.504  28.968  1.00  0.00    -0.200 F 
ATOM     46  C   UNL A   1      45.534  34.597  31.133  1.00  0.00     0.200 A 
ATOM     47  F   UNL A   1      45.841  33.628  33.268  1.00  0.00    -0.200 F 
ATOM     48  F   UNL A   1      46.027  35.761  31.577  1.00  0.00    -0.200 F 
ENDBRANCH  24  38
BRANCH  25  49
ATOM     49  C   UNL A   1      41.290  23.196  27.443  1.00  0.00     0.064 A 
ATOM     50  C   UNL A   1      41.834  22.011  27.959  1.00  0.00     0.173 A 
ATOM     51  C   UNL A   1      40.250  23.063  26.504  1.00  0.00     0.173 A 
ATOM     52  F   UNL A   1      42.845  22.065  28.838  1.00  0.00    -0.203 F 
ATOM     53  C   UNL A   1      41.383  20.756  27.534  1.00  0.00     0.198 A 
ATOM     54  C   UNL A   1      39.784  21.810  26.099  1.00  0.00     0.198 A 
ATOM     55  F   UNL A   1      39.698  24.155  25.957  1.00  0.00    -0.203 F 
ATOM     56  F   UNL A   1      41.966  19.642  28.001  1.00  0.00    -0.200 F 
ATOM     57  C   UNL A   1      40.358  20.657  26.606  1.00  0.00     0.200 A 
ATOM     58  F   UNL A   1      38.794  21.725  25.199  1.00  0.00    -0.200 F 
ATOM     59  F   UNL A   1      39.940  19.456  26.185  1.00  0.00    -0.200 F 
ENDBRANCH  25  49
BRANCH  37  60
ATOM     60  C   UNL A   1      47.547  26.252  27.256  1.00  0.00     0.064 A 
ATOM     61  C   UNL A   1      48.384  25.547  28.131  1.00  0.00     0.173 A 
ATOM     62  C   UNL A   1      48.004  26.499  25.954  1.00  0.00     0.173 A 
ATOM     63  F   UNL A   1      47.999  25.313  29.395  1.00  0.00    -0.203 F 
ATOM     64  C   UNL A   1      49.646  25.127  27.724  1.00  0.00     0.198 A 
ATOM     65  C   UNL A   1      49.251  26.046  25.540  1.00  0.00     0.198 A 
ATOM     66  F   UNL A   1      47.240  27.176  25.084  1.00  0.00    -0.203 F 
ATOM     67  F   UNL A   1      50.456  24.507  28.593  1.00  0.00    -0.200 F 
ATOM     68  C   UNL A   1      50.074  25.368  26.427  1.00  0.00     0.200 A 
ATOM     69  F   UNL A   1      49.658  26.271  24.283  1.00  0.00    -0.200 F 
ATOM     70  F   UNL A   1      51.287  24.957  26.034  1.00  0.00    -0.200 F 
ENDBRANCH  37  60
ENDBRANCH  11  12
ENDBRANCH   4   6
ENDBRANCH   3   4
ENDBRANCH   2   3
ENDBRANCH   1   2
BRANCH   1  71
ATOM     71  O   UNL A   1      32.424  30.198  25.896  1.00  0.00    -0.462 OA
BRANCH  71  72
ATOM     72  C   UNL A   1      32.904  29.037  25.373  1.00  0.00     0.309 C 
ATOM     73  O   UNL A   1      34.024  28.584  25.583  1.00  0.00    -0.252 OA
BRANCH  72  74
ATOM     74  C   UNL A   1      31.784  28.248  24.755  1.00  0.00     0.111 C 
ATOM     75  C   UNL A   1      31.422  26.957  25.511  1.00  0.00     0.016 C 
ATOM     76  C   UNL A   1      31.886  28.126  23.214  1.00  0.00     0.093 C 
ATOM     77  C   UNL A   1      30.094  26.364  25.032  1.00  0.00     0.001 C 
ATOM     78  C   UNL A   1      30.499  27.472  22.864  1.00  0.00     0.014 C 
ATOM     79  C   UNL A   1      30.151  26.148  23.537  1.00  0.00     0.001 C 
BRANCH  76  80
ATOM     80  C   UNL A   1      33.290  27.609  22.651  1.00  0.00     0.228 C 
ATOM     81  O   UNL A   1      33.922  28.407  21.938  1.00  0.00    -0.274 OA
ATOM     82  N   UNL A   1      34.015  26.456  22.976  1.00  0.00    -0.326 N 
ATOM     83  H   UNL A   1      34.950  26.602  22.702  1.00  0.00     0.169 HD
BRANCH  82  84
ATOM     84  C   UNL A   1      33.928  25.137  23.554  1.00  0.00     0.041 A 
ATOM     85  C   UNL A   1      33.354  24.127  22.742  1.00  0.00     0.026 A 
ATOM     86  C   UNL A   1      34.390  24.709  24.808  1.00  0.00     0.039 A 
ATOM     87  C   UNL A   1      33.451  22.754  23.060  1.00  0.00     0.003 A 
ATOM     88  C   UNL A   1      34.574  23.310  25.116  1.00  0.00     0.058 A 
ATOM     89  C   UNL A   1      34.097  22.346  24.219  1.00  0.00     0.013 A 
BRANCH  88  90
ATOM     90  C   UNL A   1      35.411  22.788  26.282  1.00  0.00     0.416 C 
ATOM     91  F   UNL A   1      35.709  21.468  26.199  1.00  0.00    -0.166 F 
ATOM     92  F   UNL A   1      36.610  23.439  26.389  1.00  0.00    -0.166 F 
ATOM     93  F   UNL A   1      34.828  22.962  27.497  1.00  0.00    -0.166 F 
ENDBRANCH  88  90
ENDBRANCH  82  84
ENDBRANCH  76  80
ENDBRANCH  72  74
ENDBRANCH  71  72
ENDBRANCH   1  71
TORSDOF 14
ENDMDL
