MODEL 1
REMARK VINA RESULT:     -11.7      0.000      0.000
REMARK SMILES CCC1(C(=O)NCCc2ccc(C(=O)OCCOC(=O)c3ccc(-c4c5nc(c(-c6c(F)c(F)c(F)c(F)c6F)c6ccc([nH]6)c(-c6c(F)c(F)c(F)c(F)c6F)c6nc(c(-c7c(F)c(F)c(F)c(F)c7F)c7ccc4[nH]7)C=C6)C=C5)cc3)cc2)CCCC1
REMARK SMILES IDX 15 1 13 2 14 3 12 4 9 5 10 6 85 7 11 8 84 9 8 10 7 11 6 12
REMARK SMILES IDX 4 13 5 14 3 16 86 17 89 18 87 19 88 20 2 21 1 22 16 23 17 24
REMARK SMILES IDX 18 25 19 26 20 27 21 28 22 29 83 30 23 31 82 32 24 33 25 34
REMARK SMILES IDX 26 35 76 36 27 37 81 38 75 39 77 40 28 41 80 42 74 43 73 44
REMARK SMILES IDX 29 46 61 47 41 48 60 49 42 50 45 51 59 52 78 53 43 54 44 55
REMARK SMILES IDX 58 57 79 58 46 59 30 60 31 61 39 62 32 63 33 64 37 65 40 66
REMARK SMILES IDX 34 67 35 68 38 69 36 70 62 71 63 72 71 73 64 74 65 75 69 76
REMARK SMILES IDX 72 77 66 78 67 79 70 80 68 81 47 82 48 83 56 84 49 85 50 86
REMARK SMILES IDX 54 87 57 88 51 89 52 90 55 91 53 92
REMARK H PARENT 6 15 77 45 45 56
REMARK Flexibility Score: inf
ROOT
ATOM      1  O   UNL A   1      31.650  28.535  24.102  1.00  0.00    -0.458 OA
ENDROOT
BRANCH   1   2
ATOM      2  C   UNL A   1      30.718  27.835  23.412  1.00  0.00     0.338 C 
ATOM      3  O   UNL A   1      30.089  28.227  22.439  1.00  0.00    -0.246 OA
BRANCH   2   4
ATOM      4  C   UNL A   1      30.592  26.459  23.939  1.00  0.00     0.060 A 
ATOM      5  C   UNL A   1      30.539  23.902  25.075  1.00  0.00    -0.046 A 
ATOM      6  C   UNL A   1      30.321  25.023  25.876  1.00  0.00     0.004 A 
ATOM      7  C   UNL A   1      30.730  24.063  23.693  1.00  0.00     0.004 A 
ATOM      8  C   UNL A   1      30.380  26.292  25.314  1.00  0.00     0.016 A 
ATOM      9  C   UNL A   1      30.747  25.336  23.122  1.00  0.00     0.016 A 
BRANCH   5  10
ATOM     10  C   UNL A   1      30.738  22.555  25.721  1.00  0.00     0.056 C 
BRANCH  10  11
ATOM     11  C   UNL A   1      32.121  22.005  25.351  1.00  0.00     0.120 C 
BRANCH  11  12
ATOM     12  N   UNL A   1      33.106  22.184  26.404  1.00  0.00    -0.355 N 
ATOM     13  C   UNL A   1      34.273  22.871  26.487  1.00  0.00     0.226 C 
ATOM     14  O   UNL A   1      34.747  22.939  27.626  1.00  0.00    -0.274 OA
ATOM     15  H   UNL A   1      32.879  21.706  27.233  1.00  0.00     0.163 HD
BRANCH  13  16
ATOM     16  C   UNL A   1      34.974  23.542  25.274  1.00  0.00     0.049 C 
ATOM     17  C   UNL A   1      35.118  22.548  24.101  1.00  0.00     0.017 C 
ATOM     18  C   UNL A   1      36.400  24.036  25.584  1.00  0.00     0.017 C 
ATOM     19  C   UNL A   1      36.605  22.407  23.783  1.00  0.00     0.001 C 
ATOM     20  C   UNL A   1      37.382  23.115  24.879  1.00  0.00     0.001 C 
BRANCH  16  21
ATOM     21  C   UNL A   1      34.095  24.744  24.790  1.00  0.00     0.013 C 
ATOM     22  C   UNL A   1      34.006  25.939  25.739  1.00  0.00     0.005 C 
ENDBRANCH  16  21
ENDBRANCH  13  16
ENDBRANCH  11  12
ENDBRANCH  10  11
ENDBRANCH   5  10
ENDBRANCH   2   4
ENDBRANCH   1   2
BRANCH   1  23
ATOM     23  C   UNL A   1      31.160  29.693  24.803  1.00  0.00     0.275 C 
BRANCH  23  24
ATOM     24  C   UNL A   1      31.784  29.797  26.195  1.00  0.00     0.275 C 
BRANCH  24  25
ATOM     25  O   UNL A   1      33.126  30.315  26.122  1.00  0.00    -0.458 OA
BRANCH  25  26
ATOM     26  C   UNL A   1      33.445  31.225  27.070  1.00  0.00     0.338 C 
ATOM     27  O   UNL A   1      32.752  32.131  27.499  1.00  0.00    -0.246 OA
BRANCH  26  28
ATOM     28  C   UNL A   1      34.801  30.971  27.576  1.00  0.00     0.060 A 
ATOM     29  C   UNL A   1      35.164  29.671  27.917  1.00  0.00     0.016 A 
ATOM     30  C   UNL A   1      35.648  32.034  27.876  1.00  0.00     0.016 A 
ATOM     31  C   UNL A   1      36.320  29.434  28.656  1.00  0.00     0.010 A 
ATOM     32  C   UNL A   1      36.864  31.781  28.520  1.00  0.00     0.010 A 
ATOM     33  C   UNL A   1      37.198  30.482  28.954  1.00  0.00    -0.014 A 
BRANCH  33  34
ATOM     34  C   UNL A   1      38.445  30.255  29.741  1.00  0.00     0.031 A 
ATOM     35  C   UNL A   1      39.531  29.374  29.180  1.00  0.00     0.074 A 
ATOM     36  C   UNL A   1      38.608  30.800  30.962  1.00  0.00     0.049 A 
ATOM     37  N   UNL A   1      40.532  28.793  29.791  1.00  0.00    -0.248 NA
ATOM     38  C   UNL A   1      39.467  29.094  27.736  1.00  0.00     0.031 C 
ATOM     39  C   UNL A   1      37.684  31.733  31.609  1.00  0.00     0.029 A 
ATOM     40  N   UNL A   1      39.609  30.634  31.890  1.00  0.00    -0.354 N 
ATOM     41  C   UNL A   1      41.169  28.021  28.826  1.00  0.00     0.074 A 
ATOM     42  C   UNL A   1      40.449  28.216  27.587  1.00  0.00     0.031 C 
ATOM     43  C   UNL A   1      38.168  32.068  32.815  1.00  0.00     0.029 A 
ATOM     44  C   UNL A   1      39.375  31.293  33.072  1.00  0.00     0.049 A 
ATOM     45  H   UNL A   1      40.415  30.093  31.723  1.00  0.00     0.167 HD
ATOM     46  C   UNL A   1      42.249  27.216  28.973  1.00  0.00     0.037 A 
ATOM     47  C   UNL A   1      40.017  31.233  34.254  1.00  0.00     0.037 A 
ATOM     48  C   UNL A   1      42.996  27.082  30.197  1.00  0.00     0.049 A 
ATOM     49  C   UNL A   1      41.190  30.308  34.407  1.00  0.00     0.074 A 
ATOM     50  C   UNL A   1      44.109  26.298  30.449  1.00  0.00     0.029 A 
ATOM     51  N   UNL A   1      42.717  27.769  31.369  1.00  0.00    -0.354 N 
ATOM     52  N   UNL A   1      41.735  29.511  33.520  1.00  0.00    -0.248 NA
ATOM     53  C   UNL A   1      41.824  30.253  35.732  1.00  0.00     0.031 C 
ATOM     54  C   UNL A   1      44.484  26.486  31.784  1.00  0.00     0.029 A 
ATOM     55  C   UNL A   1      43.634  27.424  32.349  1.00  0.00     0.049 A 
ATOM     56  H   UNL A   1      41.978  28.408  31.488  1.00  0.00     0.167 HD
ATOM     57  C   UNL A   1      42.787  28.882  34.168  1.00  0.00     0.074 A 
ATOM     58  C   UNL A   1      42.810  29.393  35.523  1.00  0.00     0.031 C 
ATOM     59  C   UNL A   1      43.656  27.961  33.684  1.00  0.00     0.037 A 
BRANCH  46  60
ATOM     60  C   UNL A   1      42.665  26.381  27.795  1.00  0.00     0.064 A 
ATOM     61  C   UNL A   1      42.086  25.134  27.521  1.00  0.00     0.173 A 
ATOM     62  C   UNL A   1      43.636  26.864  26.902  1.00  0.00     0.173 A 
ATOM     63  F   UNL A   1      41.164  24.622  28.348  1.00  0.00    -0.203 F 
ATOM     64  C   UNL A   1      42.482  24.390  26.410  1.00  0.00     0.198 A 
ATOM     65  C   UNL A   1      44.008  26.132  25.778  1.00  0.00     0.198 A 
ATOM     66  F   UNL A   1      44.216  28.055  27.113  1.00  0.00    -0.203 F 
ATOM     67  F   UNL A   1      41.948  23.181  26.192  1.00  0.00    -0.200 F 
ATOM     68  C   UNL A   1      43.436  24.893  25.537  1.00  0.00     0.200 A 
ATOM     69  F   UNL A   1      44.919  26.626  24.929  1.00  0.00    -0.200 F 
ATOM     70  F   UNL A   1      43.807  24.178  24.465  1.00  0.00    -0.200 F 
ENDBRANCH  46  60
BRANCH  47  71
ATOM     71  C   UNL A   1      39.521  32.038  35.403  1.00  0.00     0.064 A 
ATOM     72  C   UNL A   1      38.618  31.496  36.326  1.00  0.00     0.173 A 
ATOM     73  C   UNL A   1      39.952  33.358  35.609  1.00  0.00     0.173 A 
ATOM     74  F   UNL A   1      38.155  30.248  36.156  1.00  0.00    -0.203 F 
ATOM     75  C   UNL A   1      38.159  32.244  37.408  1.00  0.00     0.198 A 
ATOM     76  C   UNL A   1      39.517  34.095  36.709  1.00  0.00     0.198 A 
ATOM     77  F   UNL A   1      40.814  33.926  34.753  1.00  0.00    -0.203 F 
ATOM     78  F   UNL A   1      37.264  31.716  38.255  1.00  0.00    -0.200 F 
ATOM     79  C   UNL A   1      38.617  33.539  37.604  1.00  0.00     0.200 A 
ATOM     80  F   UNL A   1      39.973  35.339  36.901  1.00  0.00    -0.200 F 
ATOM     81  F   UNL A   1      38.184  34.254  38.651  1.00  0.00    -0.200 F 
ENDBRANCH  47  71
BRANCH  59  82
ATOM     82  C   UNL A   1      44.744  27.494  34.603  1.00  0.00     0.064 A 
ATOM     83  C   UNL A   1      45.963  28.176  34.710  1.00  0.00     0.173 A 
ATOM     84  C   UNL A   1      44.540  26.373  35.423  1.00  0.00     0.173 A 
ATOM     85  F   UNL A   1      46.211  29.243  33.935  1.00  0.00    -0.203 F 
ATOM     86  C   UNL A   1      46.947  27.744  35.594  1.00  0.00     0.198 A 
ATOM     87  C   UNL A   1      45.515  25.959  36.324  1.00  0.00     0.198 A 
ATOM     88  F   UNL A   1      43.386  25.691  35.359  1.00  0.00    -0.203 F 
ATOM     89  F   UNL A   1      48.121  28.387  35.656  1.00  0.00    -0.200 F 
ATOM     90  C   UNL A   1      46.720  26.641  36.406  1.00  0.00     0.200 A 
ATOM     91  F   UNL A   1      45.289  24.900  37.114  1.00  0.00    -0.200 F 
ATOM     92  F   UNL A   1      47.664  26.232  37.264  1.00  0.00    -0.200 F 
ENDBRANCH  59  82
ENDBRANCH  33  34
ENDBRANCH  26  28
ENDBRANCH  25  26
ENDBRANCH  24  25
ENDBRANCH  23  24
ENDBRANCH   1  23
TORSDOF 16
ENDMDL
MODEL 2
REMARK VINA RESULT:     -11.7      2.898      8.416
REMARK SMILES CCC1(C(=O)NCCc2ccc(C(=O)OCCOC(=O)c3ccc(-c4c5nc(c(-c6c(F)c(F)c(F)c(F)c6F)c6ccc([nH]6)c(-c6c(F)c(F)c(F)c(F)c6F)c6nc(c(-c7c(F)c(F)c(F)c(F)c7F)c7ccc4[nH]7)C=C6)C=C5)cc3)cc2)CCCC1
REMARK SMILES IDX 15 1 13 2 14 3 12 4 9 5 10 6 85 7 11 8 84 9 8 10 7 11 6 12
REMARK SMILES IDX 4 13 5 14 3 16 86 17 89 18 87 19 88 20 2 21 1 22 16 23 17 24
REMARK SMILES IDX 18 25 19 26 20 27 21 28 22 29 83 30 23 31 82 32 24 33 25 34
REMARK SMILES IDX 26 35 76 36 27 37 81 38 75 39 77 40 28 41 80 42 74 43 73 44
REMARK SMILES IDX 29 46 61 47 41 48 60 49 42 50 45 51 59 52 78 53 43 54 44 55
REMARK SMILES IDX 58 57 79 58 46 59 30 60 31 61 39 62 32 63 33 64 37 65 40 66
REMARK SMILES IDX 34 67 35 68 38 69 36 70 62 71 63 72 71 73 64 74 65 75 69 76
REMARK SMILES IDX 72 77 66 78 67 79 70 80 68 81 47 82 48 83 56 84 49 85 50 86
REMARK SMILES IDX 54 87 57 88 51 89 52 90 55 91 53 92
REMARK H PARENT 6 15 77 45 45 56
REMARK Flexibility Score: inf
ROOT
ATOM      1  O   UNL A   1      40.404  20.722  26.663  1.00  0.00    -0.458 OA
ENDROOT
BRANCH   1   2
ATOM      2  C   UNL A   1      39.450  20.268  25.814  1.00  0.00     0.338 C 
ATOM      3  O   UNL A   1      39.336  19.126  25.394  1.00  0.00    -0.246 OA
BRANCH   2   4
ATOM      4  C   UNL A   1      38.475  21.334  25.496  1.00  0.00     0.060 A 
ATOM      5  C   UNL A   1      36.581  23.360  25.126  1.00  0.00    -0.046 A 
ATOM      6  C   UNL A   1      37.725  23.609  25.885  1.00  0.00     0.004 A 
ATOM      7  C   UNL A   1      36.415  22.110  24.509  1.00  0.00     0.004 A 
ATOM      8  C   UNL A   1      38.647  22.591  26.093  1.00  0.00     0.016 A 
ATOM      9  C   UNL A   1      37.363  21.101  24.684  1.00  0.00     0.016 A 
BRANCH   5  10
ATOM     10  C   UNL A   1      35.461  24.369  25.120  1.00  0.00     0.056 C 
BRANCH  10  11
ATOM     11  C   UNL A   1      34.264  23.807  24.344  1.00  0.00     0.120 C 
BRANCH  11  12
ATOM     12  N   UNL A   1      34.060  24.457  23.061  1.00  0.00    -0.355 N 
ATOM     13  C   UNL A   1      33.485  25.626  22.685  1.00  0.00     0.226 C 
ATOM     14  O   UNL A   1      33.671  25.931  21.501  1.00  0.00    -0.274 OA
ATOM     15  H   UNL A   1      34.416  23.939  22.303  1.00  0.00     0.163 HD
BRANCH  13  16
ATOM     16  C   UNL A   1      32.667  26.539  23.638  1.00  0.00     0.049 C 
ATOM     17  C   UNL A   1      32.520  27.960  23.051  1.00  0.00     0.017 C 
ATOM     18  C   UNL A   1      33.316  26.722  25.023  1.00  0.00     0.017 C 
ATOM     19  C   UNL A   1      33.141  28.945  24.039  1.00  0.00     0.001 C 
ATOM     20  C   UNL A   1      33.861  28.138  25.105  1.00  0.00     0.001 C 
BRANCH  16  21
ATOM     21  C   UNL A   1      31.234  25.930  23.806  1.00  0.00     0.013 C 
ATOM     22  C   UNL A   1      30.493  26.295  25.093  1.00  0.00     0.005 C 
ENDBRANCH  16  21
ENDBRANCH  13  16
ENDBRANCH  11  12
ENDBRANCH  10  11
ENDBRANCH   5  10
ENDBRANCH   2   4
ENDBRANCH   1   2
BRANCH   1  23
ATOM     23  C   UNL A   1      41.677  20.056  26.574  1.00  0.00     0.275 C 
BRANCH  23  24
ATOM     24  C   UNL A   1      42.711  20.938  25.876  1.00  0.00     0.275 C 
BRANCH  24  25
ATOM     25  O   UNL A   1      42.106  22.144  25.372  1.00  0.00    -0.458 OA
BRANCH  25  26
ATOM     26  C   UNL A   1      42.926  23.216  25.302  1.00  0.00     0.338 C 
ATOM     27  O   UNL A   1      43.944  23.336  24.642  1.00  0.00    -0.246 OA
BRANCH  26  28
ATOM     28  C   UNL A   1      42.411  24.302  26.148  1.00  0.00     0.060 A 
ATOM     29  C   UNL A   1      42.814  25.610  25.889  1.00  0.00     0.016 A 
ATOM     30  C   UNL A   1      41.676  24.011  27.293  1.00  0.00     0.016 A 
ATOM     31  C   UNL A   1      42.583  26.615  26.825  1.00  0.00     0.010 A 
ATOM     32  C   UNL A   1      41.347  25.044  28.176  1.00  0.00     0.010 A 
ATOM     33  C   UNL A   1      41.830  26.354  27.975  1.00  0.00    -0.014 A 
BRANCH  33  34
ATOM     34  C   UNL A   1      41.563  27.413  28.990  1.00  0.00     0.031 A 
ATOM     35  C   UNL A   1      42.438  27.512  30.213  1.00  0.00     0.074 A 
ATOM     36  C   UNL A   1      40.532  28.269  28.850  1.00  0.00     0.049 A 
ATOM     37  N   UNL A   1      42.218  28.125  31.348  1.00  0.00    -0.248 NA
ATOM     38  C   UNL A   1      43.729  26.807  30.154  1.00  0.00     0.031 C 
ATOM     39  C   UNL A   1      39.642  28.350  27.691  1.00  0.00     0.029 A 
ATOM     40  N   UNL A   1      40.046  29.231  29.704  1.00  0.00    -0.354 N 
ATOM     41  C   UNL A   1      43.301  27.816  32.162  1.00  0.00     0.074 A 
ATOM     42  C   UNL A   1      44.184  26.972  31.387  1.00  0.00     0.031 C 
ATOM     43  C   UNL A   1      38.734  29.316  27.897  1.00  0.00     0.029 A 
ATOM     44  C   UNL A   1      38.907  29.846  29.243  1.00  0.00     0.049 A 
ATOM     45  H   UNL A   1      40.471  29.456  30.563  1.00  0.00     0.167 HD
ATOM     46  C   UNL A   1      43.526  28.197  33.443  1.00  0.00     0.037 A 
ATOM     47  C   UNL A   1      38.056  30.692  29.854  1.00  0.00     0.037 A 
ATOM     48  C   UNL A   1      42.671  29.093  34.180  1.00  0.00     0.049 A 
ATOM     49  C   UNL A   1      38.303  31.074  31.286  1.00  0.00     0.074 A 
ATOM     50  C   UNL A   1      42.812  29.547  35.481  1.00  0.00     0.029 A 
ATOM     51  N   UNL A   1      41.527  29.688  33.670  1.00  0.00    -0.354 N 
ATOM     52  N   UNL A   1      39.278  30.711  32.082  1.00  0.00    -0.248 NA
ATOM     53  C   UNL A   1      37.317  31.966  31.913  1.00  0.00     0.031 C 
ATOM     54  C   UNL A   1      41.734  30.392  35.768  1.00  0.00     0.029 A 
ATOM     55  C   UNL A   1      40.949  30.502  34.632  1.00  0.00     0.049 A 
ATOM     56  H   UNL A   1      41.177  29.552  32.761  1.00  0.00     0.167 HD
ATOM     57  C   UNL A   1      39.040  31.346  33.292  1.00  0.00     0.074 A 
ATOM     58  C   UNL A   1      37.830  32.125  33.125  1.00  0.00     0.031 C 
ATOM     59  C   UNL A   1      39.759  31.288  34.439  1.00  0.00     0.037 A 
BRANCH  46  60
ATOM     60  C   UNL A   1      44.718  27.617  34.148  1.00  0.00     0.064 A 
ATOM     61  C   UNL A   1      45.959  28.267  34.176  1.00  0.00     0.173 A 
ATOM     62  C   UNL A   1      44.598  26.403  34.844  1.00  0.00     0.173 A 
ATOM     63  F   UNL A   1      46.131  29.422  33.518  1.00  0.00    -0.203 F 
ATOM     64  C   UNL A   1      47.044  27.710  34.853  1.00  0.00     0.198 A 
ATOM     65  C   UNL A   1      45.675  25.864  35.544  1.00  0.00     0.198 A 
ATOM     66  F   UNL A   1      43.430  25.742  34.856  1.00  0.00    -0.203 F 
ATOM     67  F   UNL A   1      48.233  28.327  34.829  1.00  0.00    -0.200 F 
ATOM     68  C   UNL A   1      46.898  26.515  35.542  1.00  0.00     0.200 A 
ATOM     69  F   UNL A   1      45.527  24.717  36.219  1.00  0.00    -0.200 F 
ATOM     70  F   UNL A   1      47.940  25.988  36.199  1.00  0.00    -0.200 F 
ENDBRANCH  46  60
BRANCH  47  71
ATOM     71  C   UNL A   1      36.858  31.188  29.124  1.00  0.00     0.064 A 
ATOM     72  C   UNL A   1      36.785  32.513  28.676  1.00  0.00     0.173 A 
ATOM     73  C   UNL A   1      35.770  30.344  28.849  1.00  0.00     0.173 A 
ATOM     74  F   UNL A   1      37.787  33.365  28.939  1.00  0.00    -0.203 F 
ATOM     75  C   UNL A   1      35.668  32.977  27.984  1.00  0.00     0.198 A 
ATOM     76  C   UNL A   1      34.668  30.801  28.130  1.00  0.00     0.198 A 
ATOM     77  F   UNL A   1      35.788  29.068  29.259  1.00  0.00    -0.203 F 
ATOM     78  F   UNL A   1      35.606  34.260  27.601  1.00  0.00    -0.200 F 
ATOM     79  C   UNL A   1      34.615  32.118  27.703  1.00  0.00     0.200 A 
ATOM     80  F   UNL A   1      33.661  29.964  27.849  1.00  0.00    -0.200 F 
ATOM     81  F   UNL A   1      33.547  32.563  27.029  1.00  0.00    -0.200 F 
ENDBRANCH  47  71
BRANCH  59  82
ATOM     82  C   UNL A   1      39.295  32.137  35.584  1.00  0.00     0.064 A 
ATOM     83  C   UNL A   1      38.497  31.617  36.612  1.00  0.00     0.173 A 
ATOM     84  C   UNL A   1      39.698  33.478  35.675  1.00  0.00     0.173 A 
ATOM     85  F   UNL A   1      38.073  30.345  36.561  1.00  0.00    -0.203 F 
ATOM     86  C   UNL A   1      38.105  32.415  37.684  1.00  0.00     0.198 A 
ATOM     87  C   UNL A   1      39.326  34.265  36.760  1.00  0.00     0.198 A 
ATOM     88  F   UNL A   1      40.467  34.019  34.717  1.00  0.00    -0.203 F 
ATOM     89  F   UNL A   1      37.312  31.910  38.638  1.00  0.00    -0.200 F 
ATOM     90  C   UNL A   1      38.527  33.735  37.761  1.00  0.00     0.200 A 
ATOM     91  F   UNL A   1      39.743  35.537  36.838  1.00  0.00    -0.200 F 
ATOM     92  F   UNL A   1      38.157  34.498  38.798  1.00  0.00    -0.200 F 
ENDBRANCH  59  82
ENDBRANCH  33  34
ENDBRANCH  26  28
ENDBRANCH  25  26
ENDBRANCH  24  25
ENDBRANCH  23  24
ENDBRANCH   1  23
TORSDOF 16
ENDMDL
MODEL 3
REMARK VINA RESULT:     -11.7      2.895      8.271
REMARK SMILES CCC1(C(=O)NCCc2ccc(C(=O)OCCOC(=O)c3ccc(-c4c5nc(c(-c6c(F)c(F)c(F)c(F)c6F)c6ccc([nH]6)c(-c6c(F)c(F)c(F)c(F)c6F)c6nc(c(-c7c(F)c(F)c(F)c(F)c7F)c7ccc4[nH]7)C=C6)C=C5)cc3)cc2)CCCC1
REMARK SMILES IDX 15 1 13 2 14 3 12 4 9 5 10 6 85 7 11 8 84 9 8 10 7 11 6 12
REMARK SMILES IDX 4 13 5 14 3 16 86 17 89 18 87 19 88 20 2 21 1 22 16 23 17 24
REMARK SMILES IDX 18 25 19 26 20 27 21 28 22 29 83 30 23 31 82 32 24 33 25 34
REMARK SMILES IDX 26 35 76 36 27 37 81 38 75 39 77 40 28 41 80 42 74 43 73 44
REMARK SMILES IDX 29 46 61 47 41 48 60 49 42 50 45 51 59 52 78 53 43 54 44 55
REMARK SMILES IDX 58 57 79 58 46 59 30 60 31 61 39 62 32 63 33 64 37 65 40 66
REMARK SMILES IDX 34 67 35 68 38 69 36 70 62 71 63 72 71 73 64 74 65 75 69 76
REMARK SMILES IDX 72 77 66 78 67 79 70 80 68 81 47 82 48 83 56 84 49 85 50 86
REMARK SMILES IDX 54 87 57 88 51 89 52 90 55 91 53 92
REMARK H PARENT 6 15 77 45 45 56
REMARK Flexibility Score: inf
ROOT
ATOM      1  O   UNL A   1      40.977  21.053  26.527  1.00  0.00    -0.458 OA
ENDROOT
BRANCH   1   2
ATOM      2  C   UNL A   1      39.897  20.494  25.930  1.00  0.00     0.338 C 
ATOM      3  O   UNL A   1      39.807  19.347  25.517  1.00  0.00    -0.246 OA
BRANCH   2   4
ATOM      4  C   UNL A   1      38.761  21.442  25.898  1.00  0.00     0.060 A 
ATOM      5  C   UNL A   1      36.610  23.206  25.602  1.00  0.00    -0.046 A 
ATOM      6  C   UNL A   1      36.465  21.867  25.238  1.00  0.00     0.004 A 
ATOM      7  C   UNL A   1      37.818  23.647  26.164  1.00  0.00     0.004 A 
ATOM      8  C   UNL A   1      37.546  21.002  25.356  1.00  0.00     0.016 A 
ATOM      9  C   UNL A   1      38.890  22.766  26.323  1.00  0.00     0.016 A 
BRANCH   5  10
ATOM     10  C   UNL A   1      35.536  24.195  25.229  1.00  0.00     0.056 C 
BRANCH  10  11
ATOM     11  C   UNL A   1      34.225  23.452  24.945  1.00  0.00     0.120 C 
BRANCH  11  12
ATOM     12  N   UNL A   1      33.275  23.530  26.042  1.00  0.00    -0.355 N 
ATOM     13  C   UNL A   1      32.298  24.411  26.372  1.00  0.00     0.226 C 
ATOM     14  O   UNL A   1      31.562  24.038  27.293  1.00  0.00    -0.274 OA
ATOM     15  H   UNL A   1      33.358  22.787  26.681  1.00  0.00     0.163 HD
BRANCH  13  16
ATOM     16  C   UNL A   1      32.082  25.776  25.664  1.00  0.00     0.049 C 
ATOM     17  C   UNL A   1      30.671  26.332  25.956  1.00  0.00     0.017 C 
ATOM     18  C   UNL A   1      32.194  25.699  24.130  1.00  0.00     0.017 C 
ATOM     19  C   UNL A   1      29.947  26.503  24.622  1.00  0.00     0.001 C 
ATOM     20  C   UNL A   1      30.799  25.853  23.546  1.00  0.00     0.001 C 
BRANCH  16  21
ATOM     21  C   UNL A   1      33.132  26.798  26.217  1.00  0.00     0.013 C 
ATOM     22  C   UNL A   1      33.715  27.781  25.201  1.00  0.00     0.005 C 
ENDBRANCH  16  21
ENDBRANCH  13  16
ENDBRANCH  11  12
ENDBRANCH  10  11
ENDBRANCH   5  10
ENDBRANCH   2   4
ENDBRANCH   1   2
BRANCH   1  23
ATOM     23  C   UNL A   1      42.230  20.384  26.287  1.00  0.00     0.275 C 
BRANCH  23  24
ATOM     24  C   UNL A   1      43.214  21.306  25.566  1.00  0.00     0.275 C 
BRANCH  24  25
ATOM     25  O   UNL A   1      42.556  22.495  25.091  1.00  0.00    -0.458 OA
BRANCH  25  26
ATOM     26  C   UNL A   1      43.333  23.599  25.029  1.00  0.00     0.338 C 
ATOM     27  O   UNL A   1      44.340  23.767  24.363  1.00  0.00    -0.246 OA
BRANCH  26  28
ATOM     28  C   UNL A   1      42.784  24.653  25.892  1.00  0.00     0.060 A 
ATOM     29  C   UNL A   1      43.184  25.971  25.690  1.00  0.00     0.016 A 
ATOM     30  C   UNL A   1      42.014  24.320  27.003  1.00  0.00     0.016 A 
ATOM     31  C   UNL A   1      42.915  26.944  26.650  1.00  0.00     0.010 A 
ATOM     32  C   UNL A   1      41.649  25.321  27.909  1.00  0.00     0.010 A 
ATOM     33  C   UNL A   1      42.128  26.640  27.766  1.00  0.00    -0.014 A 
BRANCH  33  34
ATOM     34  C   UNL A   1      41.821  27.664  28.806  1.00  0.00     0.031 A 
ATOM     35  C   UNL A   1      42.700  27.777  30.024  1.00  0.00     0.074 A 
ATOM     36  C   UNL A   1      40.749  28.473  28.692  1.00  0.00     0.049 A 
ATOM     37  N   UNL A   1      42.461  28.355  31.174  1.00  0.00    -0.248 NA
ATOM     38  C   UNL A   1      44.022  27.135  29.940  1.00  0.00     0.031 C 
ATOM     39  C   UNL A   1      39.847  28.537  27.542  1.00  0.00     0.029 A 
ATOM     40  N   UNL A   1      40.226  29.393  29.571  1.00  0.00    -0.354 N 
ATOM     41  C   UNL A   1      43.565  28.080  31.972  1.00  0.00     0.074 A 
ATOM     42  C   UNL A   1      44.480  27.295  31.173  1.00  0.00     0.031 C 
ATOM     43  C   UNL A   1      38.897  29.454  27.776  1.00  0.00     0.029 A 
ATOM     44  C   UNL A   1      39.056  29.964  29.132  1.00  0.00     0.049 A 
ATOM     45  H   UNL A   1      40.648  29.619  30.431  1.00  0.00     0.167 HD
ATOM     46  C   UNL A   1      43.782  28.444  33.260  1.00  0.00     0.037 A 
ATOM     47  C   UNL A   1      38.171  30.755  29.768  1.00  0.00     0.037 A 
ATOM     48  C   UNL A   1      42.894  29.282  34.023  1.00  0.00     0.049 A 
ATOM     49  C   UNL A   1      38.412  31.118  31.206  1.00  0.00     0.074 A 
ATOM     50  C   UNL A   1      43.024  29.714  35.332  1.00  0.00     0.029 A 
ATOM     51  N   UNL A   1      41.718  29.833  33.535  1.00  0.00    -0.354 N 
ATOM     52  N   UNL A   1      39.410  30.783  31.986  1.00  0.00    -0.248 NA
ATOM     53  C   UNL A   1      37.391  31.949  31.860  1.00  0.00     0.031 C 
ATOM     54  C   UNL A   1      41.911  30.501  35.646  1.00  0.00     0.029 A 
ATOM     55  C   UNL A   1      41.112  30.598  34.518  1.00  0.00     0.049 A 
ATOM     56  H   UNL A   1      41.367  29.701  32.625  1.00  0.00     0.167 HD
ATOM     57  C   UNL A   1      39.153  31.380  33.212  1.00  0.00     0.074 A 
ATOM     58  C   UNL A   1      37.907  32.105  33.071  1.00  0.00     0.031 C 
ATOM     59  C   UNL A   1      39.884  31.332  34.352  1.00  0.00     0.037 A 
BRANCH  46  60
ATOM     60  C   UNL A   1      45.007  27.904  33.943  1.00  0.00     0.064 A 
ATOM     61  C   UNL A   1      46.224  28.599  33.953  1.00  0.00     0.173 A 
ATOM     62  C   UNL A   1      44.943  26.684  34.636  1.00  0.00     0.173 A 
ATOM     63  F   UNL A   1      46.343  29.762  33.297  1.00  0.00    -0.203 F 
ATOM     64  C   UNL A   1      47.339  28.081  34.611  1.00  0.00     0.198 A 
ATOM     65  C   UNL A   1      46.049  26.183  35.316  1.00  0.00     0.198 A 
ATOM     66  F   UNL A   1      43.800  25.982  34.665  1.00  0.00    -0.203 F 
ATOM     67  F   UNL A   1      48.505  28.740  34.569  1.00  0.00    -0.200 F 
ATOM     68  C   UNL A   1      47.248  26.879  35.297  1.00  0.00     0.200 A 
ATOM     69  F   UNL A   1      45.955  25.029  35.990  1.00  0.00    -0.200 F 
ATOM     70  F   UNL A   1      48.319  26.387  35.935  1.00  0.00    -0.200 F 
ENDBRANCH  46  60
BRANCH  47  71
ATOM     71  C   UNL A   1      36.945  31.209  29.058  1.00  0.00     0.064 A 
ATOM     72  C   UNL A   1      35.879  30.330  28.828  1.00  0.00     0.173 A 
ATOM     73  C   UNL A   1      36.810  32.532  28.610  1.00  0.00     0.173 A 
ATOM     74  F   UNL A   1      35.973  29.049  29.212  1.00  0.00    -0.203 F 
ATOM     75  C   UNL A   1      34.726  30.755  28.172  1.00  0.00     0.198 A 
ATOM     76  C   UNL A   1      35.644  32.964  27.981  1.00  0.00     0.198 A 
ATOM     77  F   UNL A   1      37.802  33.413  28.802  1.00  0.00    -0.203 F 
ATOM     78  F   UNL A   1      33.736  29.884  27.928  1.00  0.00    -0.200 F 
ATOM     79  C   UNL A   1      34.605  32.074  27.758  1.00  0.00     0.200 A 
ATOM     80  F   UNL A   1      35.526  34.242  27.597  1.00  0.00    -0.200 F 
ATOM     81  F   UNL A   1      33.491  32.484  27.137  1.00  0.00    -0.200 F 
ENDBRANCH  47  71
BRANCH  59  82
ATOM     82  C   UNL A   1      39.390  32.133  35.519  1.00  0.00     0.064 A 
ATOM     83  C   UNL A   1      39.746  33.477  35.694  1.00  0.00     0.173 A 
ATOM     84  C   UNL A   1      38.509  31.556  36.446  1.00  0.00     0.173 A 
ATOM     85  F   UNL A   1      40.599  34.067  34.843  1.00  0.00    -0.203 F 
ATOM     86  C   UNL A   1      39.250  34.212  36.767  1.00  0.00     0.198 A 
ATOM     87  C   UNL A   1      37.994  32.301  37.502  1.00  0.00     0.198 A 
ATOM     88  F   UNL A   1      38.136  30.273  36.316  1.00  0.00    -0.203 F 
ATOM     89  F   UNL A   1      39.630  35.485  36.939  1.00  0.00    -0.200 F 
ATOM     90  C   UNL A   1      38.368  33.626  37.665  1.00  0.00     0.200 A 
ATOM     91  F   UNL A   1      37.136  31.736  38.363  1.00  0.00    -0.200 F 
ATOM     92  F   UNL A   1      37.884  34.338  38.692  1.00  0.00    -0.200 F 
ENDBRANCH  59  82
ENDBRANCH  33  34
ENDBRANCH  26  28
ENDBRANCH  25  26
ENDBRANCH  24  25
ENDBRANCH  23  24
ENDBRANCH   1  23
TORSDOF 16
ENDMDL
