MODEL 1
REMARK VINA RESULT:     -12.2      0.000      0.000
REMARK SMILES C[C@@H](C(=O)OCCOC(=O)c1ccc(-c2c3nc(c(-c4c(F)c(F)c(F)c(F)c4F)c4ccc([nH]4)c(-c4c(F)c(F)c(F)c(F)c4F)c4nc(c(-c5c(F)c(F)c(F)c(F)c5F)c5ccc2[nH]5)C=C4)C=C3)cc1)c1ccc(N[C@H]2CCC[C@@H]2O)cc1F
REMARK SMILES IDX 6 1 5 2 3 3 4 4 2 5 1 6 74 7 75 8 86 9 76 10 85 11 87 12
REMARK SMILES IDX 77 13 78 14 79 16 80 17 83 18 81 19 82 20 84 21 7 23 8 24
REMARK SMILES IDX 9 25 10 26 11 27 12 28 73 29 13 30 72 31 14 32 15 33 16 34
REMARK SMILES IDX 66 35 17 36 71 37 65 38 67 39 18 40 70 41 64 42 63 43 19 45
REMARK SMILES IDX 51 46 31 47 50 48 32 49 35 50 49 51 68 52 33 53 34 54 48 56
REMARK SMILES IDX 69 57 36 58 20 59 21 60 29 61 22 62 23 63 27 64 30 65 24 66
REMARK SMILES IDX 25 67 28 68 26 69 52 70 53 71 61 72 54 73 55 74 59 75 62 76
REMARK SMILES IDX 56 77 57 78 60 79 58 80 37 81 38 82 46 83 39 84 40 85 44 86
REMARK SMILES IDX 47 87 41 88 42 89 45 90 43 91
REMARK H PARENT 78 15 84 22 67 44 35 55
REMARK Flexibility Score: inf
ROOT
ATOM      1  C   UNL A   1      31.163  28.462  24.932  1.00  0.00     0.274 C 
ENDROOT
BRANCH   1   2
ATOM      2  O   UNL A   1      32.256  27.598  25.312  1.00  0.00    -0.462 OA
BRANCH   2   3
ATOM      3  C   UNL A   1      31.938  26.463  25.992  1.00  0.00     0.313 C 
ATOM      4  O   UNL A   1      30.855  26.268  26.535  1.00  0.00    -0.252 OA
BRANCH   3   5
ATOM      5  C   UNL A   1      33.113  25.479  26.080  1.00  0.00     0.129 C 
ATOM      6  C   UNL A   1      34.391  25.980  25.402  1.00  0.00     0.025 C 
BRANCH   5   7
ATOM      7  C   UNL A   1      32.701  24.089  25.616  1.00  0.00     0.002 A 
ATOM      8  C   UNL A   1      32.570  23.803  24.252  1.00  0.00     0.010 A 
ATOM      9  C   UNL A   1      32.509  23.032  26.502  1.00  0.00     0.129 A 
ATOM     10  C   UNL A   1      32.308  22.495  23.802  1.00  0.00     0.026 A 
ATOM     11  C   UNL A   1      32.258  21.734  26.051  1.00  0.00     0.065 A 
ATOM     12  F   UNL A   1      32.632  23.224  27.823  1.00  0.00    -0.207 F 
ATOM     13  C   UNL A   1      32.218  21.421  24.687  1.00  0.00     0.037 A 
BRANCH  13  14
ATOM     14  N   UNL A   1      32.102  20.098  24.326  1.00  0.00    -0.380 N 
ATOM     15  H   UNL A   1      31.242  19.689  24.575  1.00  0.00     0.160 HD
BRANCH  14  16
ATOM     16  C   UNL A   1      33.021  19.189  23.642  1.00  0.00     0.107 C 
ATOM     17  C   UNL A   1      34.309  18.963  24.442  1.00  0.00     0.027 C 
ATOM     18  C   UNL A   1      32.474  17.796  23.275  1.00  0.00     0.136 C 
ATOM     19  C   UNL A   1      34.482  17.451  24.536  1.00  0.00     0.005 C 
ATOM     20  C   UNL A   1      33.710  16.903  23.349  1.00  0.00     0.034 C 
BRANCH  18  21
ATOM     21  O   UNL A   1      31.927  17.753  21.962  1.00  0.00    -0.391 OA
ATOM     22  H   UNL A   1      32.364  17.053  21.452  1.00  0.00     0.211 HD
ENDBRANCH  18  21
ENDBRANCH  14  16
ENDBRANCH  13  14
ENDBRANCH   5   7
ENDBRANCH   3   5
ENDBRANCH   2   3
ENDBRANCH   1   2
BRANCH   1  23
ATOM     23  C   UNL A   1      31.460  29.899  25.352  1.00  0.00     0.275 C 
BRANCH  23  24
ATOM     24  O   UNL A   1      32.810  29.964  25.837  1.00  0.00    -0.458 OA
BRANCH  24  25
ATOM     25  C   UNL A   1      33.068  30.898  26.777  1.00  0.00     0.338 C 
ATOM     26  O   UNL A   1      32.345  31.828  27.106  1.00  0.00    -0.246 OA
BRANCH  25  27
ATOM     27  C   UNL A   1      34.401  30.652  27.372  1.00  0.00     0.060 A 
ATOM     28  C   UNL A   1      34.855  29.356  27.615  1.00  0.00     0.016 A 
ATOM     29  C   UNL A   1      35.183  31.739  27.769  1.00  0.00     0.016 A 
ATOM     30  C   UNL A   1      36.034  29.152  28.332  1.00  0.00     0.010 A 
ATOM     31  C   UNL A   1      36.408  31.526  28.413  1.00  0.00     0.010 A 
ATOM     32  C   UNL A   1      36.832  30.228  28.746  1.00  0.00    -0.014 A 
BRANCH  32  33
ATOM     33  C   UNL A   1      38.061  30.008  29.568  1.00  0.00     0.031 A 
ATOM     34  C   UNL A   1      39.217  29.208  29.018  1.00  0.00     0.074 A 
ATOM     35  C   UNL A   1      38.176  30.536  30.803  1.00  0.00     0.049 A 
ATOM     36  N   UNL A   1      40.263  28.722  29.641  1.00  0.00    -0.248 NA
ATOM     37  C   UNL A   1      39.191  28.903  27.579  1.00  0.00     0.031 C 
ATOM     38  C   UNL A   1      37.184  31.384  31.462  1.00  0.00     0.029 A 
ATOM     39  N   UNL A   1      39.194  30.446  31.723  1.00  0.00    -0.354 N 
ATOM     40  C   UNL A   1      40.966  27.986  28.696  1.00  0.00     0.074 A 
ATOM     41  C   UNL A   1      40.245  28.109  27.447  1.00  0.00     0.031 C 
ATOM     42  C   UNL A   1      37.668  31.795  32.642  1.00  0.00     0.029 A 
ATOM     43  C   UNL A   1      38.958  31.153  32.876  1.00  0.00     0.049 A 
ATOM     44  H   UNL A   1      40.016  29.925  31.570  1.00  0.00     0.167 HD
ATOM     45  C   UNL A   1      42.100  27.263  28.859  1.00  0.00     0.037 A 
ATOM     46  C   UNL A   1      39.666  31.244  34.017  1.00  0.00     0.037 A 
ATOM     47  C   UNL A   1      42.866  27.203  30.078  1.00  0.00     0.049 A 
ATOM     48  C   UNL A   1      40.926  30.442  34.174  1.00  0.00     0.074 A 
ATOM     49  C   UNL A   1      44.032  26.498  30.333  1.00  0.00     0.029 A 
ATOM     50  N   UNL A   1      42.561  27.899  31.237  1.00  0.00    -0.354 N 
ATOM     51  N   UNL A   1      41.515  29.650  33.314  1.00  0.00    -0.248 NA
ATOM     52  C   UNL A   1      41.598  30.518  35.480  1.00  0.00     0.031 C 
ATOM     53  C   UNL A   1      44.420  26.752  31.652  1.00  0.00     0.029 A 
ATOM     54  C   UNL A   1      43.517  27.641  32.208  1.00  0.00     0.049 A 
ATOM     55  H   UNL A   1      41.782  28.489  31.353  1.00  0.00     0.167 HD
ATOM     56  C   UNL A   1      42.616  29.124  33.973  1.00  0.00     0.074 A 
ATOM     57  C   UNL A   1      42.635  29.712  35.297  1.00  0.00     0.031 C 
ATOM     58  C   UNL A   1      43.520  28.220  33.526  1.00  0.00     0.037 A 
BRANCH  45  59
ATOM     59  C   UNL A   1      42.573  26.434  27.701  1.00  0.00     0.064 A 
ATOM     60  C   UNL A   1      42.053  25.161  27.434  1.00  0.00     0.173 A 
ATOM     61  C   UNL A   1      43.523  26.958  26.807  1.00  0.00     0.173 A 
ATOM     62  F   UNL A   1      41.154  24.612  28.264  1.00  0.00    -0.203 F 
ATOM     63  C   UNL A   1      42.479  24.433  26.325  1.00  0.00     0.198 A 
ATOM     64  C   UNL A   1      43.926  26.238  25.686  1.00  0.00     0.198 A 
ATOM     65  F   UNL A   1      44.045  28.176  27.013  1.00  0.00    -0.203 F 
ATOM     66  F   UNL A   1      41.993  23.204  26.105  1.00  0.00    -0.200 F 
ATOM     67  C   UNL A   1      43.408  24.975  25.448  1.00  0.00     0.200 A 
ATOM     68  F   UNL A   1      44.814  26.771  24.834  1.00  0.00    -0.200 F 
ATOM     69  F   UNL A   1      43.805  24.279  24.374  1.00  0.00    -0.200 F 
ENDBRANCH  45  59
BRANCH  46  70
ATOM     70  C   UNL A   1      39.159  32.088  35.129  1.00  0.00     0.064 A 
ATOM     71  C   UNL A   1      38.422  31.529  36.180  1.00  0.00     0.173 A 
ATOM     72  C   UNL A   1      39.420  33.466  35.173  1.00  0.00     0.173 A 
ATOM     73  F   UNL A   1      38.119  30.222  36.169  1.00  0.00    -0.203 F 
ATOM     74  C   UNL A   1      37.968  32.317  37.237  1.00  0.00     0.198 A 
ATOM     75  C   UNL A   1      38.994  34.245  36.245  1.00  0.00     0.198 A 
ATOM     76  F   UNL A   1      40.117  34.050  34.187  1.00  0.00    -0.203 F 
ATOM     77  F   UNL A   1      37.240  31.763  38.217  1.00  0.00    -0.200 F 
ATOM     78  C   UNL A   1      38.264  33.671  37.273  1.00  0.00     0.200 A 
ATOM     79  F   UNL A   1      39.295  35.550  36.284  1.00  0.00    -0.200 F 
ATOM     80  F   UNL A   1      37.843  34.423  38.300  1.00  0.00    -0.200 F 
ENDBRANCH  46  70
BRANCH  58  81
ATOM     81  C   UNL A   1      44.605  27.813  34.474  1.00  0.00     0.064 A 
ATOM     82  C   UNL A   1      45.823  28.508  34.528  1.00  0.00     0.173 A 
ATOM     83  C   UNL A   1      44.422  26.735  35.354  1.00  0.00     0.173 A 
ATOM     84  F   UNL A   1      46.051  29.535  33.695  1.00  0.00    -0.203 F 
ATOM     85  C   UNL A   1      46.827  28.124  35.413  1.00  0.00     0.198 A 
ATOM     86  C   UNL A   1      45.420  26.368  36.251  1.00  0.00     0.198 A 
ATOM     87  F   UNL A   1      43.273  26.042  35.342  1.00  0.00    -0.203 F 
ATOM     88  F   UNL A   1      47.997  28.776  35.420  1.00  0.00    -0.200 F 
ATOM     89  C   UNL A   1      46.622  27.058  36.276  1.00  0.00     0.200 A 
ATOM     90  F   UNL A   1      45.219  25.342  37.090  1.00  0.00    -0.200 F 
ATOM     91  F   UNL A   1      47.590  26.689  37.127  1.00  0.00    -0.200 F 
ENDBRANCH  58  81
ENDBRANCH  32  33
ENDBRANCH  25  27
ENDBRANCH  24  25
ENDBRANCH  23  24
ENDBRANCH   1  23
TORSDOF 15
ENDMDL
MODEL 2
REMARK VINA RESULT:     -12.2      0.722      1.800
REMARK SMILES C[C@@H](C(=O)OCCOC(=O)c1ccc(-c2c3nc(c(-c4c(F)c(F)c(F)c(F)c4F)c4ccc([nH]4)c(-c4c(F)c(F)c(F)c(F)c4F)c4nc(c(-c5c(F)c(F)c(F)c(F)c5F)c5ccc2[nH]5)C=C4)C=C3)cc1)c1ccc(N[C@H]2CCC[C@@H]2O)cc1F
REMARK SMILES IDX 6 1 5 2 3 3 4 4 2 5 1 6 74 7 75 8 86 9 76 10 85 11 87 12
REMARK SMILES IDX 77 13 78 14 79 16 80 17 83 18 81 19 82 20 84 21 7 23 8 24
REMARK SMILES IDX 9 25 10 26 11 27 12 28 73 29 13 30 72 31 14 32 15 33 16 34
REMARK SMILES IDX 66 35 17 36 71 37 65 38 67 39 18 40 70 41 64 42 63 43 19 45
REMARK SMILES IDX 51 46 31 47 50 48 32 49 35 50 49 51 68 52 33 53 34 54 48 56
REMARK SMILES IDX 69 57 36 58 20 59 21 60 29 61 22 62 23 63 27 64 30 65 24 66
REMARK SMILES IDX 25 67 28 68 26 69 52 70 53 71 61 72 54 73 55 74 59 75 62 76
REMARK SMILES IDX 56 77 57 78 60 79 58 80 37 81 38 82 46 83 39 84 40 85 44 86
REMARK SMILES IDX 47 87 41 88 42 89 45 90 43 91
REMARK H PARENT 78 15 84 22 67 44 35 55
REMARK Flexibility Score: inf
ROOT
ATOM      1  C   UNL A   1      31.450  28.563  26.442  1.00  0.00     0.274 C 
ENDROOT
BRANCH   1   2
ATOM      2  O   UNL A   1      31.541  27.453  25.524  1.00  0.00    -0.462 OA
BRANCH   2   3
ATOM      3  C   UNL A   1      31.501  26.203  26.061  1.00  0.00     0.313 C 
ATOM      4  O   UNL A   1      30.486  25.679  26.507  1.00  0.00    -0.252 OA
BRANCH   3   5
ATOM      5  C   UNL A   1      32.885  25.544  26.125  1.00  0.00     0.129 C 
ATOM      6  C   UNL A   1      33.999  26.380  25.488  1.00  0.00     0.025 C 
BRANCH   5   7
ATOM      7  C   UNL A   1      32.840  24.117  25.596  1.00  0.00     0.002 A 
ATOM      8  C   UNL A   1      32.071  23.799  24.470  1.00  0.00     0.010 A 
ATOM      9  C   UNL A   1      33.602  23.090  26.148  1.00  0.00     0.129 A 
ATOM     10  C   UNL A   1      32.111  22.513  23.898  1.00  0.00     0.026 A 
ATOM     11  C   UNL A   1      33.646  21.819  25.572  1.00  0.00     0.065 A 
ATOM     12  F   UNL A   1      34.376  23.321  27.218  1.00  0.00    -0.207 F 
ATOM     13  C   UNL A   1      32.954  21.518  24.392  1.00  0.00     0.037 A 
BRANCH  13  14
ATOM     14  N   UNL A   1      33.158  20.286  23.815  1.00  0.00    -0.380 N 
ATOM     15  H   UNL A   1      33.805  20.294  23.073  1.00  0.00     0.160 HD
BRANCH  14  16
ATOM     16  C   UNL A   1      32.592  18.968  24.099  1.00  0.00     0.107 C 
ATOM     17  C   UNL A   1      32.639  18.046  22.875  1.00  0.00     0.027 C 
ATOM     18  C   UNL A   1      33.209  18.184  25.272  1.00  0.00     0.136 C 
ATOM     19  C   UNL A   1      33.292  16.753  23.352  1.00  0.00     0.005 C 
ATOM     20  C   UNL A   1      33.040  16.728  24.849  1.00  0.00     0.034 C 
BRANCH  18  21
ATOM     21  O   UNL A   1      32.528  18.412  26.500  1.00  0.00    -0.391 OA
ATOM     22  H   UNL A   1      32.488  17.585  27.006  1.00  0.00     0.211 HD
ENDBRANCH  18  21
ENDBRANCH  14  16
ENDBRANCH  13  14
ENDBRANCH   5   7
ENDBRANCH   3   5
ENDBRANCH   2   3
ENDBRANCH   1   2
BRANCH   1  23
ATOM     23  C   UNL A   1      31.519  29.884  25.679  1.00  0.00     0.275 C 
BRANCH  23  24
ATOM     24  O   UNL A   1      32.852  30.405  25.790  1.00  0.00    -0.458 OA
BRANCH  24  25
ATOM     25  C   UNL A   1      33.093  31.228  26.834  1.00  0.00     0.338 C 
ATOM     26  O   UNL A   1      32.363  32.117  27.251  1.00  0.00    -0.246 OA
BRANCH  25  27
ATOM     27  C   UNL A   1      34.414  30.916  27.422  1.00  0.00     0.060 A 
ATOM     28  C   UNL A   1      34.819  29.597  27.629  1.00  0.00     0.016 A 
ATOM     29  C   UNL A   1      35.236  31.961  27.849  1.00  0.00     0.016 A 
ATOM     30  C   UNL A   1      35.988  29.328  28.340  1.00  0.00     0.010 A 
ATOM     31  C   UNL A   1      36.452  31.684  28.486  1.00  0.00     0.010 A 
ATOM     32  C   UNL A   1      36.825  30.362  28.784  1.00  0.00    -0.014 A 
BRANCH  32  33
ATOM     33  C   UNL A   1      38.044  30.073  29.599  1.00  0.00     0.031 A 
ATOM     34  C   UNL A   1      39.171  29.246  29.027  1.00  0.00     0.074 A 
ATOM     35  C   UNL A   1      38.177  30.560  30.850  1.00  0.00     0.049 A 
ATOM     36  N   UNL A   1      40.198  28.704  29.636  1.00  0.00    -0.248 NA
ATOM     37  C   UNL A   1      39.136  28.984  27.580  1.00  0.00     0.031 C 
ATOM     38  C   UNL A   1      37.217  31.424  31.532  1.00  0.00     0.029 A 
ATOM     39  N   UNL A   1      39.190  30.406  31.767  1.00  0.00    -0.354 N 
ATOM     40  C   UNL A   1      40.874  27.970  28.671  1.00  0.00     0.074 A 
ATOM     41  C   UNL A   1      40.160  28.156  27.426  1.00  0.00     0.031 C 
ATOM     42  C   UNL A   1      37.713  31.783  32.725  1.00  0.00     0.029 A 
ATOM     43  C   UNL A   1      38.978  31.087  32.940  1.00  0.00     0.049 A 
ATOM     44  H   UNL A   1      39.992  29.859  31.599  1.00  0.00     0.167 HD
ATOM     45  C   UNL A   1      41.980  27.201  28.813  1.00  0.00     0.037 A 
ATOM     46  C   UNL A   1      39.688  31.118  34.084  1.00  0.00     0.037 A 
ATOM     47  C   UNL A   1      42.742  27.078  30.030  1.00  0.00     0.049 A 
ATOM     48  C   UNL A   1      40.916  30.267  34.218  1.00  0.00     0.074 A 
ATOM     49  C   UNL A   1      43.880  26.323  30.265  1.00  0.00     0.029 A 
ATOM     50  N   UNL A   1      42.461  27.751  31.209  1.00  0.00    -0.354 N 
ATOM     51  N   UNL A   1      41.478  29.478  33.336  1.00  0.00    -0.248 NA
ATOM     52  C   UNL A   1      41.589  30.279  35.526  1.00  0.00     0.031 C 
ATOM     53  C   UNL A   1      44.276  26.524  31.592  1.00  0.00     0.029 A 
ATOM     54  C   UNL A   1      43.405  27.430  32.173  1.00  0.00     0.049 A 
ATOM     55  H   UNL A   1      41.704  28.366  31.342  1.00  0.00     0.167 HD
ATOM     56  C   UNL A   1      42.557  28.893  33.980  1.00  0.00     0.074 A 
ATOM     57  C   UNL A   1      42.595  29.442  35.320  1.00  0.00     0.031 C 
ATOM     58  C   UNL A   1      43.427  27.969  33.507  1.00  0.00     0.037 A 
BRANCH  45  59
ATOM     59  C   UNL A   1      42.424  26.390  27.632  1.00  0.00     0.064 A 
ATOM     60  C   UNL A   1      43.422  26.834  26.755  1.00  0.00     0.173 A 
ATOM     61  C   UNL A   1      41.876  25.114  27.412  1.00  0.00     0.173 A 
ATOM     62  F   UNL A   1      43.968  28.049  26.915  1.00  0.00    -0.203 F 
ATOM     63  C   UNL A   1      43.846  26.040  25.692  1.00  0.00     0.198 A 
ATOM     64  C   UNL A   1      42.320  24.313  26.364  1.00  0.00     0.198 A 
ATOM     65  F   UNL A   1      40.922  24.639  28.228  1.00  0.00    -0.203 F 
ATOM     66  F   UNL A   1      44.779  26.496  24.847  1.00  0.00    -0.200 F 
ATOM     67  C   UNL A   1      43.300  24.777  25.502  1.00  0.00     0.200 A 
ATOM     68  F   UNL A   1      41.801  23.089  26.192  1.00  0.00    -0.200 F 
ATOM     69  F   UNL A   1      43.720  24.010  24.487  1.00  0.00    -0.200 F 
ENDBRANCH  45  59
BRANCH  46  70
ATOM     70  C   UNL A   1      39.210  31.949  35.219  1.00  0.00     0.064 A 
ATOM     71  C   UNL A   1      39.489  33.320  35.276  1.00  0.00     0.173 A 
ATOM     72  C   UNL A   1      38.447  31.392  36.256  1.00  0.00     0.173 A 
ATOM     73  F   UNL A   1      40.241  33.894  34.325  1.00  0.00    -0.203 F 
ATOM     74  C   UNL A   1      39.019  34.105  36.328  1.00  0.00     0.198 A 
ATOM     75  C   UNL A   1      37.951  32.183  37.289  1.00  0.00     0.198 A 
ATOM     76  F   UNL A   1      38.157  30.083  36.250  1.00  0.00    -0.203 F 
ATOM     77  F   UNL A   1      39.323  35.409  36.375  1.00  0.00    -0.200 F 
ATOM     78  C   UNL A   1      38.241  33.538  37.326  1.00  0.00     0.200 A 
ATOM     79  F   UNL A   1      37.187  31.634  38.243  1.00  0.00    -0.200 F 
ATOM     80  F   UNL A   1      37.774  34.297  38.327  1.00  0.00    -0.200 F 
ENDBRANCH  46  70
BRANCH  58  81
ATOM     81  C   UNL A   1      44.496  27.495  34.444  1.00  0.00     0.064 A 
ATOM     82  C   UNL A   1      45.716  28.178  34.560  1.00  0.00     0.173 A 
ATOM     83  C   UNL A   1      44.292  26.365  35.249  1.00  0.00     0.173 A 
ATOM     84  F   UNL A   1      45.963  29.253  33.799  1.00  0.00    -0.203 F 
ATOM     85  C   UNL A   1      46.704  27.731  35.434  1.00  0.00     0.198 A 
ATOM     86  C   UNL A   1      45.274  25.933  36.136  1.00  0.00     0.198 A 
ATOM     87  F   UNL A   1      43.140  25.681  35.175  1.00  0.00    -0.203 F 
ATOM     88  F   UNL A   1      47.878  28.373  35.500  1.00  0.00    -0.200 F 
ATOM     89  C   UNL A   1      46.480  26.612  36.224  1.00  0.00     0.200 A 
ATOM     90  F   UNL A   1      45.055  24.857  36.904  1.00  0.00    -0.200 F 
ATOM     91  F   UNL A   1      47.432  26.183  37.064  1.00  0.00    -0.200 F 
ENDBRANCH  58  81
ENDBRANCH  32  33
ENDBRANCH  25  27
ENDBRANCH  24  25
ENDBRANCH  23  24
ENDBRANCH   1  23
TORSDOF 15
ENDMDL
MODEL 3
REMARK VINA RESULT:     -12.1      4.450      9.932
REMARK SMILES C[C@@H](C(=O)OCCOC(=O)c1ccc(-c2c3nc(c(-c4c(F)c(F)c(F)c(F)c4F)c4ccc([nH]4)c(-c4c(F)c(F)c(F)c(F)c4F)c4nc(c(-c5c(F)c(F)c(F)c(F)c5F)c5ccc2[nH]5)C=C4)C=C3)cc1)c1ccc(N[C@H]2CCC[C@@H]2O)cc1F
REMARK SMILES IDX 6 1 5 2 3 3 4 4 2 5 1 6 74 7 75 8 86 9 76 10 85 11 87 12
REMARK SMILES IDX 77 13 78 14 79 16 80 17 83 18 81 19 82 20 84 21 7 23 8 24
REMARK SMILES IDX 9 25 10 26 11 27 12 28 73 29 13 30 72 31 14 32 15 33 16 34
REMARK SMILES IDX 66 35 17 36 71 37 65 38 67 39 18 40 70 41 64 42 63 43 19 45
REMARK SMILES IDX 51 46 31 47 50 48 32 49 35 50 49 51 68 52 33 53 34 54 48 56
REMARK SMILES IDX 69 57 36 58 20 59 21 60 29 61 22 62 23 63 27 64 30 65 24 66
REMARK SMILES IDX 25 67 28 68 26 69 52 70 53 71 61 72 54 73 55 74 59 75 62 76
REMARK SMILES IDX 56 77 57 78 60 79 58 80 37 81 38 82 46 83 39 84 40 85 44 86
REMARK SMILES IDX 47 87 41 88 42 89 45 90 43 91
REMARK H PARENT 78 15 84 22 67 44 35 55
REMARK Flexibility Score: inf
ROOT
ATOM      1  C   UNL A   1      35.119  20.431  25.268  1.00  0.00     0.274 C 
ENDROOT
BRANCH   1   2
ATOM      2  O   UNL A   1      34.630  21.790  25.263  1.00  0.00    -0.462 OA
BRANCH   2   3
ATOM      3  C   UNL A   1      33.840  22.158  24.217  1.00  0.00     0.313 C 
ATOM      4  O   UNL A   1      32.902  21.489  23.796  1.00  0.00    -0.252 OA
BRANCH   3   5
ATOM      5  C   UNL A   1      34.300  23.468  23.564  1.00  0.00     0.129 C 
ATOM      6  C   UNL A   1      35.652  23.973  24.075  1.00  0.00     0.025 C 
BRANCH   5   7
ATOM      7  C   UNL A   1      33.208  24.527  23.628  1.00  0.00     0.002 A 
ATOM      8  C   UNL A   1      32.832  25.089  24.854  1.00  0.00     0.010 A 
ATOM      9  C   UNL A   1      32.591  25.035  22.487  1.00  0.00     0.129 A 
ATOM     10  C   UNL A   1      31.911  26.151  24.918  1.00  0.00     0.026 A 
ATOM     11  C   UNL A   1      31.685  26.096  22.555  1.00  0.00     0.065 A 
ATOM     12  F   UNL A   1      32.910  24.559  21.275  1.00  0.00    -0.207 F 
ATOM     13  C   UNL A   1      31.374  26.725  23.766  1.00  0.00     0.037 A 
BRANCH  13  14
ATOM     14  N   UNL A   1      30.580  27.848  23.730  1.00  0.00    -0.380 N 
ATOM     15  H   UNL A   1      30.658  28.419  24.528  1.00  0.00     0.160 HD
BRANCH  14  16
ATOM     16  C   UNL A   1      29.643  28.350  22.726  1.00  0.00     0.107 C 
ATOM     17  C   UNL A   1      28.184  28.094  23.123  1.00  0.00     0.027 C 
ATOM     18  C   UNL A   1      29.750  29.842  22.359  1.00  0.00     0.136 C 
ATOM     19  C   UNL A   1      27.475  29.439  22.993  1.00  0.00     0.005 C 
ATOM     20  C   UNL A   1      28.316  30.219  21.998  1.00  0.00     0.034 C 
BRANCH  18  21
ATOM     21  O   UNL A   1      30.604  30.070  21.243  1.00  0.00    -0.391 OA
ATOM     22  H   UNL A   1      30.453  29.382  20.575  1.00  0.00     0.211 HD
ENDBRANCH  18  21
ENDBRANCH  14  16
ENDBRANCH  13  14
ENDBRANCH   5   7
ENDBRANCH   3   5
ENDBRANCH   2   3
ENDBRANCH   1   2
BRANCH   1  23
ATOM     23  C   UNL A   1      36.606  20.407  24.926  1.00  0.00     0.275 C 
BRANCH  23  24
ATOM     24  O   UNL A   1      37.280  21.372  25.749  1.00  0.00    -0.458 OA
BRANCH  24  25
ATOM     25  C   UNL A   1      38.605  21.188  25.931  1.00  0.00     0.338 C 
ATOM     26  O   UNL A   1      39.244  20.170  25.700  1.00  0.00    -0.246 OA
BRANCH  25  27
ATOM     27  C   UNL A   1      39.209  22.420  26.485  1.00  0.00     0.060 A 
ATOM     28  C   UNL A   1      38.705  23.680  26.162  1.00  0.00     0.016 A 
ATOM     29  C   UNL A   1      40.352  22.322  27.282  1.00  0.00     0.016 A 
ATOM     30  C   UNL A   1      39.391  24.829  26.553  1.00  0.00     0.010 A 
ATOM     31  C   UNL A   1      40.988  23.481  27.744  1.00  0.00     0.010 A 
ATOM     32  C   UNL A   1      40.544  24.754  27.348  1.00  0.00    -0.014 A 
BRANCH  32  33
ATOM     33  C   UNL A   1      41.312  25.984  27.713  1.00  0.00     0.031 A 
ATOM     34  C   UNL A   1      40.695  27.038  28.601  1.00  0.00     0.074 A 
ATOM     35  C   UNL A   1      42.576  26.169  27.280  1.00  0.00     0.049 A 
ATOM     36  N   UNL A   1      41.102  28.258  28.850  1.00  0.00    -0.248 NA
ATOM     37  C   UNL A   1      39.449  26.677  29.295  1.00  0.00     0.031 C 
ATOM     38  C   UNL A   1      43.344  25.227  26.469  1.00  0.00     0.029 A 
ATOM     39  N   UNL A   1      43.445  27.216  27.479  1.00  0.00    -0.354 N 
ATOM     40  C   UNL A   1      40.124  28.835  29.649  1.00  0.00     0.074 A 
ATOM     41  C   UNL A   1      39.113  27.823  29.871  1.00  0.00     0.031 C 
ATOM     42  C   UNL A   1      44.587  25.700  26.300  1.00  0.00     0.029 A 
ATOM     43  C   UNL A   1      44.673  27.030  26.895  1.00  0.00     0.049 A 
ATOM     44  H   UNL A   1      43.209  28.023  27.991  1.00  0.00     0.167 HD
ATOM     45  C   UNL A   1      40.068  30.096  30.141  1.00  0.00     0.037 A 
ATOM     46  C   UNL A   1      45.740  27.846  26.802  1.00  0.00     0.037 A 
ATOM     47  C   UNL A   1      41.110  31.081  29.993  1.00  0.00     0.049 A 
ATOM     48  C   UNL A   1      45.661  29.236  27.363  1.00  0.00     0.074 A 
ATOM     49  C   UNL A   1      41.140  32.384  30.463  1.00  0.00     0.029 A 
ATOM     50  N   UNL A   1      42.319  30.861  29.352  1.00  0.00    -0.354 N 
ATOM     51  N   UNL A   1      44.680  29.814  28.010  1.00  0.00    -0.248 NA
ATOM     52  C   UNL A   1      46.828  30.103  27.143  1.00  0.00     0.031 C 
ATOM     53  C   UNL A   1      42.359  32.959  30.088  1.00  0.00     0.029 A 
ATOM     54  C   UNL A   1      43.102  32.004  29.416  1.00  0.00     0.049 A 
ATOM     55  H   UNL A   1      42.582  30.019  28.917  1.00  0.00     0.167 HD
ATOM     56  C   UNL A   1      45.102  31.109  28.264  1.00  0.00     0.074 A 
ATOM     57  C   UNL A   1      46.444  31.227  27.732  1.00  0.00     0.031 C 
ATOM     58  C   UNL A   1      44.429  32.117  28.870  1.00  0.00     0.037 A 
BRANCH  45  59
ATOM     59  C   UNL A   1      38.818  30.510  30.860  1.00  0.00     0.064 A 
ATOM     60  C   UNL A   1      38.706  30.451  32.255  1.00  0.00     0.173 A 
ATOM     61  C   UNL A   1      37.734  31.034  30.135  1.00  0.00     0.173 A 
ATOM     62  F   UNL A   1      39.707  29.947  32.991  1.00  0.00    -0.203 F 
ATOM     63  C   UNL A   1      37.549  30.885  32.899  1.00  0.00     0.198 A 
ATOM     64  C   UNL A   1      36.590  31.491  30.783  1.00  0.00     0.198 A 
ATOM     65  F   UNL A   1      37.795  31.120  28.797  1.00  0.00    -0.203 F 
ATOM     66  F   UNL A   1      37.449  30.790  34.231  1.00  0.00    -0.200 F 
ATOM     67  C   UNL A   1      36.496  31.412  32.163  1.00  0.00     0.200 A 
ATOM     68  F   UNL A   1      35.581  32.012  30.071  1.00  0.00    -0.200 F 
ATOM     69  F   UNL A   1      35.390  31.842  32.786  1.00  0.00    -0.200 F 
ENDBRANCH  45  59
BRANCH  46  70
ATOM     70  C   UNL A   1      46.958  27.381  26.090  1.00  0.00     0.064 A 
ATOM     71  C   UNL A   1      47.099  27.564  24.709  1.00  0.00     0.173 A 
ATOM     72  C   UNL A   1      48.013  26.765  26.780  1.00  0.00     0.173 A 
ATOM     73  F   UNL A   1      46.107  28.120  23.999  1.00  0.00    -0.203 F 
ATOM     74  C   UNL A   1      48.253  27.151  24.045  1.00  0.00     0.198 A 
ATOM     75  C   UNL A   1      49.178  26.382  26.121  1.00  0.00     0.198 A 
ATOM     76  F   UNL A   1      47.923  26.561  28.103  1.00  0.00    -0.203 F 
ATOM     77  F   UNL A   1      48.353  27.312  22.718  1.00  0.00    -0.200 F 
ATOM     78  C   UNL A   1      49.295  26.572  24.753  1.00  0.00     0.200 A 
ATOM     79  F   UNL A   1      50.188  25.837  26.812  1.00  0.00    -0.200 F 
ATOM     80  F   UNL A   1      50.412  26.193  24.117  1.00  0.00    -0.200 F 
ENDBRANCH  46  70
BRANCH  58  81
ATOM     81  C   UNL A   1      45.133  33.433  28.990  1.00  0.00     0.064 A 
ATOM     82  C   UNL A   1      44.991  34.426  28.009  1.00  0.00     0.173 A 
ATOM     83  C   UNL A   1      45.939  33.715  30.103  1.00  0.00     0.173 A 
ATOM     84  F   UNL A   1      44.245  34.197  26.919  1.00  0.00    -0.203 F 
ATOM     85  C   UNL A   1      45.649  35.648  28.129  1.00  0.00     0.198 A 
ATOM     86  C   UNL A   1      46.579  34.945  30.229  1.00  0.00     0.198 A 
ATOM     87  F   UNL A   1      46.103  32.798  31.069  1.00  0.00    -0.203 F 
ATOM     88  F   UNL A   1      45.533  36.567  27.162  1.00  0.00    -0.200 F 
ATOM     89  C   UNL A   1      46.438  35.907  29.240  1.00  0.00     0.200 A 
ATOM     90  F   UNL A   1      47.335  35.198  31.306  1.00  0.00    -0.200 F 
ATOM     91  F   UNL A   1      47.072  37.083  29.353  1.00  0.00    -0.200 F 
ENDBRANCH  58  81
ENDBRANCH  32  33
ENDBRANCH  25  27
ENDBRANCH  24  25
ENDBRANCH  23  24
ENDBRANCH   1  23
TORSDOF 15
ENDMDL
