MODEL 1
REMARK VINA RESULT:     -10.1      0.000      0.000
REMARK SMILES C=CCS(=O)(=O)N[C@H](CC(N)=O)C(=O)OCCOC(=O)c1ccc(-c2c3nc(c(-c4c(F)c(F)c(F)c(F)c4F)c4ccc([nH]4)c(-c4c(F)c(F)c(F)c(F)c4F)c4nc(c(-c5c(F)c(F)c(F)c(F)c5F)c5ccc2[nH]5)C=C4)C=C3)cc1
REMARK SMILES IDX 16 1 15 2 13 3 14 4 8 5 7 6 4 8 5 9 6 10 3 11 2 12 1 13 9 14
REMARK SMILES IDX 10 15 11 16 12 17 17 20 18 21 19 22 20 23 21 24 22 25 83 26
REMARK SMILES IDX 23 27 82 28 24 29 25 30 26 31 76 32 27 33 81 34 75 35 77 36
REMARK SMILES IDX 28 37 80 38 74 39 73 40 29 42 61 43 41 44 60 45 42 46 45 47
REMARK SMILES IDX 59 48 78 49 43 50 44 51 58 53 79 54 46 55 30 56 31 57 39 58
REMARK SMILES IDX 32 59 33 60 37 61 40 62 34 63 35 64 38 65 36 66 62 67 63 68
REMARK SMILES IDX 71 69 64 70 65 71 69 72 72 73 66 74 67 75 70 76 68 77 47 78
REMARK SMILES IDX 48 79 56 80 49 81 50 82 54 83 57 84 51 85 52 86 55 87 53 88
REMARK H PARENT 7 7 11 18 11 19 77 41 45 52
REMARK Flexibility Score: inf
ROOT
ATOM      1  C   UNL A   1      33.147  34.691  29.147  1.00  0.00     0.274 C 
ENDROOT
BRANCH   1   2
ATOM      2  O   UNL A   1      34.427  34.429  29.746  1.00  0.00    -0.461 OA
BRANCH   2   3
ATOM      3  C   UNL A   1      34.415  33.582  30.806  1.00  0.00     0.324 C 
ATOM      4  O   UNL A   1      34.391  32.360  30.707  1.00  0.00    -0.250 OA
BRANCH   3   5
ATOM      5  C   UNL A   1      34.402  34.266  32.158  1.00  0.00     0.188 C 
BRANCH   5   6
ATOM      6  N   UNL A   1      34.487  35.754  32.107  1.00  0.00    -0.200 NA
ATOM      7  H   UNL A   1      35.193  36.016  32.794  1.00  0.00     0.142 HD
BRANCH   6   8
ATOM      8  S   UNL A   1      33.185  36.766  32.381  1.00  0.00     0.215 S 
ATOM      9  O   UNL A   1      32.922  37.530  31.181  1.00  0.00    -0.212 OA
ATOM     10  O   UNL A   1      33.529  37.443  33.612  1.00  0.00    -0.212 OA
BRANCH   8  11
ATOM     11  C   UNL A   1      31.764  35.709  32.788  1.00  0.00     0.180 C 
BRANCH  11  12
ATOM     12  C   UNL A   1      30.475  36.453  32.946  1.00  0.00    -0.017 C 
ATOM     13  C   UNL A   1      29.952  36.837  34.120  1.00  0.00     0.005 C 
ENDBRANCH  11  12
ENDBRANCH   8  11
ENDBRANCH   6   8
ENDBRANCH   5   6
BRANCH   5  14
ATOM     14  C   UNL A   1      35.320  33.564  33.169  1.00  0.00     0.131 C 
BRANCH  14  15
ATOM     15  C   UNL A   1      35.808  34.434  34.295  1.00  0.00     0.219 C 
ATOM     16  N   UNL A   1      34.855  34.957  35.112  1.00  0.00    -0.370 N 
ATOM     17  O   UNL A   1      36.994  34.666  34.502  1.00  0.00    -0.275 OA
ATOM     18  H   UNL A   1      33.903  34.769  34.942  1.00  0.00     0.159 HD
ATOM     19  H   UNL A   1      35.115  35.524  35.873  1.00  0.00     0.159 HD
ENDBRANCH  14  15
ENDBRANCH   5  14
ENDBRANCH   3   5
ENDBRANCH   2   3
ENDBRANCH   1   2
BRANCH   1  20
ATOM     20  C   UNL A   1      32.805  33.775  27.967  1.00  0.00     0.275 C 
BRANCH  20  21
ATOM     21  O   UNL A   1      33.948  33.162  27.347  1.00  0.00    -0.458 OA
BRANCH  21  22
ATOM     22  C   UNL A   1      33.985  31.810  27.413  1.00  0.00     0.338 C 
ATOM     23  O   UNL A   1      33.111  31.023  27.083  1.00  0.00    -0.246 OA
BRANCH  22  24
ATOM     24  C   UNL A   1      35.318  31.361  27.847  1.00  0.00     0.060 A 
ATOM     25  C   UNL A   1      35.478  30.041  28.292  1.00  0.00     0.016 A 
ATOM     26  C   UNL A   1      36.368  32.272  27.925  1.00  0.00     0.016 A 
ATOM     27  C   UNL A   1      36.682  29.631  28.852  1.00  0.00     0.010 A 
ATOM     28  C   UNL A   1      37.572  31.865  28.496  1.00  0.00     0.010 A 
ATOM     29  C   UNL A   1      37.723  30.554  28.989  1.00  0.00    -0.014 A 
BRANCH  29  30
ATOM     30  C   UNL A   1      38.930  30.227  29.775  1.00  0.00     0.031 A 
ATOM     31  C   UNL A   1      39.894  29.227  29.211  1.00  0.00     0.074 A 
ATOM     32  C   UNL A   1      39.124  30.764  30.990  1.00  0.00     0.049 A 
ATOM     33  N   UNL A   1      40.871  28.589  29.799  1.00  0.00    -0.248 NA
ATOM     34  C   UNL A   1      39.719  28.888  27.789  1.00  0.00     0.031 C 
ATOM     35  C   UNL A   1      38.292  31.797  31.600  1.00  0.00     0.029 A 
ATOM     36  N   UNL A   1      40.067  30.477  31.945  1.00  0.00    -0.354 N 
ATOM     37  C   UNL A   1      41.403  27.747  28.831  1.00  0.00     0.074 A 
ATOM     38  C   UNL A   1      40.636  27.946  27.622  1.00  0.00     0.031 C 
ATOM     39  C   UNL A   1      38.738  32.035  32.846  1.00  0.00     0.029 A 
ATOM     40  C   UNL A   1      39.845  31.126  33.135  1.00  0.00     0.049 A 
ATOM     41  H   UNL A   1      40.826  29.870  31.792  1.00  0.00     0.167 HD
ATOM     42  C   UNL A   1      42.437  26.882  28.954  1.00  0.00     0.037 A 
ATOM     43  C   UNL A   1      40.435  30.957  34.333  1.00  0.00     0.037 A 
ATOM     44  C   UNL A   1      43.186  26.703  30.169  1.00  0.00     0.049 A 
ATOM     45  C   UNL A   1      41.524  29.922  34.471  1.00  0.00     0.074 A 
ATOM     46  C   UNL A   1      44.258  25.863  30.406  1.00  0.00     0.029 A 
ATOM     47  N   UNL A   1      42.932  27.375  31.356  1.00  0.00    -0.354 N 
ATOM     48  N   UNL A   1      42.025  29.119  33.563  1.00  0.00    -0.248 NA
ATOM     49  C   UNL A   1      42.126  29.765  35.803  1.00  0.00     0.031 C 
ATOM     50  C   UNL A   1      44.614  25.982  31.752  1.00  0.00     0.029 A 
ATOM     51  C   UNL A   1      43.811  26.951  32.336  1.00  0.00     0.049 A 
ATOM     52  H   UNL A   1      42.230  28.055  31.482  1.00  0.00     0.167 HD
ATOM     53  C   UNL A   1      43.024  28.395  34.199  1.00  0.00     0.074 A 
ATOM     54  C   UNL A   1      43.059  28.851  35.573  1.00  0.00     0.031 C 
ATOM     55  C   UNL A   1      43.845  27.443  33.691  1.00  0.00     0.037 A 
BRANCH  42  56
ATOM     56  C   UNL A   1      42.786  26.037  27.764  1.00  0.00     0.064 A 
ATOM     57  C   UNL A   1      42.150  24.814  27.507  1.00  0.00     0.173 A 
ATOM     58  C   UNL A   1      43.758  26.474  26.848  1.00  0.00     0.173 A 
ATOM     59  F   UNL A   1      41.226  24.343  28.357  1.00  0.00    -0.203 F 
ATOM     60  C   UNL A   1      42.490  24.048  26.395  1.00  0.00     0.198 A 
ATOM     61  C   UNL A   1      44.072  25.721  25.720  1.00  0.00     0.198 A 
ATOM     62  F   UNL A   1      44.397  27.637  27.043  1.00  0.00    -0.203 F 
ATOM     63  F   UNL A   1      41.906  22.858  26.199  1.00  0.00    -0.200 F 
ATOM     64  C   UNL A   1      43.445  24.505  25.499  1.00  0.00     0.200 A 
ATOM     65  F   UNL A   1      44.984  26.174  24.849  1.00  0.00    -0.200 F 
ATOM     66  F   UNL A   1      43.767  23.770  24.425  1.00  0.00    -0.200 F 
ENDBRANCH  42  56
BRANCH  43  67
ATOM     67  C   UNL A   1      39.989  31.759  35.503  1.00  0.00     0.064 A 
ATOM     68  C   UNL A   1      40.702  32.895  35.909  1.00  0.00     0.173 A 
ATOM     69  C   UNL A   1      38.852  31.405  36.245  1.00  0.00     0.173 A 
ATOM     70  F   UNL A   1      41.809  33.262  35.246  1.00  0.00    -0.203 F 
ATOM     71  C   UNL A   1      40.308  33.633  37.022  1.00  0.00     0.198 A 
ATOM     72  C   UNL A   1      38.440  32.162  37.339  1.00  0.00     0.198 A 
ATOM     73  F   UNL A   1      38.133  30.326  35.900  1.00  0.00    -0.203 F 
ATOM     74  F   UNL A   1      41.037  34.686  37.418  1.00  0.00    -0.200 F 
ATOM     75  C   UNL A   1      39.173  33.271  37.733  1.00  0.00     0.200 A 
ATOM     76  F   UNL A   1      37.335  31.817  38.014  1.00  0.00    -0.200 F 
ATOM     77  F   UNL A   1      38.793  33.984  38.801  1.00  0.00    -0.200 F 
ENDBRANCH  43  67
BRANCH  55  78
ATOM     78  C   UNL A   1      44.902  26.877  34.593  1.00  0.00     0.064 A 
ATOM     79  C   UNL A   1      44.703  25.695  35.321  1.00  0.00     0.173 A 
ATOM     80  C   UNL A   1      46.168  27.481  34.655  1.00  0.00     0.173 A 
ATOM     81  F   UNL A   1      43.507  25.087  35.307  1.00  0.00    -0.203 F 
ATOM     82  C   UNL A   1      45.730  25.145  36.084  1.00  0.00     0.198 A 
ATOM     83  C   UNL A   1      47.201  26.912  35.391  1.00  0.00     0.198 A 
ATOM     84  F   UNL A   1      46.411  28.610  33.969  1.00  0.00    -0.203 F 
ATOM     85  F   UNL A   1      45.510  24.032  36.796  1.00  0.00    -0.200 F 
ATOM     86  C   UNL A   1      46.981  25.746  36.108  1.00  0.00     0.200 A 
ATOM     87  F   UNL A   1      48.413  27.484  35.397  1.00  0.00    -0.200 F 
ATOM     88  F   UNL A   1      47.975  25.200  36.822  1.00  0.00    -0.200 F 
ENDBRANCH  55  78
ENDBRANCH  29  30
ENDBRANCH  22  24
ENDBRANCH  21  22
ENDBRANCH  20  21
ENDBRANCH   1  20
TORSDOF 17
ENDMDL
MODEL 2
REMARK VINA RESULT:     -10.1      3.312      8.319
REMARK SMILES C=CCS(=O)(=O)N[C@H](CC(N)=O)C(=O)OCCOC(=O)c1ccc(-c2c3nc(c(-c4c(F)c(F)c(F)c(F)c4F)c4ccc([nH]4)c(-c4c(F)c(F)c(F)c(F)c4F)c4nc(c(-c5c(F)c(F)c(F)c(F)c5F)c5ccc2[nH]5)C=C4)C=C3)cc1
REMARK SMILES IDX 16 1 15 2 13 3 14 4 8 5 7 6 4 8 5 9 6 10 3 11 2 12 1 13 9 14
REMARK SMILES IDX 10 15 11 16 12 17 17 20 18 21 19 22 20 23 21 24 22 25 83 26
REMARK SMILES IDX 23 27 82 28 24 29 25 30 26 31 76 32 27 33 81 34 75 35 77 36
REMARK SMILES IDX 28 37 80 38 74 39 73 40 29 42 61 43 41 44 60 45 42 46 45 47
REMARK SMILES IDX 59 48 78 49 43 50 44 51 58 53 79 54 46 55 30 56 31 57 39 58
REMARK SMILES IDX 32 59 33 60 37 61 40 62 34 63 35 64 38 65 36 66 62 67 63 68
REMARK SMILES IDX 71 69 64 70 65 71 69 72 72 73 66 74 67 75 70 76 68 77 47 78
REMARK SMILES IDX 48 79 56 80 49 81 50 82 54 83 57 84 51 85 52 86 55 87 53 88
REMARK H PARENT 7 7 11 18 11 19 77 41 45 52
REMARK Flexibility Score: inf
ROOT
ATOM      1  C   UNL A   1      33.065  33.836  27.960  1.00  0.00     0.274 C 
ENDROOT
BRANCH   1   2
ATOM      2  O   UNL A   1      32.584  34.341  29.218  1.00  0.00    -0.461 OA
BRANCH   2   3
ATOM      3  C   UNL A   1      33.225  35.438  29.692  1.00  0.00     0.324 C 
ATOM      4  O   UNL A   1      33.351  36.484  29.064  1.00  0.00    -0.250 OA
BRANCH   3   5
ATOM      5  C   UNL A   1      33.819  35.272  31.077  1.00  0.00     0.188 C 
BRANCH   5   6
ATOM      6  N   UNL A   1      34.337  33.905  31.374  1.00  0.00    -0.200 NA
ATOM      7  H   UNL A   1      33.570  33.408  31.825  1.00  0.00     0.142 HD
BRANCH   6   8
ATOM      8  S   UNL A   1      35.688  33.612  32.315  1.00  0.00     0.215 S 
ATOM      9  O   UNL A   1      35.328  32.708  33.387  1.00  0.00    -0.212 OA
ATOM     10  O   UNL A   1      36.189  34.935  32.618  1.00  0.00    -0.212 OA
BRANCH   8  11
ATOM     11  C   UNL A   1      36.937  32.854  31.235  1.00  0.00     0.180 C 
BRANCH  11  12
ATOM     12  C   UNL A   1      37.327  33.702  30.065  1.00  0.00    -0.017 C 
ATOM     13  C   UNL A   1      38.434  34.457  30.001  1.00  0.00     0.005 C 
ENDBRANCH  11  12
ENDBRANCH   8  11
ENDBRANCH   6   8
ENDBRANCH   5   6
BRANCH   5  14
ATOM     14  C   UNL A   1      32.948  35.922  32.161  1.00  0.00     0.131 C 
BRANCH  14  15
ATOM     15  C   UNL A   1      33.521  37.173  32.770  1.00  0.00     0.219 C 
ATOM     16  N   UNL A   1      33.996  38.105  31.902  1.00  0.00    -0.370 N 
ATOM     17  O   UNL A   1      33.557  37.379  33.978  1.00  0.00    -0.275 OA
ATOM     18  H   UNL A   1      33.966  37.936  30.932  1.00  0.00     0.159 HD
ATOM     19  H   UNL A   1      34.372  38.949  32.242  1.00  0.00     0.159 HD
ENDBRANCH  14  15
ENDBRANCH   5  14
ENDBRANCH   3   5
ENDBRANCH   2   3
ENDBRANCH   1   2
BRANCH   1  20
ATOM     20  C   UNL A   1      34.451  33.187  28.032  1.00  0.00     0.275 C 
BRANCH  20  21
ATOM     21  O   UNL A   1      34.499  31.988  28.824  1.00  0.00    -0.458 OA
BRANCH  21  22
ATOM     22  C   UNL A   1      34.547  30.832  28.121  1.00  0.00     0.338 C 
ATOM     23  O   UNL A   1      33.728  30.414  27.317  1.00  0.00    -0.246 OA
BRANCH  22  24
ATOM     24  C   UNL A   1      35.826  30.146  28.363  1.00  0.00     0.060 A 
ATOM     25  C   UNL A   1      36.086  29.628  29.640  1.00  0.00     0.016 A 
ATOM     26  C   UNL A   1      36.803  30.123  27.372  1.00  0.00     0.016 A 
ATOM     27  C   UNL A   1      37.341  29.113  29.946  1.00  0.00     0.010 A 
ATOM     28  C   UNL A   1      38.064  29.617  27.681  1.00  0.00     0.010 A 
ATOM     29  C   UNL A   1      38.347  29.140  28.975  1.00  0.00    -0.014 A 
BRANCH  29  30
ATOM     30  C   UNL A   1      39.746  28.814  29.321  1.00  0.00     0.031 A 
ATOM     31  C   UNL A   1      40.566  29.859  30.017  1.00  0.00     0.074 A 
ATOM     32  C   UNL A   1      40.284  27.638  28.962  1.00  0.00     0.049 A 
ATOM     33  N   UNL A   1      41.859  29.920  30.194  1.00  0.00    -0.248 NA
ATOM     34  C   UNL A   1      39.824  31.002  30.574  1.00  0.00     0.031 C 
ATOM     35  C   UNL A   1      39.560  26.528  28.351  1.00  0.00     0.029 A 
ATOM     36  N   UNL A   1      41.583  27.203  29.029  1.00  0.00    -0.354 N 
ATOM     37  C   UNL A   1      42.090  31.122  30.850  1.00  0.00     0.074 A 
ATOM     38  C   UNL A   1      40.807  31.765  31.030  1.00  0.00     0.031 C 
ATOM     39  C   UNL A   1      40.431  25.547  28.062  1.00  0.00     0.029 A 
ATOM     40  C   UNL A   1      41.779  25.991  28.413  1.00  0.00     0.049 A 
ATOM     41  H   UNL A   1      42.302  27.706  29.474  1.00  0.00     0.167 HD
ATOM     42  C   UNL A   1      43.273  31.638  31.256  1.00  0.00     0.037 A 
ATOM     43  C   UNL A   1      42.924  25.347  28.117  1.00  0.00     0.037 A 
ATOM     44  C   UNL A   1      44.537  30.979  31.066  1.00  0.00     0.049 A 
ATOM     45  C   UNL A   1      44.238  25.984  28.497  1.00  0.00     0.074 A 
ATOM     46  C   UNL A   1      45.798  31.402  31.444  1.00  0.00     0.029 A 
ATOM     47  N   UNL A   1      44.698  29.752  30.435  1.00  0.00    -0.354 N 
ATOM     48  N   UNL A   1      44.462  27.122  29.109  1.00  0.00    -0.248 NA
ATOM     49  C   UNL A   1      45.460  25.249  28.138  1.00  0.00     0.031 C 
ATOM     50  C   UNL A   1      46.726  30.462  30.989  1.00  0.00     0.029 A 
ATOM     51  C   UNL A   1      46.039  29.417  30.391  1.00  0.00     0.049 A 
ATOM     52  H   UNL A   1      43.965  29.203  30.073  1.00  0.00     0.167 HD
ATOM     53  C   UNL A   1      45.840  27.220  29.246  1.00  0.00     0.074 A 
ATOM     54  C   UNL A   1      46.404  26.027  28.651  1.00  0.00     0.031 C 
ATOM     55  C   UNL A   1      46.574  28.206  29.819  1.00  0.00     0.037 A 
BRANCH  42  56
ATOM     56  C   UNL A   1      43.260  32.994  31.899  1.00  0.00     0.064 A 
ATOM     57  C   UNL A   1      43.320  34.176  31.147  1.00  0.00     0.173 A 
ATOM     58  C   UNL A   1      43.159  33.112  33.296  1.00  0.00     0.173 A 
ATOM     59  F   UNL A   1      43.433  34.121  29.811  1.00  0.00    -0.203 F 
ATOM     60  C   UNL A   1      43.305  35.422  31.767  1.00  0.00     0.198 A 
ATOM     61  C   UNL A   1      43.111  34.361  33.909  1.00  0.00     0.198 A 
ATOM     62  F   UNL A   1      43.097  32.015  34.064  1.00  0.00    -0.203 F 
ATOM     63  F   UNL A   1      43.417  36.537  31.030  1.00  0.00    -0.200 F 
ATOM     64  C   UNL A   1      43.194  35.514  33.146  1.00  0.00     0.200 A 
ATOM     65  F   UNL A   1      42.988  34.445  35.241  1.00  0.00    -0.200 F 
ATOM     66  F   UNL A   1      43.173  36.715  33.741  1.00  0.00    -0.200 F 
ENDBRANCH  42  56
BRANCH  43  67
ATOM     67  C   UNL A   1      42.883  24.047  27.398  1.00  0.00     0.064 A 
ATOM     68  C   UNL A   1      43.193  23.971  26.033  1.00  0.00     0.173 A 
ATOM     69  C   UNL A   1      42.524  22.858  28.050  1.00  0.00     0.173 A 
ATOM     70  F   UNL A   1      43.520  25.084  25.359  1.00  0.00    -0.203 F 
ATOM     71  C   UNL A   1      43.126  22.762  25.345  1.00  0.00     0.198 A 
ATOM     72  C   UNL A   1      42.489  21.643  27.369  1.00  0.00     0.198 A 
ATOM     73  F   UNL A   1      42.217  22.873  29.356  1.00  0.00    -0.203 F 
ATOM     74  F   UNL A   1      43.379  22.728  24.029  1.00  0.00    -0.200 F 
ATOM     75  C   UNL A   1      42.780  21.597  26.014  1.00  0.00     0.200 A 
ATOM     76  F   UNL A   1      42.168  20.519  28.022  1.00  0.00    -0.200 F 
ATOM     77  F   UNL A   1      42.720  20.435  25.352  1.00  0.00    -0.200 F 
ENDBRANCH  43  67
BRANCH  55  78
ATOM     78  C   UNL A   1      48.060  28.012  29.904  1.00  0.00     0.064 A 
ATOM     79  C   UNL A   1      48.657  27.310  30.960  1.00  0.00     0.173 A 
ATOM     80  C   UNL A   1      48.885  28.459  28.860  1.00  0.00     0.173 A 
ATOM     81  F   UNL A   1      47.914  26.876  31.989  1.00  0.00    -0.203 F 
ATOM     82  C   UNL A   1      50.029  27.071  30.972  1.00  0.00     0.198 A 
ATOM     83  C   UNL A   1      50.249  28.190  28.858  1.00  0.00     0.198 A 
ATOM     84  F   UNL A   1      48.359  29.129  27.823  1.00  0.00    -0.203 F 
ATOM     85  F   UNL A   1      50.585  26.425  32.005  1.00  0.00    -0.200 F 
ATOM     86  C   UNL A   1      50.822  27.498  29.915  1.00  0.00     0.200 A 
ATOM     87  F   UNL A   1      51.008  28.587  27.828  1.00  0.00    -0.200 F 
ATOM     88  F   UNL A   1      52.137  27.244  29.916  1.00  0.00    -0.200 F 
ENDBRANCH  55  78
ENDBRANCH  29  30
ENDBRANCH  22  24
ENDBRANCH  21  22
ENDBRANCH  20  21
ENDBRANCH   1  20
TORSDOF 17
ENDMDL
MODEL 3
REMARK VINA RESULT:      -9.9      3.435      5.693
REMARK SMILES C=CCS(=O)(=O)N[C@H](CC(N)=O)C(=O)OCCOC(=O)c1ccc(-c2c3nc(c(-c4c(F)c(F)c(F)c(F)c4F)c4ccc([nH]4)c(-c4c(F)c(F)c(F)c(F)c4F)c4nc(c(-c5c(F)c(F)c(F)c(F)c5F)c5ccc2[nH]5)C=C4)C=C3)cc1
REMARK SMILES IDX 16 1 15 2 13 3 14 4 8 5 7 6 4 8 5 9 6 10 3 11 2 12 1 13 9 14
REMARK SMILES IDX 10 15 11 16 12 17 17 20 18 21 19 22 20 23 21 24 22 25 83 26
REMARK SMILES IDX 23 27 82 28 24 29 25 30 26 31 76 32 27 33 81 34 75 35 77 36
REMARK SMILES IDX 28 37 80 38 74 39 73 40 29 42 61 43 41 44 60 45 42 46 45 47
REMARK SMILES IDX 59 48 78 49 43 50 44 51 58 53 79 54 46 55 30 56 31 57 39 58
REMARK SMILES IDX 32 59 33 60 37 61 40 62 34 63 35 64 38 65 36 66 62 67 63 68
REMARK SMILES IDX 71 69 64 70 65 71 69 72 72 73 66 74 67 75 70 76 68 77 47 78
REMARK SMILES IDX 48 79 56 80 49 81 50 82 54 83 57 84 51 85 52 86 55 87 53 88
REMARK H PARENT 7 7 11 18 11 19 77 41 45 52
REMARK Flexibility Score: inf
ROOT
ATOM      1  C   UNL A   1      31.763  28.482  27.294  1.00  0.00     0.274 C 
ENDROOT
BRANCH   1   2
ATOM      2  O   UNL A   1      32.409  27.614  26.347  1.00  0.00    -0.461 OA
BRANCH   2   3
ATOM      3  C   UNL A   1      31.601  27.081  25.397  1.00  0.00     0.324 C 
ATOM      4  O   UNL A   1      31.179  25.929  25.422  1.00  0.00    -0.250 OA
BRANCH   3   5
ATOM      5  C   UNL A   1      31.268  28.018  24.253  1.00  0.00     0.188 C 
BRANCH   5   6
ATOM      6  N   UNL A   1      29.909  27.831  23.668  1.00  0.00    -0.200 NA
ATOM      7  H   UNL A   1      29.990  27.050  23.018  1.00  0.00     0.142 HD
BRANCH   6   8
ATOM      8  S   UNL A   1      29.084  29.029  22.843  1.00  0.00     0.215 S 
ATOM      9  O   UNL A   1      27.666  28.742  22.888  1.00  0.00    -0.212 OA
ATOM     10  O   UNL A   1      29.769  29.105  21.571  1.00  0.00    -0.212 OA
BRANCH   8  11
ATOM     11  C   UNL A   1      29.443  30.600  23.683  1.00  0.00     0.180 C 
BRANCH  11  12
ATOM     12  C   UNL A   1      28.431  31.673  23.428  1.00  0.00    -0.017 C 
ATOM     13  C   UNL A   1      28.702  32.868  22.881  1.00  0.00     0.005 C 
ENDBRANCH  11  12
ENDBRANCH   8  11
ENDBRANCH   6   8
ENDBRANCH   5   6
BRANCH   5  14
ATOM     14  C   UNL A   1      32.428  28.147  23.256  1.00  0.00     0.131 C 
BRANCH  14  15
ATOM     15  C   UNL A   1      32.659  26.938  22.390  1.00  0.00     0.219 C 
ATOM     16  N   UNL A   1      31.724  26.693  21.433  1.00  0.00    -0.370 N 
ATOM     17  O   UNL A   1      33.634  26.203  22.504  1.00  0.00    -0.275 OA
ATOM     18  H   UNL A   1      30.942  27.285  21.345  1.00  0.00     0.159 HD
ATOM     19  H   UNL A   1      31.829  25.923  20.828  1.00  0.00     0.159 HD
ENDBRANCH  14  15
ENDBRANCH   5  14
ENDBRANCH   3   5
ENDBRANCH   2   3
ENDBRANCH   1   2
BRANCH   1  20
ATOM     20  C   UNL A   1      31.799  29.966  26.914  1.00  0.00     0.275 C 
BRANCH  20  21
ATOM     21  O   UNL A   1      33.103  30.447  26.545  1.00  0.00    -0.458 OA
BRANCH  21  22
ATOM     22  C   UNL A   1      33.587  31.451  27.315  1.00  0.00     0.338 C 
ATOM     23  O   UNL A   1      32.992  32.443  27.708  1.00  0.00    -0.246 OA
BRANCH  22  24
ATOM     24  C   UNL A   1      34.960  31.141  27.744  1.00  0.00     0.060 A 
ATOM     25  C   UNL A   1      35.299  29.810  28.025  1.00  0.00     0.016 A 
ATOM     26  C   UNL A   1      35.866  32.172  27.981  1.00  0.00     0.016 A 
ATOM     27  C   UNL A   1      36.536  29.502  28.579  1.00  0.00     0.010 A 
ATOM     28  C   UNL A   1      37.102  31.866  28.546  1.00  0.00     0.010 A 
ATOM     29  C   UNL A   1      37.429  30.536  28.876  1.00  0.00    -0.014 A 
BRANCH  29  30
ATOM     30  C   UNL A   1      38.652  30.282  29.664  1.00  0.00     0.031 A 
ATOM     31  C   UNL A   1      39.661  29.317  29.116  1.00  0.00     0.074 A 
ATOM     32  C   UNL A   1      38.822  30.849  30.868  1.00  0.00     0.049 A 
ATOM     33  N   UNL A   1      40.668  28.737  29.713  1.00  0.00    -0.248 NA
ATOM     34  C   UNL A   1      39.499  28.944  27.701  1.00  0.00     0.031 C 
ATOM     35  C   UNL A   1      37.944  31.854  31.461  1.00  0.00     0.029 A 
ATOM     36  N   UNL A   1      39.779  30.626  31.825  1.00  0.00    -0.354 N 
ATOM     37  C   UNL A   1      41.238  27.904  28.760  1.00  0.00     0.074 A 
ATOM     38  C   UNL A   1      40.459  28.044  27.549  1.00  0.00     0.031 C 
ATOM     39  C   UNL A   1      38.380  32.135  32.701  1.00  0.00     0.029 A 
ATOM     40  C   UNL A   1      39.530  31.285  33.004  1.00  0.00     0.049 A 
ATOM     41  H   UNL A   1      40.567  30.053  31.682  1.00  0.00     0.167 HD
ATOM     42  C   UNL A   1      42.312  27.091  28.895  1.00  0.00     0.037 A 
ATOM     43  C   UNL A   1      40.130  31.167  34.203  1.00  0.00     0.037 A 
ATOM     44  C   UNL A   1      43.070  26.970  30.111  1.00  0.00     0.049 A 
ATOM     45  C   UNL A   1      41.266  30.188  34.357  1.00  0.00     0.074 A 
ATOM     46  C   UNL A   1      44.182  26.187  30.361  1.00  0.00     0.029 A 
ATOM     47  N   UNL A   1      42.787  27.652  31.286  1.00  0.00    -0.354 N 
ATOM     48  N   UNL A   1      41.803  29.393  33.463  1.00  0.00    -0.248 NA
ATOM     49  C   UNL A   1      41.878  30.085  35.691  1.00  0.00     0.031 C 
ATOM     50  C   UNL A   1      44.534  26.348  31.704  1.00  0.00     0.029 A 
ATOM     51  C   UNL A   1      43.687  27.288  32.272  1.00  0.00     0.049 A 
ATOM     52  H   UNL A   1      42.054  28.300  31.402  1.00  0.00     0.167 HD
ATOM     53  C   UNL A   1      42.837  28.728  34.110  1.00  0.00     0.074 A 
ATOM     54  C   UNL A   1      42.852  29.211  35.475  1.00  0.00     0.031 C 
ATOM     55  C   UNL A   1      43.700  27.806  33.617  1.00  0.00     0.037 A 
BRANCH  42  56
ATOM     56  C   UNL A   1      42.698  26.242  27.720  1.00  0.00     0.064 A 
ATOM     57  C   UNL A   1      43.677  26.644  26.801  1.00  0.00     0.173 A 
ATOM     58  C   UNL A   1      42.094  24.988  27.526  1.00  0.00     0.173 A 
ATOM     59  F   UNL A   1      44.275  27.838  26.930  1.00  0.00    -0.203 F 
ATOM     60  C   UNL A   1      44.020  25.838  25.718  1.00  0.00     0.198 A 
ATOM     61  C   UNL A   1      42.463  24.170  26.461  1.00  0.00     0.198 A 
ATOM     62  F   UNL A   1      41.153  24.552  28.375  1.00  0.00    -0.203 F 
ATOM     63  F   UNL A   1      44.920  26.267  24.823  1.00  0.00    -0.200 F 
ATOM     64  C   UNL A   1      43.418  24.599  25.553  1.00  0.00     0.200 A 
ATOM     65  F   UNL A   1      41.889  22.968  26.314  1.00  0.00    -0.200 F 
ATOM     66  F   UNL A   1      43.753  23.821  24.515  1.00  0.00    -0.200 F 
ENDBRANCH  42  56
BRANCH  43  67
ATOM     67  C   UNL A   1      39.648  31.969  35.359  1.00  0.00     0.064 A 
ATOM     68  C   UNL A   1      38.687  31.455  36.239  1.00  0.00     0.173 A 
ATOM     69  C   UNL A   1      40.126  33.265  35.603  1.00  0.00     0.173 A 
ATOM     70  F   UNL A   1      38.182  30.229  36.036  1.00  0.00    -0.203 F 
ATOM     71  C   UNL A   1      38.208  32.212  37.306  1.00  0.00     0.198 A 
ATOM     72  C   UNL A   1      39.670  34.010  36.689  1.00  0.00     0.198 A 
ATOM     73  F   UNL A   1      41.047  33.807  34.792  1.00  0.00    -0.203 F 
ATOM     74  F   UNL A   1      37.251  31.714  38.102  1.00  0.00    -0.200 F 
ATOM     75  C   UNL A   1      38.704  33.487  37.534  1.00  0.00     0.200 A 
ATOM     76  F   UNL A   1      40.163  35.235  36.913  1.00  0.00    -0.200 F 
ATOM     77  F   UNL A   1      38.245  34.212  38.561  1.00  0.00    -0.200 F 
ENDBRANCH  43  67
BRANCH  55  78
ATOM     78  C   UNL A   1      44.785  27.308  34.527  1.00  0.00     0.064 A 
ATOM     79  C   UNL A   1      45.999  27.994  34.680  1.00  0.00     0.173 A 
ATOM     80  C   UNL A   1      44.564  26.177  35.328  1.00  0.00     0.173 A 
ATOM     81  F   UNL A   1      46.265  29.072  33.928  1.00  0.00    -0.203 F 
ATOM     82  C   UNL A   1      46.954  27.557  35.594  1.00  0.00     0.198 A 
ATOM     83  C   UNL A   1      45.506  25.763  36.263  1.00  0.00     0.198 A 
ATOM     84  F   UNL A   1      43.414  25.491  35.224  1.00  0.00    -0.203 F 
ATOM     85  F   UNL A   1      48.120  28.208  35.702  1.00  0.00    -0.200 F 
ATOM     86  C   UNL A   1      46.702  26.452  36.394  1.00  0.00     0.200 A 
ATOM     87  F   UNL A   1      45.251  24.706  37.047  1.00  0.00    -0.200 F 
ATOM     88  F   UNL A   1      47.613  26.049  37.291  1.00  0.00    -0.200 F 
ENDBRANCH  55  78
ENDBRANCH  29  30
ENDBRANCH  22  24
ENDBRANCH  21  22
ENDBRANCH  20  21
ENDBRANCH   1  20
TORSDOF 17
ENDMDL
