MODEL 1
REMARK VINA RESULT:     -11.0      0.000      0.000
REMARK SMILES CC/C(C)=N/[NH+]=C1/NC(=O)[C@H](CC(=O)OCCOC(=O)c2ccc(-c3c4nc(c(-c5c(F)c(F)c(F)c(F)c5F)c5ccc([nH]5)c(-c5c(F)c(F)c(F)c(F)c5F)c5nc(c(-c6c(F)c(F)c(F)c(F)c6F)c6ccc3[nH]6)C=C5)C=C4)cc2)S1
REMARK SMILES IDX 16 1 15 2 13 3 14 4 12 5 11 6 6 7 7 8 8 10 84 11 9 12 10 14
REMARK SMILES IDX 5 15 3 16 4 17 2 18 1 19 17 20 18 21 19 22 20 23 21 24 22 25
REMARK SMILES IDX 83 26 23 27 82 28 24 29 25 30 26 31 76 32 27 33 81 34 75 35
REMARK SMILES IDX 77 36 28 37 80 38 74 39 73 40 29 42 61 43 41 44 60 45 42 46
REMARK SMILES IDX 45 47 59 48 78 49 43 50 44 51 58 53 79 54 46 55 30 56 31 57
REMARK SMILES IDX 39 58 32 59 33 60 37 61 40 62 34 63 35 64 38 65 36 66 62 67
REMARK SMILES IDX 63 68 71 69 64 70 65 71 69 72 72 73 66 74 67 75 70 76 68 77
REMARK SMILES IDX 47 78 48 79 56 80 49 81 50 82 54 83 57 84 51 85 52 86 55 87
REMARK SMILES IDX 53 88
REMARK H PARENT 6 9 8 13 77 41 45 52
REMARK Flexibility Score: inf
ROOT
ATOM      1  C   UNL A   1      33.427  34.009  28.179  1.00  0.00     0.274 C 
ENDROOT
BRANCH   1   2
ATOM      2  O   UNL A   1      33.993  35.310  28.417  1.00  0.00    -0.462 OA
BRANCH   2   3
ATOM      3  C   UNL A   1      33.260  36.204  29.119  1.00  0.00     0.307 C 
ATOM      4  O   UNL A   1      32.945  37.321  28.728  1.00  0.00    -0.252 OA
BRANCH   3   5
ATOM      5  C   UNL A   1      32.898  35.671  30.482  1.00  0.00     0.150 C 
BRANCH   5   6
ATOM      6  C   UNL A   1      34.008  35.895  31.490  1.00  0.00     0.184 C 
ATOM      7  N   UNL A   1      35.284  34.244  34.742  1.00  0.00    -0.142 N 
ATOM      8  C   UNL A   1      34.731  34.802  33.721  1.00  0.00     0.337 C 
ATOM      9  H   UNL A   1      35.274  34.662  35.633  1.00  0.00     0.343 HD
ATOM     10  N   UNL A   1      34.070  35.969  33.876  1.00  0.00    -0.202 N 
ATOM     11  S   UNL A   1      34.700  34.292  32.061  1.00  0.00    -0.020 SA
ATOM     12  C   UNL A   1      33.548  36.573  32.773  1.00  0.00     0.322 C 
ATOM     13  H   UNL A   1      33.968  36.375  34.767  1.00  0.00     0.316 HD
ATOM     14  O   UNL A   1      32.824  37.556  32.856  1.00  0.00    -0.246 OA
BRANCH   7  15
ATOM     15  N   UNL A   1      35.898  33.017  34.512  1.00  0.00    -0.095 NA
ATOM     16  C   UNL A   1      37.159  32.966  34.832  1.00  0.00     0.058 C 
ATOM     17  C   UNL A   1      37.970  34.155  35.294  1.00  0.00     0.066 C 
BRANCH  16  18
ATOM     18  C   UNL A   1      37.857  31.629  34.730  1.00  0.00     0.052 C 
ATOM     19  C   UNL A   1      38.242  31.154  36.120  1.00  0.00     0.010 C 
ENDBRANCH  16  18
ENDBRANCH   7  15
ENDBRANCH   5   6
ENDBRANCH   3   5
ENDBRANCH   2   3
ENDBRANCH   1   2
BRANCH   1  20
ATOM     20  C   UNL A   1      34.506  32.930  28.072  1.00  0.00     0.275 C 
BRANCH  20  21
ATOM     21  O   UNL A   1      33.997  31.642  28.467  1.00  0.00    -0.458 OA
BRANCH  21  22
ATOM     22  C   UNL A   1      34.389  30.601  27.697  1.00  0.00     0.338 C 
ATOM     23  O   UNL A   1      33.830  30.158  26.709  1.00  0.00    -0.246 OA
BRANCH  22  24
ATOM     24  C   UNL A   1      35.708  30.127  28.146  1.00  0.00     0.060 A 
ATOM     25  C   UNL A   1      35.843  29.706  29.473  1.00  0.00     0.016 A 
ATOM     26  C   UNL A   1      36.812  30.145  27.291  1.00  0.00     0.016 A 
ATOM     27  C   UNL A   1      37.085  29.299  29.953  1.00  0.00     0.010 A 
ATOM     28  C   UNL A   1      38.058  29.734  27.773  1.00  0.00     0.010 A 
ATOM     29  C   UNL A   1      38.203  29.315  29.108  1.00  0.00    -0.014 A 
BRANCH  29  30
ATOM     30  C   UNL A   1      39.530  28.909  29.626  1.00  0.00     0.031 A 
ATOM     31  C   UNL A   1      40.217  29.746  30.664  1.00  0.00     0.074 A 
ATOM     32  C   UNL A   1      40.114  27.790  29.162  1.00  0.00     0.049 A 
ATOM     33  N   UNL A   1      41.406  29.600  31.194  1.00  0.00    -0.248 NA
ATOM     34  C   UNL A   1      39.468  30.904  31.175  1.00  0.00     0.031 C 
ATOM     35  C   UNL A   1      39.529  26.883  28.176  1.00  0.00     0.029 A 
ATOM     36  N   UNL A   1      41.333  27.232  29.452  1.00  0.00    -0.354 N 
ATOM     37  C   UNL A   1      41.552  30.649  32.090  1.00  0.00     0.074 A 
ATOM     38  C   UNL A   1      40.340  31.439  32.017  1.00  0.00     0.031 C 
ATOM     39  C   UNL A   1      40.390  25.880  27.941  1.00  0.00     0.029 A 
ATOM     40  C   UNL A   1      41.602  26.098  28.727  1.00  0.00     0.049 A 
ATOM     41  H   UNL A   1      41.954  27.608  30.117  1.00  0.00     0.167 HD
ATOM     42  C   UNL A   1      42.602  30.922  32.902  1.00  0.00     0.037 A 
ATOM     43  C   UNL A   1      42.713  25.339  28.682  1.00  0.00     0.037 A 
ATOM     44  C   UNL A   1      43.802  30.131  32.973  1.00  0.00     0.049 A 
ATOM     45  C   UNL A   1      43.890  25.703  29.544  1.00  0.00     0.074 A 
ATOM     46  C   UNL A   1      44.910  30.312  33.782  1.00  0.00     0.029 A 
ATOM     47  N   UNL A   1      44.055  29.009  32.196  1.00  0.00    -0.354 N 
ATOM     48  N   UNL A   1      44.015  26.687  30.402  1.00  0.00    -0.248 NA
ATOM     49  C   UNL A   1      45.085  24.855  29.427  1.00  0.00     0.031 C 
ATOM     50  C   UNL A   1      45.852  29.329  33.463  1.00  0.00     0.029 A 
ATOM     51  C   UNL A   1      45.313  28.504  32.488  1.00  0.00     0.049 A 
ATOM     52  H   UNL A   1      43.433  28.628  31.536  1.00  0.00     0.167 HD
ATOM     53  C   UNL A   1      45.288  26.565  30.941  1.00  0.00     0.074 A 
ATOM     54  C   UNL A   1      45.894  25.403  30.323  1.00  0.00     0.031 C 
ATOM     55  C   UNL A   1      45.901  27.347  31.864  1.00  0.00     0.037 A 
BRANCH  42  56
ATOM     56  C   UNL A   1      42.508  32.147  33.763  1.00  0.00     0.064 A 
ATOM     57  C   UNL A   1      41.965  32.100  35.055  1.00  0.00     0.173 A 
ATOM     58  C   UNL A   1      42.996  33.378  33.300  1.00  0.00     0.173 A 
ATOM     59  F   UNL A   1      41.472  30.950  35.540  1.00  0.00    -0.203 F 
ATOM     60  C   UNL A   1      41.893  33.247  35.844  1.00  0.00     0.198 A 
ATOM     61  C   UNL A   1      42.947  34.517  34.100  1.00  0.00     0.198 A 
ATOM     62  F   UNL A   1      43.529  33.476  32.073  1.00  0.00    -0.203 F 
ATOM     63  F   UNL A   1      41.330  33.188  37.058  1.00  0.00    -0.200 F 
ATOM     64  C   UNL A   1      42.389  34.451  35.367  1.00  0.00     0.200 A 
ATOM     65  F   UNL A   1      43.435  35.677  33.643  1.00  0.00    -0.200 F 
ATOM     66  F   UNL A   1      42.321  35.552  36.128  1.00  0.00    -0.200 F 
ENDBRANCH  42  56
BRANCH  43  67
ATOM     67  C   UNL A   1      42.766  24.164  27.775  1.00  0.00     0.064 A 
ATOM     68  C   UNL A   1      43.156  24.303  26.436  1.00  0.00     0.173 A 
ATOM     69  C   UNL A   1      42.431  22.879  28.229  1.00  0.00     0.173 A 
ATOM     70  F   UNL A   1      43.460  25.516  25.951  1.00  0.00    -0.203 F 
ATOM     71  C   UNL A   1      43.198  23.204  25.582  1.00  0.00     0.198 A 
ATOM     72  C   UNL A   1      42.499  21.777  27.381  1.00  0.00     0.198 A 
ATOM     73  F   UNL A   1      42.049  22.695  29.500  1.00  0.00    -0.203 F 
ATOM     74  F   UNL A   1      43.537  23.369  24.297  1.00  0.00    -0.200 F 
ATOM     75  C   UNL A   1      42.878  21.940  26.057  1.00  0.00     0.200 A 
ATOM     76  F   UNL A   1      42.198  20.557  27.846  1.00  0.00    -0.200 F 
ATOM     77  F   UNL A   1      42.925  20.882  25.236  1.00  0.00    -0.200 F 
ENDBRANCH  43  67
BRANCH  55  78
ATOM     78  C   UNL A   1      47.289  26.958  32.278  1.00  0.00     0.064 A 
ATOM     79  C   UNL A   1      47.516  26.007  33.283  1.00  0.00     0.173 A 
ATOM     80  C   UNL A   1      48.406  27.514  31.635  1.00  0.00     0.173 A 
ATOM     81  F   UNL A   1      46.482  25.459  33.940  1.00  0.00    -0.203 F 
ATOM     82  C   UNL A   1      48.810  25.643  33.645  1.00  0.00     0.198 A 
ATOM     83  C   UNL A   1      49.698  27.127  31.980  1.00  0.00     0.198 A 
ATOM     84  F   UNL A   1      48.243  28.424  30.663  1.00  0.00    -0.203 F 
ATOM     85  F   UNL A   1      49.005  24.763  34.638  1.00  0.00    -0.200 F 
ATOM     86  C   UNL A   1      49.899  26.196  32.988  1.00  0.00     0.200 A 
ATOM     87  F   UNL A   1      50.748  27.655  31.336  1.00  0.00    -0.200 F 
ATOM     88  F   UNL A   1      51.144  25.839  33.332  1.00  0.00    -0.200 F 
ENDBRANCH  55  78
ENDBRANCH  29  30
ENDBRANCH  22  24
ENDBRANCH  21  22
ENDBRANCH  20  21
ENDBRANCH   1  20
TORSDOF 14
ENDMDL
MODEL 2
REMARK VINA RESULT:     -10.8      1.033      2.008
REMARK SMILES CC/C(C)=N/[NH+]=C1/NC(=O)[C@H](CC(=O)OCCOC(=O)c2ccc(-c3c4nc(c(-c5c(F)c(F)c(F)c(F)c5F)c5ccc([nH]5)c(-c5c(F)c(F)c(F)c(F)c5F)c5nc(c(-c6c(F)c(F)c(F)c(F)c6F)c6ccc3[nH]6)C=C5)C=C4)cc2)S1
REMARK SMILES IDX 16 1 15 2 13 3 14 4 12 5 11 6 6 7 7 8 8 10 84 11 9 12 10 14
REMARK SMILES IDX 5 15 3 16 4 17 2 18 1 19 17 20 18 21 19 22 20 23 21 24 22 25
REMARK SMILES IDX 83 26 23 27 82 28 24 29 25 30 26 31 76 32 27 33 81 34 75 35
REMARK SMILES IDX 77 36 28 37 80 38 74 39 73 40 29 42 61 43 41 44 60 45 42 46
REMARK SMILES IDX 45 47 59 48 78 49 43 50 44 51 58 53 79 54 46 55 30 56 31 57
REMARK SMILES IDX 39 58 32 59 33 60 37 61 40 62 34 63 35 64 38 65 36 66 62 67
REMARK SMILES IDX 63 68 71 69 64 70 65 71 69 72 72 73 66 74 67 75 70 76 68 77
REMARK SMILES IDX 47 78 48 79 56 80 49 81 50 82 54 83 57 84 51 85 52 86 55 87
REMARK SMILES IDX 53 88
REMARK H PARENT 6 9 8 13 77 41 45 52
REMARK Flexibility Score: inf
ROOT
ATOM      1  C   UNL A   1      34.016  34.039  28.332  1.00  0.00     0.274 C 
ENDROOT
BRANCH   1   2
ATOM      2  O   UNL A   1      32.838  34.858  28.424  1.00  0.00    -0.462 OA
BRANCH   2   3
ATOM      3  C   UNL A   1      32.903  35.984  29.169  1.00  0.00     0.307 C 
ATOM      4  O   UNL A   1      33.217  37.091  28.751  1.00  0.00    -0.252 OA
BRANCH   3   5
ATOM      5  C   UNL A   1      32.571  35.709  30.614  1.00  0.00     0.150 C 
BRANCH   5   6
ATOM      6  C   UNL A   1      33.769  35.916  31.520  1.00  0.00     0.184 C 
ATOM      7  N   UNL A   1      35.215  34.349  34.742  1.00  0.00    -0.142 N 
ATOM      8  C   UNL A   1      34.611  34.890  33.740  1.00  0.00     0.337 C 
ATOM      9  H   UNL A   1      35.300  34.809  35.609  1.00  0.00     0.343 HD
ATOM     10  N   UNL A   1      34.030  36.099  33.886  1.00  0.00    -0.202 N 
ATOM     11  S   UNL A   1      34.418  34.304  32.116  1.00  0.00    -0.020 SA
ATOM     12  C   UNL A   1      33.453  36.680  32.798  1.00  0.00     0.322 C 
ATOM     13  H   UNL A   1      34.023  36.552  34.760  1.00  0.00     0.316 HD
ATOM     14  O   UNL A   1      32.792  37.705  32.886  1.00  0.00    -0.246 OA
BRANCH   7  15
ATOM     15  N   UNL A   1      35.741  33.080  34.529  1.00  0.00    -0.095 NA
ATOM     16  C   UNL A   1      37.041  33.014  34.546  1.00  0.00     0.058 C 
ATOM     17  C   UNL A   1      37.954  34.214  34.651  1.00  0.00     0.066 C 
BRANCH  16  18
ATOM     18  C   UNL A   1      37.678  31.647  34.449  1.00  0.00     0.052 C 
ATOM     19  C   UNL A   1      37.360  31.037  33.096  1.00  0.00     0.010 C 
ENDBRANCH  16  18
ENDBRANCH   7  15
ENDBRANCH   5   6
ENDBRANCH   3   5
ENDBRANCH   2   3
ENDBRANCH   1   2
BRANCH   1  20
ATOM     20  C   UNL A   1      33.691  32.627  27.841  1.00  0.00     0.275 C 
BRANCH  20  21
ATOM     21  O   UNL A   1      34.400  31.633  28.605  1.00  0.00    -0.458 OA
BRANCH  21  22
ATOM     22  C   UNL A   1      34.629  30.463  27.966  1.00  0.00     0.338 C 
ATOM     23  O   UNL A   1      33.895  29.893  27.177  1.00  0.00    -0.246 OA
BRANCH  22  24
ATOM     24  C   UNL A   1      35.998  30.005  28.254  1.00  0.00     0.060 A 
ATOM     25  C   UNL A   1      36.275  29.515  29.535  1.00  0.00     0.016 A 
ATOM     26  C   UNL A   1      37.010  30.102  27.297  1.00  0.00     0.016 A 
ATOM     27  C   UNL A   1      37.568  29.119  29.865  1.00  0.00     0.010 A 
ATOM     28  C   UNL A   1      38.307  29.703  27.629  1.00  0.00     0.010 A 
ATOM     29  C   UNL A   1      38.595  29.215  28.917  1.00  0.00    -0.014 A 
BRANCH  29  30
ATOM     30  C   UNL A   1      39.977  28.821  29.278  1.00  0.00     0.031 A 
ATOM     31  C   UNL A   1      40.825  29.738  30.108  1.00  0.00     0.074 A 
ATOM     32  C   UNL A   1      40.465  27.641  28.857  1.00  0.00     0.049 A 
ATOM     33  N   UNL A   1      42.077  29.608  30.471  1.00  0.00    -0.248 NA
ATOM     34  C   UNL A   1      40.181  30.968  30.594  1.00  0.00     0.031 C 
ATOM     35  C   UNL A   1      39.724  26.655  28.071  1.00  0.00     0.029 A 
ATOM     36  N   UNL A   1      41.703  27.075  29.026  1.00  0.00    -0.354 N 
ATOM     37  C   UNL A   1      42.373  30.740  31.218  1.00  0.00     0.074 A 
ATOM     38  C   UNL A   1      41.179  31.558  31.236  1.00  0.00     0.031 C 
ATOM     39  C   UNL A   1      40.523  25.605  27.824  1.00  0.00     0.029 A 
ATOM     40  C   UNL A   1      41.842  25.863  28.396  1.00  0.00     0.049 A 
ATOM     41  H   UNL A   1      42.423  27.498  29.549  1.00  0.00     0.167 HD
ATOM     42  C   UNL A   1      43.536  31.061  31.834  1.00  0.00     0.037 A 
ATOM     43  C   UNL A   1      42.920  25.066  28.274  1.00  0.00     0.037 A 
ATOM     44  C   UNL A   1      44.720  30.241  31.814  1.00  0.00     0.049 A 
ATOM     45  C   UNL A   1      44.218  25.478  28.911  1.00  0.00     0.074 A 
ATOM     46  C   UNL A   1      45.938  30.469  32.430  1.00  0.00     0.029 A 
ATOM     47  N   UNL A   1      44.834  29.036  31.136  1.00  0.00    -0.354 N 
ATOM     48  N   UNL A   1      44.486  26.542  29.629  1.00  0.00    -0.248 NA
ATOM     49  C   UNL A   1      45.367  24.583  28.714  1.00  0.00     0.031 C 
ATOM     50  C   UNL A   1      46.805  29.425  32.085  1.00  0.00     0.029 A 
ATOM     51  C   UNL A   1      46.112  28.522  31.295  1.00  0.00     0.049 A 
ATOM     52  H   UNL A   1      44.114  28.609  30.619  1.00  0.00     0.167 HD
ATOM     53  C   UNL A   1      45.823  26.434  29.987  1.00  0.00     0.074 A 
ATOM     54  C   UNL A   1      46.309  25.194  29.417  1.00  0.00     0.031 C 
ATOM     55  C   UNL A   1      46.580  27.287  30.720  1.00  0.00     0.037 A 
BRANCH  42  56
ATOM     56  C   UNL A   1      43.593  32.372  32.562  1.00  0.00     0.064 A 
ATOM     57  C   UNL A   1      43.287  32.471  33.926  1.00  0.00     0.173 A 
ATOM     58  C   UNL A   1      43.990  33.537  31.890  1.00  0.00     0.173 A 
ATOM     59  F   UNL A   1      42.889  31.388  34.611  1.00  0.00    -0.203 F 
ATOM     60  C   UNL A   1      43.353  33.696  34.587  1.00  0.00     0.198 A 
ATOM     61  C   UNL A   1      44.080  34.756  32.559  1.00  0.00     0.198 A 
ATOM     62  F   UNL A   1      44.298  33.496  30.586  1.00  0.00    -0.203 F 
ATOM     63  F   UNL A   1      43.013  33.776  35.881  1.00  0.00    -0.200 F 
ATOM     64  C   UNL A   1      43.755  34.835  33.905  1.00  0.00     0.200 A 
ATOM     65  F   UNL A   1      44.478  35.852  31.902  1.00  0.00    -0.200 F 
ATOM     66  F   UNL A   1      43.820  36.011  34.543  1.00  0.00    -0.200 F 
ENDBRANCH  42  56
BRANCH  43  67
ATOM     67  C   UNL A   1      42.816  23.802  27.501  1.00  0.00     0.064 A 
ATOM     68  C   UNL A   1      42.372  22.619  28.109  1.00  0.00     0.173 A 
ATOM     69  C   UNL A   1      43.156  23.751  26.141  1.00  0.00     0.173 A 
ATOM     70  F   UNL A   1      42.062  22.614  29.414  1.00  0.00    -0.203 F 
ATOM     71  C   UNL A   1      42.283  21.431  27.388  1.00  0.00     0.198 A 
ATOM     72  C   UNL A   1      43.040  22.568  25.415  1.00  0.00     0.198 A 
ATOM     73  F   UNL A   1      43.588  24.854  25.515  1.00  0.00    -0.203 F 
ATOM     74  F   UNL A   1      41.893  20.306  28.001  1.00  0.00    -0.200 F 
ATOM     75  C   UNL A   1      42.609  21.407  26.040  1.00  0.00     0.200 A 
ATOM     76  F   UNL A   1      43.346  22.553  24.110  1.00  0.00    -0.200 F 
ATOM     77  F   UNL A   1      42.516  20.265  25.345  1.00  0.00    -0.200 F 
ENDBRANCH  43  67
BRANCH  55  78
ATOM     78  C   UNL A   1      48.007  26.896  30.968  1.00  0.00     0.064 A 
ATOM     79  C   UNL A   1      49.050  27.373  30.162  1.00  0.00     0.173 A 
ATOM     80  C   UNL A   1      48.340  26.067  32.051  1.00  0.00     0.173 A 
ATOM     81  F   UNL A   1      48.782  28.156  29.104  1.00  0.00    -0.203 F 
ATOM     82  C   UNL A   1      50.372  27.017  30.414  1.00  0.00     0.198 A 
ATOM     83  C   UNL A   1      49.665  25.734  32.318  1.00  0.00     0.198 A 
ATOM     84  F   UNL A   1      47.380  25.588  32.856  1.00  0.00    -0.203 F 
ATOM     85  F   UNL A   1      51.348  27.450  29.605  1.00  0.00    -0.200 F 
ATOM     86  C   UNL A   1      50.678  26.205  31.497  1.00  0.00     0.200 A 
ATOM     87  F   UNL A   1      49.961  24.959  33.370  1.00  0.00    -0.200 F 
ATOM     88  F   UNL A   1      51.952  25.868  31.744  1.00  0.00    -0.200 F 
ENDBRANCH  55  78
ENDBRANCH  29  30
ENDBRANCH  22  24
ENDBRANCH  21  22
ENDBRANCH  20  21
ENDBRANCH   1  20
TORSDOF 14
ENDMDL
MODEL 3
REMARK VINA RESULT:     -10.8      4.621     10.415
REMARK SMILES CC/C(C)=N/[NH+]=C1/NC(=O)[C@H](CC(=O)OCCOC(=O)c2ccc(-c3c4nc(c(-c5c(F)c(F)c(F)c(F)c5F)c5ccc([nH]5)c(-c5c(F)c(F)c(F)c(F)c5F)c5nc(c(-c6c(F)c(F)c(F)c(F)c6F)c6ccc3[nH]6)C=C5)C=C4)cc2)S1
REMARK SMILES IDX 16 1 15 2 13 3 14 4 12 5 11 6 6 7 7 8 8 10 84 11 9 12 10 14
REMARK SMILES IDX 5 15 3 16 4 17 2 18 1 19 17 20 18 21 19 22 20 23 21 24 22 25
REMARK SMILES IDX 83 26 23 27 82 28 24 29 25 30 26 31 76 32 27 33 81 34 75 35
REMARK SMILES IDX 77 36 28 37 80 38 74 39 73 40 29 42 61 43 41 44 60 45 42 46
REMARK SMILES IDX 45 47 59 48 78 49 43 50 44 51 58 53 79 54 46 55 30 56 31 57
REMARK SMILES IDX 39 58 32 59 33 60 37 61 40 62 34 63 35 64 38 65 36 66 62 67
REMARK SMILES IDX 63 68 71 69 64 70 65 71 69 72 72 73 66 74 67 75 70 76 68 77
REMARK SMILES IDX 47 78 48 79 56 80 49 81 50 82 54 83 57 84 51 85 52 86 55 87
REMARK SMILES IDX 53 88
REMARK H PARENT 6 9 8 13 77 41 45 52
REMARK Flexibility Score: inf
ROOT
ATOM      1  C   UNL A   1      31.522  28.903  24.857  1.00  0.00     0.274 C 
ENDROOT
BRANCH   1   2
ATOM      2  O   UNL A   1      31.440  27.529  25.273  1.00  0.00    -0.462 OA
BRANCH   2   3
ATOM      3  C   UNL A   1      32.372  26.667  24.809  1.00  0.00     0.307 C 
ATOM      4  O   UNL A   1      33.560  26.925  24.658  1.00  0.00    -0.252 OA
BRANCH   3   5
ATOM      5  C   UNL A   1      31.763  25.333  24.456  1.00  0.00     0.150 C 
BRANCH   5   6
ATOM      6  C   UNL A   1      32.472  24.186  25.149  1.00  0.00     0.184 C 
ATOM      7  N   UNL A   1      32.152  20.341  25.352  1.00  0.00    -0.142 N 
ATOM      8  C   UNL A   1      32.122  21.629  25.323  1.00  0.00     0.337 C 
ATOM      9  H   UNL A   1      31.921  19.832  26.162  1.00  0.00     0.343 HD
ATOM     10  N   UNL A   1      31.712  22.310  26.415  1.00  0.00    -0.202 N 
ATOM     11  S   UNL A   1      32.564  22.720  24.046  1.00  0.00    -0.020 SA
ATOM     12  C   UNL A   1      31.749  23.671  26.385  1.00  0.00     0.322 C 
ATOM     13  H   UNL A   1      31.395  21.833  27.216  1.00  0.00     0.316 HD
ATOM     14  O   UNL A   1      31.268  24.350  27.281  1.00  0.00    -0.246 OA
BRANCH   7  15
ATOM     15  N   UNL A   1      32.532  19.711  24.172  1.00  0.00    -0.095 NA
ATOM     16  C   UNL A   1      32.699  18.424  24.266  1.00  0.00     0.058 C 
ATOM     17  C   UNL A   1      32.630  17.648  25.561  1.00  0.00     0.066 C 
BRANCH  16  18
ATOM     18  C   UNL A   1      32.987  17.656  22.996  1.00  0.00     0.052 C 
ATOM     19  C   UNL A   1      34.027  16.586  23.278  1.00  0.00     0.010 C 
ENDBRANCH  16  18
ENDBRANCH   7  15
ENDBRANCH   5   6
ENDBRANCH   3   5
ENDBRANCH   2   3
ENDBRANCH   1   2
BRANCH   1  20
ATOM     20  C   UNL A   1      31.782  29.841  26.038  1.00  0.00     0.275 C 
BRANCH  20  21
ATOM     21  O   UNL A   1      33.150  30.291  26.056  1.00  0.00    -0.458 OA
BRANCH  21  22
ATOM     22  C   UNL A   1      33.422  31.290  26.925  1.00  0.00     0.338 C 
ATOM     23  O   UNL A   1      32.716  32.244  27.202  1.00  0.00    -0.246 OA
BRANCH  22  24
ATOM     24  C   UNL A   1      34.682  31.001  27.629  1.00  0.00     0.060 A 
ATOM     25  C   UNL A   1      34.914  29.689  28.056  1.00  0.00     0.016 A 
ATOM     26  C   UNL A   1      35.600  32.013  27.913  1.00  0.00     0.016 A 
ATOM     27  C   UNL A   1      36.069  29.383  28.771  1.00  0.00     0.010 A 
ATOM     28  C   UNL A   1      36.760  31.704  28.628  1.00  0.00     0.010 A 
ATOM     29  C   UNL A   1      36.998  30.389  29.067  1.00  0.00    -0.014 A 
BRANCH  29  30
ATOM     30  C   UNL A   1      38.213  30.068  29.852  1.00  0.00     0.031 A 
ATOM     31  C   UNL A   1      39.241  29.131  29.294  1.00  0.00     0.074 A 
ATOM     32  C   UNL A   1      38.388  30.621  31.066  1.00  0.00     0.049 A 
ATOM     33  N   UNL A   1      40.335  28.672  29.849  1.00  0.00    -0.248 NA
ATOM     34  C   UNL A   1      39.009  28.642  27.926  1.00  0.00     0.031 C 
ATOM     35  C   UNL A   1      37.472  31.568  31.699  1.00  0.00     0.029 A 
ATOM     36  N   UNL A   1      39.392  30.457  31.987  1.00  0.00    -0.354 N 
ATOM     37  C   UNL A   1      40.914  27.834  28.907  1.00  0.00     0.074 A 
ATOM     38  C   UNL A   1      40.041  27.829  27.752  1.00  0.00     0.031 C 
ATOM     39  C   UNL A   1      37.955  31.902  32.907  1.00  0.00     0.029 A 
ATOM     40  C   UNL A   1      39.190  31.160  33.148  1.00  0.00     0.049 A 
ATOM     41  H   UNL A   1      40.181  29.890  31.828  1.00  0.00     0.167 HD
ATOM     42  C   UNL A   1      42.073  27.138  28.999  1.00  0.00     0.037 A 
ATOM     43  C   UNL A   1      39.907  31.180  34.287  1.00  0.00     0.037 A 
ATOM     44  C   UNL A   1      42.939  27.150  30.149  1.00  0.00     0.049 A 
ATOM     45  C   UNL A   1      41.154  30.345  34.388  1.00  0.00     0.074 A 
ATOM     46  C   UNL A   1      44.147  26.498  30.328  1.00  0.00     0.029 A 
ATOM     47  N   UNL A   1      42.684  27.846  31.323  1.00  0.00    -0.354 N 
ATOM     48  N   UNL A   1      41.705  29.569  33.487  1.00  0.00    -0.248 NA
ATOM     49  C   UNL A   1      41.875  30.384  35.668  1.00  0.00     0.031 C 
ATOM     50  C   UNL A   1      44.599  26.761  31.626  1.00  0.00     0.029 A 
ATOM     51  C   UNL A   1      43.698  27.617  32.240  1.00  0.00     0.049 A 
ATOM     52  H   UNL A   1      41.899  28.418  31.480  1.00  0.00     0.167 HD
ATOM     53  C   UNL A   1      42.845  29.045  34.080  1.00  0.00     0.074 A 
ATOM     54  C   UNL A   1      42.915  29.601  35.416  1.00  0.00     0.031 C 
ATOM     55  C   UNL A   1      43.752  28.178  33.565  1.00  0.00     0.037 A 
BRANCH  42  56
ATOM     56  C   UNL A   1      42.459  26.281  27.830  1.00  0.00     0.064 A 
ATOM     57  C   UNL A   1      43.352  26.732  26.847  1.00  0.00     0.173 A 
ATOM     58  C   UNL A   1      41.952  24.978  27.709  1.00  0.00     0.173 A 
ATOM     59  F   UNL A   1      43.854  27.975  26.910  1.00  0.00    -0.203 F 
ATOM     60  C   UNL A   1      43.704  25.920  25.772  1.00  0.00     0.198 A 
ATOM     61  C   UNL A   1      42.326  24.159  26.647  1.00  0.00     0.198 A 
ATOM     62  F   UNL A   1      41.099  24.496  28.624  1.00  0.00    -0.203 F 
ATOM     63  F   UNL A   1      44.524  26.388  24.821  1.00  0.00    -0.200 F 
ATOM     64  C   UNL A   1      43.196  24.632  25.677  1.00  0.00     0.200 A 
ATOM     65  F   UNL A   1      41.843  22.912  26.561  1.00  0.00    -0.200 F 
ATOM     66  F   UNL A   1      43.538  23.851  24.643  1.00  0.00    -0.200 F 
ENDBRANCH  42  56
BRANCH  43  67
ATOM     67  C   UNL A   1      39.451  32.012  35.430  1.00  0.00     0.064 A 
ATOM     68  C   UNL A   1      38.575  31.495  36.394  1.00  0.00     0.173 A 
ATOM     69  C   UNL A   1      39.883  33.338  35.582  1.00  0.00     0.173 A 
ATOM     70  F   UNL A   1      38.114  30.241  36.276  1.00  0.00    -0.203 F 
ATOM     71  C   UNL A   1      38.140  32.277  37.462  1.00  0.00     0.198 A 
ATOM     72  C   UNL A   1      39.468  34.110  36.664  1.00  0.00     0.198 A 
ATOM     73  F   UNL A   1      40.718  33.879  34.684  1.00  0.00    -0.203 F 
ATOM     74  F   UNL A   1      37.273  31.772  38.349  1.00  0.00    -0.200 F 
ATOM     75  C   UNL A   1      38.593  33.581  37.601  1.00  0.00     0.200 A 
ATOM     76  F   UNL A   1      39.916  35.366  36.800  1.00  0.00    -0.200 F 
ATOM     77  F   UNL A   1      38.179  34.330  38.632  1.00  0.00    -0.200 F 
ENDBRANCH  43  67
BRANCH  55  78
ATOM     78  C   UNL A   1      44.910  27.798  34.440  1.00  0.00     0.064 A 
ATOM     79  C   UNL A   1      46.089  28.557  34.470  1.00  0.00     0.173 A 
ATOM     80  C   UNL A   1      44.825  26.682  35.288  1.00  0.00     0.173 A 
ATOM     81  F   UNL A   1      46.226  29.622  33.665  1.00  0.00    -0.203 F 
ATOM     82  C   UNL A   1      47.148  28.201  35.300  1.00  0.00     0.198 A 
ATOM     83  C   UNL A   1      45.875  26.346  36.137  1.00  0.00     0.198 A 
ATOM     84  F   UNL A   1      43.716  25.927  35.301  1.00  0.00    -0.203 F 
ATOM     85  F   UNL A   1      48.281  28.916  35.281  1.00  0.00    -0.200 F 
ATOM     86  C   UNL A   1      47.037  27.102  36.138  1.00  0.00     0.200 A 
ATOM     87  F   UNL A   1      45.762  25.290  36.954  1.00  0.00    -0.200 F 
ATOM     88  F   UNL A   1      48.055  26.765  36.942  1.00  0.00    -0.200 F 
ENDBRANCH  55  78
ENDBRANCH  29  30
ENDBRANCH  22  24
ENDBRANCH  21  22
ENDBRANCH  20  21
ENDBRANCH   1  20
TORSDOF 14
ENDMDL
