MODEL 1
REMARK VINA RESULT:     -10.5      0.000      0.000
REMARK SMILES CCN(CC(C)C)C(=O)N[C@](C)(CC)C(=O)OCCOC(=O)c1ccc(-c2c3nc(c(-c4c(F)c(F)c(F)c(F)c4F)c4ccc([nH]4)c(-c4c(F)c(F)c(F)c(F)c4F)c4nc(c(-c5c(F)c(F)c(F)c(F)c5F)c5ccc2[nH]5)C=C4)C=C3)cc1
REMARK SMILES IDX 18 1 17 2 15 3 16 4 11 5 12 6 10 7 8 8 9 9 3 11 2 12 1 13
REMARK SMILES IDX 4 14 5 15 6 16 7 17 13 18 14 19 19 20 20 21 21 22 22 23
REMARK SMILES IDX 23 24 24 25 85 26 25 27 84 28 26 29 27 30 28 31 78 32 29 33
REMARK SMILES IDX 83 34 77 35 79 36 30 37 82 38 76 39 75 40 31 42 63 43 43 44
REMARK SMILES IDX 62 45 44 46 47 47 61 48 80 49 45 50 46 51 60 53 81 54 48 55
REMARK SMILES IDX 32 56 33 57 41 58 34 59 35 60 39 61 42 62 36 63 37 64 40 65
REMARK SMILES IDX 38 66 64 67 65 68 73 69 66 70 67 71 71 72 74 73 68 74 69 75
REMARK SMILES IDX 72 76 70 77 49 78 50 79 58 80 51 81 52 82 56 83 59 84 53 85
REMARK SMILES IDX 54 86 57 87 55 88
REMARK H PARENT 10 10 79 41 47 52
REMARK Flexibility Score: inf
ROOT
ATOM      1  C   UNL A   1      31.399  29.839  25.058  1.00  0.00     0.274 C 
ENDROOT
BRANCH   1   2
ATOM      2  O   UNL A   1      32.342  28.740  25.062  1.00  0.00    -0.460 OA
BRANCH   2   3
ATOM      3  C   UNL A   1      32.271  27.881  24.005  1.00  0.00     0.331 C 
ATOM      4  O   UNL A   1      31.965  28.265  22.886  1.00  0.00    -0.249 OA
BRANCH   3   5
ATOM      5  C   UNL A   1      32.500  26.388  24.374  1.00  0.00     0.136 C 
ATOM      6  C   UNL A   1      33.437  26.176  25.582  1.00  0.00     0.047 C 
BRANCH   5   7
ATOM      7  N   UNL A   1      33.052  25.605  23.219  1.00  0.00    -0.322 N 
ATOM      8  C   UNL A   1      33.227  24.353  22.769  1.00  0.00     0.318 C 
ATOM      9  O   UNL A   1      33.407  24.311  21.543  1.00  0.00    -0.249 OA
ATOM     10  H   UNL A   1      33.417  26.233  22.555  1.00  0.00     0.166 HD
BRANCH   8  11
ATOM     11  N   UNL A   1      33.238  23.205  23.508  1.00  0.00    -0.325 N 
BRANCH  11  12
ATOM     12  C   UNL A   1      32.089  22.301  23.340  1.00  0.00     0.118 C 
ATOM     13  C   UNL A   1      32.465  20.839  23.498  1.00  0.00     0.027 C 
ENDBRANCH  11  12
BRANCH  11  14
ATOM     14  C   UNL A   1      34.312  22.630  24.311  1.00  0.00     0.124 C 
BRANCH  14  15
ATOM     15  C   UNL A   1      35.632  23.440  24.258  1.00  0.00     0.002 C 
ATOM     16  C   UNL A   1      36.282  23.632  25.632  1.00  0.00     0.009 C 
ATOM     17  C   UNL A   1      36.615  22.861  23.230  1.00  0.00     0.009 C 
ENDBRANCH  14  15
ENDBRANCH  11  14
ENDBRANCH   8  11
ENDBRANCH   5   7
BRANCH   5  18
ATOM     18  C   UNL A   1      31.120  25.750  24.767  1.00  0.00     0.037 C 
ATOM     19  C   UNL A   1      30.485  26.257  26.067  1.00  0.00     0.007 C 
ENDBRANCH   5  18
ENDBRANCH   3   5
ENDBRANCH   2   3
ENDBRANCH   1   2
BRANCH   1  20
ATOM     20  C   UNL A   1      31.610  30.913  26.137  1.00  0.00     0.275 C 
BRANCH  20  21
ATOM     21  O   UNL A   1      32.830  30.709  26.878  1.00  0.00    -0.458 OA
BRANCH  21  22
ATOM     22  C   UNL A   1      33.424  31.837  27.333  1.00  0.00     0.338 C 
ATOM     23  O   UNL A   1      32.905  32.930  27.483  1.00  0.00    -0.246 OA
BRANCH  22  24
ATOM     24  C   UNL A   1      34.756  31.519  27.890  1.00  0.00     0.060 A 
ATOM     25  C   UNL A   1      34.946  30.191  28.284  1.00  0.00     0.016 A 
ATOM     26  C   UNL A   1      35.775  32.454  28.060  1.00  0.00     0.016 A 
ATOM     27  C   UNL A   1      36.161  29.763  28.798  1.00  0.00     0.010 A 
ATOM     28  C   UNL A   1      36.978  32.044  28.659  1.00  0.00     0.010 A 
ATOM     29  C   UNL A   1      37.166  30.701  29.039  1.00  0.00    -0.014 A 
BRANCH  29  30
ATOM     30  C   UNL A   1      38.293  30.290  29.907  1.00  0.00     0.031 A 
ATOM     31  C   UNL A   1      39.317  29.356  29.329  1.00  0.00     0.074 A 
ATOM     32  C   UNL A   1      38.464  30.810  31.133  1.00  0.00     0.049 A 
ATOM     33  N   UNL A   1      40.380  28.835  29.885  1.00  0.00    -0.248 NA
ATOM     34  C   UNL A   1      39.127  28.978  27.918  1.00  0.00     0.031 C 
ATOM     35  C   UNL A   1      37.612  31.825  31.749  1.00  0.00     0.029 A 
ATOM     36  N   UNL A   1      39.427  30.556  32.078  1.00  0.00    -0.354 N 
ATOM     37  C   UNL A   1      40.980  28.068  28.894  1.00  0.00     0.074 A 
ATOM     38  C   UNL A   1      40.169  28.191  27.705  1.00  0.00     0.031 C 
ATOM     39  C   UNL A   1      38.083  32.096  32.979  1.00  0.00     0.029 A 
ATOM     40  C   UNL A   1      39.241  31.245  33.250  1.00  0.00     0.049 A 
ATOM     41  H   UNL A   1      40.179  29.940  31.927  1.00  0.00     0.167 HD
ATOM     42  C   UNL A   1      42.102  27.317  28.974  1.00  0.00     0.037 A 
ATOM     43  C   UNL A   1      39.914  31.162  34.415  1.00  0.00     0.037 A 
ATOM     44  C   UNL A   1      42.885  27.166  30.170  1.00  0.00     0.049 A 
ATOM     45  C   UNL A   1      41.075  30.205  34.526  1.00  0.00     0.074 A 
ATOM     46  C   UNL A   1      44.008  26.386  30.377  1.00  0.00     0.029 A 
ATOM     47  N   UNL A   1      42.610  27.803  31.371  1.00  0.00    -0.354 N 
ATOM     48  N   UNL A   1      41.618  29.449  33.603  1.00  0.00    -0.248 NA
ATOM     49  C   UNL A   1      41.706  30.080  35.848  1.00  0.00     0.031 C 
ATOM     50  C   UNL A   1      44.382  26.512  31.720  1.00  0.00     0.029 A 
ATOM     51  C   UNL A   1      43.525  27.412  32.334  1.00  0.00     0.049 A 
ATOM     52  H   UNL A   1      41.874  28.440  31.518  1.00  0.00     0.167 HD
ATOM     53  C   UNL A   1      42.667  28.779  34.222  1.00  0.00     0.074 A 
ATOM     54  C   UNL A   1      42.690  29.227  35.599  1.00  0.00     0.031 C 
ATOM     55  C   UNL A   1      43.533  27.877  33.699  1.00  0.00     0.037 A 
BRANCH  42  56
ATOM     56  C   UNL A   1      42.487  26.544  27.750  1.00  0.00     0.064 A 
ATOM     57  C   UNL A   1      41.971  25.267  27.486  1.00  0.00     0.173 A 
ATOM     58  C   UNL A   1      43.417  27.077  26.845  1.00  0.00     0.173 A 
ATOM     59  F   UNL A   1      41.099  24.702  28.337  1.00  0.00    -0.203 F 
ATOM     60  C   UNL A   1      42.398  24.538  26.379  1.00  0.00     0.198 A 
ATOM     61  C   UNL A   1      43.822  26.357  25.726  1.00  0.00     0.198 A 
ATOM     62  F   UNL A   1      43.946  28.292  27.056  1.00  0.00    -0.203 F 
ATOM     63  F   UNL A   1      41.939  23.294  26.179  1.00  0.00    -0.200 F 
ATOM     64  C   UNL A   1      43.320  25.084  25.499  1.00  0.00     0.200 A 
ATOM     65  F   UNL A   1      44.712  26.887  24.876  1.00  0.00    -0.200 F 
ATOM     66  F   UNL A   1      43.739  24.377  24.441  1.00  0.00    -0.200 F 
ENDBRANCH  42  56
BRANCH  43  67
ATOM     67  C   UNL A   1      39.482  31.971  35.585  1.00  0.00     0.064 A 
ATOM     68  C   UNL A   1      38.497  31.505  36.466  1.00  0.00     0.173 A 
ATOM     69  C   UNL A   1      40.026  33.242  35.830  1.00  0.00     0.173 A 
ATOM     70  F   UNL A   1      37.922  30.313  36.257  1.00  0.00    -0.203 F 
ATOM     71  C   UNL A   1      38.065  32.283  37.540  1.00  0.00     0.198 A 
ATOM     72  C   UNL A   1      39.613  34.006  36.918  1.00  0.00     0.198 A 
ATOM     73  F   UNL A   1      40.963  33.741  35.010  1.00  0.00    -0.203 F 
ATOM     74  F   UNL A   1      37.090  31.833  38.342  1.00  0.00    -0.200 F 
ATOM     75  C   UNL A   1      38.628  33.530  37.769  1.00  0.00     0.200 A 
ATOM     76  F   UNL A   1      40.165  35.207  37.138  1.00  0.00    -0.200 F 
ATOM     77  F   UNL A   1      38.214  34.276  38.802  1.00  0.00    -0.200 F 
ENDBRANCH  43  67
BRANCH  55  78
ATOM     78  C   UNL A   1      44.601  27.337  34.605  1.00  0.00     0.064 A 
ATOM     79  C   UNL A   1      44.425  26.144  35.321  1.00  0.00     0.173 A 
ATOM     80  C   UNL A   1      45.838  27.992  34.709  1.00  0.00     0.173 A 
ATOM     81  F   UNL A   1      43.257  25.489  35.265  1.00  0.00    -0.203 F 
ATOM     82  C   UNL A   1      45.444  25.638  36.124  1.00  0.00     0.198 A 
ATOM     83  C   UNL A   1      46.863  27.467  35.491  1.00  0.00     0.198 A 
ATOM     84  F   UNL A   1      46.058  29.131  34.036  1.00  0.00    -0.203 F 
ATOM     85  F   UNL A   1      45.241  24.517  36.832  1.00  0.00    -0.200 F 
ATOM     86  C   UNL A   1      46.663  26.294  36.201  1.00  0.00     0.200 A 
ATOM     87  F   UNL A   1      48.045  28.095  35.552  1.00  0.00    -0.200 F 
ATOM     88  F   UNL A   1      47.645  25.798  36.966  1.00  0.00    -0.200 F 
ENDBRANCH  55  78
ENDBRANCH  29  30
ENDBRANCH  22  24
ENDBRANCH  21  22
ENDBRANCH  20  21
ENDBRANCH   1  20
TORSDOF 17
ENDMDL
MODEL 2
REMARK VINA RESULT:     -10.5      0.801      2.185
REMARK SMILES CCN(CC(C)C)C(=O)N[C@](C)(CC)C(=O)OCCOC(=O)c1ccc(-c2c3nc(c(-c4c(F)c(F)c(F)c(F)c4F)c4ccc([nH]4)c(-c4c(F)c(F)c(F)c(F)c4F)c4nc(c(-c5c(F)c(F)c(F)c(F)c5F)c5ccc2[nH]5)C=C4)C=C3)cc1
REMARK SMILES IDX 18 1 17 2 15 3 16 4 11 5 12 6 10 7 8 8 9 9 3 11 2 12 1 13
REMARK SMILES IDX 4 14 5 15 6 16 7 17 13 18 14 19 19 20 20 21 21 22 22 23
REMARK SMILES IDX 23 24 24 25 85 26 25 27 84 28 26 29 27 30 28 31 78 32 29 33
REMARK SMILES IDX 83 34 77 35 79 36 30 37 82 38 76 39 75 40 31 42 63 43 43 44
REMARK SMILES IDX 62 45 44 46 47 47 61 48 80 49 45 50 46 51 60 53 81 54 48 55
REMARK SMILES IDX 32 56 33 57 41 58 34 59 35 60 39 61 42 62 36 63 37 64 40 65
REMARK SMILES IDX 38 66 64 67 65 68 73 69 66 70 67 71 71 72 74 73 68 74 69 75
REMARK SMILES IDX 72 76 70 77 49 78 50 79 58 80 51 81 52 82 56 83 59 84 53 85
REMARK SMILES IDX 54 86 57 87 55 88
REMARK H PARENT 10 10 79 41 47 52
REMARK Flexibility Score: inf
ROOT
ATOM      1  C   UNL A   1      31.791  28.747  27.231  1.00  0.00     0.274 C 
ENDROOT
BRANCH   1   2
ATOM      2  O   UNL A   1      32.274  27.809  26.239  1.00  0.00    -0.460 OA
BRANCH   2   3
ATOM      3  C   UNL A   1      31.420  26.803  25.894  1.00  0.00     0.331 C 
ATOM      4  O   UNL A   1      31.015  25.995  26.716  1.00  0.00    -0.249 OA
BRANCH   3   5
ATOM      5  C   UNL A   1      31.108  26.718  24.373  1.00  0.00     0.136 C 
ATOM      6  C   UNL A   1      29.972  25.735  24.019  1.00  0.00     0.047 C 
BRANCH   5   7
ATOM      7  N   UNL A   1      32.318  26.332  23.575  1.00  0.00    -0.322 N 
ATOM      8  C   UNL A   1      33.282  25.403  23.486  1.00  0.00     0.318 C 
ATOM      9  O   UNL A   1      33.815  25.379  22.367  1.00  0.00    -0.249 OA
ATOM     10  H   UNL A   1      32.454  26.998  22.862  1.00  0.00     0.166 HD
BRANCH   8  11
ATOM     11  N   UNL A   1      33.703  24.555  24.469  1.00  0.00    -0.325 N 
BRANCH  11  12
ATOM     12  C   UNL A   1      34.757  25.055  25.365  1.00  0.00     0.118 C 
ATOM     13  C   UNL A   1      35.814  24.008  25.670  1.00  0.00     0.027 C 
ENDBRANCH  11  12
BRANCH  11  14
ATOM     14  C   UNL A   1      33.137  23.280  24.899  1.00  0.00     0.124 C 
BRANCH  14  15
ATOM     15  C   UNL A   1      33.216  22.168  23.822  1.00  0.00     0.002 C 
ATOM     16  C   UNL A   1      33.509  20.781  24.402  1.00  0.00     0.009 C 
ATOM     17  C   UNL A   1      31.976  22.165  22.915  1.00  0.00     0.009 C 
ENDBRANCH  14  15
ENDBRANCH  11  14
ENDBRANCH   8  11
ENDBRANCH   5   7
BRANCH   5  18
ATOM     18  C   UNL A   1      30.639  28.133  23.876  1.00  0.00     0.037 C 
ATOM     19  C   UNL A   1      30.169  28.217  22.420  1.00  0.00     0.007 C 
ENDBRANCH   5  18
ENDBRANCH   3   5
ENDBRANCH   2   3
ENDBRANCH   1   2
BRANCH   1  20
ATOM     20  C   UNL A   1      31.788  30.227  26.816  1.00  0.00     0.275 C 
BRANCH  20  21
ATOM     21  O   UNL A   1      33.110  30.705  26.495  1.00  0.00    -0.458 OA
BRANCH  21  22
ATOM     22  C   UNL A   1      33.549  31.740  27.248  1.00  0.00     0.338 C 
ATOM     23  O   UNL A   1      32.903  32.712  27.606  1.00  0.00    -0.246 OA
BRANCH  22  24
ATOM     24  C   UNL A   1      34.873  31.424  27.823  1.00  0.00     0.060 A 
ATOM     25  C   UNL A   1      35.044  30.109  28.264  1.00  0.00     0.016 A 
ATOM     26  C   UNL A   1      35.905  32.350  27.965  1.00  0.00     0.016 A 
ATOM     27  C   UNL A   1      36.250  29.683  28.800  1.00  0.00     0.010 A 
ATOM     28  C   UNL A   1      37.099  31.947  28.585  1.00  0.00     0.010 A 
ATOM     29  C   UNL A   1      37.267  30.615  29.013  1.00  0.00    -0.014 A 
BRANCH  29  30
ATOM     30  C   UNL A   1      38.383  30.220  29.900  1.00  0.00     0.031 A 
ATOM     31  C   UNL A   1      39.425  29.292  29.344  1.00  0.00     0.074 A 
ATOM     32  C   UNL A   1      38.531  30.749  31.126  1.00  0.00     0.049 A 
ATOM     33  N   UNL A   1      40.484  28.783  29.919  1.00  0.00    -0.248 NA
ATOM     34  C   UNL A   1      39.260  28.903  27.932  1.00  0.00     0.031 C 
ATOM     35  C   UNL A   1      37.661  31.760  31.721  1.00  0.00     0.029 A 
ATOM     36  N   UNL A   1      39.481  30.509  32.086  1.00  0.00    -0.354 N 
ATOM     37  C   UNL A   1      41.106  28.016  28.943  1.00  0.00     0.074 A 
ATOM     38  C   UNL A   1      40.312  28.124  27.740  1.00  0.00     0.031 C 
ATOM     39  C   UNL A   1      38.110  32.043  32.958  1.00  0.00     0.029 A 
ATOM     40  C   UNL A   1      39.271  31.204  33.252  1.00  0.00     0.049 A 
ATOM     41  H   UNL A   1      40.242  29.899  31.951  1.00  0.00     0.167 HD
ATOM     42  C   UNL A   1      42.233  27.276  29.045  1.00  0.00     0.037 A 
ATOM     43  C   UNL A   1      39.927  31.135  34.427  1.00  0.00     0.037 A 
ATOM     44  C   UNL A   1      42.999  27.140  30.254  1.00  0.00     0.049 A 
ATOM     45  C   UNL A   1      41.095  30.189  34.562  1.00  0.00     0.074 A 
ATOM     46  C   UNL A   1      44.126  26.371  30.482  1.00  0.00     0.029 A 
ATOM     47  N   UNL A   1      42.700  27.782  31.446  1.00  0.00    -0.354 N 
ATOM     48  N   UNL A   1      41.659  29.432  33.652  1.00  0.00    -0.248 NA
ATOM     49  C   UNL A   1      41.707  30.078  35.895  1.00  0.00     0.031 C 
ATOM     50  C   UNL A   1      44.478  26.509  31.830  1.00  0.00     0.029 A 
ATOM     51  C   UNL A   1      43.603  27.405  32.426  1.00  0.00     0.049 A 
ATOM     52  H   UNL A   1      41.956  28.412  31.578  1.00  0.00     0.167 HD
ATOM     53  C   UNL A   1      42.704  28.775  34.291  1.00  0.00     0.074 A 
ATOM     54  C   UNL A   1      42.702  29.232  35.666  1.00  0.00     0.031 C 
ATOM     55  C   UNL A   1      43.586  27.878  33.787  1.00  0.00     0.037 A 
BRANCH  42  56
ATOM     56  C   UNL A   1      42.644  26.499  27.831  1.00  0.00     0.064 A 
ATOM     57  C   UNL A   1      42.196  25.190  27.602  1.00  0.00     0.173 A 
ATOM     58  C   UNL A   1      43.531  27.063  26.903  1.00  0.00     0.173 A 
ATOM     59  F   UNL A   1      41.367  24.597  28.476  1.00  0.00    -0.203 F 
ATOM     60  C   UNL A   1      42.648  24.462  26.504  1.00  0.00     0.198 A 
ATOM     61  C   UNL A   1      43.961  26.342  25.793  1.00  0.00     0.198 A 
ATOM     62  F   UNL A   1      43.995  28.309  27.080  1.00  0.00    -0.203 F 
ATOM     63  F   UNL A   1      42.256  23.190  26.337  1.00  0.00    -0.200 F 
ATOM     64  C   UNL A   1      43.527  25.039  25.600  1.00  0.00     0.200 A 
ATOM     65  F   UNL A   1      44.809  26.901  24.919  1.00  0.00    -0.200 F 
ATOM     66  F   UNL A   1      43.970  24.333  24.551  1.00  0.00    -0.200 F 
ENDBRANCH  42  56
BRANCH  43  67
ATOM     67  C   UNL A   1      39.470  31.947  35.585  1.00  0.00     0.064 A 
ATOM     68  C   UNL A   1      40.002  33.219  35.834  1.00  0.00     0.173 A 
ATOM     69  C   UNL A   1      38.513  31.454  36.486  1.00  0.00     0.173 A 
ATOM     70  F   UNL A   1      40.943  33.722  35.023  1.00  0.00    -0.203 F 
ATOM     71  C   UNL A   1      39.602  33.963  36.944  1.00  0.00     0.198 A 
ATOM     72  C   UNL A   1      38.095  32.209  37.579  1.00  0.00     0.198 A 
ATOM     73  F   UNL A   1      37.982  30.236  36.302  1.00  0.00    -0.203 F 
ATOM     74  F   UNL A   1      40.158  35.158  37.183  1.00  0.00    -0.200 F 
ATOM     75  C   UNL A   1      38.644  33.460  37.811  1.00  0.00     0.200 A 
ATOM     76  F   UNL A   1      37.165  31.720  38.411  1.00  0.00    -0.200 F 
ATOM     77  F   UNL A   1      38.259  34.175  38.877  1.00  0.00    -0.200 F 
ENDBRANCH  43  67
BRANCH  55  78
ATOM     78  C   UNL A   1      44.645  27.353  34.713  1.00  0.00     0.064 A 
ATOM     79  C   UNL A   1      45.859  28.029  34.902  1.00  0.00     0.173 A 
ATOM     80  C   UNL A   1      44.414  26.189  35.464  1.00  0.00     0.173 A 
ATOM     81  F   UNL A   1      46.132  29.137  34.198  1.00  0.00    -0.203 F 
ATOM     82  C   UNL A   1      46.812  27.547  35.797  1.00  0.00     0.198 A 
ATOM     83  C   UNL A   1      45.357  25.728  36.377  1.00  0.00     0.198 A 
ATOM     84  F   UNL A   1      43.265  25.512  35.325  1.00  0.00    -0.203 F 
ATOM     85  F   UNL A   1      47.982  28.187  35.933  1.00  0.00    -0.200 F 
ATOM     86  C   UNL A   1      46.557  26.404  36.539  1.00  0.00     0.200 A 
ATOM     87  F   UNL A   1      45.103  24.631  37.104  1.00  0.00    -0.200 F 
ATOM     88  F   UNL A   1      47.471  25.950  37.407  1.00  0.00    -0.200 F 
ENDBRANCH  55  78
ENDBRANCH  29  30
ENDBRANCH  22  24
ENDBRANCH  21  22
ENDBRANCH  20  21
ENDBRANCH   1  20
TORSDOF 17
ENDMDL
MODEL 3
REMARK VINA RESULT:     -10.4      4.375      9.856
REMARK SMILES CCN(CC(C)C)C(=O)N[C@](C)(CC)C(=O)OCCOC(=O)c1ccc(-c2c3nc(c(-c4c(F)c(F)c(F)c(F)c4F)c4ccc([nH]4)c(-c4c(F)c(F)c(F)c(F)c4F)c4nc(c(-c5c(F)c(F)c(F)c(F)c5F)c5ccc2[nH]5)C=C4)C=C3)cc1
REMARK SMILES IDX 18 1 17 2 15 3 16 4 11 5 12 6 10 7 8 8 9 9 3 11 2 12 1 13
REMARK SMILES IDX 4 14 5 15 6 16 7 17 13 18 14 19 19 20 20 21 21 22 22 23
REMARK SMILES IDX 23 24 24 25 85 26 25 27 84 28 26 29 27 30 28 31 78 32 29 33
REMARK SMILES IDX 83 34 77 35 79 36 30 37 82 38 76 39 75 40 31 42 63 43 43 44
REMARK SMILES IDX 62 45 44 46 47 47 61 48 80 49 45 50 46 51 60 53 81 54 48 55
REMARK SMILES IDX 32 56 33 57 41 58 34 59 35 60 39 61 42 62 36 63 37 64 40 65
REMARK SMILES IDX 38 66 64 67 65 68 73 69 66 70 67 71 71 72 74 73 68 74 69 75
REMARK SMILES IDX 72 76 70 77 49 78 50 79 58 80 51 81 52 82 56 83 59 84 53 85
REMARK SMILES IDX 54 86 57 87 55 88
REMARK H PARENT 10 10 79 41 47 52
REMARK Flexibility Score: inf
ROOT
ATOM      1  C   UNL A   1      35.631  21.404  25.308  1.00  0.00     0.274 C 
ENDROOT
BRANCH   1   2
ATOM      2  O   UNL A   1      34.918  21.618  24.066  1.00  0.00    -0.460 OA
BRANCH   2   3
ATOM      3  C   UNL A   1      35.087  22.837  23.477  1.00  0.00     0.331 C 
ATOM      4  O   UNL A   1      36.065  23.087  22.788  1.00  0.00    -0.249 OA
BRANCH   3   5
ATOM      5  C   UNL A   1      34.001  23.886  23.848  1.00  0.00     0.136 C 
ATOM      6  C   UNL A   1      32.600  23.283  24.085  1.00  0.00     0.047 C 
BRANCH   5   7
ATOM      7  N   UNL A   1      33.872  24.952  22.800  1.00  0.00    -0.322 N 
ATOM      8  C   UNL A   1      33.346  26.166  22.576  1.00  0.00     0.318 C 
ATOM      9  O   UNL A   1      33.888  26.750  21.627  1.00  0.00    -0.249 OA
ATOM     10  H   UNL A   1      34.340  24.656  21.986  1.00  0.00     0.166 HD
BRANCH   8  11
ATOM     11  N   UNL A   1      32.320  26.758  23.255  1.00  0.00    -0.325 N 
BRANCH  11  12
ATOM     12  C   UNL A   1      31.028  26.842  22.555  1.00  0.00     0.118 C 
ATOM     13  C   UNL A   1      29.870  27.127  23.495  1.00  0.00     0.027 C 
ENDBRANCH  11  12
BRANCH  11  14
ATOM     14  C   UNL A   1      32.245  27.160  24.655  1.00  0.00     0.124 C 
BRANCH  14  15
ATOM     15  C   UNL A   1      33.176  28.346  25.014  1.00  0.00     0.002 C 
ATOM     16  C   UNL A   1      32.461  29.702  25.010  1.00  0.00     0.009 C 
ATOM     17  C   UNL A   1      33.936  28.097  26.326  1.00  0.00     0.009 C 
ENDBRANCH  14  15
ENDBRANCH  11  14
ENDBRANCH   8  11
ENDBRANCH   5   7
BRANCH   5  18
ATOM     18  C   UNL A   1      34.416  24.585  25.192  1.00  0.00     0.037 C 
ATOM     19  C   UNL A   1      33.525  24.301  26.406  1.00  0.00     0.007 C 
ENDBRANCH   5  18
ENDBRANCH   3   5
ENDBRANCH   2   3
ENDBRANCH   1   2
BRANCH   1  20
ATOM     20  C   UNL A   1      37.035  20.793  25.184  1.00  0.00     0.275 C 
BRANCH  20  21
ATOM     21  O   UNL A   1      38.074  21.786  25.297  1.00  0.00    -0.458 OA
BRANCH  21  22
ATOM     22  C   UNL A   1      39.126  21.436  26.073  1.00  0.00     0.338 C 
ATOM     23  O   UNL A   1      39.648  20.336  26.148  1.00  0.00    -0.246 OA
BRANCH  22  24
ATOM     24  C   UNL A   1      39.756  22.643  26.649  1.00  0.00     0.060 A 
ATOM     25  C   UNL A   1      39.319  23.863  26.124  1.00  0.00     0.016 A 
ATOM     26  C   UNL A   1      40.746  22.616  27.629  1.00  0.00     0.016 A 
ATOM     27  C   UNL A   1      39.816  25.067  26.600  1.00  0.00     0.010 A 
ATOM     28  C   UNL A   1      41.314  23.828  28.054  1.00  0.00     0.010 A 
ATOM     29  C   UNL A   1      40.857  25.053  27.530  1.00  0.00    -0.014 A 
BRANCH  29  30
ATOM     30  C   UNL A   1      41.601  26.315  27.744  1.00  0.00     0.031 A 
ATOM     31  C   UNL A   1      40.927  27.400  28.533  1.00  0.00     0.074 A 
ATOM     32  C   UNL A   1      42.875  26.458  27.344  1.00  0.00     0.049 A 
ATOM     33  N   UNL A   1      41.354  28.598  28.841  1.00  0.00    -0.248 NA
ATOM     34  C   UNL A   1      39.594  27.078  29.072  1.00  0.00     0.031 C 
ATOM     35  C   UNL A   1      43.677  25.428  26.689  1.00  0.00     0.029 A 
ATOM     36  N   UNL A   1      43.720  27.536  27.443  1.00  0.00    -0.354 N 
ATOM     37  C   UNL A   1      40.343  29.168  29.604  1.00  0.00     0.074 A 
ATOM     38  C   UNL A   1      39.284  28.191  29.715  1.00  0.00     0.031 C 
ATOM     39  C   UNL A   1      44.898  25.931  26.429  1.00  0.00     0.029 A 
ATOM     40  C   UNL A   1      44.945  27.327  26.861  1.00  0.00     0.049 A 
ATOM     41  H   UNL A   1      43.470  28.376  27.890  1.00  0.00     0.167 HD
ATOM     42  C   UNL A   1      40.297  30.405  30.151  1.00  0.00     0.037 A 
ATOM     43  C   UNL A   1      45.968  28.185  26.674  1.00  0.00     0.037 A 
ATOM     44  C   UNL A   1      41.336  31.387  30.006  1.00  0.00     0.049 A 
ATOM     45  C   UNL A   1      45.835  29.605  27.165  1.00  0.00     0.074 A 
ATOM     46  C   UNL A   1      41.367  32.688  30.472  1.00  0.00     0.029 A 
ATOM     47  N   UNL A   1      42.525  31.175  29.325  1.00  0.00    -0.354 N 
ATOM     48  N   UNL A   1      44.863  30.159  27.850  1.00  0.00    -0.248 NA
ATOM     49  C   UNL A   1      46.936  30.524  26.842  1.00  0.00     0.031 C 
ATOM     50  C   UNL A   1      42.555  33.280  30.027  1.00  0.00     0.029 A 
ATOM     51  C   UNL A   1      43.287  32.330  29.331  1.00  0.00     0.049 A 
ATOM     52  H   UNL A   1      42.789  30.327  28.899  1.00  0.00     0.167 HD
ATOM     53  C   UNL A   1      45.244  31.478  28.061  1.00  0.00     0.074 A 
ATOM     54  C   UNL A   1      46.542  31.640  27.440  1.00  0.00     0.031 C 
ATOM     55  C   UNL A   1      44.582  32.466  28.712  1.00  0.00     0.037 A 
BRANCH  42  56
ATOM     56  C   UNL A   1      39.043  30.773  30.884  1.00  0.00     0.064 A 
ATOM     57  C   UNL A   1      37.938  31.333  30.227  1.00  0.00     0.173 A 
ATOM     58  C   UNL A   1      38.963  30.597  32.273  1.00  0.00     0.173 A 
ATOM     59  F   UNL A   1      37.977  31.547  28.902  1.00  0.00    -0.203 F 
ATOM     60  C   UNL A   1      36.811  31.734  30.940  1.00  0.00     0.198 A 
ATOM     61  C   UNL A   1      37.825  30.975  32.979  1.00  0.00     0.198 A 
ATOM     62  F   UNL A   1      39.996  30.072  32.949  1.00  0.00    -0.203 F 
ATOM     63  F   UNL A   1      35.790  32.325  30.301  1.00  0.00    -0.200 F 
ATOM     64  C   UNL A   1      36.754  31.552  32.313  1.00  0.00     0.200 A 
ATOM     65  F   UNL A   1      37.771  30.796  34.306  1.00  0.00    -0.200 F 
ATOM     66  F   UNL A   1      35.673  31.949  32.999  1.00  0.00    -0.200 F 
ENDBRANCH  42  56
BRANCH  43  67
ATOM     67  C   UNL A   1      47.189  27.744  25.949  1.00  0.00     0.064 A 
ATOM     68  C   UNL A   1      47.253  27.775  24.550  1.00  0.00     0.173 A 
ATOM     69  C   UNL A   1      48.306  27.253  26.642  1.00  0.00     0.173 A 
ATOM     70  F   UNL A   1      46.200  28.204  23.840  1.00  0.00    -0.203 F 
ATOM     71  C   UNL A   1      48.384  27.323  23.870  1.00  0.00     0.198 A 
ATOM     72  C   UNL A   1      49.446  26.826  25.963  1.00  0.00     0.198 A 
ATOM     73  F   UNL A   1      48.292  27.189  27.982  1.00  0.00    -0.203 F 
ATOM     74  F   UNL A   1      48.404  27.322  22.530  1.00  0.00    -0.200 F 
ATOM     75  C   UNL A   1      49.482  26.855  24.578  1.00  0.00     0.200 A 
ATOM     76  F   UNL A   1      50.505  26.381  26.652  1.00  0.00    -0.200 F 
ATOM     77  F   UNL A   1      50.569  26.423  23.925  1.00  0.00    -0.200 F 
ENDBRANCH  43  67
BRANCH  55  78
ATOM     78  C   UNL A   1      45.260  33.802  28.817  1.00  0.00     0.064 A 
ATOM     79  C   UNL A   1      45.042  34.814  27.872  1.00  0.00     0.173 A 
ATOM     80  C   UNL A   1      46.091  34.089  29.911  1.00  0.00     0.173 A 
ATOM     81  F   UNL A   1      44.268  34.584  26.801  1.00  0.00    -0.203 F 
ATOM     82  C   UNL A   1      45.648  36.061  28.009  1.00  0.00     0.198 A 
ATOM     83  C   UNL A   1      46.671  35.345  30.059  1.00  0.00     0.198 A 
ATOM     84  F   UNL A   1      46.323  33.156  30.846  1.00  0.00    -0.203 F 
ATOM     85  F   UNL A   1      45.459  37.002  27.073  1.00  0.00    -0.200 F 
ATOM     86  C   UNL A   1      46.454  36.328  29.106  1.00  0.00     0.200 A 
ATOM     87  F   UNL A   1      47.438  35.605  31.127  1.00  0.00    -0.200 F 
ATOM     88  F   UNL A   1      47.026  37.531  29.241  1.00  0.00    -0.200 F 
ENDBRANCH  55  78
ENDBRANCH  29  30
ENDBRANCH  22  24
ENDBRANCH  21  22
ENDBRANCH  20  21
ENDBRANCH   1  20
TORSDOF 17
ENDMDL
