MODEL 1
REMARK VINA RESULT:     -15.7      0.000      0.000
REMARK SMILES CC[C@@](C)(NC(=O)Nc1c(C)cccc1Cl)C(=O)OCCOC(=O)c1ccc(-c2c3nc(c(-c4c(F)c(F)c(F)c(F)c4F)c4ccc([nH]4)c(-c4c(F)c(F)c(F)c(F)c4F)c4nc(c(-c5c(F)c(F)c(F)c(F)c5F)c5ccc2[nH]5)C=C4)C=C3)cc1
REMARK SMILES IDX 20 1 19 2 17 3 18 4 3 5 4 6 2 7 1 8 5 9 6 10 7 12 8 13 9 15
REMARK SMILES IDX 10 16 15 17 11 18 12 19 14 20 16 21 13 22 21 23 22 24 23 25
REMARK SMILES IDX 24 26 25 27 26 28 87 29 27 30 86 31 28 32 29 33 30 34 80 35
REMARK SMILES IDX 31 36 85 37 79 38 81 39 32 40 84 41 78 42 77 43 33 45 65 46
REMARK SMILES IDX 45 47 64 48 46 49 49 50 63 51 82 52 47 53 48 54 62 56 83 57
REMARK SMILES IDX 50 58 34 59 35 60 43 61 36 62 37 63 41 64 44 65 38 66 39 67
REMARK SMILES IDX 42 68 40 69 66 70 67 71 75 72 68 73 69 74 73 75 76 76 70 77
REMARK SMILES IDX 71 78 74 79 72 80 51 81 52 82 60 83 53 84 54 85 58 86 61 87
REMARK SMILES IDX 55 88 56 89 59 90 57 91
REMARK H PARENT 5 11 8 14 81 44 49 55
REMARK Flexibility Score: inf
ROOT
ATOM      1  C   UNL A   1      30.536  27.106  24.675  1.00  0.00     0.274 C 
ENDROOT
BRANCH   1   2
ATOM      2  O   UNL A   1      31.079  25.574  24.349  1.00  0.00    -0.460 OA
BRANCH   2   3
ATOM      3  C   UNL A   1      31.242  24.409  23.515  1.00  0.00     0.331 C 
ATOM      4  O   UNL A   1      30.298  23.751  23.079  1.00  0.00    -0.249 OA
BRANCH   3   5
ATOM      5  C   UNL A   1      32.903  23.997  23.024  1.00  0.00     0.136 C 
ATOM      6  C   UNL A   1      33.594  25.179  22.337  1.00  0.00     0.047 C 
BRANCH   5   7
ATOM      7  C   UNL A   1      34.174  23.183  23.689  1.00  0.00     0.037 C 
ATOM      8  C   UNL A   1      35.487  23.794  24.134  1.00  0.00     0.007 C 
ENDBRANCH   5   7
BRANCH   5   9
ATOM      9  N   UNL A   1      32.470  23.064  22.046  1.00  0.00    -0.322 N 
ATOM     10  C   UNL A   1      32.196  21.854  22.530  1.00  0.00     0.320 C 
ATOM     11  H   UNL A   1      32.381  23.291  21.091  1.00  0.00     0.166 HD
ATOM     12  O   UNL A   1      31.899  20.936  21.784  1.00  0.00    -0.248 OA
ATOM     13  N   UNL A   1      32.287  21.636  23.873  1.00  0.00    -0.306 N 
ATOM     14  H   UNL A   1      32.300  20.653  23.924  1.00  0.00     0.171 HD
BRANCH  13  15
ATOM     15  C   UNL A   1      32.379  22.027  25.303  1.00  0.00     0.064 A 
ATOM     16  C   UNL A   1      31.773  22.825  26.364  1.00  0.00    -0.026 A 
ATOM     17  C   UNL A   1      33.262  21.128  25.823  1.00  0.00     0.064 A 
ATOM     18  C   UNL A   1      30.308  23.019  26.826  1.00  0.00     0.046 C 
ATOM     19  C   UNL A   1      32.495  23.127  27.564  1.00  0.00     0.005 A 
ATOM     20  C   UNL A   1      33.783  21.233  27.166  1.00  0.00     0.023 A 
ATOM     21  Cl  UNL A   1      33.636  19.659  24.427  1.00  0.00    -0.082 Cl
ATOM     22  C   UNL A   1      33.486  22.296  27.986  1.00  0.00     0.002 A 
ENDBRANCH  13  15
ENDBRANCH   5   9
ENDBRANCH   3   5
ENDBRANCH   2   3
ENDBRANCH   1   2
BRANCH   1  23
ATOM     23  C   UNL A   1      31.407  28.703  24.737  1.00  0.00     0.275 C 
BRANCH  23  24
ATOM     24  O   UNL A   1      31.924  29.943  25.858  1.00  0.00    -0.458 OA
BRANCH  24  25
ATOM     25  C   UNL A   1      32.765  30.781  26.745  1.00  0.00     0.338 C 
ATOM     26  O   UNL A   1      32.236  31.854  27.069  1.00  0.00    -0.246 OA
BRANCH  25  27
ATOM     27  C   UNL A   1      34.374  30.638  27.448  1.00  0.00     0.060 A 
ATOM     28  C   UNL A   1      35.352  31.631  27.810  1.00  0.00     0.016 A 
ATOM     29  C   UNL A   1      34.904  29.366  27.708  1.00  0.00     0.016 A 
ATOM     30  C   UNL A   1      36.593  31.487  28.423  1.00  0.00     0.010 A 
ATOM     31  C   UNL A   1      36.201  29.171  28.332  1.00  0.00     0.010 A 
ATOM     32  C   UNL A   1      37.023  30.239  28.741  1.00  0.00    -0.014 A 
BRANCH  32  33
ATOM     33  C   UNL A   1      38.324  30.156  29.441  1.00  0.00     0.031 A 
ATOM     34  C   UNL A   1      39.420  29.336  28.852  1.00  0.00     0.074 A 
ATOM     35  C   UNL A   1      38.587  30.917  30.525  1.00  0.00     0.049 A 
ATOM     36  N   UNL A   1      40.449  28.797  29.444  1.00  0.00    -0.248 NA
ATOM     37  C   UNL A   1      39.356  29.102  27.400  1.00  0.00     0.031 C 
ATOM     38  C   UNL A   1      37.747  32.003  31.042  1.00  0.00     0.029 A 
ATOM     39  N   UNL A   1      39.629  30.857  31.422  1.00  0.00    -0.354 N 
ATOM     40  C   UNL A   1      41.093  28.060  28.463  1.00  0.00     0.074 A 
ATOM     41  C   UNL A   1      40.388  28.288  27.220  1.00  0.00     0.031 C 
ATOM     42  C   UNL A   1      38.248  32.429  32.213  1.00  0.00     0.029 A 
ATOM     43  C   UNL A   1      39.380  31.581  32.566  1.00  0.00     0.049 A 
ATOM     44  H   UNL A   1      40.460  30.354  31.263  1.00  0.00     0.167 HD
ATOM     45  C   UNL A   1      42.144  27.226  28.631  1.00  0.00     0.037 A 
ATOM     46  C   UNL A   1      39.920  31.472  33.796  1.00  0.00     0.037 A 
ATOM     47  C   UNL A   1      42.830  27.070  29.887  1.00  0.00     0.049 A 
ATOM     48  C   UNL A   1      40.986  30.430  34.019  1.00  0.00     0.074 A 
ATOM     49  C   UNL A   1      43.895  26.245  30.197  1.00  0.00     0.029 A 
ATOM     50  N   UNL A   1      42.510  27.766  31.046  1.00  0.00    -0.354 N 
ATOM     51  N   UNL A   1      41.530  29.607  33.154  1.00  0.00    -0.248 NA
ATOM     52  C   UNL A   1      41.492  30.277  35.389  1.00  0.00     0.031 C 
ATOM     53  C   UNL A   1      44.178  26.396  31.558  1.00  0.00     0.029 A 
ATOM     54  C   UNL A   1      43.333  27.363  32.083  1.00  0.00     0.049 A 
ATOM     55  H   UNL A   1      41.802  28.446  31.119  1.00  0.00     0.167 HD
ATOM     56  C   UNL A   1      42.458  28.860  33.865  1.00  0.00     0.074 A 
ATOM     57  C   UNL A   1      42.412  29.335  35.233  1.00  0.00     0.031 C 
ATOM     58  C   UNL A   1      43.274  27.868  33.431  1.00  0.00     0.037 A 
BRANCH  45  59
ATOM     59  C   UNL A   1      42.531  26.343  27.487  1.00  0.00     0.064 A 
ATOM     60  C   UNL A   1      43.559  26.664  26.593  1.00  0.00     0.173 A 
ATOM     61  C   UNL A   1      41.863  25.120  27.309  1.00  0.00     0.173 A 
ATOM     62  F   UNL A   1      44.212  27.830  26.705  1.00  0.00    -0.203 F 
ATOM     63  C   UNL A   1      43.899  25.797  25.556  1.00  0.00     0.198 A 
ATOM     64  C   UNL A   1      42.224  24.244  26.290  1.00  0.00     0.198 A 
ATOM     65  F   UNL A   1      40.865  24.767  28.134  1.00  0.00    -0.203 F 
ATOM     66  F   UNL A   1      44.862  26.138  24.689  1.00  0.00    -0.200 F 
ATOM     67  C   UNL A   1      43.239  24.585  25.412  1.00  0.00     0.200 A 
ATOM     68  F   UNL A   1      41.590  23.069  26.162  1.00  0.00    -0.200 F 
ATOM     69  F   UNL A   1      43.578  23.748  24.422  1.00  0.00    -0.200 F 
ENDBRANCH  45  59
BRANCH  46  70
ATOM     70  C   UNL A   1      39.371  32.259  34.937  1.00  0.00     0.064 A 
ATOM     71  C   UNL A   1      39.718  33.603  35.126  1.00  0.00     0.173 A 
ATOM     72  C   UNL A   1      38.518  31.672  35.888  1.00  0.00     0.173 A 
ATOM     73  F   UNL A   1      40.556  34.202  34.267  1.00  0.00    -0.203 F 
ATOM     74  C   UNL A   1      39.252  34.322  36.226  1.00  0.00     0.198 A 
ATOM     75  C   UNL A   1      38.023  32.402  36.967  1.00  0.00     0.198 A 
ATOM     76  F   UNL A   1      38.158  30.385  35.769  1.00  0.00    -0.203 F 
ATOM     77  F   UNL A   1      39.646  35.589  36.409  1.00  0.00    -0.200 F 
ATOM     78  C   UNL A   1      38.399  33.724  37.142  1.00  0.00     0.200 A 
ATOM     79  F   UNL A   1      37.188  31.823  37.840  1.00  0.00    -0.200 F 
ATOM     80  F   UNL A   1      37.949  34.418  38.195  1.00  0.00    -0.200 F 
ENDBRANCH  46  70
BRANCH  58  81
ATOM     81  C   UNL A   1      44.216  27.265  34.430  1.00  0.00     0.064 A 
ATOM     82  C   UNL A   1      45.447  27.861  34.734  1.00  0.00     0.173 A 
ATOM     83  C   UNL A   1      43.848  26.109  35.136  1.00  0.00     0.173 A 
ATOM     84  F   UNL A   1      45.851  28.955  34.072  1.00  0.00    -0.203 F 
ATOM     85  C   UNL A   1      46.284  27.312  35.702  1.00  0.00     0.198 A 
ATOM     86  C   UNL A   1      44.672  25.584  36.126  1.00  0.00     0.198 A 
ATOM     87  F   UNL A   1      42.677  25.507  34.882  1.00  0.00    -0.203 F 
ATOM     88  F   UNL A   1      47.475  27.874  35.951  1.00  0.00    -0.200 F 
ATOM     89  C   UNL A   1      45.890  26.183  36.405  1.00  0.00     0.200 A 
ATOM     90  F   UNL A   1      44.283  24.501  36.814  1.00  0.00    -0.200 F 
ATOM     91  F   UNL A   1      46.690  25.668  37.349  1.00  0.00    -0.200 F 
ENDBRANCH  58  81
ENDBRANCH  32  33
ENDBRANCH  25  27
ENDBRANCH  24  25
ENDBRANCH  23  24
ENDBRANCH   1  23
TORSDOF 14
ENDMDL
MODEL 2
REMARK VINA RESULT:     -15.7      3.029      7.429
REMARK SMILES CC[C@@](C)(NC(=O)Nc1c(C)cccc1Cl)C(=O)OCCOC(=O)c1ccc(-c2c3nc(c(-c4c(F)c(F)c(F)c(F)c4F)c4ccc([nH]4)c(-c4c(F)c(F)c(F)c(F)c4F)c4nc(c(-c5c(F)c(F)c(F)c(F)c5F)c5ccc2[nH]5)C=C4)C=C3)cc1
REMARK SMILES IDX 20 1 19 2 17 3 18 4 3 5 4 6 2 7 1 8 5 9 6 10 7 12 8 13 9 15
REMARK SMILES IDX 10 16 15 17 11 18 12 19 14 20 16 21 13 22 21 23 22 24 23 25
REMARK SMILES IDX 24 26 25 27 26 28 87 29 27 30 86 31 28 32 29 33 30 34 80 35
REMARK SMILES IDX 31 36 85 37 79 38 81 39 32 40 84 41 78 42 77 43 33 45 65 46
REMARK SMILES IDX 45 47 64 48 46 49 49 50 63 51 82 52 47 53 48 54 62 56 83 57
REMARK SMILES IDX 50 58 34 59 35 60 43 61 36 62 37 63 41 64 44 65 38 66 39 67
REMARK SMILES IDX 42 68 40 69 66 70 67 71 75 72 68 73 69 74 73 75 76 76 70 77
REMARK SMILES IDX 71 78 74 79 72 80 51 81 52 82 60 83 53 84 54 85 58 86 61 87
REMARK SMILES IDX 55 88 56 89 59 90 57 91
REMARK H PARENT 5 11 8 14 81 44 49 55
REMARK Flexibility Score: inf
ROOT
ATOM      1  C   UNL A   1      35.595  19.943  25.001  1.00  0.00     0.274 C 
ENDROOT
BRANCH   1   2
ATOM      2  O   UNL A   1      34.131  20.721  25.004  1.00  0.00    -0.460 OA
BRANCH   2   3
ATOM      3  C   UNL A   1      32.974  21.298  25.642  1.00  0.00     0.331 C 
ATOM      4  O   UNL A   1      31.874  20.747  25.677  1.00  0.00    -0.249 OA
BRANCH   3   5
ATOM      5  C   UNL A   1      33.216  22.837  26.504  1.00  0.00     0.136 C 
ATOM      6  C   UNL A   1      34.433  22.775  27.431  1.00  0.00     0.047 C 
BRANCH   5   7
ATOM      7  C   UNL A   1      33.143  24.440  26.122  1.00  0.00     0.037 C 
ATOM      8  C   UNL A   1      34.307  25.304  25.685  1.00  0.00     0.007 C 
ENDBRANCH   5   7
BRANCH   5   9
ATOM      9  N   UNL A   1      32.028  22.690  27.268  1.00  0.00    -0.322 N 
ATOM     10  C   UNL A   1      30.926  23.110  26.649  1.00  0.00     0.320 C 
ATOM     11  H   UNL A   1      32.019  22.310  28.177  1.00  0.00     0.166 HD
ATOM     12  O   UNL A   1      29.852  23.122  27.227  1.00  0.00    -0.248 OA
ATOM     13  N   UNL A   1      31.013  23.568  25.368  1.00  0.00    -0.306 N 
ATOM     14  H   UNL A   1      30.157  24.042  25.257  1.00  0.00     0.171 HD
BRANCH  13  15
ATOM     15  C   UNL A   1      31.656  23.763  24.043  1.00  0.00     0.064 A 
ATOM     16  C   UNL A   1      32.373  23.107  22.954  1.00  0.00    -0.026 A 
ATOM     17  C   UNL A   1      31.215  24.994  23.654  1.00  0.00     0.064 A 
ATOM     18  C   UNL A   1      32.135  21.783  22.188  1.00  0.00     0.046 C 
ATOM     19  C   UNL A   1      33.106  23.869  21.989  1.00  0.00     0.005 A 
ATOM     20  C   UNL A   1      31.725  25.671  22.484  1.00  0.00     0.023 A 
ATOM     21  Cl  UNL A   1      29.742  25.627  24.948  1.00  0.00    -0.082 Cl
ATOM     22  C   UNL A   1      32.749  25.155  21.727  1.00  0.00     0.002 A 
ENDBRANCH  13  15
ENDBRANCH   5   9
ENDBRANCH   3   5
ENDBRANCH   2   3
ENDBRANCH   1   2
BRANCH   1  23
ATOM     23  C   UNL A   1      37.277  20.549  24.657  1.00  0.00     0.275 C 
BRANCH  23  24
ATOM     24  O   UNL A   1      38.445  21.737  25.192  1.00  0.00    -0.458 OA
BRANCH  24  25
ATOM     25  C   UNL A   1      39.492  22.431  25.978  1.00  0.00     0.338 C 
ATOM     26  O   UNL A   1      40.543  21.784  26.094  1.00  0.00    -0.246 OA
BRANCH  25  27
ATOM     27  C   UNL A   1      39.606  23.970  26.829  1.00  0.00     0.060 A 
ATOM     28  C   UNL A   1      38.968  24.451  28.027  1.00  0.00     0.016 A 
ATOM     29  C   UNL A   1      40.413  24.990  26.306  1.00  0.00     0.016 A 
ATOM     30  C   UNL A   1      39.128  25.653  28.708  1.00  0.00     0.010 A 
ATOM     31  C   UNL A   1      40.596  26.265  26.977  1.00  0.00     0.010 A 
ATOM     32  C   UNL A   1      39.993  26.575  28.212  1.00  0.00    -0.014 A 
BRANCH  32  33
ATOM     33  C   UNL A   1      40.162  27.808  29.011  1.00  0.00     0.031 A 
ATOM     34  C   UNL A   1      41.257  27.882  30.020  1.00  0.00     0.074 A 
ATOM     35  C   UNL A   1      39.437  28.917  28.750  1.00  0.00     0.049 A 
ATOM     36  N   UNL A   1      41.350  28.644  31.074  1.00  0.00    -0.248 NA
ATOM     37  C   UNL A   1      42.406  26.988  29.806  1.00  0.00     0.031 C 
ATOM     38  C   UNL A   1      38.553  29.120  27.598  1.00  0.00     0.029 A 
ATOM     39  N   UNL A   1      39.297  30.079  29.475  1.00  0.00    -0.354 N 
ATOM     40  C   UNL A   1      42.509  28.240  31.717  1.00  0.00     0.074 A 
ATOM     41  C   UNL A   1      43.130  27.226  30.893  1.00  0.00     0.031 C 
ATOM     42  C   UNL A   1      37.888  30.276  27.750  1.00  0.00     0.029 A 
ATOM     43  C   UNL A   1      38.229  30.837  29.051  1.00  0.00     0.049 A 
ATOM     44  H   UNL A   1      39.893  30.338  30.215  1.00  0.00     0.167 HD
ATOM     45  C   UNL A   1      42.956  28.658  32.923  1.00  0.00     0.037 A 
ATOM     46  C   UNL A   1      37.528  31.787  29.701  1.00  0.00     0.037 A 
ATOM     47  C   UNL A   1      42.316  29.701  33.681  1.00  0.00     0.049 A 
ATOM     48  C   UNL A   1      37.935  32.140  31.108  1.00  0.00     0.074 A 
ATOM     49  C   UNL A   1      42.656  30.204  34.923  1.00  0.00     0.029 A 
ATOM     50  N   UNL A   1      41.195  30.403  33.256  1.00  0.00    -0.354 N 
ATOM     51  N   UNL A   1      38.941  31.682  31.816  1.00  0.00    -0.248 NA
ATOM     52  C   UNL A   1      37.099  33.115  31.819  1.00  0.00     0.031 C 
ATOM     53  C   UNL A   1      41.704  31.167  35.275  1.00  0.00     0.029 A 
ATOM     54  C   UNL A   1      40.809  31.310  34.226  1.00  0.00     0.049 A 
ATOM     55  H   UNL A   1      40.743  30.274  32.390  1.00  0.00     0.167 HD
ATOM     56  C   UNL A   1      38.874  32.330  33.042  1.00  0.00     0.074 A 
ATOM     57  C   UNL A   1      37.735  33.222  32.977  1.00  0.00     0.031 C 
ATOM     58  C   UNL A   1      39.678  32.198  34.125  1.00  0.00     0.037 A 
BRANCH  45  59
ATOM     59  C   UNL A   1      44.100  27.918  33.544  1.00  0.00     0.064 A 
ATOM     60  C   UNL A   1      43.932  26.738  34.278  1.00  0.00     0.173 A 
ATOM     61  C   UNL A   1      45.407  28.398  33.361  1.00  0.00     0.173 A 
ATOM     62  F   UNL A   1      42.702  26.250  34.501  1.00  0.00    -0.203 F 
ATOM     63  C   UNL A   1      45.031  26.070  34.817  1.00  0.00     0.198 A 
ATOM     64  C   UNL A   1      46.504  27.714  33.875  1.00  0.00     0.198 A 
ATOM     65  F   UNL A   1      45.622  29.529  32.670  1.00  0.00    -0.203 F 
ATOM     66  F   UNL A   1      44.846  24.962  35.547  1.00  0.00    -0.200 F 
ATOM     67  C   UNL A   1      46.315  26.553  34.606  1.00  0.00     0.200 A 
ATOM     68  F   UNL A   1      47.743  28.179  33.660  1.00  0.00    -0.200 F 
ATOM     69  F   UNL A   1      47.369  25.901  35.113  1.00  0.00    -0.200 F 
ENDBRANCH  45  59
BRANCH  46  70
ATOM     70  C   UNL A   1      36.293  32.363  29.096  1.00  0.00     0.064 A 
ATOM     71  C   UNL A   1      36.192  33.732  28.815  1.00  0.00     0.173 A 
ATOM     72  C   UNL A   1      35.169  31.563  28.824  1.00  0.00     0.173 A 
ATOM     73  F   UNL A   1      37.222  34.545  29.087  1.00  0.00    -0.203 F 
ATOM     74  C   UNL A   1      35.016  34.280  28.304  1.00  0.00     0.198 A 
ATOM     75  C   UNL A   1      34.007  32.106  28.280  1.00  0.00     0.198 A 
ATOM     76  F   UNL A   1      35.199  30.247  29.082  1.00  0.00    -0.203 F 
ATOM     77  F   UNL A   1      34.932  35.601  28.098  1.00  0.00    -0.200 F 
ATOM     78  C   UNL A   1      33.927  33.466  28.030  1.00  0.00     0.200 A 
ATOM     79  F   UNL A   1      32.963  31.312  28.003  1.00  0.00    -0.200 F 
ATOM     80  F   UNL A   1      32.800  33.995  27.536  1.00  0.00    -0.200 F 
ENDBRANCH  46  70
BRANCH  58  81
ATOM     81  C   UNL A   1      39.387  33.072  35.308  1.00  0.00     0.064 A 
ATOM     82  C   UNL A   1      38.588  32.629  36.371  1.00  0.00     0.173 A 
ATOM     83  C   UNL A   1      39.970  34.345  35.404  1.00  0.00     0.173 A 
ATOM     84  F   UNL A   1      37.993  31.429  36.316  1.00  0.00    -0.203 F 
ATOM     85  C   UNL A   1      38.372  33.438  37.484  1.00  0.00     0.198 A 
ATOM     86  C   UNL A   1      39.779  35.135  36.534  1.00  0.00     0.198 A 
ATOM     87  F   UNL A   1      40.747  34.808  34.414  1.00  0.00    -0.203 F 
ATOM     88  F   UNL A   1      37.573  33.013  38.473  1.00  0.00    -0.200 F 
ATOM     89  C   UNL A   1      38.977  34.683  37.569  1.00  0.00     0.200 A 
ATOM     90  F   UNL A   1      40.378  36.331  36.620  1.00  0.00    -0.200 F 
ATOM     91  F   UNL A   1      38.783  35.451  38.650  1.00  0.00    -0.200 F 
ENDBRANCH  58  81
ENDBRANCH  32  33
ENDBRANCH  25  27
ENDBRANCH  24  25
ENDBRANCH  23  24
ENDBRANCH   1  23
TORSDOF 14
ENDMDL
MODEL 3
REMARK VINA RESULT:     -15.5      3.016      7.270
REMARK SMILES CC[C@@](C)(NC(=O)Nc1c(C)cccc1Cl)C(=O)OCCOC(=O)c1ccc(-c2c3nc(c(-c4c(F)c(F)c(F)c(F)c4F)c4ccc([nH]4)c(-c4c(F)c(F)c(F)c(F)c4F)c4nc(c(-c5c(F)c(F)c(F)c(F)c5F)c5ccc2[nH]5)C=C4)C=C3)cc1
REMARK SMILES IDX 20 1 19 2 17 3 18 4 3 5 4 6 2 7 1 8 5 9 6 10 7 12 8 13 9 15
REMARK SMILES IDX 10 16 15 17 11 18 12 19 14 20 16 21 13 22 21 23 22 24 23 25
REMARK SMILES IDX 24 26 25 27 26 28 87 29 27 30 86 31 28 32 29 33 30 34 80 35
REMARK SMILES IDX 31 36 85 37 79 38 81 39 32 40 84 41 78 42 77 43 33 45 65 46
REMARK SMILES IDX 45 47 64 48 46 49 49 50 63 51 82 52 47 53 48 54 62 56 83 57
REMARK SMILES IDX 50 58 34 59 35 60 43 61 36 62 37 63 41 64 44 65 38 66 39 67
REMARK SMILES IDX 42 68 40 69 66 70 67 71 75 72 68 73 69 74 73 75 76 76 70 77
REMARK SMILES IDX 71 78 74 79 72 80 51 81 52 82 60 83 53 84 54 85 58 86 61 87
REMARK SMILES IDX 55 88 56 89 59 90 57 91
REMARK H PARENT 5 11 8 14 81 44 49 55
REMARK Flexibility Score: inf
ROOT
ATOM      1  C   UNL A   1      35.590  19.609  24.913  1.00  0.00     0.274 C 
ENDROOT
BRANCH   1   2
ATOM      2  O   UNL A   1      34.061  20.246  24.961  1.00  0.00    -0.460 OA
BRANCH   2   3
ATOM      3  C   UNL A   1      32.981  20.974  25.580  1.00  0.00     0.331 C 
ATOM      4  O   UNL A   1      31.823  20.562  25.622  1.00  0.00    -0.249 OA
BRANCH   3   5
ATOM      5  C   UNL A   1      33.406  22.491  26.409  1.00  0.00     0.136 C 
ATOM      6  C   UNL A   1      34.666  22.329  27.265  1.00  0.00     0.047 C 
BRANCH   5   7
ATOM      7  C   UNL A   1      33.452  24.092  26.013  1.00  0.00     0.037 C 
ATOM      8  C   UNL A   1      34.680  24.867  25.584  1.00  0.00     0.007 C 
ENDBRANCH   5   7
BRANCH   5   9
ATOM      9  N   UNL A   1      32.257  22.454  27.241  1.00  0.00    -0.322 N 
ATOM     10  C   UNL A   1      31.165  22.981  26.688  1.00  0.00     0.320 C 
ATOM     11  H   UNL A   1      32.265  22.073  28.150  1.00  0.00     0.166 HD
ATOM     12  O   UNL A   1      30.134  23.092  27.328  1.00  0.00    -0.248 OA
ATOM     13  N   UNL A   1      31.221  23.435  25.404  1.00  0.00    -0.306 N 
ATOM     14  H   UNL A   1      30.409  23.989  25.344  1.00  0.00     0.171 HD
BRANCH  13  15
ATOM     15  C   UNL A   1      31.800  23.575  24.043  1.00  0.00     0.064 A 
ATOM     16  C   UNL A   1      32.424  22.864  22.931  1.00  0.00    -0.026 A 
ATOM     17  C   UNL A   1      31.402  24.820  23.654  1.00  0.00     0.064 A 
ATOM     18  C   UNL A   1      32.079  21.541  22.205  1.00  0.00     0.046 C 
ATOM     19  C   UNL A   1      33.142  23.571  21.914  1.00  0.00     0.005 A 
ATOM     20  C   UNL A   1      31.881  25.450  22.446  1.00  0.00     0.023 A 
ATOM     21  Cl  UNL A   1      30.034  25.549  25.011  1.00  0.00    -0.082 Cl
ATOM     22  C   UNL A   1      32.837  24.870  21.646  1.00  0.00     0.002 A 
ENDBRANCH  13  15
ENDBRANCH   5   9
ENDBRANCH   3   5
ENDBRANCH   2   3
ENDBRANCH   1   2
BRANCH   1  23
ATOM     23  C   UNL A   1      37.215  20.399  24.691  1.00  0.00     0.275 C 
BRANCH  23  24
ATOM     24  O   UNL A   1      38.215  21.686  25.327  1.00  0.00    -0.458 OA
BRANCH  24  25
ATOM     25  C   UNL A   1      39.323  22.418  25.985  1.00  0.00     0.338 C 
ATOM     26  O   UNL A   1      40.404  21.812  25.964  1.00  0.00    -0.246 OA
BRANCH  25  27
ATOM     27  C   UNL A   1      39.483  23.957  26.828  1.00  0.00     0.060 A 
ATOM     28  C   UNL A   1      38.913  24.436  28.061  1.00  0.00     0.016 A 
ATOM     29  C   UNL A   1      40.258  24.978  26.260  1.00  0.00     0.016 A 
ATOM     30  C   UNL A   1      39.110  25.639  28.732  1.00  0.00     0.010 A 
ATOM     31  C   UNL A   1      40.476  26.253  26.921  1.00  0.00     0.010 A 
ATOM     32  C   UNL A   1      39.944  26.561  28.188  1.00  0.00    -0.014 A 
BRANCH  32  33
ATOM     33  C   UNL A   1      40.156  27.795  28.977  1.00  0.00     0.031 A 
ATOM     34  C   UNL A   1      41.293  27.861  29.939  1.00  0.00     0.074 A 
ATOM     35  C   UNL A   1      39.429  28.909  28.745  1.00  0.00     0.049 A 
ATOM     36  N   UNL A   1      41.436  28.624  30.986  1.00  0.00    -0.248 NA
ATOM     37  C   UNL A   1      42.425  26.959  29.679  1.00  0.00     0.031 C 
ATOM     38  C   UNL A   1      38.499  29.117  27.630  1.00  0.00     0.029 A 
ATOM     39  N   UNL A   1      39.329  30.073  29.473  1.00  0.00    -0.354 N 
ATOM     40  C   UNL A   1      42.618  28.213  31.581  1.00  0.00     0.074 A 
ATOM     41  C   UNL A   1      43.196  27.193  30.733  1.00  0.00     0.031 C 
ATOM     42  C   UNL A   1      37.849  30.279  27.808  1.00  0.00     0.029 A 
ATOM     43  C   UNL A   1      38.250  30.839  29.093  1.00  0.00     0.049 A 
ATOM     44  H   UNL A   1      39.957  30.328  30.186  1.00  0.00     0.167 HD
ATOM     45  C   UNL A   1      43.119  28.629  32.766  1.00  0.00     0.037 A 
ATOM     46  C   UNL A   1      37.584  31.796  29.769  1.00  0.00     0.037 A 
ATOM     47  C   UNL A   1      42.519  29.678  33.549  1.00  0.00     0.049 A 
ATOM     48  C   UNL A   1      38.053  32.147  31.158  1.00  0.00     0.074 A 
ATOM     49  C   UNL A   1      42.915  30.181  34.774  1.00  0.00     0.029 A 
ATOM     50  N   UNL A   1      41.387  30.388  33.169  1.00  0.00    -0.354 N 
ATOM     51  N   UNL A   1      39.084  31.683  31.823  1.00  0.00    -0.248 NA
ATOM     52  C   UNL A   1      37.255  33.130  31.902  1.00  0.00     0.031 C 
ATOM     53  C   UNL A   1      41.987  31.152  35.164  1.00  0.00     0.029 A 
ATOM     54  C   UNL A   1      41.049  31.300  34.153  1.00  0.00     0.049 A 
ATOM     55  H   UNL A   1      40.898  30.262  32.324  1.00  0.00     0.167 HD
ATOM     56  C   UNL A   1      39.074  32.333  33.050  1.00  0.00     0.074 A 
ATOM     57  C   UNL A   1      37.940  33.234  33.031  1.00  0.00     0.031 C 
ATOM     58  C   UNL A   1      39.922  32.197  34.099  1.00  0.00     0.037 A 
BRANCH  45  59
ATOM     59  C   UNL A   1      44.282  27.881  33.339  1.00  0.00     0.064 A 
ATOM     60  C   UNL A   1      45.609  28.287  33.160  1.00  0.00     0.173 A 
ATOM     61  C   UNL A   1      44.044  26.738  34.121  1.00  0.00     0.173 A 
ATOM     62  F   UNL A   1      45.892  29.358  32.404  1.00  0.00    -0.203 F 
ATOM     63  C   UNL A   1      46.658  27.570  33.734  1.00  0.00     0.198 A 
ATOM     64  C   UNL A   1      45.090  26.042  34.716  1.00  0.00     0.198 A 
ATOM     65  F   UNL A   1      42.789  26.303  34.318  1.00  0.00    -0.203 F 
ATOM     66  F   UNL A   1      47.925  27.954  33.521  1.00  0.00    -0.200 F 
ATOM     67  C   UNL A   1      46.397  26.456  34.518  1.00  0.00     0.200 A 
ATOM     68  F   UNL A   1      44.832  24.972  35.482  1.00  0.00    -0.200 F 
ATOM     69  F   UNL A   1      47.407  25.778  35.080  1.00  0.00    -0.200 F 
ENDBRANCH  45  59
BRANCH  46  70
ATOM     70  C   UNL A   1      36.329  32.380  29.216  1.00  0.00     0.064 A 
ATOM     71  C   UNL A   1      35.212  31.579  28.947  1.00  0.00     0.173 A 
ATOM     72  C   UNL A   1      36.232  33.748  28.906  1.00  0.00     0.173 A 
ATOM     73  F   UNL A   1      35.262  30.261  29.193  1.00  0.00    -0.203 F 
ATOM     74  C   UNL A   1      34.059  32.114  28.376  1.00  0.00     0.198 A 
ATOM     75  C   UNL A   1      35.066  34.289  28.368  1.00  0.00     0.198 A 
ATOM     76  F   UNL A   1      37.272  34.565  29.130  1.00  0.00    -0.203 F 
ATOM     77  F   UNL A   1      33.027  31.312  28.079  1.00  0.00    -0.200 F 
ATOM     78  C   UNL A   1      33.983  33.470  28.093  1.00  0.00     0.200 A 
ATOM     79  F   UNL A   1      34.995  35.602  28.111  1.00  0.00    -0.200 F 
ATOM     80  F   UNL A   1      32.873  33.984  27.548  1.00  0.00    -0.200 F 
ENDBRANCH  46  70
BRANCH  58  81
ATOM     81  C   UNL A   1      39.687  33.075  35.291  1.00  0.00     0.064 A 
ATOM     82  C   UNL A   1      40.162  34.393  35.340  1.00  0.00     0.173 A 
ATOM     83  C   UNL A   1      38.922  32.607  36.370  1.00  0.00     0.173 A 
ATOM     84  F   UNL A   1      40.914  34.879  34.342  1.00  0.00    -0.203 F 
ATOM     85  C   UNL A   1      39.888  35.208  36.435  1.00  0.00     0.198 A 
ATOM     86  C   UNL A   1      38.623  33.436  37.447  1.00  0.00     0.198 A 
ATOM     87  F   UNL A   1      38.442  31.354  36.365  1.00  0.00    -0.203 F 
ATOM     88  F   UNL A   1      40.384  36.452  36.482  1.00  0.00    -0.200 F 
ATOM     89  C   UNL A   1      39.110  34.732  37.481  1.00  0.00     0.200 A 
ATOM     90  F   UNL A   1      37.858  32.979  38.448  1.00  0.00    -0.200 F 
ATOM     91  F   UNL A   1      38.833  35.525  38.525  1.00  0.00    -0.200 F 
ENDBRANCH  58  81
ENDBRANCH  32  33
ENDBRANCH  25  27
ENDBRANCH  24  25
ENDBRANCH  23  24
ENDBRANCH   1  23
TORSDOF 14
ENDMDL
