MODEL 1
REMARK VINA RESULT:     -11.9      0.000      0.000
REMARK SMILES CC(C)=CC(=O)Nc1ccc(C(=O)OCCOC(=O)c2ccc(-c3c4nc(c(-c5c(F)c(F)c(F)c(F)c5F)c5ccc([nH]5)c(-c5c(F)c(F)c(F)c(F)c5F)c5nc(c(-c6c(F)c(F)c(F)c(F)c6F)c6ccc3[nH]6)C=C5)C=C4)cc2)cc1
REMARK SMILES IDX 15 1 14 2 12 3 13 4 11 5 8 6 9 7 84 8 10 9 83 10 7 11 5 12
REMARK SMILES IDX 6 13 4 15 1 16 2 17 3 18 16 19 17 20 18 21 19 22 20 23 21 24
REMARK SMILES IDX 82 25 22 26 81 27 23 28 24 29 25 30 75 31 26 32 80 33 74 34
REMARK SMILES IDX 76 35 27 36 79 37 73 38 72 39 28 41 60 42 40 43 59 44 41 45
REMARK SMILES IDX 44 46 58 47 77 48 42 49 43 50 57 52 78 53 45 54 29 55 30 56
REMARK SMILES IDX 38 57 31 58 32 59 36 60 39 61 33 62 34 63 37 64 35 65 61 66
REMARK SMILES IDX 62 67 70 68 63 69 64 70 68 71 71 72 65 73 66 74 69 75 67 76
REMARK SMILES IDX 46 77 47 78 55 79 48 80 49 81 53 82 56 83 50 84 51 85 54 86
REMARK SMILES IDX 52 87
REMARK H PARENT 7 14 76 40 44 51
REMARK Flexibility Score: inf
ROOT
ATOM      1  C   UNL A   1      31.400  29.191  24.659  1.00  0.00     0.275 C 
ENDROOT
BRANCH   1   2
ATOM      2  O   UNL A   1      31.132  27.905  25.253  1.00  0.00    -0.458 OA
BRANCH   2   3
ATOM      3  C   UNL A   1      32.148  27.014  25.165  1.00  0.00     0.338 C 
ATOM      4  O   UNL A   1      33.326  27.267  24.965  1.00  0.00    -0.246 OA
BRANCH   3   5
ATOM      5  C   UNL A   1      31.672  25.632  25.386  1.00  0.00     0.060 A 
ATOM      6  C   UNL A   1      31.306  22.887  25.645  1.00  0.00     0.041 A 
ATOM      7  C   UNL A   1      31.854  23.603  26.704  1.00  0.00     0.027 A 
ATOM      8  C   UNL A   1      30.783  23.564  24.536  1.00  0.00     0.027 A 
ATOM      9  C   UNL A   1      32.090  24.964  26.546  1.00  0.00     0.018 A 
ATOM     10  C   UNL A   1      30.957  24.944  24.407  1.00  0.00     0.018 A 
BRANCH   6  11
ATOM     11  N   UNL A   1      31.443  21.494  25.693  1.00  0.00    -0.323 N 
ATOM     12  C   UNL A   1      32.388  20.712  25.084  1.00  0.00     0.248 C 
ATOM     13  O   UNL A   1      32.340  19.487  25.182  1.00  0.00    -0.270 OA
ATOM     14  H   UNL A   1      30.774  21.016  26.234  1.00  0.00     0.170 HD
BRANCH  12  15
ATOM     15  C   UNL A   1      33.502  21.337  24.323  1.00  0.00     0.070 C 
ATOM     16  C   UNL A   1      35.087  21.763  26.268  1.00  0.00     0.039 C 
ATOM     17  C   UNL A   1      34.662  21.813  24.824  1.00  0.00    -0.071 C 
ATOM     18  C   UNL A   1      35.667  22.472  23.918  1.00  0.00     0.039 C 
ENDBRANCH  12  15
ENDBRANCH   6  11
ENDBRANCH   3   5
ENDBRANCH   2   3
ENDBRANCH   1   2
BRANCH   1  19
ATOM     19  C   UNL A   1      31.580  30.254  25.742  1.00  0.00     0.275 C 
BRANCH  19  20
ATOM     20  O   UNL A   1      32.982  30.447  26.011  1.00  0.00    -0.458 OA
BRANCH  20  21
ATOM     21  C   UNL A   1      33.287  31.361  26.956  1.00  0.00     0.338 C 
ATOM     22  O   UNL A   1      32.611  32.317  27.311  1.00  0.00    -0.246 OA
BRANCH  21  23
ATOM     23  C   UNL A   1      34.605  31.062  27.546  1.00  0.00     0.060 A 
ATOM     24  C   UNL A   1      34.946  29.755  27.884  1.00  0.00     0.016 A 
ATOM     25  C   UNL A   1      35.470  32.106  27.872  1.00  0.00     0.016 A 
ATOM     26  C   UNL A   1      36.089  29.494  28.639  1.00  0.00     0.010 A 
ATOM     27  C   UNL A   1      36.676  31.829  28.525  1.00  0.00     0.010 A 
ATOM     28  C   UNL A   1      36.986  30.525  28.952  1.00  0.00    -0.014 A 
BRANCH  28  29
ATOM     29  C   UNL A   1      38.225  30.257  29.740  1.00  0.00     0.031 A 
ATOM     30  C   UNL A   1      39.319  29.399  29.159  1.00  0.00     0.074 A 
ATOM     31  C   UNL A   1      38.382  30.764  30.980  1.00  0.00     0.049 A 
ATOM     32  N   UNL A   1      40.342  28.839  29.756  1.00  0.00    -0.248 NA
ATOM     33  C   UNL A   1      39.243  29.120  27.716  1.00  0.00     0.031 C 
ATOM     34  C   UNL A   1      37.443  31.655  31.662  1.00  0.00     0.029 A 
ATOM     35  N   UNL A   1      39.399  30.599  31.891  1.00  0.00    -0.354 N 
ATOM     36  C   UNL A   1      40.983  28.084  28.782  1.00  0.00     0.074 A 
ATOM     37  C   UNL A   1      40.244  28.268  27.550  1.00  0.00     0.031 C 
ATOM     38  C   UNL A   1      37.942  31.989  32.861  1.00  0.00     0.029 A 
ATOM     39  C   UNL A   1      39.185  31.257  33.079  1.00  0.00     0.049 A 
ATOM     40  H   UNL A   1      40.204  30.062  31.710  1.00  0.00     0.167 HD
ATOM     41  C   UNL A   1      42.082  27.303  28.907  1.00  0.00     0.037 A 
ATOM     42  C   UNL A   1      39.874  31.234  34.235  1.00  0.00     0.037 A 
ATOM     43  C   UNL A   1      42.861  27.180  30.112  1.00  0.00     0.049 A 
ATOM     44  C   UNL A   1      41.080  30.347  34.358  1.00  0.00     0.074 A 
ATOM     45  C   UNL A   1      44.007  26.433  30.328  1.00  0.00     0.029 A 
ATOM     46  N   UNL A   1      42.586  27.842  31.298  1.00  0.00    -0.354 N 
ATOM     47  N   UNL A   1      41.628  29.569  33.457  1.00  0.00    -0.248 NA
ATOM     48  C   UNL A   1      41.742  30.309  35.670  1.00  0.00     0.031 C 
ATOM     49  C   UNL A   1      44.410  26.623  31.655  1.00  0.00     0.029 A 
ATOM     50  C   UNL A   1      43.535  27.512  32.254  1.00  0.00     0.049 A 
ATOM     51  H   UNL A   1      41.829  28.454  31.441  1.00  0.00     0.167 HD
ATOM     52  C   UNL A   1      42.693  28.946  34.092  1.00  0.00     0.074 A 
ATOM     53  C   UNL A   1      42.734  29.457  35.446  1.00  0.00     0.031 C 
ATOM     54  C   UNL A   1      43.555  28.026  33.598  1.00  0.00     0.037 A 
BRANCH  41  55
ATOM     55  C   UNL A   1      42.495  26.484  27.719  1.00  0.00     0.064 A 
ATOM     56  C   UNL A   1      43.466  26.928  26.811  1.00  0.00     0.173 A 
ATOM     57  C   UNL A   1      41.938  25.212  27.517  1.00  0.00     0.173 A 
ATOM     58  F   UNL A   1      44.018  28.143  26.953  1.00  0.00    -0.203 F 
ATOM     59  C   UNL A   1      43.849  26.137  25.731  1.00  0.00     0.198 A 
ATOM     60  C   UNL A   1      42.341  24.413  26.450  1.00  0.00     0.198 A 
ATOM     61  F   UNL A   1      41.009  24.739  28.361  1.00  0.00    -0.203 F 
ATOM     62  F   UNL A   1      44.752  26.595  24.853  1.00  0.00    -0.200 F 
ATOM     63  C   UNL A   1      43.292  24.878  25.556  1.00  0.00     0.200 A 
ATOM     64  F   UNL A   1      41.809  23.194  26.290  1.00  0.00    -0.200 F 
ATOM     65  F   UNL A   1      43.668  24.115  24.520  1.00  0.00    -0.200 F 
ENDBRANCH  41  55
BRANCH  42  66
ATOM     66  C   UNL A   1      39.401  32.040  35.391  1.00  0.00     0.064 A 
ATOM     67  C   UNL A   1      39.800  33.373  35.550  1.00  0.00     0.173 A 
ATOM     68  C   UNL A   1      38.531  31.497  36.348  1.00  0.00     0.173 A 
ATOM     69  F   UNL A   1      40.654  33.925  34.675  1.00  0.00    -0.203 F 
ATOM     70  C   UNL A   1      39.347  34.134  36.625  1.00  0.00     0.198 A 
ATOM     71  C   UNL A   1      38.057  32.268  37.408  1.00  0.00     0.198 A 
ATOM     72  F   UNL A   1      38.125  30.224  36.242  1.00  0.00    -0.203 F 
ATOM     73  F   UNL A   1      39.768  35.398  36.774  1.00  0.00    -0.200 F 
ATOM     74  C   UNL A   1      38.468  33.584  37.548  1.00  0.00     0.200 A 
ATOM     75  F   UNL A   1      37.198  31.736  38.288  1.00  0.00    -0.200 F 
ATOM     76  F   UNL A   1      38.023  34.321  38.574  1.00  0.00    -0.200 F 
ENDBRANCH  42  66
BRANCH  54  77
ATOM     77  C   UNL A   1      44.615  27.518  34.526  1.00  0.00     0.064 A 
ATOM     78  C   UNL A   1      45.822  28.211  34.702  1.00  0.00     0.173 A 
ATOM     79  C   UNL A   1      44.413  26.345  35.269  1.00  0.00     0.173 A 
ATOM     80  F   UNL A   1      46.066  29.327  33.999  1.00  0.00    -0.203 F 
ATOM     81  C   UNL A   1      46.796  27.738  35.575  1.00  0.00     0.198 A 
ATOM     82  C   UNL A   1      45.381  25.887  36.157  1.00  0.00     0.198 A 
ATOM     83  F   UNL A   1      43.274  25.650  35.136  1.00  0.00    -0.203 F 
ATOM     84  F   UNL A   1      47.958  28.395  35.700  1.00  0.00    -0.200 F 
ATOM     85  C   UNL A   1      46.574  26.580  36.305  1.00  0.00     0.200 A 
ATOM     86  F   UNL A   1      45.163  24.771  36.867  1.00  0.00    -0.200 F 
ATOM     87  F   UNL A   1      47.513  26.127  37.147  1.00  0.00    -0.200 F 
ENDBRANCH  54  77
ENDBRANCH  28  29
ENDBRANCH  21  23
ENDBRANCH  20  21
ENDBRANCH  19  20
ENDBRANCH   1  19
TORSDOF 13
ENDMDL
MODEL 2
REMARK VINA RESULT:     -11.8      1.178      2.094
REMARK SMILES CC(C)=CC(=O)Nc1ccc(C(=O)OCCOC(=O)c2ccc(-c3c4nc(c(-c5c(F)c(F)c(F)c(F)c5F)c5ccc([nH]5)c(-c5c(F)c(F)c(F)c(F)c5F)c5nc(c(-c6c(F)c(F)c(F)c(F)c6F)c6ccc3[nH]6)C=C5)C=C4)cc2)cc1
REMARK SMILES IDX 15 1 14 2 12 3 13 4 11 5 8 6 9 7 84 8 10 9 83 10 7 11 5 12
REMARK SMILES IDX 6 13 4 15 1 16 2 17 3 18 16 19 17 20 18 21 19 22 20 23 21 24
REMARK SMILES IDX 82 25 22 26 81 27 23 28 24 29 25 30 75 31 26 32 80 33 74 34
REMARK SMILES IDX 76 35 27 36 79 37 73 38 72 39 28 41 60 42 40 43 59 44 41 45
REMARK SMILES IDX 44 46 58 47 77 48 42 49 43 50 57 52 78 53 45 54 29 55 30 56
REMARK SMILES IDX 38 57 31 58 32 59 36 60 39 61 33 62 34 63 37 64 35 65 61 66
REMARK SMILES IDX 62 67 70 68 63 69 64 70 68 71 71 72 65 73 66 74 69 75 67 76
REMARK SMILES IDX 46 77 47 78 55 79 48 80 49 81 53 82 56 83 50 84 51 85 54 86
REMARK SMILES IDX 52 87
REMARK H PARENT 7 14 76 40 44 51
REMARK Flexibility Score: inf
ROOT
ATOM      1  C   UNL A   1      31.226  29.616  24.519  1.00  0.00     0.275 C 
ENDROOT
BRANCH   1   2
ATOM      2  O   UNL A   1      30.045  29.993  23.784  1.00  0.00    -0.458 OA
BRANCH   2   3
ATOM      3  C   UNL A   1      29.896  29.373  22.589  1.00  0.00     0.338 C 
ATOM      4  O   UNL A   1      29.766  29.907  21.499  1.00  0.00    -0.246 OA
BRANCH   3   5
ATOM      5  C   UNL A   1      29.949  27.903  22.737  1.00  0.00     0.060 A 
ATOM      6  C   UNL A   1      30.281  25.255  23.521  1.00  0.00     0.041 A 
ATOM      7  C   UNL A   1      29.141  25.945  23.921  1.00  0.00     0.027 A 
ATOM      8  C   UNL A   1      31.159  25.828  22.593  1.00  0.00     0.027 A 
ATOM      9  C   UNL A   1      29.010  27.286  23.575  1.00  0.00     0.018 A 
ATOM     10  C   UNL A   1      30.990  27.155  22.189  1.00  0.00     0.018 A 
BRANCH   6  11
ATOM     11  N   UNL A   1      30.560  24.061  24.198  1.00  0.00    -0.323 N 
ATOM     12  C   UNL A   1      31.453  23.847  25.212  1.00  0.00     0.248 C 
ATOM     13  O   UNL A   1      31.621  22.717  25.669  1.00  0.00    -0.270 OA
ATOM     14  H   UNL A   1      30.045  23.273  23.906  1.00  0.00     0.170 HD
BRANCH  12  15
ATOM     15  C   UNL A   1      32.212  24.985  25.796  1.00  0.00     0.070 C 
ATOM     16  C   UNL A   1      34.213  24.939  24.223  1.00  0.00     0.039 C 
ATOM     17  C   UNL A   1      33.413  25.452  25.391  1.00  0.00    -0.071 C 
ATOM     18  C   UNL A   1      34.077  26.583  26.131  1.00  0.00     0.039 C 
ENDBRANCH  12  15
ENDBRANCH   6  11
ENDBRANCH   3   5
ENDBRANCH   2   3
ENDBRANCH   1   2
BRANCH   1  19
ATOM     19  C   UNL A   1      31.396  30.503  25.751  1.00  0.00     0.275 C 
BRANCH  19  20
ATOM     20  O   UNL A   1      32.766  30.467  26.196  1.00  0.00    -0.458 OA
BRANCH  20  21
ATOM     21  C   UNL A   1      33.153  31.467  27.015  1.00  0.00     0.338 C 
ATOM     22  O   UNL A   1      32.552  32.506  27.255  1.00  0.00    -0.246 OA
BRANCH  21  23
ATOM     23  C   UNL A   1      34.459  31.151  27.623  1.00  0.00     0.060 A 
ATOM     24  C   UNL A   1      34.785  29.836  27.947  1.00  0.00     0.016 A 
ATOM     25  C   UNL A   1      35.324  32.184  27.980  1.00  0.00     0.016 A 
ATOM     26  C   UNL A   1      35.912  29.556  28.718  1.00  0.00     0.010 A 
ATOM     27  C   UNL A   1      36.517  31.889  28.650  1.00  0.00     0.010 A 
ATOM     28  C   UNL A   1      36.811  30.575  29.062  1.00  0.00    -0.014 A 
BRANCH  28  29
ATOM     29  C   UNL A   1      38.034  30.287  29.867  1.00  0.00     0.031 A 
ATOM     30  C   UNL A   1      39.137  29.438  29.288  1.00  0.00     0.074 A 
ATOM     31  C   UNL A   1      38.169  30.768  31.120  1.00  0.00     0.049 A 
ATOM     32  N   UNL A   1      40.147  28.863  29.892  1.00  0.00    -0.248 NA
ATOM     33  C   UNL A   1      39.086  29.191  27.838  1.00  0.00     0.031 C 
ATOM     34  C   UNL A   1      37.220  31.646  31.804  1.00  0.00     0.029 A 
ATOM     35  N   UNL A   1      39.168  30.580  32.047  1.00  0.00    -0.354 N 
ATOM     36  C   UNL A   1      40.804  28.127  28.914  1.00  0.00     0.074 A 
ATOM     37  C   UNL A   1      40.089  28.339  27.673  1.00  0.00     0.031 C 
ATOM     38  C   UNL A   1      37.697  31.954  33.018  1.00  0.00     0.029 A 
ATOM     39  C   UNL A   1      38.934  31.213  33.243  1.00  0.00     0.049 A 
ATOM     40  H   UNL A   1      39.975  30.044  31.869  1.00  0.00     0.167 HD
ATOM     41  C   UNL A   1      41.899  27.340  29.043  1.00  0.00     0.037 A 
ATOM     42  C   UNL A   1      39.602  31.164  34.412  1.00  0.00     0.037 A 
ATOM     43  C   UNL A   1      42.655  27.189  30.260  1.00  0.00     0.049 A 
ATOM     44  C   UNL A   1      40.802  30.271  34.538  1.00  0.00     0.074 A 
ATOM     45  C   UNL A   1      43.794  26.435  30.481  1.00  0.00     0.029 A 
ATOM     46  N   UNL A   1      42.359  27.827  31.454  1.00  0.00    -0.354 N 
ATOM     47  N   UNL A   1      41.365  29.511  33.632  1.00  0.00    -0.248 NA
ATOM     48  C   UNL A   1      41.440  30.202  35.861  1.00  0.00     0.031 C 
ATOM     49  C   UNL A   1      44.173  26.595  31.819  1.00  0.00     0.029 A 
ATOM     50  C   UNL A   1      43.289  27.474  32.420  1.00  0.00     0.049 A 
ATOM     51  H   UNL A   1      41.601  28.438  31.596  1.00  0.00     0.167 HD
ATOM     52  C   UNL A   1      42.417  28.871  34.272  1.00  0.00     0.074 A 
ATOM     53  C   UNL A   1      42.433  29.353  35.638  1.00  0.00     0.031 C 
ATOM     54  C   UNL A   1      43.285  27.958  33.776  1.00  0.00     0.037 A 
BRANCH  41  55
ATOM     55  C   UNL A   1      42.332  26.546  27.846  1.00  0.00     0.064 A 
ATOM     56  C   UNL A   1      43.303  27.017  26.953  1.00  0.00     0.173 A 
ATOM     57  C   UNL A   1      41.793  25.269  27.620  1.00  0.00     0.173 A 
ATOM     58  F   UNL A   1      43.838  28.236  27.118  1.00  0.00    -0.203 F 
ATOM     59  C   UNL A   1      43.705  26.247  25.864  1.00  0.00     0.198 A 
ATOM     60  C   UNL A   1      42.215  24.493  26.544  1.00  0.00     0.198 A 
ATOM     61  F   UNL A   1      40.864  24.771  28.449  1.00  0.00    -0.203 F 
ATOM     62  F   UNL A   1      44.609  26.732  25.000  1.00  0.00    -0.200 F 
ATOM     63  C   UNL A   1      43.167  24.984  25.664  1.00  0.00     0.200 A 
ATOM     64  F   UNL A   1      41.701  23.269  26.361  1.00  0.00    -0.200 F 
ATOM     65  F   UNL A   1      43.561  24.243  24.620  1.00  0.00    -0.200 F 
ENDBRANCH  41  55
BRANCH  42  66
ATOM     66  C   UNL A   1      39.109  31.946  35.575  1.00  0.00     0.064 A 
ATOM     67  C   UNL A   1      38.287  31.355  36.544  1.00  0.00     0.173 A 
ATOM     68  C   UNL A   1      39.462  33.293  35.749  1.00  0.00     0.173 A 
ATOM     69  F   UNL A   1      37.900  30.079  36.404  1.00  0.00    -0.203 F 
ATOM     70  C   UNL A   1      37.835  32.083  37.642  1.00  0.00     0.198 A 
ATOM     71  C   UNL A   1      39.033  34.012  36.862  1.00  0.00     0.198 A 
ATOM     72  F   UNL A   1      40.243  33.904  34.846  1.00  0.00    -0.203 F 
ATOM     73  F   UNL A   1      37.024  31.505  38.538  1.00  0.00    -0.200 F 
ATOM     74  C   UNL A   1      38.217  33.408  37.806  1.00  0.00     0.200 A 
ATOM     75  F   UNL A   1      39.415  35.286  37.022  1.00  0.00    -0.200 F 
ATOM     76  F   UNL A   1      37.793  34.102  38.870  1.00  0.00    -0.200 F 
ENDBRANCH  42  66
BRANCH  54  77
ATOM     77  C   UNL A   1      44.327  27.428  34.712  1.00  0.00     0.064 A 
ATOM     78  C   UNL A   1      45.546  28.096  34.898  1.00  0.00     0.173 A 
ATOM     79  C   UNL A   1      44.094  26.259  35.452  1.00  0.00     0.173 A 
ATOM     80  F   UNL A   1      45.820  29.206  34.198  1.00  0.00    -0.203 F 
ATOM     81  C   UNL A   1      46.503  27.601  35.779  1.00  0.00     0.198 A 
ATOM     82  C   UNL A   1      45.044  25.780  36.348  1.00  0.00     0.198 A 
ATOM     83  F   UNL A   1      42.942  25.589  35.309  1.00  0.00    -0.203 F 
ATOM     84  F   UNL A   1      47.677  28.234  35.914  1.00  0.00    -0.200 F 
ATOM     85  C   UNL A   1      46.250  26.448  36.507  1.00  0.00     0.200 A 
ATOM     86  F   UNL A   1      44.796  24.669  37.055  1.00  0.00    -0.200 F 
ATOM     87  F   UNL A   1      47.172  25.975  37.356  1.00  0.00    -0.200 F 
ENDBRANCH  54  77
ENDBRANCH  28  29
ENDBRANCH  21  23
ENDBRANCH  20  21
ENDBRANCH  19  20
ENDBRANCH   1  19
TORSDOF 13
ENDMDL
MODEL 3
REMARK VINA RESULT:     -11.8      0.841      1.678
REMARK SMILES CC(C)=CC(=O)Nc1ccc(C(=O)OCCOC(=O)c2ccc(-c3c4nc(c(-c5c(F)c(F)c(F)c(F)c5F)c5ccc([nH]5)c(-c5c(F)c(F)c(F)c(F)c5F)c5nc(c(-c6c(F)c(F)c(F)c(F)c6F)c6ccc3[nH]6)C=C5)C=C4)cc2)cc1
REMARK SMILES IDX 15 1 14 2 12 3 13 4 11 5 8 6 9 7 84 8 10 9 83 10 7 11 5 12
REMARK SMILES IDX 6 13 4 15 1 16 2 17 3 18 16 19 17 20 18 21 19 22 20 23 21 24
REMARK SMILES IDX 82 25 22 26 81 27 23 28 24 29 25 30 75 31 26 32 80 33 74 34
REMARK SMILES IDX 76 35 27 36 79 37 73 38 72 39 28 41 60 42 40 43 59 44 41 45
REMARK SMILES IDX 44 46 58 47 77 48 42 49 43 50 57 52 78 53 45 54 29 55 30 56
REMARK SMILES IDX 38 57 31 58 32 59 36 60 39 61 33 62 34 63 37 64 35 65 61 66
REMARK SMILES IDX 62 67 70 68 63 69 64 70 68 71 71 72 65 73 66 74 69 75 67 76
REMARK SMILES IDX 46 77 47 78 55 79 48 80 49 81 53 82 56 83 50 84 51 85 54 86
REMARK SMILES IDX 52 87
REMARK H PARENT 7 14 76 40 44 51
REMARK Flexibility Score: inf
ROOT
ATOM      1  C   UNL A   1      31.259  29.369  24.449  1.00  0.00     0.275 C 
ENDROOT
BRANCH   1   2
ATOM      2  O   UNL A   1      31.953  28.123  24.242  1.00  0.00    -0.458 OA
BRANCH   2   3
ATOM      3  C   UNL A   1      31.327  27.033  24.749  1.00  0.00     0.338 C 
ATOM      4  O   UNL A   1      30.133  26.785  24.695  1.00  0.00    -0.246 OA
BRANCH   3   5
ATOM      5  C   UNL A   1      32.291  26.101  25.372  1.00  0.00     0.060 A 
ATOM      6  C   UNL A   1      34.087  24.084  26.039  1.00  0.00     0.041 A 
ATOM      7  C   UNL A   1      34.554  25.225  25.392  1.00  0.00     0.027 A 
ATOM      8  C   UNL A   1      32.768  24.032  26.504  1.00  0.00     0.027 A 
ATOM      9  C   UNL A   1      33.641  26.202  25.009  1.00  0.00     0.018 A 
ATOM     10  C   UNL A   1      31.864  25.047  26.179  1.00  0.00     0.018 A 
BRANCH   6  11
ATOM     11  N   UNL A   1      34.947  22.979  26.057  1.00  0.00    -0.323 N 
ATOM     12  C   UNL A   1      34.992  21.923  25.187  1.00  0.00     0.248 C 
ATOM     13  O   UNL A   1      35.778  20.996  25.372  1.00  0.00    -0.270 OA
ATOM     14  H   UNL A   1      35.605  22.960  26.790  1.00  0.00     0.170 HD
BRANCH  12  15
ATOM     15  C   UNL A   1      34.111  21.898  23.990  1.00  0.00     0.070 C 
ATOM     16  C   UNL A   1      32.154  20.621  24.999  1.00  0.00     0.039 C 
ATOM     17  C   UNL A   1      32.893  21.322  23.890  1.00  0.00    -0.071 C 
ATOM     18  C   UNL A   1      32.151  21.337  22.581  1.00  0.00     0.039 C 
ENDBRANCH  12  15
ENDBRANCH   6  11
ENDBRANCH   3   5
ENDBRANCH   2   3
ENDBRANCH   1   2
BRANCH   1  19
ATOM     19  C   UNL A   1      31.515  29.897  25.860  1.00  0.00     0.275 C 
BRANCH  19  20
ATOM     20  O   UNL A   1      32.914  30.196  26.026  1.00  0.00    -0.458 OA
BRANCH  20  21
ATOM     21  C   UNL A   1      33.215  31.152  26.931  1.00  0.00     0.338 C 
ATOM     22  O   UNL A   1      32.530  32.115  27.251  1.00  0.00    -0.246 OA
BRANCH  21  23
ATOM     23  C   UNL A   1      34.540  30.892  27.523  1.00  0.00     0.060 A 
ATOM     24  C   UNL A   1      34.981  29.584  27.716  1.00  0.00     0.016 A 
ATOM     25  C   UNL A   1      35.307  31.955  27.997  1.00  0.00     0.016 A 
ATOM     26  C   UNL A   1      36.124  29.328  28.472  1.00  0.00     0.010 A 
ATOM     27  C   UNL A   1      36.517  31.700  28.652  1.00  0.00     0.010 A 
ATOM     28  C   UNL A   1      36.925  30.382  28.932  1.00  0.00    -0.014 A 
BRANCH  28  29
ATOM     29  C   UNL A   1      38.164  30.123  29.723  1.00  0.00     0.031 A 
ATOM     30  C   UNL A   1      39.263  29.267  29.146  1.00  0.00     0.074 A 
ATOM     31  C   UNL A   1      38.317  30.635  30.962  1.00  0.00     0.049 A 
ATOM     32  N   UNL A   1      40.287  28.714  29.746  1.00  0.00    -0.248 NA
ATOM     33  C   UNL A   1      39.189  28.984  27.704  1.00  0.00     0.031 C 
ATOM     34  C   UNL A   1      37.374  31.524  31.639  1.00  0.00     0.029 A 
ATOM     35  N   UNL A   1      39.334  30.477  31.875  1.00  0.00    -0.354 N 
ATOM     36  C   UNL A   1      40.933  27.958  28.775  1.00  0.00     0.074 A 
ATOM     37  C   UNL A   1      40.195  28.135  27.542  1.00  0.00     0.031 C 
ATOM     38  C   UNL A   1      37.870  31.864  32.838  1.00  0.00     0.029 A 
ATOM     39  C   UNL A   1      39.116  31.138  33.059  1.00  0.00     0.049 A 
ATOM     40  H   UNL A   1      40.141  29.942  31.696  1.00  0.00     0.167 HD
ATOM     41  C   UNL A   1      42.035  27.182  28.904  1.00  0.00     0.037 A 
ATOM     42  C   UNL A   1      39.804  31.122  34.217  1.00  0.00     0.037 A 
ATOM     43  C   UNL A   1      42.813  27.067  30.111  1.00  0.00     0.049 A 
ATOM     44  C   UNL A   1      41.013  30.241  34.344  1.00  0.00     0.074 A 
ATOM     45  C   UNL A   1      43.962  26.326  30.331  1.00  0.00     0.029 A 
ATOM     46  N   UNL A   1      42.534  27.732  31.295  1.00  0.00    -0.354 N 
ATOM     47  N   UNL A   1      41.566  29.462  33.447  1.00  0.00    -0.248 NA
ATOM     48  C   UNL A   1      41.674  30.209  35.657  1.00  0.00     0.031 C 
ATOM     49  C   UNL A   1      44.363  26.522  31.657  1.00  0.00     0.029 A 
ATOM     50  C   UNL A   1      43.483  27.409  32.252  1.00  0.00     0.049 A 
ATOM     51  H   UNL A   1      41.774  28.341  31.435  1.00  0.00     0.167 HD
ATOM     52  C   UNL A   1      42.633  28.846  34.084  1.00  0.00     0.074 A 
ATOM     53  C   UNL A   1      42.669  29.362  35.437  1.00  0.00     0.031 C 
ATOM     54  C   UNL A   1      43.499  27.927  33.595  1.00  0.00     0.037 A 
BRANCH  41  55
ATOM     55  C   UNL A   1      42.453  26.362  27.720  1.00  0.00     0.064 A 
ATOM     56  C   UNL A   1      43.427  26.804  26.815  1.00  0.00     0.173 A 
ATOM     57  C   UNL A   1      41.897  25.088  27.518  1.00  0.00     0.173 A 
ATOM     58  F   UNL A   1      43.978  28.019  26.957  1.00  0.00    -0.203 F 
ATOM     59  C   UNL A   1      43.815  26.011  25.738  1.00  0.00     0.198 A 
ATOM     60  C   UNL A   1      42.305  24.288  26.455  1.00  0.00     0.198 A 
ATOM     61  F   UNL A   1      40.965  24.617  28.360  1.00  0.00    -0.203 F 
ATOM     62  F   UNL A   1      44.721  26.468  24.863  1.00  0.00    -0.200 F 
ATOM     63  C   UNL A   1      43.259  24.751  25.563  1.00  0.00     0.200 A 
ATOM     64  F   UNL A   1      41.774  23.068  26.295  1.00  0.00    -0.200 F 
ATOM     65  F   UNL A   1      43.640  23.986  24.530  1.00  0.00    -0.200 F 
ENDBRANCH  41  55
BRANCH  42  66
ATOM     66  C   UNL A   1      39.326  31.930  35.369  1.00  0.00     0.064 A 
ATOM     67  C   UNL A   1      39.706  33.270  35.516  1.00  0.00     0.173 A 
ATOM     68  C   UNL A   1      38.469  31.382  36.336  1.00  0.00     0.173 A 
ATOM     69  F   UNL A   1      40.546  33.828  34.632  1.00  0.00    -0.203 F 
ATOM     70  C   UNL A   1      39.249  34.032  36.588  1.00  0.00     0.198 A 
ATOM     71  C   UNL A   1      37.990  32.153  37.392  1.00  0.00     0.198 A 
ATOM     72  F   UNL A   1      38.081  30.102  36.242  1.00  0.00    -0.203 F 
ATOM     73  F   UNL A   1      39.652  35.303  36.725  1.00  0.00    -0.200 F 
ATOM     74  C   UNL A   1      38.383  33.476  37.520  1.00  0.00     0.200 A 
ATOM     75  F   UNL A   1      37.145  31.615  38.282  1.00  0.00    -0.200 F 
ATOM     76  F   UNL A   1      37.933  34.214  38.543  1.00  0.00    -0.200 F 
ENDBRANCH  42  66
BRANCH  54  77
ATOM     77  C   UNL A   1      44.560  27.427  34.526  1.00  0.00     0.064 A 
ATOM     78  C   UNL A   1      44.368  26.271  35.297  1.00  0.00     0.173 A 
ATOM     79  C   UNL A   1      45.791  28.092  34.629  1.00  0.00     0.173 A 
ATOM     80  F   UNL A   1      43.200  25.613  35.245  1.00  0.00    -0.203 F 
ATOM     81  C   UNL A   1      45.364  25.808  36.150  1.00  0.00     0.198 A 
ATOM     82  C   UNL A   1      46.793  27.613  35.468  1.00  0.00     0.198 A 
ATOM     83  F   UNL A   1      46.022  29.200  33.911  1.00  0.00    -0.203 F 
ATOM     84  F   UNL A   1      45.146  24.722  36.906  1.00  0.00    -0.200 F 
ATOM     85  C   UNL A   1      46.577  26.475  36.232  1.00  0.00     0.200 A 
ATOM     86  F   UNL A   1      47.967  28.256  35.542  1.00  0.00    -0.200 F 
ATOM     87  F   UNL A   1      47.536  26.027  37.053  1.00  0.00    -0.200 F 
ENDBRANCH  54  77
ENDBRANCH  28  29
ENDBRANCH  21  23
ENDBRANCH  20  21
ENDBRANCH  19  20
ENDBRANCH   1  19
TORSDOF 13
ENDMDL
