MODEL 1
REMARK VINA RESULT:     -12.4      0.000      0.000
REMARK SMILES CCOC(=O)c1c(NC(=O)[C@@H]2[C@@H]3CC[C@@H](C3)[C@@H]2C(=O)OCCOC(=O)c2ccc(-c3c4nc(c(-c5c(F)c(F)c(F)c(F)c5F)c5ccc([nH]5)c(-c5c(F)c(F)c(F)c(F)c5F)c5nc(c(-c6c(F)c(F)c(F)c(F)c6F)c6ccc3[nH]6)C=C5)C=C4)cc2)sc2c1CCCC2
REMARK SMILES IDX 20 1 18 2 19 3 17 4 11 5 12 6 13 7 16 8 15 9 14 10 9 11 8 12
REMARK SMILES IDX 10 14 7 15 6 16 91 17 89 18 90 19 92 20 95 21 93 22 94 23
REMARK SMILES IDX 4 24 5 25 3 26 2 27 1 28 21 29 22 30 23 31 24 32 25 33 26 34
REMARK SMILES IDX 27 35 88 36 28 37 87 38 29 39 30 40 31 41 81 42 32 43 86 44
REMARK SMILES IDX 80 45 82 46 33 47 85 48 79 49 78 50 34 52 66 53 46 54 65 55
REMARK SMILES IDX 47 56 50 57 64 58 83 59 48 60 49 61 63 63 84 64 51 65 35 66
REMARK SMILES IDX 36 67 44 68 37 69 38 70 42 71 45 72 39 73 40 74 43 75 41 76
REMARK SMILES IDX 67 77 68 78 76 79 69 80 70 81 74 82 77 83 71 84 72 85 75 86
REMARK SMILES IDX 73 87 52 88 53 89 61 90 54 91 55 92 59 93 62 94 56 95 57 96
REMARK SMILES IDX 60 97 58 98
REMARK H PARENT 8 13 82 51 50 62
REMARK Flexibility Score: inf
ROOT
ATOM      1  O   UNL A   1      32.679  27.128  26.430  1.00  0.00    -0.462 OA
ENDROOT
BRANCH   1   2
ATOM      2  C   UNL A   1      32.400  25.805  26.380  1.00  0.00     0.310 C 
ATOM      3  O   UNL A   1      31.421  25.269  26.893  1.00  0.00    -0.252 OA
BRANCH   2   4
ATOM      4  C   UNL A   1      33.346  25.027  25.494  1.00  0.00     0.115 C 
ATOM      5  C   UNL A   1      32.717  24.053  24.471  1.00  0.00     0.096 C 
ATOM      6  C   UNL A   1      33.661  22.826  24.564  1.00  0.00     0.003 C 
ATOM      7  C   UNL A   1      33.478  22.063  25.889  1.00  0.00     0.005 C 
ATOM      8  C   UNL A   1      35.013  23.501  24.817  1.00  0.00     0.009 C 
ATOM      9  C   UNL A   1      34.518  24.220  26.085  1.00  0.00     0.004 C 
ATOM     10  C   UNL A   1      34.042  23.032  26.931  1.00  0.00     0.005 C 
BRANCH   5  11
ATOM     11  C   UNL A   1      31.267  23.686  24.653  1.00  0.00     0.229 C 
ATOM     12  N   UNL A   1      30.251  24.480  24.232  1.00  0.00    -0.317 N 
ATOM     13  H   UNL A   1      29.375  24.052  24.365  1.00  0.00     0.170 HD
ATOM     14  O   UNL A   1      30.952  22.595  25.142  1.00  0.00    -0.274 OA
BRANCH  12  15
ATOM     15  C   UNL A   1      30.129  25.728  23.664  1.00  0.00     0.110 A 
ATOM     16  C   UNL A   1      30.815  26.633  22.869  1.00  0.00     0.098 A 
ATOM     17  C   UNL A   1      30.037  27.845  22.666  1.00  0.00    -0.017 A 
ATOM     18  S   UNL A   1      28.587  26.348  24.134  1.00  0.00    -0.122 S 
ATOM     19  C   UNL A   1      28.802  27.781  23.269  1.00  0.00     0.011 A 
ATOM     20  C   UNL A   1      30.456  29.033  21.842  1.00  0.00     0.038 C 
ATOM     21  C   UNL A   1      27.753  28.849  23.210  1.00  0.00     0.047 C 
ATOM     22  C   UNL A   1      29.528  30.239  22.046  1.00  0.00     0.005 C 
ATOM     23  C   UNL A   1      28.051  29.821  22.059  1.00  0.00     0.006 C 
BRANCH  16  24
ATOM     24  C   UNL A   1      32.117  26.502  22.245  1.00  0.00     0.341 C 
ATOM     25  O   UNL A   1      32.276  26.036  21.126  1.00  0.00    -0.246 OA
BRANCH  24  26
ATOM     26  O   UNL A   1      33.093  27.083  22.998  1.00  0.00    -0.462 OA
BRANCH  26  27
ATOM     27  C   UNL A   1      33.971  27.994  22.319  1.00  0.00     0.230 C 
ATOM     28  C   UNL A   1      34.022  29.295  23.091  1.00  0.00     0.049 C 
ENDBRANCH  26  27
ENDBRANCH  24  26
ENDBRANCH  16  24
ENDBRANCH  12  15
ENDBRANCH   5  11
ENDBRANCH   2   4
ENDBRANCH   1   2
BRANCH   1  29
ATOM     29  C   UNL A   1      31.590  28.025  26.150  1.00  0.00     0.274 C 
BRANCH  29  30
ATOM     30  C   UNL A   1      31.792  29.363  26.865  1.00  0.00     0.275 C 
BRANCH  30  31
ATOM     31  O   UNL A   1      32.830  30.155  26.252  1.00  0.00    -0.458 OA
BRANCH  31  32
ATOM     32  C   UNL A   1      33.243  31.220  26.975  1.00  0.00     0.338 C 
ATOM     33  O   UNL A   1      32.628  32.245  27.212  1.00  0.00    -0.246 OA
BRANCH  32  34
ATOM     34  C   UNL A   1      34.571  30.957  27.547  1.00  0.00     0.060 A 
ATOM     35  C   UNL A   1      34.912  29.635  27.836  1.00  0.00     0.016 A 
ATOM     36  C   UNL A   1      35.417  32.005  27.914  1.00  0.00     0.016 A 
ATOM     37  C   UNL A   1      36.085  29.354  28.529  1.00  0.00     0.010 A 
ATOM     38  C   UNL A   1      36.606  31.719  28.596  1.00  0.00     0.010 A 
ATOM     39  C   UNL A   1      36.936  30.393  28.927  1.00  0.00    -0.014 A 
BRANCH  39  40
ATOM     40  C   UNL A   1      38.137  30.080  29.738  1.00  0.00     0.031 A 
ATOM     41  C   UNL A   1      39.218  29.204  29.173  1.00  0.00     0.074 A 
ATOM     42  C   UNL A   1      38.282  30.619  30.962  1.00  0.00     0.049 A 
ATOM     43  N   UNL A   1      40.300  28.745  29.751  1.00  0.00    -0.248 NA
ATOM     44  C   UNL A   1      39.065  28.793  27.768  1.00  0.00     0.031 C 
ATOM     45  C   UNL A   1      37.334  31.531  31.601  1.00  0.00     0.029 A 
ATOM     46  N   UNL A   1      39.289  30.481  31.885  1.00  0.00    -0.354 N 
ATOM     47  C   UNL A   1      40.936  27.965  28.796  1.00  0.00     0.074 A 
ATOM     48  C   UNL A   1      40.122  28.012  27.599  1.00  0.00     0.031 C 
ATOM     49  C   UNL A   1      37.808  31.881  32.807  1.00  0.00     0.029 A 
ATOM     50  C   UNL A   1      39.066  31.178  33.046  1.00  0.00     0.049 A 
ATOM     51  H   UNL A   1      40.092  29.934  31.729  1.00  0.00     0.167 HD
ATOM     52  C   UNL A   1      42.094  27.270  28.910  1.00  0.00     0.037 A 
ATOM     53  C   UNL A   1      39.782  31.222  34.185  1.00  0.00     0.037 A 
ATOM     54  C   UNL A   1      42.920  27.247  30.088  1.00  0.00     0.049 A 
ATOM     55  C   UNL A   1      41.043  30.413  34.298  1.00  0.00     0.074 A 
ATOM     56  C   UNL A   1      44.111  26.573  30.295  1.00  0.00     0.029 A 
ATOM     57  N   UNL A   1      42.643  27.938  31.258  1.00  0.00    -0.354 N 
ATOM     58  N   UNL A   1      41.616  29.644  33.405  1.00  0.00    -0.248 NA
ATOM     59  C   UNL A   1      41.752  30.468  35.586  1.00  0.00     0.031 C 
ATOM     60  C   UNL A   1      44.542  26.837  31.601  1.00  0.00     0.029 A 
ATOM     61  C   UNL A   1      43.635  27.699  32.195  1.00  0.00     0.049 A 
ATOM     62  H   UNL A   1      41.856  28.514  31.401  1.00  0.00     0.167 HD
ATOM     63  C   UNL A   1      42.750  29.128  34.016  1.00  0.00     0.074 A 
ATOM     64  C   UNL A   1      42.798  29.689  35.351  1.00  0.00     0.031 C 
ATOM     65  C   UNL A   1      43.665  28.262  33.518  1.00  0.00     0.037 A 
BRANCH  52  66
ATOM     66  C   UNL A   1      42.521  26.448  27.734  1.00  0.00     0.064 A 
ATOM     67  C   UNL A   1      43.438  26.931  26.789  1.00  0.00     0.173 A 
ATOM     68  C   UNL A   1      42.031  25.142  27.571  1.00  0.00     0.173 A 
ATOM     69  F   UNL A   1      43.921  28.178  26.896  1.00  0.00    -0.203 F 
ATOM     70  C   UNL A   1      43.837  26.142  25.714  1.00  0.00     0.198 A 
ATOM     71  C   UNL A   1      42.448  24.350  26.506  1.00  0.00     0.198 A 
ATOM     72  F   UNL A   1      41.154  24.636  28.450  1.00  0.00    -0.203 F 
ATOM     73  F   UNL A   1      44.690  26.634  24.805  1.00  0.00    -0.200 F 
ATOM     74  C   UNL A   1      43.347  24.851  25.576  1.00  0.00     0.200 A 
ATOM     75  F   UNL A   1      41.979  23.101  26.378  1.00  0.00    -0.200 F 
ATOM     76  F   UNL A   1      43.737  24.092  24.543  1.00  0.00    -0.200 F 
ENDBRANCH  52  66
BRANCH  53  77
ATOM     77  C   UNL A   1      39.303  32.044  35.324  1.00  0.00     0.064 A 
ATOM     78  C   UNL A   1      39.640  33.399  35.425  1.00  0.00     0.173 A 
ATOM     79  C   UNL A   1      38.500  31.489  36.331  1.00  0.00     0.173 A 
ATOM     80  F   UNL A   1      40.428  33.965  34.498  1.00  0.00    -0.203 F 
ATOM     81  C   UNL A   1      39.197  34.170  36.498  1.00  0.00     0.198 A 
ATOM     82  C   UNL A   1      38.039  32.266  37.391  1.00  0.00     0.198 A 
ATOM     83  F   UNL A   1      38.156  30.194  36.278  1.00  0.00    -0.203 F 
ATOM     84  F   UNL A   1      39.562  35.456  36.590  1.00  0.00    -0.200 F 
ATOM     85  C   UNL A   1      38.392  33.605  37.476  1.00  0.00     0.200 A 
ATOM     86  F   UNL A   1      37.256  31.718  38.329  1.00  0.00    -0.200 F 
ATOM     87  F   UNL A   1      37.964  34.347  38.505  1.00  0.00    -0.200 F 
ENDBRANCH  53  77
BRANCH  65  88
ATOM     88  C   UNL A   1      44.801  27.880  34.418  1.00  0.00     0.064 A 
ATOM     89  C   UNL A   1      44.724  26.753  35.248  1.00  0.00     0.173 A 
ATOM     90  C   UNL A   1      45.985  28.632  34.431  1.00  0.00     0.173 A 
ATOM     91  F   UNL A   1      43.605  26.014  35.280  1.00  0.00    -0.203 F 
ATOM     92  C   UNL A   1      45.789  26.402  36.075  1.00  0.00     0.198 A 
ATOM     93  C   UNL A   1      47.053  28.266  35.243  1.00  0.00     0.198 A 
ATOM     94  F   UNL A   1      46.105  29.717  33.652  1.00  0.00    -0.203 F 
ATOM     95  F   UNL A   1      45.681  25.342  36.889  1.00  0.00    -0.200 F 
ATOM     96  C   UNL A   1      46.952  27.156  36.068  1.00  0.00     0.200 A 
ATOM     97  F   UNL A   1      48.180  28.991  35.233  1.00  0.00    -0.200 F 
ATOM     98  F   UNL A   1      47.976  26.816  36.865  1.00  0.00    -0.200 F 
ENDBRANCH  65  88
ENDBRANCH  39  40
ENDBRANCH  32  34
ENDBRANCH  31  32
ENDBRANCH  30  31
ENDBRANCH  29  30
ENDBRANCH   1  29
TORSDOF 16
ENDMDL
MODEL 2
REMARK VINA RESULT:     -12.3      4.062      9.030
REMARK SMILES CCOC(=O)c1c(NC(=O)[C@@H]2[C@@H]3CC[C@@H](C3)[C@@H]2C(=O)OCCOC(=O)c2ccc(-c3c4nc(c(-c5c(F)c(F)c(F)c(F)c5F)c5ccc([nH]5)c(-c5c(F)c(F)c(F)c(F)c5F)c5nc(c(-c6c(F)c(F)c(F)c(F)c6F)c6ccc3[nH]6)C=C5)C=C4)cc2)sc2c1CCCC2
REMARK SMILES IDX 20 1 18 2 19 3 17 4 11 5 12 6 13 7 16 8 15 9 14 10 9 11 8 12
REMARK SMILES IDX 10 14 7 15 6 16 91 17 89 18 90 19 92 20 95 21 93 22 94 23
REMARK SMILES IDX 4 24 5 25 3 26 2 27 1 28 21 29 22 30 23 31 24 32 25 33 26 34
REMARK SMILES IDX 27 35 88 36 28 37 87 38 29 39 30 40 31 41 81 42 32 43 86 44
REMARK SMILES IDX 80 45 82 46 33 47 85 48 79 49 78 50 34 52 66 53 46 54 65 55
REMARK SMILES IDX 47 56 50 57 64 58 83 59 48 60 49 61 63 63 84 64 51 65 35 66
REMARK SMILES IDX 36 67 44 68 37 69 38 70 42 71 45 72 39 73 40 74 43 75 41 76
REMARK SMILES IDX 67 77 68 78 76 79 69 80 70 81 74 82 77 83 71 84 72 85 75 86
REMARK SMILES IDX 73 87 52 88 53 89 61 90 54 91 55 92 59 93 62 94 56 95 57 96
REMARK SMILES IDX 60 97 58 98
REMARK H PARENT 8 13 82 51 50 62
REMARK Flexibility Score: inf
ROOT
ATOM      1  O   UNL A   1      34.770  22.062  23.843  1.00  0.00    -0.462 OA
ENDROOT
BRANCH   1   2
ATOM      2  C   UNL A   1      33.895  23.015  23.450  1.00  0.00     0.310 C 
ATOM      3  O   UNL A   1      33.994  23.689  22.428  1.00  0.00    -0.252 OA
BRANCH   2   4
ATOM      4  C   UNL A   1      32.664  23.094  24.325  1.00  0.00     0.115 C 
ATOM      5  C   UNL A   1      32.501  24.355  25.204  1.00  0.00     0.096 C 
ATOM      6  C   UNL A   1      31.976  23.759  26.536  1.00  0.00     0.003 C 
ATOM      7  C   UNL A   1      33.073  22.982  27.288  1.00  0.00     0.005 C 
ATOM      8  C   UNL A   1      31.111  22.599  26.031  1.00  0.00     0.009 C 
ATOM      9  C   UNL A   1      32.278  21.942  25.273  1.00  0.00     0.004 C 
ATOM     10  C   UNL A   1      33.296  21.752  26.406  1.00  0.00     0.005 C 
BRANCH   5  11
ATOM     11  C   UNL A   1      33.708  25.235  25.399  1.00  0.00     0.229 C 
ATOM     12  N   UNL A   1      33.661  26.584  25.263  1.00  0.00    -0.317 N 
ATOM     13  H   UNL A   1      34.521  27.004  25.497  1.00  0.00     0.170 HD
ATOM     14  O   UNL A   1      34.787  24.751  25.761  1.00  0.00    -0.274 OA
BRANCH  12  15
ATOM     15  C   UNL A   1      32.723  27.518  24.884  1.00  0.00     0.110 A 
ATOM     16  C   UNL A   1      32.091  28.667  25.333  1.00  0.00     0.098 A 
ATOM     17  C   UNL A   1      31.131  29.152  24.354  1.00  0.00    -0.017 A 
ATOM     18  S   UNL A   1      32.159  27.062  23.318  1.00  0.00    -0.122 S 
ATOM     19  C   UNL A   1      31.117  28.385  23.212  1.00  0.00     0.011 A 
ATOM     20  C   UNL A   1      30.278  30.384  24.492  1.00  0.00     0.038 C 
ATOM     21  C   UNL A   1      30.271  28.646  22.004  1.00  0.00     0.047 C 
ATOM     22  C   UNL A   1      29.195  30.466  23.406  1.00  0.00     0.005 C 
ATOM     23  C   UNL A   1      29.749  30.091  22.025  1.00  0.00     0.006 C 
BRANCH  16  24
ATOM     24  C   UNL A   1      32.286  29.396  26.571  1.00  0.00     0.341 C 
ATOM     25  O   UNL A   1      31.728  29.094  27.617  1.00  0.00    -0.246 OA
BRANCH  24  26
ATOM     26  O   UNL A   1      33.255  30.345  26.446  1.00  0.00    -0.462 OA
BRANCH  26  27
ATOM     27  C   UNL A   1      34.029  30.633  27.620  1.00  0.00     0.230 C 
ATOM     28  C   UNL A   1      35.264  29.759  27.623  1.00  0.00     0.049 C 
ENDBRANCH  26  27
ENDBRANCH  24  26
ENDBRANCH  16  24
ENDBRANCH  12  15
ENDBRANCH   5  11
ENDBRANCH   2   4
ENDBRANCH   1   2
BRANCH   1  29
ATOM     29  C   UNL A   1      36.166  22.397  23.757  1.00  0.00     0.274 C 
BRANCH  29  30
ATOM     30  C   UNL A   1      37.025  21.311  24.410  1.00  0.00     0.275 C 
BRANCH  30  31
ATOM     31  O   UNL A   1      37.422  21.664  25.750  1.00  0.00    -0.458 OA
BRANCH  31  32
ATOM     32  C   UNL A   1      38.723  21.441  26.042  1.00  0.00     0.338 C 
ATOM     33  O   UNL A   1      39.371  20.429  25.840  1.00  0.00    -0.246 OA
BRANCH  32  34
ATOM     34  C   UNL A   1      39.331  22.660  26.594  1.00  0.00     0.060 A 
ATOM     35  C   UNL A   1      38.866  23.893  26.135  1.00  0.00     0.016 A 
ATOM     36  C   UNL A   1      40.431  22.590  27.452  1.00  0.00     0.016 A 
ATOM     37  C   UNL A   1      39.521  25.064  26.501  1.00  0.00     0.010 A 
ATOM     38  C   UNL A   1      41.078  23.772  27.833  1.00  0.00     0.010 A 
ATOM     39  C   UNL A   1      40.640  25.014  27.342  1.00  0.00    -0.014 A 
BRANCH  39  40
ATOM     40  C   UNL A   1      41.374  26.265  27.651  1.00  0.00     0.031 A 
ATOM     41  C   UNL A   1      40.717  27.340  28.468  1.00  0.00     0.074 A 
ATOM     42  C   UNL A   1      42.647  26.417  27.242  1.00  0.00     0.049 A 
ATOM     43  N   UNL A   1      41.156  28.535  28.772  1.00  0.00    -0.248 NA
ATOM     44  C   UNL A   1      39.389  27.028  29.020  1.00  0.00     0.031 C 
ATOM     45  C   UNL A   1      43.417  25.424  26.494  1.00  0.00     0.029 A 
ATOM     46  N   UNL A   1      43.518  27.466  27.405  1.00  0.00    -0.354 N 
ATOM     47  C   UNL A   1      40.149  29.129  29.519  1.00  0.00     0.074 A 
ATOM     48  C   UNL A   1      39.074  28.165  29.625  1.00  0.00     0.031 C 
ATOM     49  C   UNL A   1      44.651  25.906  26.271  1.00  0.00     0.029 A 
ATOM     50  C   UNL A   1      44.740  27.258  26.815  1.00  0.00     0.049 A 
ATOM     51  H   UNL A   1      43.287  28.287  27.896  1.00  0.00     0.167 HD
ATOM     52  C   UNL A   1      40.123  30.370  30.064  1.00  0.00     0.037 A 
ATOM     53  C   UNL A   1      45.801  28.078  26.703  1.00  0.00     0.037 A 
ATOM     54  C   UNL A   1      41.203  31.319  29.986  1.00  0.00     0.049 A 
ATOM     55  C   UNL A   1      45.733  29.462  27.286  1.00  0.00     0.074 A 
ATOM     56  C   UNL A   1      41.267  32.599  30.510  1.00  0.00     0.029 A 
ATOM     57  N   UNL A   1      42.412  31.085  29.350  1.00  0.00    -0.354 N 
ATOM     58  N   UNL A   1      44.760  30.031  27.953  1.00  0.00    -0.248 NA
ATOM     59  C   UNL A   1      46.909  30.323  27.085  1.00  0.00     0.031 C 
ATOM     60  C   UNL A   1      42.508  33.149  30.169  1.00  0.00     0.029 A 
ATOM     61  C   UNL A   1      43.227  32.201  29.459  1.00  0.00     0.049 A 
ATOM     62  H   UNL A   1      42.656  30.250  28.889  1.00  0.00     0.167 HD
ATOM     63  C   UNL A   1      45.203  31.310  28.257  1.00  0.00     0.074 A 
ATOM     64  C   UNL A   1      46.544  31.428  27.720  1.00  0.00     0.031 C 
ATOM     65  C   UNL A   1      44.555  32.301  28.916  1.00  0.00     0.037 A 
BRANCH  52  66
ATOM     66  C   UNL A   1      38.869  30.785  30.769  1.00  0.00     0.064 A 
ATOM     67  C   UNL A   1      38.714  30.628  32.153  1.00  0.00     0.173 A 
ATOM     68  C   UNL A   1      37.822  31.384  30.051  1.00  0.00     0.173 A 
ATOM     69  F   UNL A   1      39.682  30.047  32.878  1.00  0.00    -0.203 F 
ATOM     70  C   UNL A   1      37.547  31.040  32.792  1.00  0.00     0.198 A 
ATOM     71  C   UNL A   1      36.666  31.812  30.695  1.00  0.00     0.198 A 
ATOM     72  F   UNL A   1      37.925  31.557  28.725  1.00  0.00    -0.203 F 
ATOM     73  F   UNL A   1      37.405  30.851  34.111  1.00  0.00    -0.200 F 
ATOM     74  C   UNL A   1      36.527  31.637  32.064  1.00  0.00     0.200 A 
ATOM     75  F   UNL A   1      35.684  32.394  29.993  1.00  0.00    -0.200 F 
ATOM     76  F   UNL A   1      35.408  32.037  32.682  1.00  0.00    -0.200 F 
ENDBRANCH  52  66
BRANCH  53  77
ATOM     77  C   UNL A   1      47.014  27.617  25.982  1.00  0.00     0.064 A 
ATOM     78  C   UNL A   1      48.107  27.087  26.677  1.00  0.00     0.173 A 
ATOM     79  C   UNL A   1      47.099  27.699  24.584  1.00  0.00     0.173 A 
ATOM     80  F   UNL A   1      48.078  27.015  28.017  1.00  0.00    -0.203 F 
ATOM     81  C   UNL A   1      49.249  26.662  26.001  1.00  0.00     0.198 A 
ATOM     82  C   UNL A   1      48.232  27.252  23.908  1.00  0.00     0.198 A 
ATOM     83  F   UNL A   1      46.079  28.204  23.876  1.00  0.00    -0.203 F 
ATOM     84  F   UNL A   1      50.296  26.190  26.692  1.00  0.00    -0.200 F 
ATOM     85  C   UNL A   1      49.307  26.738  24.617  1.00  0.00     0.200 A 
ATOM     86  F   UNL A   1      48.282  27.321  22.571  1.00  0.00    -0.200 F 
ATOM     87  F   UNL A   1      50.404  26.325  23.968  1.00  0.00    -0.200 F 
ENDBRANCH  53  77
BRANCH  65  88
ATOM     88  C   UNL A   1      45.294  33.592  29.102  1.00  0.00     0.064 A 
ATOM     89  C   UNL A   1      45.186  34.632  28.168  1.00  0.00     0.173 A 
ATOM     90  C   UNL A   1      46.093  33.799  30.235  1.00  0.00     0.173 A 
ATOM     91  F   UNL A   1      44.446  34.472  27.062  1.00  0.00    -0.203 F 
ATOM     92  C   UNL A   1      45.871  35.831  28.354  1.00  0.00     0.198 A 
ATOM     93  C   UNL A   1      46.759  35.006  30.427  1.00  0.00     0.198 A 
ATOM     94  F   UNL A   1      46.224  32.833  31.156  1.00  0.00    -0.203 F 
ATOM     95  F   UNL A   1      45.785  36.799  27.431  1.00  0.00    -0.200 F 
ATOM     96  C   UNL A   1      46.652  36.017  29.485  1.00  0.00     0.200 A 
ATOM     97  F   UNL A   1      47.510  35.188  31.522  1.00  0.00    -0.200 F 
ATOM     98  F   UNL A   1      47.310  37.173  29.662  1.00  0.00    -0.200 F 
ENDBRANCH  65  88
ENDBRANCH  39  40
ENDBRANCH  32  34
ENDBRANCH  31  32
ENDBRANCH  30  31
ENDBRANCH  29  30
ENDBRANCH   1  29
TORSDOF 16
ENDMDL
MODEL 3
REMARK VINA RESULT:     -12.2      1.668      4.028
REMARK SMILES CCOC(=O)c1c(NC(=O)[C@@H]2[C@@H]3CC[C@@H](C3)[C@@H]2C(=O)OCCOC(=O)c2ccc(-c3c4nc(c(-c5c(F)c(F)c(F)c(F)c5F)c5ccc([nH]5)c(-c5c(F)c(F)c(F)c(F)c5F)c5nc(c(-c6c(F)c(F)c(F)c(F)c6F)c6ccc3[nH]6)C=C5)C=C4)cc2)sc2c1CCCC2
REMARK SMILES IDX 20 1 18 2 19 3 17 4 11 5 12 6 13 7 16 8 15 9 14 10 9 11 8 12
REMARK SMILES IDX 10 14 7 15 6 16 91 17 89 18 90 19 92 20 95 21 93 22 94 23
REMARK SMILES IDX 4 24 5 25 3 26 2 27 1 28 21 29 22 30 23 31 24 32 25 33 26 34
REMARK SMILES IDX 27 35 88 36 28 37 87 38 29 39 30 40 31 41 81 42 32 43 86 44
REMARK SMILES IDX 80 45 82 46 33 47 85 48 79 49 78 50 34 52 66 53 46 54 65 55
REMARK SMILES IDX 47 56 50 57 64 58 83 59 48 60 49 61 63 63 84 64 51 65 35 66
REMARK SMILES IDX 36 67 44 68 37 69 38 70 42 71 45 72 39 73 40 74 43 75 41 76
REMARK SMILES IDX 67 77 68 78 76 79 69 80 70 81 74 82 77 83 71 84 72 85 75 86
REMARK SMILES IDX 73 87 52 88 53 89 61 90 54 91 55 92 59 93 62 94 56 95 57 96
REMARK SMILES IDX 60 97 58 98
REMARK H PARENT 8 13 82 51 50 62
REMARK Flexibility Score: inf
ROOT
ATOM      1  O   UNL A   1      31.099  28.096  25.530  1.00  0.00    -0.462 OA
ENDROOT
BRANCH   1   2
ATOM      2  C   UNL A   1      31.162  26.746  25.485  1.00  0.00     0.310 C 
ATOM      3  O   UNL A   1      30.925  25.994  26.427  1.00  0.00    -0.252 OA
BRANCH   2   4
ATOM      4  C   UNL A   1      31.419  26.205  24.096  1.00  0.00     0.115 C 
ATOM      5  C   UNL A   1      32.739  25.433  23.872  1.00  0.00     0.096 C 
ATOM      6  C   UNL A   1      33.190  25.953  22.482  1.00  0.00     0.003 C 
ATOM      7  C   UNL A   1      33.679  27.412  22.548  1.00  0.00     0.005 C 
ATOM      8  C   UNL A   1      31.844  26.144  21.776  1.00  0.00     0.009 C 
ATOM      9  C   UNL A   1      31.315  27.109  22.852  1.00  0.00     0.004 C 
ATOM     10  C   UNL A   1      32.396  28.197  22.828  1.00  0.00     0.005 C 
BRANCH   5  11
ATOM     11  C   UNL A   1      33.815  25.564  24.918  1.00  0.00     0.229 C 
ATOM     12  N   UNL A   1      34.514  24.500  25.387  1.00  0.00    -0.317 N 
ATOM     13  H   UNL A   1      35.224  24.777  26.010  1.00  0.00     0.170 HD
ATOM     14  O   UNL A   1      34.148  26.677  25.341  1.00  0.00    -0.274 OA
BRANCH  12  15
ATOM     15  C   UNL A   1      34.488  23.134  25.218  1.00  0.00     0.110 A 
ATOM     16  C   UNL A   1      35.317  22.056  24.948  1.00  0.00     0.098 A 
ATOM     17  C   UNL A   1      34.560  20.816  24.893  1.00  0.00    -0.017 A 
ATOM     18  S   UNL A   1      32.846  22.633  25.400  1.00  0.00    -0.122 S 
ATOM     19  C   UNL A   1      33.225  21.005  25.163  1.00  0.00     0.011 A 
ATOM     20  C   UNL A   1      35.131  19.445  24.642  1.00  0.00     0.038 C 
ATOM     21  C   UNL A   1      32.191  19.923  25.224  1.00  0.00     0.047 C 
ATOM     22  C   UNL A   1      34.038  18.397  24.390  1.00  0.00     0.005 C 
ATOM     23  C   UNL A   1      32.867  18.552  25.371  1.00  0.00     0.006 C 
BRANCH  16  24
ATOM     24  C   UNL A   1      36.753  22.031  24.753  1.00  0.00     0.341 C 
ATOM     25  O   UNL A   1      37.280  22.170  23.658  1.00  0.00    -0.246 OA
BRANCH  24  26
ATOM     26  O   UNL A   1      37.419  21.979  25.941  1.00  0.00    -0.462 OA
BRANCH  26  27
ATOM     27  C   UNL A   1      38.609  22.774  26.047  1.00  0.00     0.230 C 
ATOM     28  C   UNL A   1      38.246  24.133  26.604  1.00  0.00     0.049 C 
ENDBRANCH  26  27
ENDBRANCH  24  26
ENDBRANCH  16  24
ENDBRANCH  12  15
ENDBRANCH   5  11
ENDBRANCH   2   4
ENDBRANCH   1   2
BRANCH   1  29
ATOM     29  C   UNL A   1      31.681  28.728  26.684  1.00  0.00     0.274 C 
BRANCH  29  30
ATOM     30  C   UNL A   1      31.832  30.234  26.458  1.00  0.00     0.275 C 
BRANCH  30  31
ATOM     31  O   UNL A   1      33.212  30.627  26.314  1.00  0.00    -0.458 OA
BRANCH  31  32
ATOM     32  C   UNL A   1      33.633  31.576  27.179  1.00  0.00     0.338 C 
ATOM     33  O   UNL A   1      33.042  32.585  27.527  1.00  0.00    -0.246 OA
BRANCH  32  34
ATOM     34  C   UNL A   1      34.932  31.197  27.752  1.00  0.00     0.060 A 
ATOM     35  C   UNL A   1      35.097  29.883  28.192  1.00  0.00     0.016 A 
ATOM     36  C   UNL A   1      35.927  32.150  27.974  1.00  0.00     0.016 A 
ATOM     37  C   UNL A   1      36.244  29.522  28.892  1.00  0.00     0.010 A 
ATOM     38  C   UNL A   1      37.089  31.781  28.662  1.00  0.00     0.010 A 
ATOM     39  C   UNL A   1      37.244  30.469  29.144  1.00  0.00    -0.014 A 
BRANCH  39  40
ATOM     40  C   UNL A   1      38.419  30.086  29.963  1.00  0.00     0.031 A 
ATOM     41  C   UNL A   1      39.463  29.167  29.397  1.00  0.00     0.074 A 
ATOM     42  C   UNL A   1      38.576  30.600  31.197  1.00  0.00     0.049 A 
ATOM     43  N   UNL A   1      40.514  28.647  29.979  1.00  0.00    -0.248 NA
ATOM     44  C   UNL A   1      39.306  28.783  27.985  1.00  0.00     0.031 C 
ATOM     45  C   UNL A   1      37.666  31.548  31.838  1.00  0.00     0.029 A 
ATOM     46  N   UNL A   1      39.565  30.399  32.128  1.00  0.00    -0.354 N 
ATOM     47  C   UNL A   1      41.123  27.851  29.020  1.00  0.00     0.074 A 
ATOM     48  C   UNL A   1      40.326  27.954  27.815  1.00  0.00     0.031 C 
ATOM     49  C   UNL A   1      38.144  31.857  33.055  1.00  0.00     0.029 A 
ATOM     50  C   UNL A   1      39.362  31.090  33.297  1.00  0.00     0.049 A 
ATOM     51  H   UNL A   1      40.342  29.816  31.973  1.00  0.00     0.167 HD
ATOM     52  C   UNL A   1      42.244  27.098  29.137  1.00  0.00     0.037 A 
ATOM     53  C   UNL A   1      40.067  31.082  34.444  1.00  0.00     0.037 A 
ATOM     54  C   UNL A   1      43.054  27.018  30.323  1.00  0.00     0.049 A 
ATOM     55  C   UNL A   1      41.286  30.211  34.559  1.00  0.00     0.074 A 
ATOM     56  C   UNL A   1      44.209  26.283  30.533  1.00  0.00     0.029 A 
ATOM     57  N   UNL A   1      42.798  27.705  31.500  1.00  0.00    -0.354 N 
ATOM     58  N   UNL A   1      41.830  29.428  33.661  1.00  0.00    -0.248 NA
ATOM     59  C   UNL A   1      41.981  30.213  35.855  1.00  0.00     0.031 C 
ATOM     60  C   UNL A   1      44.637  26.508  31.847  1.00  0.00     0.029 A 
ATOM     61  C   UNL A   1      43.766  27.404  32.444  1.00  0.00     0.049 A 
ATOM     62  H   UNL A   1      42.038  28.316  31.643  1.00  0.00     0.167 HD
ATOM     63  C   UNL A   1      42.931  28.849  34.277  1.00  0.00     0.074 A 
ATOM     64  C   UNL A   1      42.991  29.387  35.620  1.00  0.00     0.031 C 
ATOM     65  C   UNL A   1      43.808  27.946  33.775  1.00  0.00     0.037 A 
BRANCH  52  66
ATOM     66  C   UNL A   1      42.644  26.273  27.953  1.00  0.00     0.064 A 
ATOM     67  C   UNL A   1      42.105  24.998  27.726  1.00  0.00     0.173 A 
ATOM     68  C   UNL A   1      43.553  26.782  27.013  1.00  0.00     0.173 A 
ATOM     69  F   UNL A   1      41.244  24.465  28.605  1.00  0.00    -0.203 F 
ATOM     70  C   UNL A   1      42.476  24.256  26.608  1.00  0.00     0.198 A 
ATOM     71  C   UNL A   1      43.906  26.046  25.887  1.00  0.00     0.198 A 
ATOM     72  F   UNL A   1      44.094  27.998  27.186  1.00  0.00    -0.203 F 
ATOM     73  F   UNL A   1      41.975  23.026  26.426  1.00  0.00    -0.200 F 
ATOM     74  C   UNL A   1      43.371  24.782  25.687  1.00  0.00     0.200 A 
ATOM     75  F   UNL A   1      44.766  26.557  24.995  1.00  0.00    -0.200 F 
ATOM     76  F   UNL A   1      43.723  24.067  24.609  1.00  0.00    -0.200 F 
ENDBRANCH  52  66
BRANCH  53  77
ATOM     77  C   UNL A   1      39.616  31.911  35.590  1.00  0.00     0.064 A 
ATOM     78  C   UNL A   1      40.180  33.168  35.835  1.00  0.00     0.173 A 
ATOM     79  C   UNL A   1      38.611  31.459  36.459  1.00  0.00     0.173 A 
ATOM     80  F   UNL A   1      41.162  33.628  35.045  1.00  0.00    -0.203 F 
ATOM     81  C   UNL A   1      39.763  33.943  36.915  1.00  0.00     0.198 A 
ATOM     82  C   UNL A   1      38.179  32.245  37.524  1.00  0.00     0.198 A 
ATOM     83  F   UNL A   1      38.045  30.260  36.266  1.00  0.00    -0.203 F 
ATOM     84  F   UNL A   1      40.343  35.128  37.150  1.00  0.00    -0.200 F 
ATOM     85  C   UNL A   1      38.758  33.484  37.754  1.00  0.00     0.200 A 
ATOM     86  F   UNL A   1      37.203  31.801  38.328  1.00  0.00    -0.200 F 
ATOM     87  F   UNL A   1      38.355  34.231  38.790  1.00  0.00    -0.200 F 
ENDBRANCH  53  77
BRANCH  65  88
ATOM     88  C   UNL A   1      44.914  27.496  34.682  1.00  0.00     0.064 A 
ATOM     89  C   UNL A   1      46.128  28.193  34.750  1.00  0.00     0.173 A 
ATOM     90  C   UNL A   1      44.746  26.376  35.509  1.00  0.00     0.173 A 
ATOM     91  F   UNL A   1      46.339  29.260  33.965  1.00  0.00    -0.203 F 
ATOM     92  C   UNL A   1      47.146  27.771  35.601  1.00  0.00     0.198 A 
ATOM     93  C   UNL A   1      45.758  25.970  36.373  1.00  0.00     0.198 A 
ATOM     94  F   UNL A   1      43.600  25.680  35.480  1.00  0.00    -0.203 F 
ATOM     95  F   UNL A   1      48.315  28.428  35.623  1.00  0.00    -0.200 F 
ATOM     96  C   UNL A   1      46.958  26.663  36.414  1.00  0.00     0.200 A 
ATOM     97  F   UNL A   1      45.575  24.902  37.163  1.00  0.00    -0.200 F 
ATOM     98  F   UNL A   1      47.940  26.259  37.234  1.00  0.00    -0.200 F 
ENDBRANCH  65  88
ENDBRANCH  39  40
ENDBRANCH  32  34
ENDBRANCH  31  32
ENDBRANCH  30  31
ENDBRANCH  29  30
ENDBRANCH   1  29
TORSDOF 16
ENDMDL
