MODEL 1
REMARK VINA RESULT:     -12.4      0.000      0.000
REMARK SMILES C[C@@H]1[C@@H](C(=O)OCCOC(=O)c2ccc(-c3c4nc(c(-c5c(F)c(F)c(F)c(F)c5F)c5ccc([nH]5)c(-c5c(F)c(F)c(F)c(F)c5F)c5nc(c(-c6c(F)c(F)c(F)c(F)c6F)c6ccc3[nH]6)C=C5)C=C4)cc2)CCN1C(=O)N1CCC[C@H]2CCC[C@@H]21
REMARK SMILES IDX 7 1 6 2 4 3 5 4 3 5 1 6 2 7 77 8 75 9 76 10 78 11 79 12
REMARK SMILES IDX 80 13 81 14 88 15 82 16 84 17 87 18 83 19 85 20 86 21 8 22
REMARK SMILES IDX 9 23 10 24 11 25 12 26 13 27 74 28 14 29 73 30 15 31 16 32
REMARK SMILES IDX 17 33 67 34 18 35 72 36 66 37 68 38 19 39 71 40 65 41 64 42
REMARK SMILES IDX 20 44 52 45 32 46 51 47 33 48 36 49 50 50 69 51 34 52 35 53
REMARK SMILES IDX 49 55 70 56 37 57 21 58 22 59 30 60 23 61 24 62 28 63 31 64
REMARK SMILES IDX 25 65 26 66 29 67 27 68 53 69 54 70 62 71 55 72 56 73 60 74
REMARK SMILES IDX 63 75 57 76 58 77 61 78 59 79 38 80 39 81 47 82 40 83 41 84
REMARK SMILES IDX 45 85 48 86 42 87 43 88 46 89 44 90
REMARK H PARENT 68 43 36 54
REMARK Flexibility Score: inf
ROOT
ATOM      1  C   UNL A   1      31.112  29.304  24.876  1.00  0.00     0.274 C 
ENDROOT
BRANCH   1   2
ATOM      2  O   UNL A   1      31.994  28.196  25.139  1.00  0.00    -0.462 OA
BRANCH   2   3
ATOM      3  C   UNL A   1      31.393  27.003  25.415  1.00  0.00     0.311 C 
ATOM      4  O   UNL A   1      30.858  26.728  26.481  1.00  0.00    -0.252 OA
BRANCH   3   5
ATOM      5  C   UNL A   1      31.377  26.123  24.177  1.00  0.00     0.123 C 
ATOM      6  C   UNL A   1      30.677  23.821  23.459  1.00  0.00     0.032 C 
ATOM      7  C   UNL A   1      31.393  24.630  24.548  1.00  0.00     0.098 C 
ATOM      8  N   UNL A   1      32.823  24.308  24.642  1.00  0.00    -0.321 N 
ATOM      9  C   UNL A   1      32.633  26.270  23.319  1.00  0.00     0.039 C 
ATOM     10  C   UNL A   1      33.626  25.305  23.956  1.00  0.00     0.122 C 
BRANCH   8  11
ATOM     11  C   UNL A   1      33.437  23.544  25.626  1.00  0.00     0.320 C 
ATOM     12  O   UNL A   1      33.125  23.630  26.813  1.00  0.00    -0.248 OA
BRANCH  11  13
ATOM     13  N   UNL A   1      34.308  22.584  25.176  1.00  0.00    -0.321 N 
ATOM     14  C   UNL A   1      33.848  21.429  24.417  1.00  0.00     0.121 C 
ATOM     15  C   UNL A   1      35.727  22.842  25.040  1.00  0.00     0.090 C 
ATOM     16  C   UNL A   1      34.587  20.163  24.854  1.00  0.00     0.022 C 
ATOM     17  C   UNL A   1      36.450  21.654  25.678  1.00  0.00     0.012 C 
ATOM     18  C   UNL A   1      36.361  24.024  25.763  1.00  0.00     0.025 C 
ATOM     19  C   UNL A   1      36.109  20.368  24.925  1.00  0.00     0.007 C 
ATOM     20  C   UNL A   1      37.901  22.110  25.697  1.00  0.00     0.006 C 
ATOM     21  C   UNL A   1      37.835  23.628  25.901  1.00  0.00     0.002 C 
ENDBRANCH  11  13
ENDBRANCH   8  11
ENDBRANCH   3   5
ENDBRANCH   2   3
ENDBRANCH   1   2
BRANCH   1  22
ATOM     22  C   UNL A   1      31.469  30.540  25.712  1.00  0.00     0.275 C 
BRANCH  22  23
ATOM     23  O   UNL A   1      32.758  30.422  26.346  1.00  0.00    -0.458 OA
BRANCH  23  24
ATOM     24  C   UNL A   1      33.167  31.517  27.030  1.00  0.00     0.338 C 
ATOM     25  O   UNL A   1      32.517  32.522  27.261  1.00  0.00    -0.246 OA
BRANCH  24  26
ATOM     26  C   UNL A   1      34.499  31.284  27.624  1.00  0.00     0.060 A 
ATOM     27  C   UNL A   1      34.814  29.969  27.973  1.00  0.00     0.016 A 
ATOM     28  C   UNL A   1      35.403  32.317  27.895  1.00  0.00     0.016 A 
ATOM     29  C   UNL A   1      36.037  29.675  28.569  1.00  0.00     0.010 A 
ATOM     30  C   UNL A   1      36.626  32.023  28.518  1.00  0.00     0.010 A 
ATOM     31  C   UNL A   1      36.950  30.699  28.857  1.00  0.00    -0.014 A 
BRANCH  31  32
ATOM     32  C   UNL A   1      38.202  30.337  29.566  1.00  0.00     0.031 A 
ATOM     33  C   UNL A   1      38.358  30.688  31.013  1.00  0.00     0.074 A 
ATOM     34  C   UNL A   1      39.127  29.576  28.955  1.00  0.00     0.049 A 
ATOM     35  N   UNL A   1      39.324  30.374  31.837  1.00  0.00    -0.248 NA
ATOM     36  C   UNL A   1      37.297  31.514  31.606  1.00  0.00     0.031 C 
ATOM     37  C   UNL A   1      39.068  29.167  27.559  1.00  0.00     0.029 A 
ATOM     38  N   UNL A   1      40.248  28.943  29.441  1.00  0.00    -0.354 N 
ATOM     39  C   UNL A   1      39.025  31.019  33.026  1.00  0.00     0.074 A 
ATOM     40  C   UNL A   1      37.758  31.695  32.836  1.00  0.00     0.031 C 
ATOM     41  C   UNL A   1      40.016  28.242  27.333  1.00  0.00     0.029 A 
ATOM     42  C   UNL A   1      40.792  28.043  28.552  1.00  0.00     0.049 A 
ATOM     43  H   UNL A   1      40.621  29.114  30.335  1.00  0.00     0.167 HD
ATOM     44  C   UNL A   1      39.772  31.079  34.154  1.00  0.00     0.037 A 
ATOM     45  C   UNL A   1      41.788  27.149  28.717  1.00  0.00     0.037 A 
ATOM     46  C   UNL A   1      41.037  30.410  34.323  1.00  0.00     0.049 A 
ATOM     47  C   UNL A   1      42.561  27.177  30.011  1.00  0.00     0.074 A 
ATOM     48  C   UNL A   1      41.919  30.482  35.386  1.00  0.00     0.029 A 
ATOM     49  N   UNL A   1      41.593  29.535  33.401  1.00  0.00    -0.354 N 
ATOM     50  N   UNL A   1      42.317  27.851  31.108  1.00  0.00    -0.248 NA
ATOM     51  C   UNL A   1      43.787  26.365  30.065  1.00  0.00     0.031 C 
ATOM     52  C   UNL A   1      43.026  29.678  35.092  1.00  0.00     0.029 A 
ATOM     53  C   UNL A   1      42.810  29.066  33.868  1.00  0.00     0.049 A 
ATOM     54  H   UNL A   1      41.183  29.285  32.541  1.00  0.00     0.167 HD
ATOM     55  C   UNL A   1      43.374  27.579  31.964  1.00  0.00     0.074 A 
ATOM     56  C   UNL A   1      44.222  26.617  31.292  1.00  0.00     0.031 C 
ATOM     57  C   UNL A   1      43.645  28.116  33.178  1.00  0.00     0.037 A 
BRANCH  44  58
ATOM     58  C   UNL A   1      39.289  31.987  35.242  1.00  0.00     0.064 A 
ATOM     59  C   UNL A   1      39.581  33.357  35.258  1.00  0.00     0.173 A 
ATOM     60  C   UNL A   1      38.521  31.465  36.296  1.00  0.00     0.173 A 
ATOM     61  F   UNL A   1      40.336  33.897  34.290  1.00  0.00    -0.203 F 
ATOM     62  C   UNL A   1      39.139  34.168  36.300  1.00  0.00     0.198 A 
ATOM     63  C   UNL A   1      38.058  32.283  37.321  1.00  0.00     0.198 A 
ATOM     64  F   UNL A   1      38.220  30.158  36.329  1.00  0.00    -0.203 F 
ATOM     65  F   UNL A   1      39.470  35.467  36.323  1.00  0.00    -0.200 F 
ATOM     66  C   UNL A   1      38.374  33.632  37.327  1.00  0.00     0.200 A 
ATOM     67  F   UNL A   1      37.315  31.763  38.308  1.00  0.00    -0.200 F 
ATOM     68  F   UNL A   1      37.951  34.416  38.329  1.00  0.00    -0.200 F 
ENDBRANCH  44  58
BRANCH  45  69
ATOM     69  C   UNL A   1      42.134  26.158  27.657  1.00  0.00     0.064 A 
ATOM     70  C   UNL A   1      43.156  26.432  26.733  1.00  0.00     0.173 A 
ATOM     71  C   UNL A   1      41.442  24.948  27.506  1.00  0.00     0.173 A 
ATOM     72  F   UNL A   1      43.834  27.588  26.808  1.00  0.00    -0.203 F 
ATOM     73  C   UNL A   1      43.454  25.551  25.695  1.00  0.00     0.198 A 
ATOM     74  C   UNL A   1      41.766  24.048  26.492  1.00  0.00     0.198 A 
ATOM     75  F   UNL A   1      40.442  24.636  28.344  1.00  0.00    -0.203 F 
ATOM     76  F   UNL A   1      44.391  25.872  24.792  1.00  0.00    -0.200 F 
ATOM     77  C   UNL A   1      42.764  24.354  25.580  1.00  0.00     0.200 A 
ATOM     78  F   UNL A   1      41.104  22.887  26.394  1.00  0.00    -0.200 F 
ATOM     79  F   UNL A   1      43.049  23.506  24.583  1.00  0.00    -0.200 F 
ENDBRANCH  45  69
BRANCH  57  80
ATOM     80  C   UNL A   1      44.926  27.698  33.839  1.00  0.00     0.064 A 
ATOM     81  C   UNL A   1      46.118  28.408  33.623  1.00  0.00     0.173 A 
ATOM     82  C   UNL A   1      44.956  26.613  34.724  1.00  0.00     0.173 A 
ATOM     83  F   UNL A   1      46.142  29.447  32.775  1.00  0.00    -0.203 F 
ATOM     84  C   UNL A   1      47.300  28.028  34.253  1.00  0.00     0.198 A 
ATOM     85  C   UNL A   1      46.134  26.252  35.372  1.00  0.00     0.198 A 
ATOM     86  F   UNL A   1      43.842  25.906  34.967  1.00  0.00    -0.203 F 
ATOM     87  F   UNL A   1      48.435  28.694  34.000  1.00  0.00    -0.200 F 
ATOM     88  C   UNL A   1      47.306  26.956  35.132  1.00  0.00     0.200 A 
ATOM     89  F   UNL A   1      46.138  25.222  36.230  1.00  0.00    -0.200 F 
ATOM     90  F   UNL A   1      48.443  26.595  35.742  1.00  0.00    -0.200 F 
ENDBRANCH  57  80
ENDBRANCH  31  32
ENDBRANCH  24  26
ENDBRANCH  23  24
ENDBRANCH  22  23
ENDBRANCH   1  22
TORSDOF 13
ENDMDL
MODEL 2
REMARK VINA RESULT:     -12.4      0.138      1.607
REMARK SMILES C[C@@H]1[C@@H](C(=O)OCCOC(=O)c2ccc(-c3c4nc(c(-c5c(F)c(F)c(F)c(F)c5F)c5ccc([nH]5)c(-c5c(F)c(F)c(F)c(F)c5F)c5nc(c(-c6c(F)c(F)c(F)c(F)c6F)c6ccc3[nH]6)C=C5)C=C4)cc2)CCN1C(=O)N1CCC[C@H]2CCC[C@@H]21
REMARK SMILES IDX 7 1 6 2 4 3 5 4 3 5 1 6 2 7 77 8 75 9 76 10 78 11 79 12
REMARK SMILES IDX 80 13 81 14 88 15 82 16 84 17 87 18 83 19 85 20 86 21 8 22
REMARK SMILES IDX 9 23 10 24 11 25 12 26 13 27 74 28 14 29 73 30 15 31 16 32
REMARK SMILES IDX 17 33 67 34 18 35 72 36 66 37 68 38 19 39 71 40 65 41 64 42
REMARK SMILES IDX 20 44 52 45 32 46 51 47 33 48 36 49 50 50 69 51 34 52 35 53
REMARK SMILES IDX 49 55 70 56 37 57 21 58 22 59 30 60 23 61 24 62 28 63 31 64
REMARK SMILES IDX 25 65 26 66 29 67 27 68 53 69 54 70 62 71 55 72 56 73 60 74
REMARK SMILES IDX 63 75 57 76 58 77 61 78 59 79 38 80 39 81 47 82 40 83 41 84
REMARK SMILES IDX 45 85 48 86 42 87 43 88 46 89 44 90
REMARK H PARENT 68 43 36 54
REMARK Flexibility Score: inf
ROOT
ATOM      1  C   UNL A   1      31.187  29.502  24.634  1.00  0.00     0.274 C 
ENDROOT
BRANCH   1   2
ATOM      2  O   UNL A   1      32.065  28.368  24.769  1.00  0.00    -0.462 OA
BRANCH   2   3
ATOM      3  C   UNL A   1      31.482  27.201  25.168  1.00  0.00     0.311 C 
ATOM      4  O   UNL A   1      31.003  27.012  26.278  1.00  0.00    -0.252 OA
BRANCH   3   5
ATOM      5  C   UNL A   1      31.406  26.227  24.005  1.00  0.00     0.123 C 
ATOM      6  C   UNL A   1      30.654  23.886  23.501  1.00  0.00     0.032 C 
ATOM      7  C   UNL A   1      31.423  24.768  24.491  1.00  0.00     0.098 C 
ATOM      8  N   UNL A   1      32.852  24.436  24.552  1.00  0.00    -0.321 N 
ATOM      9  C   UNL A   1      32.626  26.290  23.087  1.00  0.00     0.039 C 
ATOM     10  C   UNL A   1      33.635  25.365  23.756  1.00  0.00     0.122 C 
BRANCH   8  11
ATOM     11  C   UNL A   1      33.501  23.744  25.566  1.00  0.00     0.320 C 
ATOM     12  O   UNL A   1      33.251  23.937  26.755  1.00  0.00    -0.248 OA
BRANCH  11  13
ATOM     13  N   UNL A   1      34.329  22.729  25.158  1.00  0.00    -0.321 N 
ATOM     14  C   UNL A   1      33.824  21.577  24.425  1.00  0.00     0.121 C 
ATOM     15  C   UNL A   1      35.761  22.912  25.038  1.00  0.00     0.090 C 
ATOM     16  C   UNL A   1      34.492  20.289  24.910  1.00  0.00     0.022 C 
ATOM     17  C   UNL A   1      36.414  21.709  25.721  1.00  0.00     0.012 C 
ATOM     18  C   UNL A   1      36.443  24.082  25.737  1.00  0.00     0.025 C 
ATOM     19  C   UNL A   1      36.021  20.420  25.001  1.00  0.00     0.007 C 
ATOM     20  C   UNL A   1      37.886  22.094  25.752  1.00  0.00     0.006 C 
ATOM     21  C   UNL A   1      37.893  23.618  25.911  1.00  0.00     0.002 C 
ENDBRANCH  11  13
ENDBRANCH   8  11
ENDBRANCH   3   5
ENDBRANCH   2   3
ENDBRANCH   1   2
BRANCH   1  22
ATOM     22  C   UNL A   1      31.412  30.544  25.737  1.00  0.00     0.275 C 
BRANCH  22  23
ATOM     23  O   UNL A   1      32.719  30.436  26.337  1.00  0.00    -0.458 OA
BRANCH  23  24
ATOM     24  C   UNL A   1      33.126  31.526  27.032  1.00  0.00     0.338 C 
ATOM     25  O   UNL A   1      32.474  32.527  27.272  1.00  0.00    -0.246 OA
BRANCH  24  26
ATOM     26  C   UNL A   1      34.457  31.289  27.626  1.00  0.00     0.060 A 
ATOM     27  C   UNL A   1      34.775  29.970  27.960  1.00  0.00     0.016 A 
ATOM     28  C   UNL A   1      35.359  32.319  27.910  1.00  0.00     0.016 A 
ATOM     29  C   UNL A   1      35.997  29.671  28.554  1.00  0.00     0.010 A 
ATOM     30  C   UNL A   1      36.581  32.021  28.532  1.00  0.00     0.010 A 
ATOM     31  C   UNL A   1      36.907  30.693  28.856  1.00  0.00    -0.014 A 
BRANCH  31  32
ATOM     32  C   UNL A   1      38.159  30.325  29.563  1.00  0.00     0.031 A 
ATOM     33  C   UNL A   1      38.313  30.661  31.013  1.00  0.00     0.074 A 
ATOM     34  C   UNL A   1      39.086  29.572  28.945  1.00  0.00     0.049 A 
ATOM     35  N   UNL A   1      39.278  30.340  31.836  1.00  0.00    -0.248 NA
ATOM     36  C   UNL A   1      37.250  31.480  31.613  1.00  0.00     0.031 C 
ATOM     37  C   UNL A   1      39.029  29.178  27.544  1.00  0.00     0.029 A 
ATOM     38  N   UNL A   1      40.206  28.935  29.425  1.00  0.00    -0.354 N 
ATOM     39  C   UNL A   1      38.976  30.972  33.031  1.00  0.00     0.074 A 
ATOM     40  C   UNL A   1      37.709  31.648  32.846  1.00  0.00     0.031 C 
ATOM     41  C   UNL A   1      39.978  28.257  27.310  1.00  0.00     0.029 A 
ATOM     42  C   UNL A   1      40.753  28.046  28.528  1.00  0.00     0.049 A 
ATOM     43  H   UNL A   1      40.578  29.098  30.322  1.00  0.00     0.167 HD
ATOM     44  C   UNL A   1      39.722  31.021  34.160  1.00  0.00     0.037 A 
ATOM     45  C   UNL A   1      41.750  27.150  28.685  1.00  0.00     0.037 A 
ATOM     46  C   UNL A   1      40.987  30.352  34.324  1.00  0.00     0.049 A 
ATOM     47  C   UNL A   1      42.521  27.166  29.980  1.00  0.00     0.074 A 
ATOM     48  C   UNL A   1      41.868  30.413  35.389  1.00  0.00     0.029 A 
ATOM     49  N   UNL A   1      41.545  29.488  33.393  1.00  0.00    -0.354 N 
ATOM     50  N   UNL A   1      42.274  27.828  31.084  1.00  0.00    -0.248 NA
ATOM     51  C   UNL A   1      43.748  26.356  30.027  1.00  0.00     0.031 C 
ATOM     52  C   UNL A   1      42.977  29.614  35.088  1.00  0.00     0.029 A 
ATOM     53  C   UNL A   1      42.763  29.015  33.857  1.00  0.00     0.049 A 
ATOM     54  H   UNL A   1      41.137  29.246  32.531  1.00  0.00     0.167 HD
ATOM     55  C   UNL A   1      43.331  27.549  31.939  1.00  0.00     0.074 A 
ATOM     56  C   UNL A   1      44.181  26.594  31.257  1.00  0.00     0.031 C 
ATOM     57  C   UNL A   1      43.600  28.073  33.159  1.00  0.00     0.037 A 
BRANCH  44  58
ATOM     58  C   UNL A   1      39.236  31.917  35.258  1.00  0.00     0.064 A 
ATOM     59  C   UNL A   1      39.534  33.285  35.292  1.00  0.00     0.173 A 
ATOM     60  C   UNL A   1      38.460  31.384  36.300  1.00  0.00     0.173 A 
ATOM     61  F   UNL A   1      40.296  33.835  34.335  1.00  0.00    -0.203 F 
ATOM     62  C   UNL A   1      39.089  34.085  36.343  1.00  0.00     0.198 A 
ATOM     63  C   UNL A   1      37.995  32.191  37.333  1.00  0.00     0.198 A 
ATOM     64  F   UNL A   1      38.153  30.078  36.315  1.00  0.00    -0.203 F 
ATOM     65  F   UNL A   1      39.425  35.382  36.384  1.00  0.00    -0.200 F 
ATOM     66  C   UNL A   1      38.316  33.539  37.358  1.00  0.00     0.200 A 
ATOM     67  F   UNL A   1      37.244  31.662  38.308  1.00  0.00    -0.200 F 
ATOM     68  F   UNL A   1      37.890  34.311  38.368  1.00  0.00    -0.200 F 
ENDBRANCH  44  58
BRANCH  45  69
ATOM     69  C   UNL A   1      42.099  26.172  27.615  1.00  0.00     0.064 A 
ATOM     70  C   UNL A   1      41.405  24.953  27.512  1.00  0.00     0.173 A 
ATOM     71  C   UNL A   1      43.143  26.393  26.706  1.00  0.00     0.173 A 
ATOM     72  F   UNL A   1      40.416  24.672  28.374  1.00  0.00    -0.203 F 
ATOM     73  C   UNL A   1      41.755  23.995  26.562  1.00  0.00     0.198 A 
ATOM     74  C   UNL A   1      43.467  25.452  25.730  1.00  0.00     0.198 A 
ATOM     75  F   UNL A   1      43.856  27.527  26.764  1.00  0.00    -0.203 F 
ATOM     76  F   UNL A   1      41.117  22.818  26.533  1.00  0.00    -0.200 F 
ATOM     77  C   UNL A   1      42.782  24.249  25.665  1.00  0.00     0.200 A 
ATOM     78  F   UNL A   1      44.451  25.708  24.858  1.00  0.00    -0.200 F 
ATOM     79  F   UNL A   1      43.119  23.329  24.752  1.00  0.00    -0.200 F 
ENDBRANCH  45  69
BRANCH  57  80
ATOM     80  C   UNL A   1      44.880  27.650  33.817  1.00  0.00     0.064 A 
ATOM     81  C   UNL A   1      44.923  26.534  34.668  1.00  0.00     0.173 A 
ATOM     82  C   UNL A   1      46.077  28.332  33.564  1.00  0.00     0.173 A 
ATOM     83  F   UNL A   1      43.801  25.855  34.950  1.00  0.00    -0.203 F 
ATOM     84  C   UNL A   1      46.117  26.133  35.261  1.00  0.00     0.198 A 
ATOM     85  C   UNL A   1      47.274  27.912  34.139  1.00  0.00     0.198 A 
ATOM     86  F   UNL A   1      46.089  29.401  32.753  1.00  0.00    -0.203 F 
ATOM     87  F   UNL A   1      46.127  25.091  36.104  1.00  0.00    -0.200 F 
ATOM     88  C   UNL A   1      47.292  26.818  34.991  1.00  0.00     0.200 A 
ATOM     89  F   UNL A   1      48.411  28.568  33.868  1.00  0.00    -0.200 F 
ATOM     90  F   UNL A   1      48.442  26.427  35.558  1.00  0.00    -0.200 F 
ENDBRANCH  57  80
ENDBRANCH  31  32
ENDBRANCH  24  26
ENDBRANCH  23  24
ENDBRANCH  22  23
ENDBRANCH   1  22
TORSDOF 13
ENDMDL
MODEL 3
REMARK VINA RESULT:     -12.4      0.876      2.210
REMARK SMILES C[C@@H]1[C@@H](C(=O)OCCOC(=O)c2ccc(-c3c4nc(c(-c5c(F)c(F)c(F)c(F)c5F)c5ccc([nH]5)c(-c5c(F)c(F)c(F)c(F)c5F)c5nc(c(-c6c(F)c(F)c(F)c(F)c6F)c6ccc3[nH]6)C=C5)C=C4)cc2)CCN1C(=O)N1CCC[C@H]2CCC[C@@H]21
REMARK SMILES IDX 7 1 6 2 4 3 5 4 3 5 1 6 2 7 77 8 75 9 76 10 78 11 79 12
REMARK SMILES IDX 80 13 81 14 88 15 82 16 84 17 87 18 83 19 85 20 86 21 8 22
REMARK SMILES IDX 9 23 10 24 11 25 12 26 13 27 74 28 14 29 73 30 15 31 16 32
REMARK SMILES IDX 17 33 67 34 18 35 72 36 66 37 68 38 19 39 71 40 65 41 64 42
REMARK SMILES IDX 20 44 52 45 32 46 51 47 33 48 36 49 50 50 69 51 34 52 35 53
REMARK SMILES IDX 49 55 70 56 37 57 21 58 22 59 30 60 23 61 24 62 28 63 31 64
REMARK SMILES IDX 25 65 26 66 29 67 27 68 53 69 54 70 62 71 55 72 56 73 60 74
REMARK SMILES IDX 63 75 57 76 58 77 61 78 59 79 38 80 39 81 47 82 40 83 41 84
REMARK SMILES IDX 45 85 48 86 42 87 43 88 46 89 44 90
REMARK H PARENT 68 43 36 54
REMARK Flexibility Score: inf
ROOT
ATOM      1  C   UNL A   1      31.146  29.570  24.569  1.00  0.00     0.274 C 
ENDROOT
BRANCH   1   2
ATOM      2  O   UNL A   1      31.800  28.584  23.746  1.00  0.00    -0.462 OA
BRANCH   2   3
ATOM      3  C   UNL A   1      30.995  27.625  23.205  1.00  0.00     0.311 C 
ATOM      4  O   UNL A   1      30.680  27.573  22.023  1.00  0.00    -0.252 OA
BRANCH   3   5
ATOM      5  C   UNL A   1      30.654  26.575  24.248  1.00  0.00     0.123 C 
ATOM      6  C   UNL A   1      31.644  25.494  26.286  1.00  0.00     0.032 C 
ATOM      7  C   UNL A   1      31.924  25.946  24.848  1.00  0.00     0.098 C 
ATOM      8  N   UNL A   1      32.216  24.821  23.950  1.00  0.00    -0.321 N 
ATOM      9  C   UNL A   1      29.922  25.366  23.667  1.00  0.00     0.039 C 
ATOM     10  C   UNL A   1      31.044  24.464  23.168  1.00  0.00     0.122 C 
BRANCH   8  11
ATOM     11  C   UNL A   1      33.461  24.456  23.456  1.00  0.00     0.320 C 
ATOM     12  O   UNL A   1      33.863  24.824  22.353  1.00  0.00    -0.248 OA
BRANCH  11  13
ATOM     13  N   UNL A   1      34.274  23.784  24.334  1.00  0.00    -0.321 N 
ATOM     14  C   UNL A   1      35.223  24.485  25.188  1.00  0.00     0.121 C 
ATOM     15  C   UNL A   1      33.971  22.441  24.782  1.00  0.00     0.090 C 
ATOM     16  C   UNL A   1      36.545  23.721  25.272  1.00  0.00     0.022 C 
ATOM     17  C   UNL A   1      35.265  21.635  24.655  1.00  0.00     0.012 C 
ATOM     18  C   UNL A   1      32.984  21.580  24.002  1.00  0.00     0.025 C 
ATOM     19  C   UNL A   1      36.341  22.225  25.566  1.00  0.00     0.007 C 
ATOM     20  C   UNL A   1      34.804  20.209  24.921  1.00  0.00     0.006 C 
ATOM     21  C   UNL A   1      33.379  20.143  24.360  1.00  0.00     0.002 C 
ENDBRANCH  11  13
ENDBRANCH   8  11
ENDBRANCH   3   5
ENDBRANCH   2   3
ENDBRANCH   1   2
BRANCH   1  22
ATOM     22  C   UNL A   1      31.727  29.618  25.988  1.00  0.00     0.275 C 
BRANCH  22  23
ATOM     23  O   UNL A   1      33.083  30.106  26.011  1.00  0.00    -0.458 OA
BRANCH  23  24
ATOM     24  C   UNL A   1      33.323  31.099  26.900  1.00  0.00     0.338 C 
ATOM     25  O   UNL A   1      32.538  31.954  27.274  1.00  0.00    -0.246 OA
BRANCH  24  26
ATOM     26  C   UNL A   1      34.657  30.930  27.512  1.00  0.00     0.060 A 
ATOM     27  C   UNL A   1      35.058  29.624  27.802  1.00  0.00     0.016 A 
ATOM     28  C   UNL A   1      35.480  32.008  27.854  1.00  0.00     0.016 A 
ATOM     29  C   UNL A   1      36.287  29.385  28.410  1.00  0.00     0.010 A 
ATOM     30  C   UNL A   1      36.709  31.769  28.490  1.00  0.00     0.010 A 
ATOM     31  C   UNL A   1      37.119  30.455  28.769  1.00  0.00    -0.014 A 
BRANCH  31  32
ATOM     32  C   UNL A   1      38.380  30.145  29.488  1.00  0.00     0.031 A 
ATOM     33  C   UNL A   1      38.516  30.514  30.931  1.00  0.00     0.074 A 
ATOM     34  C   UNL A   1      39.336  29.413  28.888  1.00  0.00     0.049 A 
ATOM     35  N   UNL A   1      39.489  30.244  31.763  1.00  0.00    -0.248 NA
ATOM     36  C   UNL A   1      37.423  31.306  31.512  1.00  0.00     0.031 C 
ATOM     37  C   UNL A   1      39.299  28.990  27.495  1.00  0.00     0.029 A 
ATOM     38  N   UNL A   1      40.476  28.826  29.384  1.00  0.00    -0.354 N 
ATOM     39  C   UNL A   1      39.160  30.888  32.945  1.00  0.00     0.074 A 
ATOM     40  C   UNL A   1      37.871  31.515  32.742  1.00  0.00     0.031 C 
ATOM     41  C   UNL A   1      40.281  28.099  27.282  1.00  0.00     0.029 A 
ATOM     42  C   UNL A   1      41.058  27.940  28.506  1.00  0.00     0.049 A 
ATOM     43  H   UNL A   1      40.839  29.019  30.278  1.00  0.00     0.167 HD
ATOM     44  C   UNL A   1      39.900  30.985  34.075  1.00  0.00     0.037 A 
ATOM     45  C   UNL A   1      42.085  27.084  28.683  1.00  0.00     0.037 A 
ATOM     46  C   UNL A   1      41.187  30.365  34.256  1.00  0.00     0.049 A 
ATOM     47  C   UNL A   1      42.850  27.152  29.981  1.00  0.00     0.074 A 
ATOM     48  C   UNL A   1      42.061  30.478  35.323  1.00  0.00     0.029 A 
ATOM     49  N   UNL A   1      41.779  29.503  33.344  1.00  0.00    -0.354 N 
ATOM     50  N   UNL A   1      42.576  27.826  31.070  1.00  0.00    -0.248 NA
ATOM     51  C   UNL A   1      44.105  26.386  30.048  1.00  0.00     0.031 C 
ATOM     52  C   UNL A   1      43.198  29.713  35.041  1.00  0.00     0.029 A 
ATOM     53  C   UNL A   1      43.011  29.082  33.821  1.00  0.00     0.049 A 
ATOM     54  H   UNL A   1      41.383  29.230  32.485  1.00  0.00     0.167 HD
ATOM     55  C   UNL A   1      43.638  27.601  31.934  1.00  0.00     0.074 A 
ATOM     56  C   UNL A   1      44.524  26.664  31.274  1.00  0.00     0.031 C 
ATOM     57  C   UNL A   1      43.883  28.158  33.144  1.00  0.00     0.037 A 
BRANCH  44  58
ATOM     58  C   UNL A   1      39.378  31.884  35.153  1.00  0.00     0.064 A 
ATOM     59  C   UNL A   1      38.582  31.409  36.204  1.00  0.00     0.173 A 
ATOM     60  C   UNL A   1      39.681  33.255  35.124  1.00  0.00     0.173 A 
ATOM     61  F   UNL A   1      38.241  30.113  36.259  1.00  0.00    -0.203 F 
ATOM     62  C   UNL A   1      38.091  32.278  37.175  1.00  0.00     0.198 A 
ATOM     63  C   UNL A   1      39.211  34.115  36.111  1.00  0.00     0.198 A 
ATOM     64  F   UNL A   1      40.435  33.760  34.136  1.00  0.00    -0.203 F 
ATOM     65  F   UNL A   1      37.290  31.812  38.145  1.00  0.00    -0.200 F 
ATOM     66  C   UNL A   1      38.410  33.628  37.131  1.00  0.00     0.200 A 
ATOM     67  F   UNL A   1      39.525  35.417  36.069  1.00  0.00    -0.200 F 
ATOM     68  F   UNL A   1      37.934  34.461  38.067  1.00  0.00    -0.200 F 
ENDBRANCH  44  58
BRANCH  45  69
ATOM     69  C   UNL A   1      42.472  26.097  27.634  1.00  0.00     0.064 A 
ATOM     70  C   UNL A   1      43.462  26.415  26.688  1.00  0.00     0.173 A 
ATOM     71  C   UNL A   1      41.851  24.846  27.514  1.00  0.00     0.173 A 
ATOM     72  F   UNL A   1      44.071  27.610  26.733  1.00  0.00    -0.203 F 
ATOM     73  C   UNL A   1      43.795  25.535  25.660  1.00  0.00     0.198 A 
ATOM     74  C   UNL A   1      42.212  23.949  26.510  1.00  0.00     0.198 A 
ATOM     75  F   UNL A   1      40.885  24.489  28.374  1.00  0.00    -0.203 F 
ATOM     76  F   UNL A   1      44.696  25.896  24.736  1.00  0.00    -0.200 F 
ATOM     77  C   UNL A   1      43.175  24.298  25.576  1.00  0.00     0.200 A 
ATOM     78  F   UNL A   1      41.619  22.750  26.442  1.00  0.00    -0.200 F 
ATOM     79  F   UNL A   1      43.494  23.451  24.589  1.00  0.00    -0.200 F 
ENDBRANCH  45  69
BRANCH  57  80
ATOM     80  C   UNL A   1      45.175  27.793  33.815  1.00  0.00     0.064 A 
ATOM     81  C   UNL A   1      45.256  26.691  34.681  1.00  0.00     0.173 A 
ATOM     82  C   UNL A   1      46.346  28.518  33.559  1.00  0.00     0.173 A 
ATOM     83  F   UNL A   1      44.159  25.973  34.966  1.00  0.00    -0.203 F 
ATOM     84  C   UNL A   1      46.461  26.344  35.286  1.00  0.00     0.198 A 
ATOM     85  C   UNL A   1      47.555  28.152  34.146  1.00  0.00     0.198 A 
ATOM     86  F   UNL A   1      46.321  29.576  32.734  1.00  0.00    -0.203 F 
ATOM     87  F   UNL A   1      46.507  25.315  36.142  1.00  0.00    -0.200 F 
ATOM     88  C   UNL A   1      47.610  27.071  35.013  1.00  0.00     0.200 A 
ATOM     89  F   UNL A   1      48.668  28.847  33.873  1.00  0.00    -0.200 F 
ATOM     90  F   UNL A   1      48.771  26.732  35.591  1.00  0.00    -0.200 F 
ENDBRANCH  57  80
ENDBRANCH  31  32
ENDBRANCH  24  26
ENDBRANCH  23  24
ENDBRANCH  22  23
ENDBRANCH   1  22
TORSDOF 13
ENDMDL
