MODEL 1
REMARK VINA RESULT:     -11.6      0.000      0.000
REMARK SMILES CC[C@H](CNC(=O)[C@H]1CSc2ccccc21)C(=O)OCCOC(=O)c1ccc(-c2c3nc(c(-c4c(F)c(F)c(F)c(F)c4F)c4ccc([nH]4)c(-c4c(F)c(F)c(F)c(F)c4F)c4nc(c(-c5c(F)c(F)c(F)c(F)c5F)c5ccc2[nH]5)C=C4)C=C3)cc1
REMARK SMILES IDX 20 1 19 2 17 3 18 4 3 5 2 6 1 7 4 8 5 9 6 10 7 12 8 13 9 14
REMARK SMILES IDX 16 15 10 16 11 17 15 18 12 19 14 20 13 21 21 22 22 23 23 24
REMARK SMILES IDX 24 25 25 26 26 27 87 28 27 29 86 30 28 31 29 32 30 33 80 34
REMARK SMILES IDX 31 35 85 36 79 37 81 38 32 39 84 40 78 41 77 42 33 44 65 45
REMARK SMILES IDX 45 46 64 47 46 48 49 49 63 50 82 51 47 52 48 53 62 55 83 56
REMARK SMILES IDX 50 57 34 58 35 59 43 60 36 61 37 62 41 63 44 64 38 65 39 66
REMARK SMILES IDX 42 67 40 68 66 69 67 70 75 71 68 72 69 73 73 74 76 75 70 76
REMARK SMILES IDX 71 77 74 78 72 79 51 80 52 81 60 82 53 83 54 84 58 85 61 86
REMARK SMILES IDX 55 87 56 88 59 89 57 90
REMARK H PARENT 5 11 81 43 49 54
REMARK Flexibility Score: inf
ROOT
ATOM      1  C   UNL A   1      31.186  29.704  24.591  1.00  0.00     0.274 C 
ENDROOT
BRANCH   1   2
ATOM      2  O   UNL A   1      30.620  28.421  24.241  1.00  0.00    -0.462 OA
BRANCH   2   3
ATOM      3  C   UNL A   1      30.933  27.939  23.016  1.00  0.00     0.310 C 
ATOM      4  O   UNL A   1      30.321  28.212  21.988  1.00  0.00    -0.252 OA
BRANCH   3   5
ATOM      5  C   UNL A   1      32.063  26.926  23.018  1.00  0.00     0.118 C 
BRANCH   5   6
ATOM      6  C   UNL A   1      31.691  25.745  22.099  1.00  0.00     0.014 C 
ATOM      7  C   UNL A   1      32.517  25.662  20.818  1.00  0.00     0.005 C 
ENDBRANCH   5   6
BRANCH   5   8
ATOM      8  C   UNL A   1      32.662  26.425  24.342  1.00  0.00     0.131 C 
BRANCH   8   9
ATOM      9  N   UNL A   1      31.807  25.697  25.248  1.00  0.00    -0.355 N 
ATOM     10  C   UNL A   1      32.100  24.633  26.057  1.00  0.00     0.228 C 
ATOM     11  H   UNL A   1      30.876  26.011  25.290  1.00  0.00     0.163 HD
ATOM     12  O   UNL A   1      31.334  24.380  26.990  1.00  0.00    -0.274 OA
BRANCH  10  13
ATOM     13  C   UNL A   1      33.328  23.774  25.782  1.00  0.00     0.120 C 
ATOM     14  C   UNL A   1      33.907  23.286  27.122  1.00  0.00     0.093 C 
ATOM     15  C   UNL A   1      32.986  22.566  24.943  1.00  0.00    -0.021 A 
ATOM     16  S   UNL A   1      34.065  21.472  27.088  1.00  0.00    -0.125 SA
ATOM     17  C   UNL A   1      33.299  21.335  25.506  1.00  0.00     0.011 A 
ATOM     18  C   UNL A   1      32.419  22.622  23.672  1.00  0.00     0.006 A 
ATOM     19  C   UNL A   1      33.028  20.153  24.829  1.00  0.00     0.015 A 
ATOM     20  C   UNL A   1      32.141  21.444  22.982  1.00  0.00     0.000 A 
ATOM     21  C   UNL A   1      32.442  20.210  23.561  1.00  0.00     0.001 A 
ENDBRANCH  10  13
ENDBRANCH   8   9
ENDBRANCH   5   8
ENDBRANCH   3   5
ENDBRANCH   2   3
ENDBRANCH   1   2
BRANCH   1  22
ATOM     22  C   UNL A   1      31.771  29.712  26.008  1.00  0.00     0.275 C 
BRANCH  22  23
ATOM     23  O   UNL A   1      33.118  30.211  26.008  1.00  0.00    -0.458 OA
BRANCH  23  24
ATOM     24  C   UNL A   1      33.365  31.178  26.916  1.00  0.00     0.338 C 
ATOM     25  O   UNL A   1      32.650  32.104  27.245  1.00  0.00    -0.246 OA
BRANCH  24  26
ATOM     26  C   UNL A   1      34.591  30.865  27.641  1.00  0.00     0.060 A 
ATOM     27  C   UNL A   1      34.880  29.554  28.007  1.00  0.00     0.016 A 
ATOM     28  C   UNL A   1      35.480  31.913  27.901  1.00  0.00     0.016 A 
ATOM     29  C   UNL A   1      36.063  29.302  28.690  1.00  0.00     0.010 A 
ATOM     30  C   UNL A   1      36.661  31.660  28.580  1.00  0.00     0.010 A 
ATOM     31  C   UNL A   1      36.946  30.355  28.989  1.00  0.00    -0.014 A 
BRANCH  31  32
ATOM     32  C   UNL A   1      38.187  30.073  29.729  1.00  0.00     0.031 A 
ATOM     33  C   UNL A   1      38.370  30.615  31.110  1.00  0.00     0.074 A 
ATOM     34  C   UNL A   1      39.118  29.303  29.140  1.00  0.00     0.049 A 
ATOM     35  N   UNL A   1      39.316  30.354  31.973  1.00  0.00    -0.248 NA
ATOM     36  C   UNL A   1      37.366  31.581  31.589  1.00  0.00     0.031 C 
ATOM     37  C   UNL A   1      39.036  28.786  27.773  1.00  0.00     0.029 A 
ATOM     38  N   UNL A   1      40.299  28.804  29.620  1.00  0.00    -0.354 N 
ATOM     39  C   UNL A   1      39.008  31.098  33.102  1.00  0.00     0.074 A 
ATOM     40  C   UNL A   1      37.822  31.868  32.801  1.00  0.00     0.031 C 
ATOM     41  C   UNL A   1      40.104  28.008  27.536  1.00  0.00     0.029 A 
ATOM     42  C   UNL A   1      40.943  27.982  28.729  1.00  0.00     0.049 A 
ATOM     43  H   UNL A   1      40.651  29.015  30.514  1.00  0.00     0.167 HD
ATOM     44  C   UNL A   1      39.652  31.104  34.292  1.00  0.00     0.037 A 
ATOM     45  C   UNL A   1      42.075  27.270  28.880  1.00  0.00     0.037 A 
ATOM     46  C   UNL A   1      40.830  30.325  34.565  1.00  0.00     0.049 A 
ATOM     47  C   UNL A   1      42.767  27.301  30.215  1.00  0.00     0.074 A 
ATOM     48  C   UNL A   1      41.542  30.223  35.745  1.00  0.00     0.029 A 
ATOM     49  N   UNL A   1      41.470  29.516  33.636  1.00  0.00    -0.354 N 
ATOM     50  N   UNL A   1      42.421  27.934  31.310  1.00  0.00    -0.248 NA
ATOM     51  C   UNL A   1      43.997  26.509  30.342  1.00  0.00     0.031 C 
ATOM     52  C   UNL A   1      42.638  29.385  35.520  1.00  0.00     0.029 A 
ATOM     53  C   UNL A   1      42.583  28.929  34.212  1.00  0.00     0.049 A 
ATOM     54  H   UNL A   1      41.176  29.380  32.707  1.00  0.00     0.167 HD
ATOM     55  C   UNL A   1      43.376  27.607  32.260  1.00  0.00     0.074 A 
ATOM     56  C   UNL A   1      44.304  26.697  31.618  1.00  0.00     0.031 C 
ATOM     57  C   UNL A   1      43.485  28.025  33.544  1.00  0.00     0.037 A 
BRANCH  44  58
ATOM     58  C   UNL A   1      39.091  31.948  35.397  1.00  0.00     0.064 A 
ATOM     59  C   UNL A   1      38.271  31.392  36.389  1.00  0.00     0.173 A 
ATOM     60  C   UNL A   1      39.457  33.296  35.522  1.00  0.00     0.173 A 
ATOM     61  F   UNL A   1      37.886  30.109  36.307  1.00  0.00    -0.203 F 
ATOM     62  C   UNL A   1      37.838  32.155  37.470  1.00  0.00     0.198 A 
ATOM     63  C   UNL A   1      39.039  34.050  36.617  1.00  0.00     0.198 A 
ATOM     64  F   UNL A   1      40.242  33.873  34.601  1.00  0.00    -0.203 F 
ATOM     65  F   UNL A   1      37.043  31.607  38.400  1.00  0.00    -0.200 F 
ATOM     66  C   UNL A   1      38.232  33.480  37.589  1.00  0.00     0.200 A 
ATOM     67  F   UNL A   1      39.431  35.326  36.736  1.00  0.00    -0.200 F 
ATOM     68  F   UNL A   1      37.835  34.205  38.643  1.00  0.00    -0.200 F 
ENDBRANCH  44  58
BRANCH  45  69
ATOM     69  C   UNL A   1      42.580  26.439  27.759  1.00  0.00     0.064 A 
ATOM     70  C   UNL A   1      43.560  26.925  26.883  1.00  0.00     0.173 A 
ATOM     71  C   UNL A   1      42.107  25.135  27.550  1.00  0.00     0.173 A 
ATOM     72  F   UNL A   1      44.035  28.170  27.035  1.00  0.00    -0.203 F 
ATOM     73  C   UNL A   1      44.035  26.146  25.830  1.00  0.00     0.198 A 
ATOM     74  C   UNL A   1      42.602  24.348  26.512  1.00  0.00     0.198 A 
ATOM     75  F   UNL A   1      41.175  24.619  28.364  1.00  0.00    -0.203 F 
ATOM     76  F   UNL A   1      44.943  26.651  24.983  1.00  0.00    -0.200 F 
ATOM     77  C   UNL A   1      43.560  24.856  25.648  1.00  0.00     0.200 A 
ATOM     78  F   UNL A   1      42.152  23.096  26.351  1.00  0.00    -0.200 F 
ATOM     79  F   UNL A   1      44.021  24.106  24.639  1.00  0.00    -0.200 F 
ENDBRANCH  45  69
BRANCH  57  80
ATOM     80  C   UNL A   1      44.643  27.504  34.340  1.00  0.00     0.064 A 
ATOM     81  C   UNL A   1      45.850  28.214  34.414  1.00  0.00     0.173 A 
ATOM     82  C   UNL A   1      44.519  26.330  35.095  1.00  0.00     0.173 A 
ATOM     83  F   UNL A   1      46.018  29.337  33.700  1.00  0.00    -0.203 F 
ATOM     84  C   UNL A   1      46.897  27.757  35.207  1.00  0.00     0.198 A 
ATOM     85  C   UNL A   1      45.557  25.892  35.910  1.00  0.00     0.198 A 
ATOM     86  F   UNL A   1      43.378  25.622  35.064  1.00  0.00    -0.203 F 
ATOM     87  F   UNL A   1      48.054  28.433  35.239  1.00  0.00    -0.200 F 
ATOM     88  C   UNL A   1      46.747  26.603  35.962  1.00  0.00     0.200 A 
ATOM     89  F   UNL A   1      45.405  24.786  36.651  1.00  0.00    -0.200 F 
ATOM     90  F   UNL A   1      47.751  26.175  36.739  1.00  0.00    -0.200 F 
ENDBRANCH  57  80
ENDBRANCH  31  32
ENDBRANCH  24  26
ENDBRANCH  23  24
ENDBRANCH  22  23
ENDBRANCH   1  22
TORSDOF 15
ENDMDL
MODEL 2
REMARK VINA RESULT:     -11.6      1.191      2.491
REMARK SMILES CC[C@H](CNC(=O)[C@H]1CSc2ccccc21)C(=O)OCCOC(=O)c1ccc(-c2c3nc(c(-c4c(F)c(F)c(F)c(F)c4F)c4ccc([nH]4)c(-c4c(F)c(F)c(F)c(F)c4F)c4nc(c(-c5c(F)c(F)c(F)c(F)c5F)c5ccc2[nH]5)C=C4)C=C3)cc1
REMARK SMILES IDX 20 1 19 2 17 3 18 4 3 5 2 6 1 7 4 8 5 9 6 10 7 12 8 13 9 14
REMARK SMILES IDX 16 15 10 16 11 17 15 18 12 19 14 20 13 21 21 22 22 23 23 24
REMARK SMILES IDX 24 25 25 26 26 27 87 28 27 29 86 30 28 31 29 32 30 33 80 34
REMARK SMILES IDX 31 35 85 36 79 37 81 38 32 39 84 40 78 41 77 42 33 44 65 45
REMARK SMILES IDX 45 46 64 47 46 48 49 49 63 50 82 51 47 52 48 53 62 55 83 56
REMARK SMILES IDX 50 57 34 58 35 59 43 60 36 61 37 62 41 63 44 64 38 65 39 66
REMARK SMILES IDX 42 67 40 68 66 69 67 70 75 71 68 72 69 73 73 74 76 75 70 76
REMARK SMILES IDX 71 77 74 78 72 79 51 80 52 81 60 82 53 83 54 84 58 85 61 86
REMARK SMILES IDX 55 87 56 88 59 89 57 90
REMARK H PARENT 5 11 81 43 49 54
REMARK Flexibility Score: inf
ROOT
ATOM      1  C   UNL A   1      31.814  28.739  27.307  1.00  0.00     0.274 C 
ENDROOT
BRANCH   1   2
ATOM      2  O   UNL A   1      32.231  27.560  26.581  1.00  0.00    -0.462 OA
BRANCH   2   3
ATOM      3  C   UNL A   1      31.258  26.870  25.943  1.00  0.00     0.310 C 
ATOM      4  O   UNL A   1      30.439  26.149  26.505  1.00  0.00    -0.252 OA
BRANCH   3   5
ATOM      5  C   UNL A   1      31.313  26.972  24.430  1.00  0.00     0.118 C 
BRANCH   5   6
ATOM      6  C   UNL A   1      29.890  26.826  23.856  1.00  0.00     0.014 C 
ATOM      7  C   UNL A   1      29.380  28.062  23.121  1.00  0.00     0.005 C 
ENDBRANCH   5   6
BRANCH   5   8
ATOM      8  C   UNL A   1      32.319  26.132  23.627  1.00  0.00     0.131 C 
BRANCH   8   9
ATOM      9  N   UNL A   1      32.041  24.729  23.437  1.00  0.00    -0.355 N 
ATOM     10  C   UNL A   1      32.299  23.669  24.263  1.00  0.00     0.228 C 
ATOM     11  H   UNL A   1      31.601  24.499  22.587  1.00  0.00     0.163 HD
ATOM     12  O   UNL A   1      31.686  22.617  24.073  1.00  0.00    -0.274 OA
BRANCH  10  13
ATOM     13  C   UNL A   1      33.342  23.793  25.367  1.00  0.00     0.120 C 
ATOM     14  C   UNL A   1      32.807  23.112  26.639  1.00  0.00     0.093 C 
ATOM     15  C   UNL A   1      34.642  23.128  24.982  1.00  0.00    -0.021 A 
ATOM     16  S   UNL A   1      34.021  21.887  27.225  1.00  0.00    -0.125 SA
ATOM     17  C   UNL A   1      35.085  22.130  25.841  1.00  0.00     0.011 A 
ATOM     18  C   UNL A   1      35.403  23.469  23.866  1.00  0.00     0.006 A 
ATOM     19  C   UNL A   1      36.267  21.446  25.589  1.00  0.00     0.015 A 
ATOM     20  C   UNL A   1      36.590  22.790  23.600  1.00  0.00     0.000 A 
ATOM     21  C   UNL A   1      37.020  21.777  24.459  1.00  0.00     0.001 A 
ENDBRANCH  10  13
ENDBRANCH   8   9
ENDBRANCH   5   8
ENDBRANCH   3   5
ENDBRANCH   2   3
ENDBRANCH   1   2
BRANCH   1  22
ATOM     22  C   UNL A   1      31.926  30.010  26.459  1.00  0.00     0.275 C 
BRANCH  22  23
ATOM     23  O   UNL A   1      33.292  30.446  26.357  1.00  0.00    -0.458 OA
BRANCH  23  24
ATOM     24  C   UNL A   1      33.648  31.406  27.237  1.00  0.00     0.338 C 
ATOM     25  O   UNL A   1      33.018  32.388  27.578  1.00  0.00    -0.246 OA
BRANCH  24  26
ATOM     26  C   UNL A   1      34.876  31.012  27.916  1.00  0.00     0.060 A 
ATOM     27  C   UNL A   1      35.042  29.711  28.380  1.00  0.00     0.016 A 
ATOM     28  C   UNL A   1      35.891  31.969  28.032  1.00  0.00     0.016 A 
ATOM     29  C   UNL A   1      36.233  29.380  29.014  1.00  0.00     0.010 A 
ATOM     30  C   UNL A   1      37.079  31.636  28.663  1.00  0.00     0.010 A 
ATOM     31  C   UNL A   1      37.244  30.344  29.169  1.00  0.00    -0.014 A 
BRANCH  31  32
ATOM     32  C   UNL A   1      38.493  29.981  29.859  1.00  0.00     0.031 A 
ATOM     33  C   UNL A   1      38.757  30.495  31.239  1.00  0.00     0.074 A 
ATOM     34  C   UNL A   1      39.355  29.165  29.229  1.00  0.00     0.049 A 
ATOM     35  N   UNL A   1      39.717  30.169  32.063  1.00  0.00    -0.248 NA
ATOM     36  C   UNL A   1      37.830  31.512  31.764  1.00  0.00     0.031 C 
ATOM     37  C   UNL A   1      39.193  28.671  27.861  1.00  0.00     0.029 A 
ATOM     38  N   UNL A   1      40.521  28.593  29.660  1.00  0.00    -0.354 N 
ATOM     39  C   UNL A   1      39.495  30.915  33.210  1.00  0.00     0.074 A 
ATOM     40  C   UNL A   1      38.346  31.756  32.961  1.00  0.00     0.031 C 
ATOM     41  C   UNL A   1      40.205  27.835  27.577  1.00  0.00     0.029 A 
ATOM     42  C   UNL A   1      41.083  27.746  28.738  1.00  0.00     0.049 A 
ATOM     43  H   UNL A   1      40.917  28.772  30.543  1.00  0.00     0.167 HD
ATOM     44  C   UNL A   1      40.181  30.869  34.376  1.00  0.00     0.037 A 
ATOM     45  C   UNL A   1      42.176  26.967  28.840  1.00  0.00     0.037 A 
ATOM     46  C   UNL A   1      41.320  30.019  34.597  1.00  0.00     0.049 A 
ATOM     47  C   UNL A   1      42.917  26.941  30.148  1.00  0.00     0.074 A 
ATOM     48  C   UNL A   1      42.067  29.862  35.749  1.00  0.00     0.029 A 
ATOM     49  N   UNL A   1      41.877  29.185  33.637  1.00  0.00    -0.354 N 
ATOM     50  N   UNL A   1      42.648  27.580  31.262  1.00  0.00    -0.248 NA
ATOM     51  C   UNL A   1      44.101  26.077  30.221  1.00  0.00     0.031 C 
ATOM     52  C   UNL A   1      43.103  28.964  35.475  1.00  0.00     0.029 A 
ATOM     53  C   UNL A   1      42.974  28.527  34.166  1.00  0.00     0.049 A 
ATOM     54  H   UNL A   1      41.542  29.078  32.718  1.00  0.00     0.167 HD
ATOM     55  C   UNL A   1      43.617  27.186  32.172  1.00  0.00     0.074 A 
ATOM     56  C   UNL A   1      44.466  26.231  31.488  1.00  0.00     0.031 C 
ATOM     57  C   UNL A   1      43.796  27.581  33.456  1.00  0.00     0.037 A 
BRANCH  44  58
ATOM     58  C   UNL A   1      39.711  31.731  35.509  1.00  0.00     0.064 A 
ATOM     59  C   UNL A   1      40.221  33.024  35.695  1.00  0.00     0.173 A 
ATOM     60  C   UNL A   1      38.673  31.303  36.350  1.00  0.00     0.173 A 
ATOM     61  F   UNL A   1      41.220  33.474  34.922  1.00  0.00    -0.203 F 
ATOM     62  C   UNL A   1      39.708  33.860  36.684  1.00  0.00     0.198 A 
ATOM     63  C   UNL A   1      38.148  32.150  37.324  1.00  0.00     0.198 A 
ATOM     64  F   UNL A   1      38.150  30.077  36.210  1.00  0.00    -0.203 F 
ATOM     65  F   UNL A   1      40.220  35.086  36.854  1.00  0.00    -0.200 F 
ATOM     66  C   UNL A   1      38.664  33.426  37.489  1.00  0.00     0.200 A 
ATOM     67  F   UNL A   1      37.132  31.734  38.092  1.00  0.00    -0.200 F 
ATOM     68  F   UNL A   1      38.155  34.241  38.422  1.00  0.00    -0.200 F 
ENDBRANCH  44  58
BRANCH  45  69
ATOM     69  C   UNL A   1      42.591  26.122  27.692  1.00  0.00     0.064 A 
ATOM     70  C   UNL A   1      42.026  24.856  27.484  1.00  0.00     0.173 A 
ATOM     71  C   UNL A   1      43.547  26.570  26.768  1.00  0.00     0.173 A 
ATOM     72  F   UNL A   1      41.117  24.380  28.347  1.00  0.00    -0.203 F 
ATOM     73  C   UNL A   1      42.415  24.062  26.407  1.00  0.00     0.198 A 
ATOM     74  C   UNL A   1      43.916  25.786  25.677  1.00  0.00     0.198 A 
ATOM     75  F   UNL A   1      44.112  27.777  26.916  1.00  0.00    -0.203 F 
ATOM     76  F   UNL A   1      41.889  22.839  26.256  1.00  0.00    -0.200 F 
ATOM     77  C   UNL A   1      43.356  24.530  25.501  1.00  0.00     0.200 A 
ATOM     78  F   UNL A   1      44.812  26.248  24.794  1.00  0.00    -0.200 F 
ATOM     79  F   UNL A   1      43.725  23.768  24.463  1.00  0.00    -0.200 F 
ENDBRANCH  45  69
BRANCH  57  80
ATOM     80  C   UNL A   1      44.950  26.984  34.203  1.00  0.00     0.064 A 
ATOM     81  C   UNL A   1      44.810  25.783  34.914  1.00  0.00     0.173 A 
ATOM     82  C   UNL A   1      46.220  27.574  34.144  1.00  0.00     0.173 A 
ATOM     83  F   UNL A   1      43.611  25.189  35.007  1.00  0.00    -0.203 F 
ATOM     84  C   UNL A   1      45.901  25.202  35.551  1.00  0.00     0.198 A 
ATOM     85  C   UNL A   1      47.315  26.974  34.757  1.00  0.00     0.198 A 
ATOM     86  F   UNL A   1      46.404  28.718  33.467  1.00  0.00    -0.203 F 
ATOM     87  F   UNL A   1      45.740  24.071  36.252  1.00  0.00    -0.200 F 
ATOM     88  C   UNL A   1      47.154  25.791  35.464  1.00  0.00     0.200 A 
ATOM     89  F   UNL A   1      48.527  27.536  34.659  1.00  0.00    -0.200 F 
ATOM     90  F   UNL A   1      48.207  25.220  36.063  1.00  0.00    -0.200 F 
ENDBRANCH  57  80
ENDBRANCH  31  32
ENDBRANCH  24  26
ENDBRANCH  23  24
ENDBRANCH  22  23
ENDBRANCH   1  22
TORSDOF 15
ENDMDL
MODEL 3
REMARK VINA RESULT:     -11.5      1.192      2.080
REMARK SMILES CC[C@H](CNC(=O)[C@H]1CSc2ccccc21)C(=O)OCCOC(=O)c1ccc(-c2c3nc(c(-c4c(F)c(F)c(F)c(F)c4F)c4ccc([nH]4)c(-c4c(F)c(F)c(F)c(F)c4F)c4nc(c(-c5c(F)c(F)c(F)c(F)c5F)c5ccc2[nH]5)C=C4)C=C3)cc1
REMARK SMILES IDX 20 1 19 2 17 3 18 4 3 5 2 6 1 7 4 8 5 9 6 10 7 12 8 13 9 14
REMARK SMILES IDX 16 15 10 16 11 17 15 18 12 19 14 20 13 21 21 22 22 23 23 24
REMARK SMILES IDX 24 25 25 26 26 27 87 28 27 29 86 30 28 31 29 32 30 33 80 34
REMARK SMILES IDX 31 35 85 36 79 37 81 38 32 39 84 40 78 41 77 42 33 44 65 45
REMARK SMILES IDX 45 46 64 47 46 48 49 49 63 50 82 51 47 52 48 53 62 55 83 56
REMARK SMILES IDX 50 57 34 58 35 59 43 60 36 61 37 62 41 63 44 64 38 65 39 66
REMARK SMILES IDX 42 67 40 68 66 69 67 70 75 71 68 72 69 73 73 74 76 75 70 76
REMARK SMILES IDX 71 77 74 78 72 79 51 80 52 81 60 82 53 83 54 84 58 85 61 86
REMARK SMILES IDX 55 87 56 88 59 89 57 90
REMARK H PARENT 5 11 81 43 49 54
REMARK Flexibility Score: inf
ROOT
ATOM      1  C   UNL A   1      31.483  29.333  24.649  1.00  0.00     0.274 C 
ENDROOT
BRANCH   1   2
ATOM      2  O   UNL A   1      32.018  27.991  24.698  1.00  0.00    -0.462 OA
BRANCH   2   3
ATOM      3  C   UNL A   1      31.652  27.160  23.695  1.00  0.00     0.310 C 
ATOM      4  O   UNL A   1      31.974  27.310  22.520  1.00  0.00    -0.252 OA
BRANCH   3   5
ATOM      5  C   UNL A   1      30.704  26.053  24.119  1.00  0.00     0.118 C 
BRANCH   5   6
ATOM      6  C   UNL A   1      30.798  25.858  25.645  1.00  0.00     0.014 C 
ATOM      7  C   UNL A   1      30.579  24.421  26.109  1.00  0.00     0.005 C 
ENDBRANCH   5   6
BRANCH   5   8
ATOM      8  C   UNL A   1      30.708  24.699  23.390  1.00  0.00     0.131 C 
BRANCH   8   9
ATOM      9  N   UNL A   1      31.844  24.372  22.562  1.00  0.00    -0.355 N 
ATOM     10  C   UNL A   1      32.779  23.385  22.716  1.00  0.00     0.228 C 
ATOM     11  H   UNL A   1      31.963  24.941  21.768  1.00  0.00     0.163 HD
ATOM     12  O   UNL A   1      33.454  23.062  21.736  1.00  0.00    -0.274 OA
BRANCH  10  13
ATOM     13  C   UNL A   1      32.992  22.734  24.077  1.00  0.00     0.120 C 
ATOM     14  C   UNL A   1      32.495  21.279  24.018  1.00  0.00     0.093 C 
ATOM     15  C   UNL A   1      34.450  22.724  24.467  1.00  0.00    -0.021 A 
ATOM     16  S   UNL A   1      33.823  20.164  24.571  1.00  0.00    -0.125 SA
ATOM     17  C   UNL A   1      34.994  21.473  24.730  1.00  0.00     0.011 A 
ATOM     18  C   UNL A   1      35.240  23.863  24.599  1.00  0.00     0.006 A 
ATOM     19  C   UNL A   1      36.327  21.338  25.096  1.00  0.00     0.015 A 
ATOM     20  C   UNL A   1      36.579  23.742  24.965  1.00  0.00     0.000 A 
ATOM     21  C   UNL A   1      37.123  22.480  25.209  1.00  0.00     0.001 A 
ENDBRANCH  10  13
ENDBRANCH   8   9
ENDBRANCH   5   8
ENDBRANCH   3   5
ENDBRANCH   2   3
ENDBRANCH   1   2
BRANCH   1  22
ATOM     22  C   UNL A   1      31.725  30.100  25.953  1.00  0.00     0.275 C 
BRANCH  22  23
ATOM     23  O   UNL A   1      33.125  30.358  26.149  1.00  0.00    -0.458 OA
BRANCH  23  24
ATOM     24  C   UNL A   1      33.402  31.391  26.973  1.00  0.00     0.338 C 
ATOM     25  O   UNL A   1      32.701  32.344  27.249  1.00  0.00    -0.246 OA
BRANCH  24  26
ATOM     26  C   UNL A   1      34.647  31.126  27.685  1.00  0.00     0.060 A 
ATOM     27  C   UNL A   1      35.541  32.157  27.953  1.00  0.00     0.016 A 
ATOM     28  C   UNL A   1      34.876  29.819  28.130  1.00  0.00     0.016 A 
ATOM     29  C   UNL A   1      36.711  31.858  28.641  1.00  0.00     0.010 A 
ATOM     30  C   UNL A   1      36.041  29.523  28.819  1.00  0.00     0.010 A 
ATOM     31  C   UNL A   1      36.968  30.541  29.061  1.00  0.00    -0.014 A 
BRANCH  31  32
ATOM     32  C   UNL A   1      38.220  30.238  29.773  1.00  0.00     0.031 A 
ATOM     33  C   UNL A   1      38.433  30.762  31.158  1.00  0.00     0.074 A 
ATOM     34  C   UNL A   1      39.132  29.467  29.159  1.00  0.00     0.049 A 
ATOM     35  N   UNL A   1      39.393  30.482  32.000  1.00  0.00    -0.248 NA
ATOM     36  C   UNL A   1      37.448  31.731  31.666  1.00  0.00     0.031 C 
ATOM     37  C   UNL A   1      39.020  28.968  27.787  1.00  0.00     0.029 A 
ATOM     38  N   UNL A   1      40.317  28.952  29.610  1.00  0.00    -0.354 N 
ATOM     39  C   UNL A   1      39.113  31.214  33.143  1.00  0.00     0.074 A 
ATOM     40  C   UNL A   1      37.929  31.999  32.873  1.00  0.00     0.031 C 
ATOM     41  C   UNL A   1      40.077  28.183  27.521  1.00  0.00     0.029 A 
ATOM     42  C   UNL A   1      40.937  28.135  28.698  1.00  0.00     0.049 A 
ATOM     43  H   UNL A   1      40.688  29.148  30.501  1.00  0.00     0.167 HD
ATOM     44  C   UNL A   1      39.778  31.200  34.321  1.00  0.00     0.037 A 
ATOM     45  C   UNL A   1      42.065  27.410  28.820  1.00  0.00     0.037 A 
ATOM     46  C   UNL A   1      40.953  30.406  34.563  1.00  0.00     0.049 A 
ATOM     47  C   UNL A   1      42.781  27.418  30.142  1.00  0.00     0.074 A 
ATOM     48  C   UNL A   1      41.686  30.284  35.728  1.00  0.00     0.029 A 
ATOM     49  N   UNL A   1      41.569  29.603  33.613  1.00  0.00    -0.354 N 
ATOM     50  N   UNL A   1      42.461  28.041  31.251  1.00  0.00    -0.248 NA
ATOM     51  C   UNL A   1      44.005  26.613  30.236  1.00  0.00     0.031 C 
ATOM     52  C   UNL A   1      42.769  29.438  35.473  1.00  0.00     0.029 A 
ATOM     53  C   UNL A   1      42.687  28.999  34.161  1.00  0.00     0.049 A 
ATOM     54  H   UNL A   1      41.256  29.481  32.687  1.00  0.00     0.167 HD
ATOM     55  C   UNL A   1      43.431  27.693  32.179  1.00  0.00     0.074 A 
ATOM     56  C   UNL A   1      44.338  26.782  31.509  1.00  0.00     0.031 C 
ATOM     57  C   UNL A   1      43.567  28.095  33.465  1.00  0.00     0.037 A 
BRANCH  44  58
ATOM     58  C   UNL A   1      39.246  32.036  35.446  1.00  0.00     0.064 A 
ATOM     59  C   UNL A   1      38.400  31.486  36.420  1.00  0.00     0.173 A 
ATOM     60  C   UNL A   1      39.664  33.364  35.609  1.00  0.00     0.173 A 
ATOM     61  F   UNL A   1      37.965  30.222  36.303  1.00  0.00    -0.203 F 
ATOM     62  C   UNL A   1      37.992  32.237  37.520  1.00  0.00     0.198 A 
ATOM     63  C   UNL A   1      39.270  34.105  36.721  1.00  0.00     0.198 A 
ATOM     64  F   UNL A   1      40.474  33.935  34.706  1.00  0.00    -0.203 F 
ATOM     65  F   UNL A   1      37.172  31.696  38.431  1.00  0.00    -0.200 F 
ATOM     66  C   UNL A   1      38.437  33.541  37.675  1.00  0.00     0.200 A 
ATOM     67  F   UNL A   1      39.711  35.361  36.877  1.00  0.00    -0.200 F 
ATOM     68  F   UNL A   1      38.064  34.253  38.747  1.00  0.00    -0.200 F 
ENDBRANCH  44  58
BRANCH  45  69
ATOM     69  C   UNL A   1      42.541  26.588  27.679  1.00  0.00     0.064 A 
ATOM     70  C   UNL A   1      42.042  25.298  27.459  1.00  0.00     0.173 A 
ATOM     71  C   UNL A   1      43.493  27.083  26.775  1.00  0.00     0.173 A 
ATOM     72  F   UNL A   1      41.141  24.776  28.303  1.00  0.00    -0.203 F 
ATOM     73  C   UNL A   1      42.489  24.525  26.389  1.00  0.00     0.198 A 
ATOM     74  C   UNL A   1      43.920  26.320  25.690  1.00  0.00     0.198 A 
ATOM     75  F   UNL A   1      43.996  28.316  26.935  1.00  0.00    -0.203 F 
ATOM     76  F   UNL A   1      42.025  23.279  26.226  1.00  0.00    -0.200 F 
ATOM     77  C   UNL A   1      43.424  25.039  25.502  1.00  0.00     0.200 A 
ATOM     78  F   UNL A   1      44.809  26.827  24.826  1.00  0.00    -0.200 F 
ATOM     79  F   UNL A   1      43.849  24.298  24.470  1.00  0.00    -0.200 F 
ENDBRANCH  45  69
BRANCH  57  80
ATOM     80  C   UNL A   1      44.734  27.554  34.234  1.00  0.00     0.064 A 
ATOM     81  C   UNL A   1      45.944  28.260  34.310  1.00  0.00     0.173 A 
ATOM     82  C   UNL A   1      44.618  26.361  34.961  1.00  0.00     0.173 A 
ATOM     83  F   UNL A   1      46.103  29.401  33.622  1.00  0.00    -0.203 F 
ATOM     84  C   UNL A   1      47.000  27.783  35.078  1.00  0.00     0.198 A 
ATOM     85  C   UNL A   1      45.667  25.901  35.751  1.00  0.00     0.198 A 
ATOM     86  F   UNL A   1      43.477  25.654  34.926  1.00  0.00    -0.203 F 
ATOM     87  F   UNL A   1      48.157  28.457  35.113  1.00  0.00    -0.200 F 
ATOM     88  C   UNL A   1      46.858  26.611  35.806  1.00  0.00     0.200 A 
ATOM     89  F   UNL A   1      45.523  24.777  36.466  1.00  0.00    -0.200 F 
ATOM     90  F   UNL A   1      47.871  26.162  36.559  1.00  0.00    -0.200 F 
ENDBRANCH  57  80
ENDBRANCH  31  32
ENDBRANCH  24  26
ENDBRANCH  23  24
ENDBRANCH  22  23
ENDBRANCH   1  22
TORSDOF 15
ENDMDL
