MODEL 1
REMARK VINA RESULT:     -12.7      0.000      0.000
REMARK SMILES COc1cc2c(cc1OC)[C@H](C(=O)OCCOC(=O)c1ccc(-c3c4nc(c(-c5c(F)c(F)c(F)c(F)c5F)c5ccc([nH]5)c(-c5c(F)c(F)c(F)c(F)c5F)c5nc(c(-c6c(F)c(F)c(F)c(F)c6F)c6ccc3[nH]6)C=C5)C=C4)cc1)[C@H](c1cccc(Cl)c1)N(C)C2=O
REMARK SMILES IDX 16 1 15 2 14 3 12 4 13 5 11 6 3 7 4 8 8 9 5 10 7 11 6 12
REMARK SMILES IDX 93 13 91 14 94 15 83 16 92 17 2 18 1 19 9 20 10 21 84 22
REMARK SMILES IDX 85 23 90 24 86 25 88 26 87 27 89 28 17 29 18 30 19 31 20 32
REMARK SMILES IDX 21 33 82 34 22 35 81 36 23 37 24 38 25 39 75 40 26 41 80 42
REMARK SMILES IDX 74 43 76 44 27 45 79 46 73 47 72 48 28 50 60 51 40 52 59 53
REMARK SMILES IDX 41 54 44 55 58 56 77 57 42 58 43 59 57 61 78 62 45 63 29 64
REMARK SMILES IDX 30 65 38 66 31 67 32 68 36 69 39 70 33 71 34 72 37 73 35 74
REMARK SMILES IDX 61 75 62 76 70 77 63 78 64 79 68 80 71 81 65 82 66 83 69 84
REMARK SMILES IDX 67 85 46 86 47 87 55 88 48 89 49 90 53 91 56 92 50 93 51 94
REMARK SMILES IDX 54 95 52 96
REMARK H PARENT 76 49 44 60
REMARK Flexibility Score: inf
ROOT
ATOM      1  C   UNL A   1      32.057  30.688  26.534  1.00  0.00     0.275 C 
ENDROOT
BRANCH   1   2
ATOM      2  C   UNL A   1      31.614  29.457  27.323  1.00  0.00     0.274 C 
BRANCH   2   3
ATOM      3  O   UNL A   1      32.599  28.398  27.283  1.00  0.00    -0.462 OA
BRANCH   3   4
ATOM      4  C   UNL A   1      32.151  27.239  26.713  1.00  0.00     0.316 C 
ATOM      5  O   UNL A   1      31.303  26.525  27.236  1.00  0.00    -0.251 OA
BRANCH   4   6
ATOM      6  C   UNL A   1      32.823  26.959  25.372  1.00  0.00     0.157 C 
ATOM      7  C   UNL A   1      31.781  23.157  23.573  1.00  0.00     0.161 A 
ATOM      8  C   UNL A   1      32.356  24.183  22.807  1.00  0.00     0.064 A 
ATOM      9  C   UNL A   1      31.688  23.305  24.963  1.00  0.00     0.161 A 
ATOM     10  C   UNL A   1      32.764  25.376  23.415  1.00  0.00     0.048 A 
ATOM     11  C   UNL A   1      32.125  24.495  25.556  1.00  0.00     0.056 A 
ATOM     12  C   UNL A   1      32.573  25.574  24.790  1.00  0.00    -0.015 A 
ATOM     13  C   UNL A   1      33.357  26.462  22.577  1.00  0.00     0.254 C 
ATOM     14  N   UNL A   1      33.267  27.754  23.095  1.00  0.00    -0.333 N 
ATOM     15  O   UNL A   1      33.861  26.195  21.493  1.00  0.00    -0.269 OA
ATOM     16  C   UNL A   1      32.431  28.007  24.288  1.00  0.00     0.134 C 
ATOM     17  C   UNL A   1      33.767  28.874  22.313  1.00  0.00     0.147 C 
BRANCH   7  18
ATOM     18  O   UNL A   1      31.231  22.051  22.984  1.00  0.00    -0.493 OA
ATOM     19  C   UNL A   1      32.149  21.017  22.652  1.00  0.00     0.278 C 
ENDBRANCH   7  18
BRANCH   9  20
ATOM     20  O   UNL A   1      31.206  22.427  25.897  1.00  0.00    -0.493 OA
ATOM     21  C   UNL A   1      30.218  22.872  26.809  1.00  0.00     0.278 C 
ENDBRANCH   9  20
BRANCH  16  22
ATOM     22  C   UNL A   1      30.931  28.102  23.928  1.00  0.00    -0.023 A 
ATOM     23  C   UNL A   1      30.094  26.980  24.052  1.00  0.00     0.006 A 
ATOM     24  C   UNL A   1      30.335  29.289  23.455  1.00  0.00     0.026 A 
ATOM     25  C   UNL A   1      28.774  26.998  23.592  1.00  0.00     0.002 A 
ATOM     26  C   UNL A   1      29.002  29.317  23.035  1.00  0.00     0.041 A 
ATOM     27  C   UNL A   1      28.230  28.165  23.069  1.00  0.00     0.020 A 
ATOM     28  Cl  UNL A   1      28.312  30.787  22.465  1.00  0.00    -0.084 Cl
ENDBRANCH  16  22
ENDBRANCH   4   6
ENDBRANCH   3   4
ENDBRANCH   2   3
ENDBRANCH   1   2
BRANCH   1  29
ATOM     29  O   UNL A   1      33.482  30.863  26.639  1.00  0.00    -0.458 OA
BRANCH  29  30
ATOM     30  C   UNL A   1      33.864  31.920  27.395  1.00  0.00     0.338 C 
ATOM     31  O   UNL A   1      33.221  32.924  27.642  1.00  0.00    -0.246 OA
BRANCH  30  32
ATOM     32  C   UNL A   1      35.113  31.581  28.098  1.00  0.00     0.060 A 
ATOM     33  C   UNL A   1      35.168  30.313  28.679  1.00  0.00     0.016 A 
ATOM     34  C   UNL A   1      36.196  32.453  28.205  1.00  0.00     0.016 A 
ATOM     35  C   UNL A   1      36.335  29.865  29.285  1.00  0.00     0.010 A 
ATOM     36  C   UNL A   1      37.343  32.037  28.897  1.00  0.00     0.010 A 
ATOM     37  C   UNL A   1      37.419  30.737  29.429  1.00  0.00    -0.014 A 
BRANCH  37  38
ATOM     38  C   UNL A   1      38.575  30.294  30.243  1.00  0.00     0.031 A 
ATOM     39  C   UNL A   1      39.599  29.394  29.622  1.00  0.00     0.074 A 
ATOM     40  C   UNL A   1      38.757  30.766  31.488  1.00  0.00     0.049 A 
ATOM     41  N   UNL A   1      40.663  28.857  30.161  1.00  0.00    -0.248 NA
ATOM     42  C   UNL A   1      39.413  29.067  28.200  1.00  0.00     0.031 C 
ATOM     43  C   UNL A   1      37.889  31.732  32.148  1.00  0.00     0.029 A 
ATOM     44  N   UNL A   1      39.741  30.514  32.410  1.00  0.00    -0.354 N 
ATOM     45  C   UNL A   1      41.262  28.120  29.151  1.00  0.00     0.074 A 
ATOM     46  C   UNL A   1      40.462  28.297  27.959  1.00  0.00     0.031 C 
ATOM     47  C   UNL A   1      38.385  32.011  33.363  1.00  0.00     0.029 A 
ATOM     48  C   UNL A   1      39.569  31.189  33.596  1.00  0.00     0.049 A 
ATOM     49  H   UNL A   1      40.498  29.907  32.240  1.00  0.00     0.167 HD
ATOM     50  C   UNL A   1      42.364  27.339  29.225  1.00  0.00     0.037 A 
ATOM     51  C   UNL A   1      40.265  31.114  34.747  1.00  0.00     0.037 A 
ATOM     52  C   UNL A   1      43.133  27.138  30.422  1.00  0.00     0.049 A 
ATOM     53  C   UNL A   1      41.420  30.148  34.833  1.00  0.00     0.074 A 
ATOM     54  C   UNL A   1      44.226  26.314  30.619  1.00  0.00     0.029 A 
ATOM     55  N   UNL A   1      42.878  27.763  31.635  1.00  0.00    -0.354 N 
ATOM     56  N   UNL A   1      41.947  29.401  33.893  1.00  0.00    -0.248 NA
ATOM     57  C   UNL A   1      42.054  29.988  36.150  1.00  0.00     0.031 C 
ATOM     58  C   UNL A   1      44.602  26.402  31.963  1.00  0.00     0.029 A 
ATOM     59  C   UNL A   1      43.777  27.320  32.591  1.00  0.00     0.049 A 
ATOM     60  H   UNL A   1      42.165  28.425  31.791  1.00  0.00     0.167 HD
ATOM     61  C   UNL A   1      42.973  28.690  34.499  1.00  0.00     0.074 A 
ATOM     62  C   UNL A   1      43.015  29.114  35.883  1.00  0.00     0.031 C 
ATOM     63  C   UNL A   1      43.799  27.758  33.964  1.00  0.00     0.037 A 
BRANCH  50  64
ATOM     64  C   UNL A   1      42.740  26.574  27.994  1.00  0.00     0.064 A 
ATOM     65  C   UNL A   1      42.194  25.315  27.706  1.00  0.00     0.173 A 
ATOM     66  C   UNL A   1      43.665  27.116  27.090  1.00  0.00     0.173 A 
ATOM     67  F   UNL A   1      41.328  24.744  28.557  1.00  0.00    -0.203 F 
ATOM     68  C   UNL A   1      42.574  24.619  26.562  1.00  0.00     0.198 A 
ATOM     69  C   UNL A   1      44.025  26.428  25.935  1.00  0.00     0.198 A 
ATOM     70  F   UNL A   1      44.221  28.313  27.328  1.00  0.00    -0.203 F 
ATOM     71  F   UNL A   1      42.075  23.398  26.326  1.00  0.00    -0.200 F 
ATOM     72  C   UNL A   1      43.484  25.178  25.676  1.00  0.00     0.200 A 
ATOM     73  F   UNL A   1      44.903  26.970  25.080  1.00  0.00    -0.200 F 
ATOM     74  F   UNL A   1      43.849  24.505  24.575  1.00  0.00    -0.200 F 
ENDBRANCH  50  64
BRANCH  51  75
ATOM     75  C   UNL A   1      39.850  31.906  35.938  1.00  0.00     0.064 A 
ATOM     76  C   UNL A   1      38.738  31.537  36.707  1.00  0.00     0.173 A 
ATOM     77  C   UNL A   1      40.526  33.083  36.299  1.00  0.00     0.173 A 
ATOM     78  F   UNL A   1      38.033  30.443  36.384  1.00  0.00    -0.203 F 
ATOM     79  C   UNL A   1      38.308  32.322  37.777  1.00  0.00     0.198 A 
ATOM     80  C   UNL A   1      40.117  33.847  37.388  1.00  0.00     0.198 A 
ATOM     81  F   UNL A   1      41.588  33.493  35.590  1.00  0.00    -0.203 F 
ATOM     82  F   UNL A   1      37.205  31.980  38.457  1.00  0.00    -0.200 F 
ATOM     83  C   UNL A   1      39.001  33.473  38.121  1.00  0.00     0.200 A 
ATOM     84  F   UNL A   1      40.797  34.953  37.720  1.00  0.00    -0.200 F 
ATOM     85  F   UNL A   1      38.585  34.230  39.145  1.00  0.00    -0.200 F 
ENDBRANCH  51  75
BRANCH  63  86
ATOM     86  C   UNL A   1      44.823  27.141  34.870  1.00  0.00     0.064 A 
ATOM     87  C   UNL A   1      46.075  27.739  35.072  1.00  0.00     0.173 A 
ATOM     88  C   UNL A   1      44.528  25.973  35.588  1.00  0.00     0.173 A 
ATOM     89  F   UNL A   1      46.410  28.849  34.397  1.00  0.00    -0.203 F 
ATOM     90  C   UNL A   1      47.001  27.181  35.949  1.00  0.00     0.198 A 
ATOM     91  C   UNL A   1      45.444  25.433  36.485  1.00  0.00     0.198 A 
ATOM     92  F   UNL A   1      43.340  25.367  35.434  1.00  0.00    -0.203 F 
ATOM     93  F   UNL A   1      48.206  27.748  36.100  1.00  0.00    -0.200 F 
ATOM     94  C   UNL A   1      46.681  26.033  36.661  1.00  0.00     0.200 A 
ATOM     95  F   UNL A   1      45.129  24.333  37.182  1.00  0.00    -0.200 F 
ATOM     96  F   UNL A   1      47.569  25.505  37.515  1.00  0.00    -0.200 F 
ENDBRANCH  63  86
ENDBRANCH  37  38
ENDBRANCH  30  32
ENDBRANCH  29  30
ENDBRANCH   1  29
TORSDOF 14
ENDMDL
MODEL 2
REMARK VINA RESULT:     -12.6      4.677      9.910
REMARK SMILES COc1cc2c(cc1OC)[C@H](C(=O)OCCOC(=O)c1ccc(-c3c4nc(c(-c5c(F)c(F)c(F)c(F)c5F)c5ccc([nH]5)c(-c5c(F)c(F)c(F)c(F)c5F)c5nc(c(-c6c(F)c(F)c(F)c(F)c6F)c6ccc3[nH]6)C=C5)C=C4)cc1)[C@H](c1cccc(Cl)c1)N(C)C2=O
REMARK SMILES IDX 16 1 15 2 14 3 12 4 13 5 11 6 3 7 4 8 8 9 5 10 7 11 6 12
REMARK SMILES IDX 93 13 91 14 94 15 83 16 92 17 2 18 1 19 9 20 10 21 84 22
REMARK SMILES IDX 85 23 90 24 86 25 88 26 87 27 89 28 17 29 18 30 19 31 20 32
REMARK SMILES IDX 21 33 82 34 22 35 81 36 23 37 24 38 25 39 75 40 26 41 80 42
REMARK SMILES IDX 74 43 76 44 27 45 79 46 73 47 72 48 28 50 60 51 40 52 59 53
REMARK SMILES IDX 41 54 44 55 58 56 77 57 42 58 43 59 57 61 78 62 45 63 29 64
REMARK SMILES IDX 30 65 38 66 31 67 32 68 36 69 39 70 33 71 34 72 37 73 35 74
REMARK SMILES IDX 61 75 62 76 70 77 63 78 64 79 68 80 71 81 65 82 66 83 69 84
REMARK SMILES IDX 67 85 46 86 47 87 55 88 48 89 49 90 53 91 56 92 50 93 51 94
REMARK SMILES IDX 54 95 52 96
REMARK H PARENT 76 49 44 60
REMARK Flexibility Score: inf
ROOT
ATOM      1  C   UNL A   1      37.498  21.016  24.921  1.00  0.00     0.275 C 
ENDROOT
BRANCH   1   2
ATOM      2  C   UNL A   1      37.052  21.978  23.820  1.00  0.00     0.274 C 
BRANCH   2   3
ATOM      3  O   UNL A   1      36.653  23.264  24.347  1.00  0.00    -0.462 OA
BRANCH   3   4
ATOM      4  C   UNL A   1      35.444  23.707  23.885  1.00  0.00     0.316 C 
ATOM      5  O   UNL A   1      35.233  23.950  22.702  1.00  0.00    -0.251 OA
BRANCH   4   6
ATOM      6  C   UNL A   1      34.416  23.850  25.004  1.00  0.00     0.157 C 
ATOM      7  C   UNL A   1      30.560  25.376  23.749  1.00  0.00     0.161 A 
ATOM      8  C   UNL A   1      30.707  24.709  24.975  1.00  0.00     0.064 A 
ATOM      9  C   UNL A   1      31.699  25.691  22.995  1.00  0.00     0.161 A 
ATOM     10  C   UNL A   1      31.971  24.294  25.408  1.00  0.00     0.048 A 
ATOM     11  C   UNL A   1      32.958  25.289  23.457  1.00  0.00     0.056 A 
ATOM     12  C   UNL A   1      33.102  24.508  24.607  1.00  0.00    -0.015 A 
ATOM     13  C   UNL A   1      32.101  23.570  26.708  1.00  0.00     0.254 C 
ATOM     14  N   UNL A   1      33.224  22.755  26.846  1.00  0.00    -0.333 N 
ATOM     15  O   UNL A   1      31.237  23.692  27.568  1.00  0.00    -0.269 OA
ATOM     16  C   UNL A   1      34.080  22.483  25.670  1.00  0.00     0.134 C 
ATOM     17  C   UNL A   1      33.394  21.969  28.059  1.00  0.00     0.147 C 
BRANCH   7  18
ATOM     18  O   UNL A   1      29.324  25.651  23.230  1.00  0.00    -0.493 OA
ATOM     19  C   UNL A   1      28.566  26.623  23.941  1.00  0.00     0.278 C 
ENDBRANCH   7  18
BRANCH   9  20
ATOM     20  O   UNL A   1      31.792  26.363  21.806  1.00  0.00    -0.493 OA
ATOM     21  C   UNL A   1      32.415  25.724  20.707  1.00  0.00     0.278 C 
ENDBRANCH   9  20
BRANCH  16  22
ATOM     22  C   UNL A   1      33.469  21.399  24.755  1.00  0.00    -0.023 A 
ATOM     23  C   UNL A   1      32.811  21.754  23.566  1.00  0.00     0.006 A 
ATOM     24  C   UNL A   1      33.526  20.022  25.061  1.00  0.00     0.026 A 
ATOM     25  C   UNL A   1      32.121  20.810  22.800  1.00  0.00     0.002 A 
ATOM     26  C   UNL A   1      32.872  19.073  24.271  1.00  0.00     0.041 A 
ATOM     27  C   UNL A   1      32.139  19.468  23.161  1.00  0.00     0.020 A 
ATOM     28  Cl  UNL A   1      32.968  17.404  24.677  1.00  0.00    -0.084 Cl
ENDBRANCH  16  22
ENDBRANCH   4   6
ENDBRANCH   3   4
ENDBRANCH   2   3
ENDBRANCH   1   2
BRANCH   1  29
ATOM     29  O   UNL A   1      38.024  21.750  26.042  1.00  0.00    -0.458 OA
BRANCH  29  30
ATOM     30  C   UNL A   1      39.299  21.435  26.371  1.00  0.00     0.338 C 
ATOM     31  O   UNL A   1      39.875  20.379  26.180  1.00  0.00    -0.246 OA
BRANCH  30  32
ATOM     32  C   UNL A   1      40.002  22.659  26.794  1.00  0.00     0.060 A 
ATOM     33  C   UNL A   1      39.667  23.829  26.111  1.00  0.00     0.016 A 
ATOM     34  C   UNL A   1      40.958  22.685  27.809  1.00  0.00     0.016 A 
ATOM     35  C   UNL A   1      40.206  25.049  26.496  1.00  0.00     0.010 A 
ATOM     36  C   UNL A   1      41.573  23.901  28.139  1.00  0.00     0.010 A 
ATOM     37  C   UNL A   1      41.189  25.089  27.490  1.00  0.00    -0.014 A 
BRANCH  37  38
ATOM     38  C   UNL A   1      41.879  26.375  27.747  1.00  0.00     0.031 A 
ATOM     39  C   UNL A   1      41.195  27.413  28.584  1.00  0.00     0.074 A 
ATOM     40  C   UNL A   1      43.136  26.576  27.318  1.00  0.00     0.049 A 
ATOM     41  N   UNL A   1      41.596  28.617  28.899  1.00  0.00    -0.248 NA
ATOM     42  C   UNL A   1      39.892  27.041  29.158  1.00  0.00     0.031 C 
ATOM     43  C   UNL A   1      43.937  25.594  26.598  1.00  0.00     0.029 A 
ATOM     44  N   UNL A   1      43.968  27.659  27.445  1.00  0.00    -0.354 N 
ATOM     45  C   UNL A   1      40.592  29.149  29.693  1.00  0.00     0.074 A 
ATOM     46  C   UNL A   1      39.574  28.133  29.836  1.00  0.00     0.031 C 
ATOM     47  C   UNL A   1      45.154  26.109  26.361  1.00  0.00     0.029 A 
ATOM     48  C   UNL A   1      45.195  27.483  26.851  1.00  0.00     0.049 A 
ATOM     49  H   UNL A   1      43.711  28.485  27.916  1.00  0.00     0.167 HD
ATOM     50  C   UNL A   1      40.517  30.390  30.227  1.00  0.00     0.037 A 
ATOM     51  C   UNL A   1      46.213  28.351  26.687  1.00  0.00     0.037 A 
ATOM     52  C   UNL A   1      41.515  31.408  30.050  1.00  0.00     0.049 A 
ATOM     53  C   UNL A   1      46.051  29.762  27.193  1.00  0.00     0.074 A 
ATOM     54  C   UNL A   1      41.500  32.719  30.492  1.00  0.00     0.029 A 
ATOM     55  N   UNL A   1      42.707  31.230  29.362  1.00  0.00    -0.354 N 
ATOM     56  N   UNL A   1      45.071  30.284  27.889  1.00  0.00    -0.248 NA
ATOM     57  C   UNL A   1      47.121  30.714  26.860  1.00  0.00     0.031 C 
ATOM     58  C   UNL A   1      42.661  33.347  30.028  1.00  0.00     0.029 A 
ATOM     59  C   UNL A   1      43.422  32.415  29.343  1.00  0.00     0.049 A 
ATOM     60  H   UNL A   1      43.000  30.385  28.950  1.00  0.00     0.167 HD
ATOM     61  C   UNL A   1      45.406  31.618  28.082  1.00  0.00     0.074 A 
ATOM     62  C   UNL A   1      46.694  31.820  27.454  1.00  0.00     0.031 C 
ATOM     63  C   UNL A   1      44.704  32.593  28.710  1.00  0.00     0.037 A 
BRANCH  50  64
ATOM     64  C   UNL A   1      39.264  30.735  30.971  1.00  0.00     0.064 A 
ATOM     65  C   UNL A   1      38.158  31.317  30.336  1.00  0.00     0.173 A 
ATOM     66  C   UNL A   1      39.175  30.477  32.347  1.00  0.00     0.173 A 
ATOM     67  F   UNL A   1      38.208  31.609  29.027  1.00  0.00    -0.203 F 
ATOM     68  C   UNL A   1      37.012  31.642  31.057  1.00  0.00     0.198 A 
ATOM     69  C   UNL A   1      38.020  30.782  33.060  1.00  0.00     0.198 A 
ATOM     70  F   UNL A   1      40.212  29.930  33.000  1.00  0.00    -0.203 F 
ATOM     71  F   UNL A   1      35.982  32.238  30.441  1.00  0.00    -0.200 F 
ATOM     72  C   UNL A   1      36.942  31.369  32.415  1.00  0.00     0.200 A 
ATOM     73  F   UNL A   1      37.954  30.515  34.371  1.00  0.00    -0.200 F 
ATOM     74  F   UNL A   1      35.838  31.684  33.107  1.00  0.00    -0.200 F 
ENDBRANCH  50  64
BRANCH  51  75
ATOM     75  C   UNL A   1      47.440  27.949  25.944  1.00  0.00     0.064 A 
ATOM     76  C   UNL A   1      47.437  27.816  24.549  1.00  0.00     0.173 A 
ATOM     77  C   UNL A   1      48.629  27.635  26.622  1.00  0.00     0.173 A 
ATOM     78  F   UNL A   1      46.318  28.066  23.855  1.00  0.00    -0.203 F 
ATOM     79  C   UNL A   1      48.567  27.368  23.864  1.00  0.00     0.198 A 
ATOM     80  C   UNL A   1      49.767  27.221  25.934  1.00  0.00     0.198 A 
ATOM     81  F   UNL A   1      48.686  27.729  27.959  1.00  0.00    -0.203 F 
ATOM     82  F   UNL A   1      48.518  27.190  22.537  1.00  0.00    -0.200 F 
ATOM     83  C   UNL A   1      49.733  27.077  24.557  1.00  0.00     0.200 A 
ATOM     84  F   UNL A   1      50.892  26.950  26.609  1.00  0.00    -0.200 F 
ATOM     85  F   UNL A   1      50.816  26.642  23.900  1.00  0.00    -0.200 F 
ENDBRANCH  51  75
BRANCH  63  86
ATOM     86  C   UNL A   1      45.317  33.961  28.759  1.00  0.00     0.064 A 
ATOM     87  C   UNL A   1      46.195  34.333  29.787  1.00  0.00     0.173 A 
ATOM     88  C   UNL A   1      45.069  34.889  27.736  1.00  0.00     0.173 A 
ATOM     89  F   UNL A   1      46.452  33.486  30.795  1.00  0.00    -0.203 F 
ATOM     90  C   UNL A   1      46.792  35.591  29.797  1.00  0.00     0.198 A 
ATOM     91  C   UNL A   1      45.688  36.135  27.735  1.00  0.00     0.198 A 
ATOM     92  F   UNL A   1      44.241  34.577  26.727  1.00  0.00    -0.203 F 
ATOM     93  F   UNL A   1      47.600  35.940  30.808  1.00  0.00    -0.200 F 
ATOM     94  C   UNL A   1      46.544  36.488  28.767  1.00  0.00     0.200 A 
ATOM     95  F   UNL A   1      45.459  36.995  26.733  1.00  0.00    -0.200 F 
ATOM     96  F   UNL A   1      47.129  37.693  28.772  1.00  0.00    -0.200 F 
ENDBRANCH  63  86
ENDBRANCH  37  38
ENDBRANCH  30  32
ENDBRANCH  29  30
ENDBRANCH   1  29
TORSDOF 14
ENDMDL
MODEL 3
REMARK VINA RESULT:     -12.4      4.625      7.711
REMARK SMILES COc1cc2c(cc1OC)[C@H](C(=O)OCCOC(=O)c1ccc(-c3c4nc(c(-c5c(F)c(F)c(F)c(F)c5F)c5ccc([nH]5)c(-c5c(F)c(F)c(F)c(F)c5F)c5nc(c(-c6c(F)c(F)c(F)c(F)c6F)c6ccc3[nH]6)C=C5)C=C4)cc1)[C@H](c1cccc(Cl)c1)N(C)C2=O
REMARK SMILES IDX 16 1 15 2 14 3 12 4 13 5 11 6 3 7 4 8 8 9 5 10 7 11 6 12
REMARK SMILES IDX 93 13 91 14 94 15 83 16 92 17 2 18 1 19 9 20 10 21 84 22
REMARK SMILES IDX 85 23 90 24 86 25 88 26 87 27 89 28 17 29 18 30 19 31 20 32
REMARK SMILES IDX 21 33 82 34 22 35 81 36 23 37 24 38 25 39 75 40 26 41 80 42
REMARK SMILES IDX 74 43 76 44 27 45 79 46 73 47 72 48 28 50 60 51 40 52 59 53
REMARK SMILES IDX 41 54 44 55 58 56 77 57 42 58 43 59 57 61 78 62 45 63 29 64
REMARK SMILES IDX 30 65 38 66 31 67 32 68 36 69 39 70 33 71 34 72 37 73 35 74
REMARK SMILES IDX 61 75 62 76 70 77 63 78 64 79 68 80 71 81 65 82 66 83 69 84
REMARK SMILES IDX 67 85 46 86 47 87 55 88 48 89 49 90 53 91 56 92 50 93 51 94
REMARK SMILES IDX 54 95 52 96
REMARK H PARENT 76 49 44 60
REMARK Flexibility Score: inf
ROOT
ATOM      1  C   UNL A   1      38.139  20.788  25.752  1.00  0.00     0.275 C 
ENDROOT
BRANCH   1   2
ATOM      2  C   UNL A   1      37.471  21.572  24.623  1.00  0.00     0.274 C 
BRANCH   2   3
ATOM      3  O   UNL A   1      37.149  22.927  25.014  1.00  0.00    -0.462 OA
BRANCH   3   4
ATOM      4  C   UNL A   1      36.084  23.464  24.345  1.00  0.00     0.316 C 
ATOM      5  O   UNL A   1      36.083  23.644  23.133  1.00  0.00    -0.251 OA
BRANCH   4   6
ATOM      6  C   UNL A   1      34.924  23.796  25.280  1.00  0.00     0.157 C 
ATOM      7  C   UNL A   1      31.760  26.151  23.487  1.00  0.00     0.161 A 
ATOM      8  C   UNL A   1      31.542  25.437  24.675  1.00  0.00     0.064 A 
ATOM      9  C   UNL A   1      33.056  26.232  22.959  1.00  0.00     0.161 A 
ATOM     10  C   UNL A   1      32.593  24.747  25.289  1.00  0.00     0.048 A 
ATOM     11  C   UNL A   1      34.100  25.556  23.602  1.00  0.00     0.056 A 
ATOM     12  C   UNL A   1      33.869  24.733  24.708  1.00  0.00    -0.015 A 
ATOM     13  C   UNL A   1      32.334  23.979  26.544  1.00  0.00     0.254 C 
ATOM     14  N   UNL A   1      33.219  22.937  26.819  1.00  0.00    -0.333 N 
ATOM     15  O   UNL A   1      31.373  24.262  27.250  1.00  0.00    -0.269 OA
ATOM     16  C   UNL A   1      34.197  22.518  25.791  1.00  0.00     0.134 C 
ATOM     17  C   UNL A   1      33.001  22.102  27.990  1.00  0.00     0.147 C 
BRANCH   7  18
ATOM     18  O   UNL A   1      30.722  26.701  22.784  1.00  0.00    -0.493 OA
ATOM     19  C   UNL A   1      30.361  28.023  23.162  1.00  0.00     0.278 C 
ENDBRANCH   7  18
BRANCH   9  20
ATOM     20  O   UNL A   1      33.499  26.899  21.849  1.00  0.00    -0.493 OA
ATOM     21  C   UNL A   1      34.030  28.203  22.001  1.00  0.00     0.278 C 
ENDBRANCH   9  20
BRANCH  16  22
ATOM     22  C   UNL A   1      33.549  21.615  24.718  1.00  0.00    -0.023 A 
ATOM     23  C   UNL A   1      32.916  22.178  23.596  1.00  0.00     0.006 A 
ATOM     24  C   UNL A   1      33.545  20.207  24.807  1.00  0.00     0.026 A 
ATOM     25  C   UNL A   1      32.194  21.394  22.693  1.00  0.00     0.002 A 
ATOM     26  C   UNL A   1      32.858  19.420  23.878  1.00  0.00     0.041 A 
ATOM     27  C   UNL A   1      32.152  20.012  22.841  1.00  0.00     0.020 A 
ATOM     28  Cl  UNL A   1      32.879  17.706  24.022  1.00  0.00    -0.084 Cl
ENDBRANCH  16  22
ENDBRANCH   4   6
ENDBRANCH   3   4
ENDBRANCH   2   3
ENDBRANCH   1   2
BRANCH   1  29
ATOM     29  O   UNL A   1      39.570  20.925  25.677  1.00  0.00    -0.458 OA
BRANCH  29  30
ATOM     30  C   UNL A   1      40.204  20.867  26.872  1.00  0.00     0.338 C 
ATOM     31  O   UNL A   1      40.506  19.870  27.503  1.00  0.00    -0.246 OA
BRANCH  30  32
ATOM     32  C   UNL A   1      40.710  22.208  27.214  1.00  0.00     0.060 A 
ATOM     33  C   UNL A   1      40.259  23.258  26.413  1.00  0.00     0.016 A 
ATOM     34  C   UNL A   1      41.594  22.452  28.264  1.00  0.00     0.016 A 
ATOM     35  C   UNL A   1      40.605  24.570  26.709  1.00  0.00     0.010 A 
ATOM     36  C   UNL A   1      42.019  23.766  28.509  1.00  0.00     0.010 A 
ATOM     37  C   UNL A   1      41.516  24.830  27.739  1.00  0.00    -0.014 A 
BRANCH  37  38
ATOM     38  C   UNL A   1      42.009  26.216  27.909  1.00  0.00     0.031 A 
ATOM     39  C   UNL A   1      43.321  26.602  27.294  1.00  0.00     0.074 A 
ATOM     40  C   UNL A   1      41.253  27.143  28.520  1.00  0.00     0.049 A 
ATOM     41  N   UNL A   1      43.957  27.743  27.352  1.00  0.00    -0.248 NA
ATOM     42  C   UNL A   1      44.001  25.571  26.494  1.00  0.00     0.031 C 
ATOM     43  C   UNL A   1      39.916  26.908  29.051  1.00  0.00     0.029 A 
ATOM     44  N   UNL A   1      41.489  28.470  28.778  1.00  0.00    -0.354 N 
ATOM     45  C   UNL A   1      45.114  27.563  26.611  1.00  0.00     0.074 A 
ATOM     46  C   UNL A   1      45.085  26.214  26.089  1.00  0.00     0.031 C 
ATOM     47  C   UNL A   1      39.436  28.056  29.556  1.00  0.00     0.029 A 
ATOM     48  C   UNL A   1      40.460  29.091  29.447  1.00  0.00     0.049 A 
ATOM     49  H   UNL A   1      42.315  28.933  28.511  1.00  0.00     0.167 HD
ATOM     50  C   UNL A   1      46.126  28.439  26.412  1.00  0.00     0.037 A 
ATOM     51  C   UNL A   1      40.380  30.338  29.950  1.00  0.00     0.037 A 
ATOM     52  C   UNL A   1      46.166  29.765  26.964  1.00  0.00     0.049 A 
ATOM     53  C   UNL A   1      41.571  31.253  29.811  1.00  0.00     0.074 A 
ATOM     54  C   UNL A   1      47.177  30.706  26.878  1.00  0.00     0.029 A 
ATOM     55  N   UNL A   1      45.151  30.335  27.718  1.00  0.00    -0.354 N 
ATOM     56  N   UNL A   1      42.693  31.059  29.164  1.00  0.00    -0.248 NA
ATOM     57  C   UNL A   1      41.497  32.548  30.505  1.00  0.00     0.031 C 
ATOM     58  C   UNL A   1      46.793  31.826  27.623  1.00  0.00     0.029 A 
ATOM     59  C   UNL A   1      45.522  31.604  28.129  1.00  0.00     0.049 A 
ATOM     60  H   UNL A   1      44.292  29.901  27.929  1.00  0.00     0.167 HD
ATOM     61  C   UNL A   1      43.455  32.202  29.365  1.00  0.00     0.074 A 
ATOM     62  C   UNL A   1      42.656  33.099  30.172  1.00  0.00     0.031 C 
ATOM     63  C   UNL A   1      44.709  32.480  28.933  1.00  0.00     0.037 A 
BRANCH  50  64
ATOM     64  C   UNL A   1      47.310  27.947  25.640  1.00  0.00     0.064 A 
ATOM     65  C   UNL A   1      47.311  27.885  24.239  1.00  0.00     0.173 A 
ATOM     66  C   UNL A   1      48.464  27.532  26.320  1.00  0.00     0.173 A 
ATOM     67  F   UNL A   1      46.219  28.244  23.547  1.00  0.00    -0.203 F 
ATOM     68  C   UNL A   1      48.421  27.407  23.548  1.00  0.00     0.198 A 
ATOM     69  C   UNL A   1      49.581  27.077  25.625  1.00  0.00     0.198 A 
ATOM     70  F   UNL A   1      48.507  27.565  27.661  1.00  0.00    -0.203 F 
ATOM     71  F   UNL A   1      48.387  27.313  22.212  1.00  0.00    -0.200 F 
ATOM     72  C   UNL A   1      49.556  27.010  24.241  1.00  0.00     0.200 A 
ATOM     73  F   UNL A   1      50.676  26.695  26.297  1.00  0.00    -0.200 F 
ATOM     74  F   UNL A   1      50.624  26.550  23.573  1.00  0.00    -0.200 F 
ENDBRANCH  50  64
BRANCH  51  75
ATOM     75  C   UNL A   1      39.172  30.776  30.703  1.00  0.00     0.064 A 
ATOM     76  C   UNL A   1      39.048  30.549  32.081  1.00  0.00     0.173 A 
ATOM     77  C   UNL A   1      38.088  31.384  30.047  1.00  0.00     0.173 A 
ATOM     78  F   UNL A   1      40.037  29.938  32.749  1.00  0.00    -0.203 F 
ATOM     79  C   UNL A   1      37.885  30.894  32.768  1.00  0.00     0.198 A 
ATOM     80  C   UNL A   1      36.941  31.759  30.741  1.00  0.00     0.198 A 
ATOM     81  F   UNL A   1      38.144  31.613  28.727  1.00  0.00    -0.203 F 
ATOM     82  F   UNL A   1      37.769  30.608  34.072  1.00  0.00    -0.200 F 
ATOM     83  C   UNL A   1      36.834  31.504  32.099  1.00  0.00     0.200 A 
ATOM     84  F   UNL A   1      35.934  32.357  30.090  1.00  0.00    -0.200 F 
ATOM     85  F   UNL A   1      35.715  31.830  32.758  1.00  0.00    -0.200 F 
ENDBRANCH  51  75
BRANCH  63  86
ATOM     86  C   UNL A   1      45.291  33.809  29.314  1.00  0.00     0.064 A 
ATOM     87  C   UNL A   1      46.068  33.963  30.471  1.00  0.00     0.173 A 
ATOM     88  C   UNL A   1      45.120  34.926  28.482  1.00  0.00     0.173 A 
ATOM     89  F   UNL A   1      46.249  32.928  31.305  1.00  0.00    -0.203 F 
ATOM     90  C   UNL A   1      46.640  35.191  30.790  1.00  0.00     0.198 A 
ATOM     91  C   UNL A   1      45.715  36.145  28.790  1.00  0.00     0.198 A 
ATOM     92  F   UNL A   1      44.390  34.827  27.360  1.00  0.00    -0.203 F 
ATOM     93  F   UNL A   1      47.349  35.326  31.919  1.00  0.00    -0.200 F 
ATOM     94  C   UNL A   1      46.470  36.279  29.945  1.00  0.00     0.200 A 
ATOM     95  F   UNL A   1      45.562  37.191  27.966  1.00  0.00    -0.200 F 
ATOM     96  F   UNL A   1      47.032  37.457  30.247  1.00  0.00    -0.200 F 
ENDBRANCH  63  86
ENDBRANCH  37  38
ENDBRANCH  30  32
ENDBRANCH  29  30
ENDBRANCH   1  29
TORSDOF 14
ENDMDL
