MODEL 1
REMARK VINA RESULT:     -11.5      0.000      0.000
REMARK SMILES CCc1ccc(C(=O)N2CSC[C@H]2C(=O)OCCOC(=O)c2ccc(-c3c4nc(c(-c5c(F)c(F)c(F)c(F)c5F)c5ccc([nH]5)c(-c5c(F)c(F)c(F)c(F)c5F)c5nc(c(-c6c(F)c(F)c(F)c(F)c6F)c6ccc3[nH]6)C=C5)C=C4)cc2)o1
REMARK SMILES IDX 17 1 16 2 14 3 15 4 13 5 9 6 10 7 11 8 12 9 7 10 8 11 6 12
REMARK SMILES IDX 3 13 4 14 85 15 5 16 2 17 1 18 18 19 19 20 20 21 21 22 22 23
REMARK SMILES IDX 23 24 84 25 24 26 83 27 25 28 26 29 27 30 77 31 28 32 82 33
REMARK SMILES IDX 76 34 78 35 29 36 81 37 75 38 74 39 30 41 62 42 42 43 61 44
REMARK SMILES IDX 43 45 46 46 60 47 79 48 44 49 45 50 59 52 80 53 47 54 31 55
REMARK SMILES IDX 32 56 40 57 33 58 34 59 38 60 41 61 35 62 36 63 39 64 37 65
REMARK SMILES IDX 63 66 64 67 72 68 65 69 66 70 70 71 73 72 67 73 68 74 71 75
REMARK SMILES IDX 69 76 48 77 49 78 57 79 50 80 51 81 55 82 58 83 52 84 53 85
REMARK SMILES IDX 56 86 54 87
REMARK H PARENT 78 40 46 51
REMARK Flexibility Score: inf
ROOT
ATOM      1  C   UNL A   1      31.689  28.632  26.653  1.00  0.00     0.274 C 
ENDROOT
BRANCH   1   2
ATOM      2  O   UNL A   1      32.899  27.863  26.477  1.00  0.00    -0.461 OA
BRANCH   2   3
ATOM      3  C   UNL A   1      32.794  26.846  25.582  1.00  0.00     0.329 C 
ATOM      4  O   UNL A   1      33.683  26.029  25.348  1.00  0.00    -0.250 OA
BRANCH   3   5
ATOM      5  C   UNL A   1      31.487  26.836  24.790  1.00  0.00     0.206 C 
ATOM      6  N   UNL A   1      31.488  26.988  23.338  1.00  0.00    -0.312 N 
ATOM      7  C   UNL A   1      31.651  25.755  22.615  1.00  0.00     0.191 C 
ATOM      8  S   UNL A   1      30.828  24.499  23.616  1.00  0.00    -0.138 SA
ATOM      9  C   UNL A   1      30.746  25.536  25.110  1.00  0.00     0.108 C 
BRANCH   6  10
ATOM     10  C   UNL A   1      31.334  28.246  22.776  1.00  0.00     0.291 C 
ATOM     11  O   UNL A   1      32.317  28.975  22.648  1.00  0.00    -0.265 OA
BRANCH  10  12
ATOM     12  C   UNL A   1      29.980  28.713  22.526  1.00  0.00     0.191 A 
ATOM     13  C   UNL A   1      28.467  30.073  21.669  1.00  0.00     0.104 A 
ATOM     14  C   UNL A   1      27.804  29.291  22.589  1.00  0.00     0.046 A 
ATOM     15  O   UNL A   1      29.786  29.728  21.625  1.00  0.00    -0.456 OA
ATOM     16  C   UNL A   1      28.775  28.428  23.147  1.00  0.00     0.056 A 
BRANCH  13  17
ATOM     17  C   UNL A   1      28.028  31.177  20.776  1.00  0.00     0.072 C 
ATOM     18  C   UNL A   1      28.044  32.521  21.488  1.00  0.00     0.012 C 
ENDBRANCH  13  17
ENDBRANCH  10  12
ENDBRANCH   6  10
ENDBRANCH   3   5
ENDBRANCH   2   3
ENDBRANCH   1   2
BRANCH   1  19
ATOM     19  C   UNL A   1      31.824  30.019  26.031  1.00  0.00     0.275 C 
BRANCH  19  20
ATOM     20  O   UNL A   1      33.192  30.450  26.097  1.00  0.00    -0.458 OA
BRANCH  20  21
ATOM     21  C   UNL A   1      33.470  31.344  27.078  1.00  0.00     0.338 C 
ATOM     22  O   UNL A   1      32.825  32.333  27.379  1.00  0.00    -0.246 OA
BRANCH  21  23
ATOM     23  C   UNL A   1      34.760  30.998  27.700  1.00  0.00     0.060 A 
ATOM     24  C   UNL A   1      35.047  29.689  28.090  1.00  0.00     0.016 A 
ATOM     25  C   UNL A   1      35.662  32.026  27.970  1.00  0.00     0.016 A 
ATOM     26  C   UNL A   1      36.202  29.414  28.819  1.00  0.00     0.010 A 
ATOM     27  C   UNL A   1      36.859  31.735  28.627  1.00  0.00     0.010 A 
ATOM     28  C   UNL A   1      37.127  30.433  29.083  1.00  0.00    -0.014 A 
BRANCH  28  29
ATOM     29  C   UNL A   1      38.370  30.159  29.847  1.00  0.00     0.031 A 
ATOM     30  C   UNL A   1      39.418  29.246  29.275  1.00  0.00     0.074 A 
ATOM     31  C   UNL A   1      38.537  30.691  31.073  1.00  0.00     0.049 A 
ATOM     32  N   UNL A   1      40.462  28.713  29.859  1.00  0.00    -0.248 NA
ATOM     33  C   UNL A   1      39.262  28.870  27.860  1.00  0.00     0.031 C 
ATOM     34  C   UNL A   1      37.612  31.613  31.729  1.00  0.00     0.029 A 
ATOM     35  N   UNL A   1      39.539  30.510  31.995  1.00  0.00    -0.354 N 
ATOM     36  C   UNL A   1      41.057  27.902  28.901  1.00  0.00     0.074 A 
ATOM     37  C   UNL A   1      40.259  28.010  27.698  1.00  0.00     0.031 C 
ATOM     38  C   UNL A   1      38.086  31.918  32.946  1.00  0.00     0.029 A 
ATOM     39  C   UNL A   1      39.309  31.160  33.183  1.00  0.00     0.049 A 
ATOM     40  H   UNL A   1      40.343  29.969  31.820  1.00  0.00     0.167 HD
ATOM     41  C   UNL A   1      42.167  27.136  29.022  1.00  0.00     0.037 A 
ATOM     42  C   UNL A   1      39.982  31.112  34.349  1.00  0.00     0.037 A 
ATOM     43  C   UNL A   1      42.985  27.072  30.205  1.00  0.00     0.049 A 
ATOM     44  C   UNL A   1      41.197  30.237  34.463  1.00  0.00     0.074 A 
ATOM     45  C   UNL A   1      44.158  26.363  30.406  1.00  0.00     0.029 A 
ATOM     46  N   UNL A   1      42.719  27.748  31.385  1.00  0.00    -0.354 N 
ATOM     47  N   UNL A   1      41.747  29.464  33.558  1.00  0.00    -0.248 NA
ATOM     48  C   UNL A   1      41.880  30.218  35.764  1.00  0.00     0.031 C 
ATOM     49  C   UNL A   1      44.580  26.581  31.722  1.00  0.00     0.029 A 
ATOM     50  C   UNL A   1      43.695  27.458  32.327  1.00  0.00     0.049 A 
ATOM     51  H   UNL A   1      41.951  28.345  31.534  1.00  0.00     0.167 HD
ATOM     52  C   UNL A   1      42.845  28.879  34.173  1.00  0.00     0.074 A 
ATOM     53  C   UNL A   1      42.895  29.399  35.524  1.00  0.00     0.031 C 
ATOM     54  C   UNL A   1      43.731  27.988  33.665  1.00  0.00     0.037 A 
BRANCH  41  55
ATOM     55  C   UNL A   1      42.555  26.279  27.853  1.00  0.00     0.064 A 
ATOM     56  C   UNL A   1      43.543  26.673  26.940  1.00  0.00     0.173 A 
ATOM     57  C   UNL A   1      41.965  25.017  27.681  1.00  0.00     0.173 A 
ATOM     58  F   UNL A   1      44.131  27.873  27.057  1.00  0.00    -0.203 F 
ATOM     59  C   UNL A   1      43.913  25.842  25.885  1.00  0.00     0.198 A 
ATOM     60  C   UNL A   1      42.355  24.179  26.640  1.00  0.00     0.198 A 
ATOM     61  F   UNL A   1      41.019  24.590  28.532  1.00  0.00    -0.203 F 
ATOM     62  F   UNL A   1      44.838  26.250  25.005  1.00  0.00    -0.200 F 
ATOM     63  C   UNL A   1      43.325  24.594  25.741  1.00  0.00     0.200 A 
ATOM     64  F   UNL A   1      41.796  22.968  26.510  1.00  0.00    -0.200 F 
ATOM     65  F   UNL A   1      43.693  23.791  24.732  1.00  0.00    -0.200 F 
ENDBRANCH  41  55
BRANCH  42  66
ATOM     66  C   UNL A   1      39.490  31.891  35.513  1.00  0.00     0.064 A 
ATOM     67  C   UNL A   1      39.915  33.208  35.729  1.00  0.00     0.173 A 
ATOM     68  C   UNL A   1      38.582  31.337  36.428  1.00  0.00     0.173 A 
ATOM     69  F   UNL A   1      40.802  33.771  34.895  1.00  0.00    -0.203 F 
ATOM     70  C   UNL A   1      39.460  33.939  36.824  1.00  0.00     0.198 A 
ATOM     71  C   UNL A   1      38.106  32.078  37.506  1.00  0.00     0.198 A 
ATOM     72  F   UNL A   1      38.145  30.080  36.264  1.00  0.00    -0.203 F 
ATOM     73  F   UNL A   1      39.912  35.183  37.032  1.00  0.00    -0.200 F 
ATOM     74  C   UNL A   1      38.550  33.375  37.707  1.00  0.00     0.200 A 
ATOM     75  F   UNL A   1      37.217  31.535  38.349  1.00  0.00    -0.200 F 
ATOM     76  F   UNL A   1      38.107  34.082  38.757  1.00  0.00    -0.200 F 
ENDBRANCH  42  66
BRANCH  54  77
ATOM     77  C   UNL A   1      44.843  27.542  34.565  1.00  0.00     0.064 A 
ATOM     78  C   UNL A   1      44.727  26.391  35.358  1.00  0.00     0.173 A 
ATOM     79  C   UNL A   1      46.049  28.256  34.609  1.00  0.00     0.173 A 
ATOM     80  F   UNL A   1      43.586  25.686  35.361  1.00  0.00    -0.203 F 
ATOM     81  C   UNL A   1      45.774  25.982  36.178  1.00  0.00     0.198 A 
ATOM     82  C   UNL A   1      47.103  27.830  35.413  1.00  0.00     0.198 A 
ATOM     83  F   UNL A   1      46.210  29.361  33.867  1.00  0.00    -0.203 F 
ATOM     84  F   UNL A   1      45.628  24.903  36.960  1.00  0.00    -0.200 F 
ATOM     85  C   UNL A   1      46.963  26.697  36.201  1.00  0.00     0.200 A 
ATOM     86  F   UNL A   1      48.254  28.517  35.427  1.00  0.00    -0.200 F 
ATOM     87  F   UNL A   1      47.971  26.299  36.989  1.00  0.00    -0.200 F 
ENDBRANCH  54  77
ENDBRANCH  28  29
ENDBRANCH  21  23
ENDBRANCH  20  21
ENDBRANCH  19  20
ENDBRANCH   1  19
TORSDOF 14
ENDMDL
MODEL 2
REMARK VINA RESULT:     -11.4      1.717      3.785
REMARK SMILES CCc1ccc(C(=O)N2CSC[C@H]2C(=O)OCCOC(=O)c2ccc(-c3c4nc(c(-c5c(F)c(F)c(F)c(F)c5F)c5ccc([nH]5)c(-c5c(F)c(F)c(F)c(F)c5F)c5nc(c(-c6c(F)c(F)c(F)c(F)c6F)c6ccc3[nH]6)C=C5)C=C4)cc2)o1
REMARK SMILES IDX 17 1 16 2 14 3 15 4 13 5 9 6 10 7 11 8 12 9 7 10 8 11 6 12
REMARK SMILES IDX 3 13 4 14 85 15 5 16 2 17 1 18 18 19 19 20 20 21 21 22 22 23
REMARK SMILES IDX 23 24 84 25 24 26 83 27 25 28 26 29 27 30 77 31 28 32 82 33
REMARK SMILES IDX 76 34 78 35 29 36 81 37 75 38 74 39 30 41 62 42 42 43 61 44
REMARK SMILES IDX 43 45 46 46 60 47 79 48 44 49 45 50 59 52 80 53 47 54 31 55
REMARK SMILES IDX 32 56 40 57 33 58 34 59 38 60 41 61 35 62 36 63 39 64 37 65
REMARK SMILES IDX 63 66 64 67 72 68 65 69 66 70 70 71 73 72 67 73 68 74 71 75
REMARK SMILES IDX 69 76 48 77 49 78 57 79 50 80 51 81 55 82 58 83 52 84 53 85
REMARK SMILES IDX 56 86 54 87
REMARK H PARENT 78 40 46 51
REMARK Flexibility Score: inf
ROOT
ATOM      1  C   UNL A   1      31.555  28.571  26.358  1.00  0.00     0.274 C 
ENDROOT
BRANCH   1   2
ATOM      2  O   UNL A   1      31.698  27.547  25.350  1.00  0.00    -0.461 OA
BRANCH   2   3
ATOM      3  C   UNL A   1      31.126  26.357  25.672  1.00  0.00     0.329 C 
ATOM      4  O   UNL A   1      30.275  26.206  26.547  1.00  0.00    -0.250 OA
BRANCH   3   5
ATOM      5  C   UNL A   1      31.692  25.160  24.910  1.00  0.00     0.206 C 
ATOM      6  N   UNL A   1      32.973  24.568  25.287  1.00  0.00    -0.312 N 
ATOM      7  C   UNL A   1      32.879  23.560  26.311  1.00  0.00     0.191 C 
ATOM      8  S   UNL A   1      31.296  22.740  26.033  1.00  0.00    -0.138 SA
ATOM      9  C   UNL A   1      30.649  24.041  24.935  1.00  0.00     0.108 C 
BRANCH   6  10
ATOM     10  C   UNL A   1      34.138  24.987  24.663  1.00  0.00     0.291 C 
ATOM     11  O   UNL A   1      34.147  26.058  24.059  1.00  0.00    -0.265 OA
BRANCH  10  12
ATOM     12  C   UNL A   1      35.247  24.050  24.605  1.00  0.00     0.191 A 
ATOM     13  C   UNL A   1      37.204  23.236  25.223  1.00  0.00     0.104 A 
ATOM     14  C   UNL A   1      36.881  22.605  24.043  1.00  0.00     0.046 A 
ATOM     15  O   UNL A   1      36.219  24.112  25.571  1.00  0.00    -0.456 OA
ATOM     16  C   UNL A   1      35.634  23.134  23.640  1.00  0.00     0.056 A 
BRANCH  13  17
ATOM     17  C   UNL A   1      38.379  23.149  26.129  1.00  0.00     0.072 C 
ATOM     18  C   UNL A   1      38.618  24.454  26.874  1.00  0.00     0.012 C 
ENDBRANCH  13  17
ENDBRANCH  10  12
ENDBRANCH   6  10
ENDBRANCH   3   5
ENDBRANCH   2   3
ENDBRANCH   1   2
BRANCH   1  19
ATOM     19  C   UNL A   1      31.815  29.957  25.774  1.00  0.00     0.275 C 
BRANCH  19  20
ATOM     20  O   UNL A   1      33.191  30.318  25.973  1.00  0.00    -0.458 OA
BRANCH  20  21
ATOM     21  C   UNL A   1      33.415  31.205  26.974  1.00  0.00     0.338 C 
ATOM     22  O   UNL A   1      32.734  32.170  27.272  1.00  0.00    -0.246 OA
BRANCH  21  23
ATOM     23  C   UNL A   1      34.699  30.889  27.624  1.00  0.00     0.060 A 
ATOM     24  C   UNL A   1      35.018  29.582  27.996  1.00  0.00     0.016 A 
ATOM     25  C   UNL A   1      35.559  31.939  27.940  1.00  0.00     0.016 A 
ATOM     26  C   UNL A   1      36.162  29.329  28.752  1.00  0.00     0.010 A 
ATOM     27  C   UNL A   1      36.747  31.674  28.624  1.00  0.00     0.010 A 
ATOM     28  C   UNL A   1      37.045  30.372  29.061  1.00  0.00    -0.014 A 
BRANCH  28  29
ATOM     29  C   UNL A   1      38.276  30.123  29.855  1.00  0.00     0.031 A 
ATOM     30  C   UNL A   1      39.346  29.217  29.314  1.00  0.00     0.074 A 
ATOM     31  C   UNL A   1      38.410  30.671  31.077  1.00  0.00     0.049 A 
ATOM     32  N   UNL A   1      40.385  28.704  29.926  1.00  0.00    -0.248 NA
ATOM     33  C   UNL A   1      39.225  28.822  27.902  1.00  0.00     0.031 C 
ATOM     34  C   UNL A   1      37.460  31.589  31.703  1.00  0.00     0.029 A 
ATOM     35  N   UNL A   1      39.395  30.514  32.021  1.00  0.00    -0.354 N 
ATOM     36  C   UNL A   1      41.009  27.889  28.991  1.00  0.00     0.074 A 
ATOM     37  C   UNL A   1      40.235  27.973  27.770  1.00  0.00     0.031 C 
ATOM     38  C   UNL A   1      37.905  31.914  32.926  1.00  0.00     0.029 A 
ATOM     39  C   UNL A   1      39.132  31.174  33.196  1.00  0.00     0.049 A 
ATOM     40  H   UNL A   1      40.209  29.981  31.870  1.00  0.00     0.167 HD
ATOM     41  C   UNL A   1      42.126  27.139  29.144  1.00  0.00     0.037 A 
ATOM     42  C   UNL A   1      39.781  31.148  34.376  1.00  0.00     0.037 A 
ATOM     43  C   UNL A   1      42.920  27.099  30.344  1.00  0.00     0.049 A 
ATOM     44  C   UNL A   1      41.005  30.290  34.526  1.00  0.00     0.074 A 
ATOM     45  C   UNL A   1      44.097  26.407  30.578  1.00  0.00     0.029 A 
ATOM     46  N   UNL A   1      42.621  27.786  31.510  1.00  0.00    -0.354 N 
ATOM     47  N   UNL A   1      41.583  29.514  33.642  1.00  0.00    -0.248 NA
ATOM     48  C   UNL A   1      41.660  30.295  35.841  1.00  0.00     0.031 C 
ATOM     49  C   UNL A   1      44.489  26.646  31.899  1.00  0.00     0.029 A 
ATOM     50  C   UNL A   1      43.581  27.518  32.475  1.00  0.00     0.049 A 
ATOM     51  H   UNL A   1      41.843  28.375  31.636  1.00  0.00     0.167 HD
ATOM     52  C   UNL A   1      42.674  28.950  34.286  1.00  0.00     0.074 A 
ATOM     53  C   UNL A   1      42.690  29.487  35.632  1.00  0.00     0.031 C 
ATOM     54  C   UNL A   1      43.582  28.065  33.807  1.00  0.00     0.037 A 
BRANCH  41  55
ATOM     55  C   UNL A   1      42.549  26.273  27.993  1.00  0.00     0.064 A 
ATOM     56  C   UNL A   1      42.062  24.968  27.831  1.00  0.00     0.173 A 
ATOM     57  C   UNL A   1      43.410  26.783  27.010  1.00  0.00     0.173 A 
ATOM     58  F   UNL A   1      41.243  24.433  28.748  1.00  0.00    -0.203 F 
ATOM     59  C   UNL A   1      42.439  24.198  26.733  1.00  0.00     0.198 A 
ATOM     60  C   UNL A   1      43.764  26.018  25.901  1.00  0.00     0.198 A 
ATOM     61  F   UNL A   1      43.897  28.028  27.115  1.00  0.00    -0.203 F 
ATOM     62  F   UNL A   1      41.988  22.941  26.611  1.00  0.00    -0.200 F 
ATOM     63  C   UNL A   1      43.282  24.726  25.766  1.00  0.00     0.200 A 
ATOM     64  F   UNL A   1      44.568  26.534  24.961  1.00  0.00    -0.200 F 
ATOM     65  F   UNL A   1      43.631  23.986  24.703  1.00  0.00    -0.200 F 
ENDBRANCH  41  55
BRANCH  42  66
ATOM     66  C   UNL A   1      39.255  31.935  35.521  1.00  0.00     0.064 A 
ATOM     67  C   UNL A   1      38.391  31.354  36.457  1.00  0.00     0.173 A 
ATOM     68  C   UNL A   1      39.610  33.280  35.703  1.00  0.00     0.173 A 
ATOM     69  F   UNL A   1      38.004  30.078  36.310  1.00  0.00    -0.203 F 
ATOM     70  C   UNL A   1      37.891  32.092  37.528  1.00  0.00     0.198 A 
ATOM     71  C   UNL A   1      39.133  34.009  36.789  1.00  0.00     0.198 A 
ATOM     72  F   UNL A   1      40.434  33.882  34.833  1.00  0.00    -0.203 F 
ATOM     73  F   UNL A   1      37.035  31.525  38.388  1.00  0.00    -0.200 F 
ATOM     74  C   UNL A   1      38.269  33.417  37.697  1.00  0.00     0.200 A 
ATOM     75  F   UNL A   1      39.510  35.284  36.956  1.00  0.00    -0.200 F 
ATOM     76  F   UNL A   1      37.793  34.124  38.731  1.00  0.00    -0.200 F 
ENDBRANCH  42  66
BRANCH  54  77
ATOM     77  C   UNL A   1      44.681  27.643  34.736  1.00  0.00     0.064 A 
ATOM     78  C   UNL A   1      44.561  26.503  35.544  1.00  0.00     0.173 A 
ATOM     79  C   UNL A   1      45.880  28.369  34.792  1.00  0.00     0.173 A 
ATOM     80  F   UNL A   1      43.426  25.788  35.536  1.00  0.00    -0.203 F 
ATOM     81  C   UNL A   1      45.595  26.117  36.391  1.00  0.00     0.198 A 
ATOM     82  C   UNL A   1      46.922  27.965  35.622  1.00  0.00     0.198 A 
ATOM     83  F   UNL A   1      46.044  29.464  34.035  1.00  0.00    -0.203 F 
ATOM     84  F   UNL A   1      45.444  25.049  37.186  1.00  0.00    -0.200 F 
ATOM     85  C   UNL A   1      46.776  26.844  36.425  1.00  0.00     0.200 A 
ATOM     86  F   UNL A   1      48.066  28.664  35.647  1.00  0.00    -0.200 F 
ATOM     87  F   UNL A   1      47.773  26.468  37.238  1.00  0.00    -0.200 F 
ENDBRANCH  54  77
ENDBRANCH  28  29
ENDBRANCH  21  23
ENDBRANCH  20  21
ENDBRANCH  19  20
ENDBRANCH   1  19
TORSDOF 14
ENDMDL
MODEL 3
REMARK VINA RESULT:     -11.4      5.081     10.243
REMARK SMILES CCc1ccc(C(=O)N2CSC[C@H]2C(=O)OCCOC(=O)c2ccc(-c3c4nc(c(-c5c(F)c(F)c(F)c(F)c5F)c5ccc([nH]5)c(-c5c(F)c(F)c(F)c(F)c5F)c5nc(c(-c6c(F)c(F)c(F)c(F)c6F)c6ccc3[nH]6)C=C5)C=C4)cc2)o1
REMARK SMILES IDX 17 1 16 2 14 3 15 4 13 5 9 6 10 7 11 8 12 9 7 10 8 11 6 12
REMARK SMILES IDX 3 13 4 14 85 15 5 16 2 17 1 18 18 19 19 20 20 21 21 22 22 23
REMARK SMILES IDX 23 24 84 25 24 26 83 27 25 28 26 29 27 30 77 31 28 32 82 33
REMARK SMILES IDX 76 34 78 35 29 36 81 37 75 38 74 39 30 41 62 42 42 43 61 44
REMARK SMILES IDX 43 45 46 46 60 47 79 48 44 49 45 50 59 52 80 53 47 54 31 55
REMARK SMILES IDX 32 56 40 57 33 58 34 59 38 60 41 61 35 62 36 63 39 64 37 65
REMARK SMILES IDX 63 66 64 67 72 68 65 69 66 70 70 71 73 72 67 73 68 74 71 75
REMARK SMILES IDX 69 76 48 77 49 78 57 79 50 80 51 81 55 82 58 83 52 84 53 85
REMARK SMILES IDX 56 86 54 87
REMARK H PARENT 78 40 46 51
REMARK Flexibility Score: inf
ROOT
ATOM      1  C   UNL A   1      36.368  22.623  23.919  1.00  0.00     0.274 C 
ENDROOT
BRANCH   1   2
ATOM      2  O   UNL A   1      35.765  23.535  24.863  1.00  0.00    -0.461 OA
BRANCH   2   3
ATOM      3  C   UNL A   1      34.535  23.987  24.502  1.00  0.00     0.329 C 
ATOM      4  O   UNL A   1      34.132  25.134  24.687  1.00  0.00    -0.250 OA
BRANCH   3   5
ATOM      5  C   UNL A   1      33.619  22.917  23.911  1.00  0.00     0.206 C 
ATOM      6  N   UNL A   1      32.738  22.128  24.767  1.00  0.00    -0.312 N 
ATOM      7  C   UNL A   1      31.457  22.736  25.018  1.00  0.00     0.191 C 
ATOM      8  S   UNL A   1      31.052  23.639  23.510  1.00  0.00    -0.138 SA
ATOM      9  C   UNL A   1      32.744  23.575  22.841  1.00  0.00     0.108 C 
BRANCH   6  10
ATOM     10  C   UNL A   1      33.164  20.902  25.254  1.00  0.00     0.291 C 
ATOM     11  O   UNL A   1      33.856  20.864  26.270  1.00  0.00    -0.265 OA
BRANCH  10  12
ATOM     12  C   UNL A   1      32.920  19.727  24.433  1.00  0.00     0.191 A 
ATOM     13  C   UNL A   1      33.199  17.620  23.835  1.00  0.00     0.104 A 
ATOM     14  C   UNL A   1      32.513  18.225  22.805  1.00  0.00     0.046 A 
ATOM     15  O   UNL A   1      33.448  18.524  24.825  1.00  0.00    -0.456 OA
ATOM     16  C   UNL A   1      32.345  19.577  23.182  1.00  0.00     0.056 A 
BRANCH  13  17
ATOM     17  C   UNL A   1      33.703  16.237  24.041  1.00  0.00     0.072 C 
ATOM     18  C   UNL A   1      34.877  16.201  25.007  1.00  0.00     0.012 C 
ENDBRANCH  13  17
ENDBRANCH  10  12
ENDBRANCH   6  10
ENDBRANCH   3   5
ENDBRANCH   2   3
ENDBRANCH   1   2
BRANCH   1  19
ATOM     19  C   UNL A   1      36.972  21.416  24.630  1.00  0.00     0.275 C 
BRANCH  19  20
ATOM     20  O   UNL A   1      37.466  21.810  25.921  1.00  0.00    -0.458 OA
BRANCH  20  21
ATOM     21  C   UNL A   1      38.787  21.585  26.127  1.00  0.00     0.338 C 
ATOM     22  O   UNL A   1      39.383  20.529  26.009  1.00  0.00    -0.246 OA
BRANCH  21  23
ATOM     23  C   UNL A   1      39.418  22.821  26.624  1.00  0.00     0.060 A 
ATOM     24  C   UNL A   1      39.031  24.074  26.144  1.00  0.00     0.016 A 
ATOM     25  C   UNL A   1      40.474  22.709  27.526  1.00  0.00     0.016 A 
ATOM     26  C   UNL A   1      39.748  25.212  26.506  1.00  0.00     0.010 A 
ATOM     27  C   UNL A   1      41.137  23.860  27.954  1.00  0.00     0.010 A 
ATOM     28  C   UNL A   1      40.800  25.119  27.427  1.00  0.00    -0.014 A 
BRANCH  28  29
ATOM     29  C   UNL A   1      41.569  26.321  27.836  1.00  0.00     0.031 A 
ATOM     30  C   UNL A   1      40.900  27.402  28.639  1.00  0.00     0.074 A 
ATOM     31  C   UNL A   1      42.850  26.465  27.448  1.00  0.00     0.049 A 
ATOM     32  N   UNL A   1      41.321  28.611  28.913  1.00  0.00    -0.248 NA
ATOM     33  C   UNL A   1      39.575  27.086  29.195  1.00  0.00     0.031 C 
ATOM     34  C   UNL A   1      43.622  25.479  26.693  1.00  0.00     0.029 A 
ATOM     35  N   UNL A   1      43.721  27.513  27.619  1.00  0.00    -0.354 N 
ATOM     36  C   UNL A   1      40.295  29.215  29.627  1.00  0.00     0.074 A 
ATOM     37  C   UNL A   1      39.229  28.242  29.745  1.00  0.00     0.031 C 
ATOM     38  C   UNL A   1      44.851  25.966  26.464  1.00  0.00     0.029 A 
ATOM     39  C   UNL A   1      44.929  27.323  26.994  1.00  0.00     0.049 A 
ATOM     40  H   UNL A   1      43.501  28.320  28.138  1.00  0.00     0.167 HD
ATOM     41  C   UNL A   1      40.250  30.470  30.134  1.00  0.00     0.037 A 
ATOM     42  C   UNL A   1      45.966  28.166  26.823  1.00  0.00     0.037 A 
ATOM     43  C   UNL A   1      41.332  31.417  30.058  1.00  0.00     0.049 A 
ATOM     44  C   UNL A   1      45.882  29.560  27.376  1.00  0.00     0.074 A 
ATOM     45  C   UNL A   1      41.399  32.696  30.586  1.00  0.00     0.029 A 
ATOM     46  N   UNL A   1      42.540  31.184  29.419  1.00  0.00    -0.354 N 
ATOM     47  N   UNL A   1      44.904  30.128  28.040  1.00  0.00    -0.248 NA
ATOM     48  C   UNL A   1      47.040  30.435  27.146  1.00  0.00     0.031 C 
ATOM     49  C   UNL A   1      42.634  33.250  30.232  1.00  0.00     0.029 A 
ATOM     50  C   UNL A   1      43.352  32.303  29.522  1.00  0.00     0.049 A 
ATOM     51  H   UNL A   1      42.784  30.348  28.960  1.00  0.00     0.167 HD
ATOM     52  C   UNL A   1      45.332  31.417  28.319  1.00  0.00     0.074 A 
ATOM     53  C   UNL A   1      46.666  31.545  27.768  1.00  0.00     0.031 C 
ATOM     54  C   UNL A   1      44.678  32.409  28.971  1.00  0.00     0.037 A 
BRANCH  41  55
ATOM     55  C   UNL A   1      38.978  30.911  30.797  1.00  0.00     0.064 A 
ATOM     56  C   UNL A   1      37.918  31.471  30.068  1.00  0.00     0.173 A 
ATOM     57  C   UNL A   1      38.798  30.715  32.175  1.00  0.00     0.173 A 
ATOM     58  F   UNL A   1      38.043  31.686  28.750  1.00  0.00    -0.203 F 
ATOM     59  C   UNL A   1      36.731  31.835  30.700  1.00  0.00     0.198 A 
ATOM     60  C   UNL A   1      37.602  31.057  32.798  1.00  0.00     0.198 A 
ATOM     61  F   UNL A   1      39.779  30.176  32.915  1.00  0.00    -0.203 F 
ATOM     62  F   UNL A   1      35.742  32.398  29.992  1.00  0.00    -0.200 F 
ATOM     63  C   UNL A   1      36.571  31.621  32.062  1.00  0.00     0.200 A 
ATOM     64  F   UNL A   1      37.443  30.837  34.111  1.00  0.00    -0.200 F 
ATOM     65  F   UNL A   1      35.423  31.961  32.664  1.00  0.00    -0.200 F 
ENDBRANCH  41  55
BRANCH  42  66
ATOM     66  C   UNL A   1      47.158  27.718  26.058  1.00  0.00     0.064 A 
ATOM     67  C   UNL A   1      48.298  27.239  26.716  1.00  0.00     0.173 A 
ATOM     68  C   UNL A   1      47.178  27.757  24.656  1.00  0.00     0.173 A 
ATOM     69  F   UNL A   1      48.334  27.208  28.057  1.00  0.00    -0.203 F 
ATOM     70  C   UNL A   1      49.419  26.826  26.001  1.00  0.00     0.198 A 
ATOM     71  C   UNL A   1      48.289  27.316  23.941  1.00  0.00     0.198 A 
ATOM     72  F   UNL A   1      46.111  28.207  23.980  1.00  0.00    -0.203 F 
ATOM     73  F   UNL A   1      50.512  26.409  26.654  1.00  0.00    -0.200 F 
ATOM     74  C   UNL A   1      49.410  26.857  24.614  1.00  0.00     0.200 A 
ATOM     75  F   UNL A   1      48.272  27.336  22.601  1.00  0.00    -0.200 F 
ATOM     76  F   UNL A   1      50.487  26.453  23.926  1.00  0.00    -0.200 F 
ENDBRANCH  42  66
BRANCH  54  77
ATOM     77  C   UNL A   1      45.407  33.708  29.146  1.00  0.00     0.064 A 
ATOM     78  C   UNL A   1      46.240  33.937  30.250  1.00  0.00     0.173 A 
ATOM     79  C   UNL A   1      45.293  34.720  28.182  1.00  0.00     0.173 A 
ATOM     80  F   UNL A   1      46.365  33.005  31.207  1.00  0.00    -0.203 F 
ATOM     81  C   UNL A   1      46.920  35.144  30.392  1.00  0.00     0.198 A 
ATOM     82  C   UNL A   1      45.995  35.915  28.315  1.00  0.00     0.198 A 
ATOM     83  F   UNL A   1      44.511  34.546  27.106  1.00  0.00    -0.203 F 
ATOM     84  F   UNL A   1      47.679  35.359  31.475  1.00  0.00    -0.200 F 
ATOM     85  C   UNL A   1      46.802  36.128  29.422  1.00  0.00     0.200 A 
ATOM     86  F   UNL A   1      45.886  36.862  27.372  1.00  0.00    -0.200 F 
ATOM     87  F   UNL A   1      47.461  37.287  29.558  1.00  0.00    -0.200 F 
ENDBRANCH  54  77
ENDBRANCH  28  29
ENDBRANCH  21  23
ENDBRANCH  20  21
ENDBRANCH  19  20
ENDBRANCH   1  19
TORSDOF 14
ENDMDL
