MODEL 1
REMARK VINA RESULT:     -12.8      0.000      0.000
REMARK SMILES COc1ccc(-c2ccc(C(=O)NCc3ccc(C(=O)OCCOC(=O)c4ccc(-c5c6nc(c(-c7c(F)c(F)c(F)c(F)c7F)c7ccc([nH]7)c(-c7c(F)c(F)c(F)c(F)c7F)c7nc(c(-c8c(F)c(F)c(F)c(F)c8F)c8ccc5[nH]8)C=C7)C=C6)cc4)cc3)o2)c([N+](=O)[O-])c1
REMARK SMILES IDX 21 1 19 2 20 3 18 4 15 5 16 6 91 7 17 8 90 9 14 10 13 11
REMARK SMILES IDX 11 12 12 13 10 15 7 16 8 17 92 18 9 19 6 20 3 21 4 22 97 23
REMARK SMILES IDX 5 24 93 25 2 26 1 27 94 28 95 29 96 30 22 31 23 32 24 33
REMARK SMILES IDX 25 34 26 35 27 36 28 37 89 38 29 39 88 40 30 41 31 42 32 43
REMARK SMILES IDX 82 44 33 45 87 46 81 47 83 48 34 49 86 50 80 51 79 52 35 54
REMARK SMILES IDX 67 55 47 56 66 57 48 58 51 59 65 60 84 61 49 62 50 63 64 65
REMARK SMILES IDX 85 66 52 67 36 68 37 69 45 70 38 71 39 72 43 73 46 74 40 75
REMARK SMILES IDX 41 76 44 77 42 78 68 79 69 80 77 81 70 82 71 83 75 84 78 85
REMARK SMILES IDX 72 86 73 87 76 88 74 89 53 90 54 91 62 92 55 93 56 94 60 95
REMARK SMILES IDX 63 96 57 97 58 98 61 99 59 100
REMARK H PARENT 13 14 83 53 51 64
REMARK Flexibility Score: inf
ROOT
ATOM      1  O   UNL A   1      41.258  20.772  25.834  1.00  0.00    -0.458 OA
ENDROOT
BRANCH   1   2
ATOM      2  C   UNL A   1      40.413  21.225  26.793  1.00  0.00     0.338 C 
ATOM      3  O   UNL A   1      40.622  21.251  27.996  1.00  0.00    -0.246 OA
BRANCH   2   4
ATOM      4  C   UNL A   1      39.198  21.815  26.180  1.00  0.00     0.060 A 
ATOM      5  C   UNL A   1      36.922  23.041  25.060  1.00  0.00    -0.029 A 
ATOM      6  C   UNL A   1      37.787  23.768  25.887  1.00  0.00     0.006 A 
ATOM      7  C   UNL A   1      37.228  21.698  24.781  1.00  0.00     0.006 A 
ATOM      8  C   UNL A   1      38.892  23.150  26.472  1.00  0.00     0.016 A 
ATOM      9  C   UNL A   1      38.363  21.089  25.329  1.00  0.00     0.016 A 
BRANCH   5  10
ATOM     10  C   UNL A   1      35.710  23.710  24.455  1.00  0.00     0.152 C 
BRANCH  10  11
ATOM     11  N   UNL A   1      34.598  22.799  24.317  1.00  0.00    -0.345 N 
ATOM     12  C   UNL A   1      33.254  22.927  24.567  1.00  0.00     0.287 C 
ATOM     13  O   UNL A   1      32.585  21.920  24.318  1.00  0.00    -0.266 OA
ATOM     14  H   UNL A   1      34.853  21.912  23.977  1.00  0.00     0.164 HD
BRANCH  12  15
ATOM     15  C   UNL A   1      32.661  24.153  25.073  1.00  0.00     0.192 A 
ATOM     16  C   UNL A   1      31.569  26.061  24.760  1.00  0.00     0.142 A 
ATOM     17  C   UNL A   1      31.845  25.996  26.104  1.00  0.00     0.052 A 
ATOM     18  O   UNL A   1      32.038  24.949  24.136  1.00  0.00    -0.451 OA
ATOM     19  C   UNL A   1      32.530  24.770  26.305  1.00  0.00     0.057 A 
BRANCH  16  20
ATOM     20  C   UNL A   1      30.895  27.020  23.905  1.00  0.00     0.095 A 
ATOM     21  C   UNL A   1      29.468  28.933  22.374  1.00  0.00     0.125 A 
ATOM     22  C   UNL A   1      28.793  27.968  23.126  1.00  0.00     0.047 A 
ATOM     23  C   UNL A   1      30.861  28.943  22.374  1.00  0.00     0.132 A 
ATOM     24  C   UNL A   1      29.494  27.018  23.877  1.00  0.00     0.023 A 
ATOM     25  C   UNL A   1      31.557  27.987  23.137  1.00  0.00     0.284 A 
BRANCH  21  26
ATOM     26  O   UNL A   1      28.657  29.803  21.703  1.00  0.00    -0.497 OA
ATOM     27  C   UNL A   1      27.654  30.471  22.458  1.00  0.00     0.278 C 
ENDBRANCH  21  26
BRANCH  25  28
ATOM     28  N   UNL A   1      33.009  28.038  23.094  1.00  0.00     0.063 N 
ATOM     29  O   UNL A   1      33.593  27.277  22.313  1.00  0.00    -0.258 OA
ATOM     30  O   UNL A   1      33.559  28.872  23.826  1.00  0.00    -0.258 OA
ENDBRANCH  25  28
ENDBRANCH  16  20
ENDBRANCH  12  15
ENDBRANCH  10  11
ENDBRANCH   5  10
ENDBRANCH   2   4
ENDBRANCH   1   2
BRANCH   1  31
ATOM     31  C   UNL A   1      42.627  20.580  26.241  1.00  0.00     0.275 C 
BRANCH  31  32
ATOM     32  C   UNL A   1      43.565  21.424  25.380  1.00  0.00     0.275 C 
BRANCH  32  33
ATOM     33  O   UNL A   1      42.888  22.631  24.985  1.00  0.00    -0.458 OA
BRANCH  33  34
ATOM     34  C   UNL A   1      43.631  23.760  24.991  1.00  0.00     0.338 C 
ATOM     35  O   UNL A   1      44.626  24.002  24.331  1.00  0.00    -0.246 OA
BRANCH  34  36
ATOM     36  C   UNL A   1      43.056  24.711  25.959  1.00  0.00     0.060 A 
ATOM     37  C   UNL A   1      43.428  26.054  25.919  1.00  0.00     0.016 A 
ATOM     38  C   UNL A   1      42.218  24.247  26.971  1.00  0.00     0.016 A 
ATOM     39  C   UNL A   1      43.014  26.928  26.924  1.00  0.00     0.010 A 
ATOM     40  C   UNL A   1      41.742  25.141  27.938  1.00  0.00     0.010 A 
ATOM     41  C   UNL A   1      42.161  26.484  27.945  1.00  0.00    -0.014 A 
BRANCH  41  42
ATOM     42  C   UNL A   1      41.756  27.398  29.050  1.00  0.00     0.031 A 
ATOM     43  C   UNL A   1      42.582  27.468  30.308  1.00  0.00     0.074 A 
ATOM     44  C   UNL A   1      40.665  28.180  28.936  1.00  0.00     0.049 A 
ATOM     45  N   UNL A   1      42.314  28.058  31.447  1.00  0.00    -0.248 NA
ATOM     46  C   UNL A   1      43.878  26.771  30.286  1.00  0.00     0.031 C 
ATOM     47  C   UNL A   1      39.795  28.255  27.763  1.00  0.00     0.029 A 
ATOM     48  N   UNL A   1      40.104  29.068  29.822  1.00  0.00    -0.354 N 
ATOM     49  C   UNL A   1      43.372  27.750  32.292  1.00  0.00     0.074 A 
ATOM     50  C   UNL A   1      44.292  26.928  31.535  1.00  0.00     0.031 C 
ATOM     51  C   UNL A   1      38.833  29.165  27.987  1.00  0.00     0.029 A 
ATOM     52  C   UNL A   1      38.972  29.682  29.346  1.00  0.00     0.049 A 
ATOM     53  H   UNL A   1      40.478  29.247  30.715  1.00  0.00     0.167 HD
ATOM     54  C   UNL A   1      43.558  28.116  33.583  1.00  0.00     0.037 A 
ATOM     55  C   UNL A   1      38.120  30.537  29.943  1.00  0.00     0.037 A 
ATOM     56  C   UNL A   1      42.681  28.989  34.319  1.00  0.00     0.049 A 
ATOM     57  C   UNL A   1      38.345  30.928  31.377  1.00  0.00     0.074 A 
ATOM     58  C   UNL A   1      42.797  29.429  35.627  1.00  0.00     0.029 A 
ATOM     59  N   UNL A   1      41.534  29.571  33.802  1.00  0.00    -0.354 N 
ATOM     60  N   UNL A   1      39.312  30.576  32.188  1.00  0.00    -0.248 NA
ATOM     61  C   UNL A   1      37.345  31.818  31.985  1.00  0.00     0.031 C 
ATOM     62  C   UNL A   1      41.707  30.260  35.908  1.00  0.00     0.029 A 
ATOM     63  C   UNL A   1      40.931  30.363  34.766  1.00  0.00     0.049 A 
ATOM     64  H   UNL A   1      41.198  29.442  32.885  1.00  0.00     0.167 HD
ATOM     65  C   UNL A   1      39.040  31.197  33.398  1.00  0.00     0.074 A 
ATOM     66  C   UNL A   1      37.830  31.971  33.211  1.00  0.00     0.031 C 
ATOM     67  C   UNL A   1      39.726  31.125  34.564  1.00  0.00     0.037 A 
BRANCH  54  68
ATOM     68  C   UNL A   1      44.746  27.548  34.300  1.00  0.00     0.064 A 
ATOM     69  C   UNL A   1      45.964  28.236  34.380  1.00  0.00     0.173 A 
ATOM     70  C   UNL A   1      44.646  26.307  34.949  1.00  0.00     0.173 A 
ATOM     71  F   UNL A   1      46.113  29.418  33.764  1.00  0.00    -0.203 F 
ATOM     72  C   UNL A   1      47.047  27.694  35.068  1.00  0.00     0.198 A 
ATOM     73  C   UNL A   1      45.724  25.779  35.655  1.00  0.00     0.198 A 
ATOM     74  F   UNL A   1      43.501  25.611  34.905  1.00  0.00    -0.203 F 
ATOM     75  F   UNL A   1      48.215  28.351  35.099  1.00  0.00    -0.200 F 
ATOM     76  C   UNL A   1      46.924  26.470  35.709  1.00  0.00     0.200 A 
ATOM     77  F   UNL A   1      45.600  24.601  36.282  1.00  0.00    -0.200 F 
ATOM     78  F   UNL A   1      47.967  25.953  36.375  1.00  0.00    -0.200 F 
ENDBRANCH  54  68
BRANCH  55  79
ATOM     79  C   UNL A   1      36.950  31.057  29.190  1.00  0.00     0.064 A 
ATOM     80  C   UNL A   1      36.916  32.385  28.742  1.00  0.00     0.173 A 
ATOM     81  C   UNL A   1      35.851  30.239  28.894  1.00  0.00     0.173 A 
ATOM     82  F   UNL A   1      37.931  33.213  29.027  1.00  0.00    -0.203 F 
ATOM     83  C   UNL A   1      35.824  32.875  28.029  1.00  0.00     0.198 A 
ATOM     84  C   UNL A   1      34.771  30.722  28.158  1.00  0.00     0.198 A 
ATOM     85  F   UNL A   1      35.836  28.962  29.304  1.00  0.00    -0.203 F 
ATOM     86  F   UNL A   1      35.801  34.157  27.641  1.00  0.00    -0.200 F 
ATOM     87  C   UNL A   1      34.757  32.040  27.731  1.00  0.00     0.200 A 
ATOM     88  F   UNL A   1      33.748  29.909  27.861  1.00  0.00    -0.200 F 
ATOM     89  F   UNL A   1      33.712  32.509  27.035  1.00  0.00    -0.200 F 
ENDBRANCH  55  79
BRANCH  67  90
ATOM     90  C   UNL A   1      39.192  31.912  35.721  1.00  0.00     0.064 A 
ATOM     91  C   UNL A   1      38.305  31.340  36.644  1.00  0.00     0.173 A 
ATOM     92  C   UNL A   1      39.596  33.239  35.929  1.00  0.00     0.173 A 
ATOM     93  F   UNL A   1      37.879  30.078  36.478  1.00  0.00    -0.203 F 
ATOM     94  C   UNL A   1      37.826  32.075  37.724  1.00  0.00     0.198 A 
ATOM     95  C   UNL A   1      39.131  33.965  37.021  1.00  0.00     0.198 A 
ATOM     96  F   UNL A   1      40.446  33.828  35.074  1.00  0.00    -0.203 F 
ATOM     97  F   UNL A   1      36.949  31.522  38.574  1.00  0.00    -0.200 F 
ATOM     98  C   UNL A   1      38.242  33.385  37.915  1.00  0.00     0.200 A 
ATOM     99  F   UNL A   1      39.539  35.228  37.208  1.00  0.00    -0.200 F 
ATOM    100  F   UNL A   1      37.781  34.091  38.956  1.00  0.00    -0.200 F 
ENDBRANCH  67  90
ENDBRANCH  41  42
ENDBRANCH  34  36
ENDBRANCH  33  34
ENDBRANCH  32  33
ENDBRANCH  31  32
ENDBRANCH   1  31
TORSDOF 17
ENDMDL
MODEL 2
REMARK VINA RESULT:     -12.7      0.827      2.122
REMARK SMILES COc1ccc(-c2ccc(C(=O)NCc3ccc(C(=O)OCCOC(=O)c4ccc(-c5c6nc(c(-c7c(F)c(F)c(F)c(F)c7F)c7ccc([nH]7)c(-c7c(F)c(F)c(F)c(F)c7F)c7nc(c(-c8c(F)c(F)c(F)c(F)c8F)c8ccc5[nH]8)C=C7)C=C6)cc4)cc3)o2)c([N+](=O)[O-])c1
REMARK SMILES IDX 21 1 19 2 20 3 18 4 15 5 16 6 91 7 17 8 90 9 14 10 13 11
REMARK SMILES IDX 11 12 12 13 10 15 7 16 8 17 92 18 9 19 6 20 3 21 4 22 97 23
REMARK SMILES IDX 5 24 93 25 2 26 1 27 94 28 95 29 96 30 22 31 23 32 24 33
REMARK SMILES IDX 25 34 26 35 27 36 28 37 89 38 29 39 88 40 30 41 31 42 32 43
REMARK SMILES IDX 82 44 33 45 87 46 81 47 83 48 34 49 86 50 80 51 79 52 35 54
REMARK SMILES IDX 67 55 47 56 66 57 48 58 51 59 65 60 84 61 49 62 50 63 64 65
REMARK SMILES IDX 85 66 52 67 36 68 37 69 45 70 38 71 39 72 43 73 46 74 40 75
REMARK SMILES IDX 41 76 44 77 42 78 68 79 69 80 77 81 70 82 71 83 75 84 78 85
REMARK SMILES IDX 72 86 73 87 76 88 74 89 53 90 54 91 62 92 55 93 56 94 60 95
REMARK SMILES IDX 63 96 57 97 58 98 61 99 59 100
REMARK H PARENT 13 14 83 53 51 64
REMARK Flexibility Score: inf
ROOT
ATOM      1  O   UNL A   1      40.701  21.077  26.372  1.00  0.00    -0.458 OA
ENDROOT
BRANCH   1   2
ATOM      2  C   UNL A   1      39.673  20.438  25.759  1.00  0.00     0.338 C 
ATOM      3  O   UNL A   1      39.661  19.278  25.376  1.00  0.00    -0.246 OA
BRANCH   2   4
ATOM      4  C   UNL A   1      38.476  21.311  25.704  1.00  0.00     0.060 A 
ATOM      5  C   UNL A   1      36.271  23.065  25.628  1.00  0.00    -0.029 A 
ATOM      6  C   UNL A   1      37.528  23.520  26.046  1.00  0.00     0.006 A 
ATOM      7  C   UNL A   1      36.142  21.725  25.223  1.00  0.00     0.006 A 
ATOM      8  C   UNL A   1      38.609  22.642  26.120  1.00  0.00     0.016 A 
ATOM      9  C   UNL A   1      37.237  20.854  25.251  1.00  0.00     0.016 A 
BRANCH   5  10
ATOM     10  C   UNL A   1      35.098  24.014  25.580  1.00  0.00     0.152 C 
BRANCH  10  11
ATOM     11  N   UNL A   1      34.089  23.682  26.558  1.00  0.00    -0.345 N 
ATOM     12  C   UNL A   1      32.721  23.586  26.488  1.00  0.00     0.287 C 
ATOM     13  O   UNL A   1      32.172  23.262  27.545  1.00  0.00    -0.266 OA
ATOM     14  H   UNL A   1      34.453  23.487  27.451  1.00  0.00     0.164 HD
BRANCH  12  15
ATOM     15  C   UNL A   1      31.977  23.831  25.265  1.00  0.00     0.192 A 
ATOM     16  C   UNL A   1      31.036  25.211  23.802  1.00  0.00     0.142 A 
ATOM     17  C   UNL A   1      30.784  23.941  23.343  1.00  0.00     0.052 A 
ATOM     18  O   UNL A   1      31.768  25.155  24.944  1.00  0.00    -0.451 OA
ATOM     19  C   UNL A   1      31.398  23.060  24.271  1.00  0.00     0.057 A 
BRANCH  16  20
ATOM     20  C   UNL A   1      30.712  26.545  23.332  1.00  0.00     0.095 A 
ATOM     21  C   UNL A   1      29.996  29.180  22.570  1.00  0.00     0.125 A 
ATOM     22  C   UNL A   1      29.052  28.314  23.129  1.00  0.00     0.047 A 
ATOM     23  C   UNL A   1      31.301  28.733  22.378  1.00  0.00     0.132 A 
ATOM     24  C   UNL A   1      29.401  27.010  23.499  1.00  0.00     0.023 A 
ATOM     25  C   UNL A   1      31.642  27.422  22.759  1.00  0.00     0.284 A 
BRANCH  21  26
ATOM     26  O   UNL A   1      29.519  30.424  22.270  1.00  0.00    -0.497 OA
ATOM     27  C   UNL A   1      28.164  30.517  21.848  1.00  0.00     0.278 C 
ENDBRANCH  21  26
BRANCH  25  28
ATOM     28  N   UNL A   1      33.016  27.004  22.530  1.00  0.00     0.063 N 
ATOM     29  O   UNL A   1      33.845  27.221  23.422  1.00  0.00    -0.258 OA
ATOM     30  O   UNL A   1      33.250  26.423  21.461  1.00  0.00    -0.258 OA
ENDBRANCH  25  28
ENDBRANCH  16  20
ENDBRANCH  12  15
ENDBRANCH  10  11
ENDBRANCH   5  10
ENDBRANCH   2   4
ENDBRANCH   1   2
BRANCH   1  31
ATOM     31  C   UNL A   1      41.986  20.430  26.283  1.00  0.00     0.275 C 
BRANCH  31  32
ATOM     32  C   UNL A   1      42.998  21.344  25.593  1.00  0.00     0.275 C 
BRANCH  32  33
ATOM     33  O   UNL A   1      42.358  22.588  25.252  1.00  0.00    -0.458 OA
BRANCH  33  34
ATOM     34  C   UNL A   1      43.155  23.679  25.230  1.00  0.00     0.338 C 
ATOM     35  O   UNL A   1      44.149  23.865  24.551  1.00  0.00    -0.246 OA
BRANCH  34  36
ATOM     36  C   UNL A   1      42.643  24.671  26.194  1.00  0.00     0.060 A 
ATOM     37  C   UNL A   1      43.142  25.972  26.185  1.00  0.00     0.016 A 
ATOM     38  C   UNL A   1      41.731  24.278  27.173  1.00  0.00     0.016 A 
ATOM     39  C   UNL A   1      42.782  26.870  27.189  1.00  0.00     0.010 A 
ATOM     40  C   UNL A   1      41.312  25.202  28.136  1.00  0.00     0.010 A 
ATOM     41  C   UNL A   1      41.858  26.499  28.176  1.00  0.00    -0.014 A 
BRANCH  41  42
ATOM     42  C   UNL A   1      41.507  27.435  29.281  1.00  0.00     0.031 A 
ATOM     43  C   UNL A   1      42.328  27.448  30.544  1.00  0.00     0.074 A 
ATOM     44  C   UNL A   1      40.469  28.286  29.163  1.00  0.00     0.049 A 
ATOM     45  N   UNL A   1      42.092  28.052  31.683  1.00  0.00    -0.248 NA
ATOM     46  C   UNL A   1      43.576  26.669  30.527  1.00  0.00     0.031 C 
ATOM     47  C   UNL A   1      39.612  28.420  27.986  1.00  0.00     0.029 A 
ATOM     48  N   UNL A   1      39.962  29.206  30.048  1.00  0.00    -0.354 N 
ATOM     49  C   UNL A   1      43.124  27.674  32.533  1.00  0.00     0.074 A 
ATOM     50  C   UNL A   1      43.992  26.796  31.779  1.00  0.00     0.031 C 
ATOM     51  C   UNL A   1      38.710  29.390  28.206  1.00  0.00     0.029 A 
ATOM     52  C   UNL A   1      38.875  29.894  29.567  1.00  0.00     0.049 A 
ATOM     53  H   UNL A   1      40.342  29.359  30.944  1.00  0.00     0.167 HD
ATOM     54  C   UNL A   1      43.326  28.025  33.826  1.00  0.00     0.037 A 
ATOM     55  C   UNL A   1      38.077  30.801  30.161  1.00  0.00     0.037 A 
ATOM     56  C   UNL A   1      42.502  28.951  34.559  1.00  0.00     0.049 A 
ATOM     57  C   UNL A   1      38.318  31.173  31.598  1.00  0.00     0.074 A 
ATOM     58  C   UNL A   1      42.639  29.380  35.869  1.00  0.00     0.029 A 
ATOM     59  N   UNL A   1      41.398  29.608  34.037  1.00  0.00    -0.354 N 
ATOM     60  N   UNL A   1      39.255  30.758  32.413  1.00  0.00    -0.248 NA
ATOM     61  C   UNL A   1      37.374  32.125  32.203  1.00  0.00     0.031 C 
ATOM     62  C   UNL A   1      41.604  30.280  36.146  1.00  0.00     0.029 A 
ATOM     63  C   UNL A   1      40.842  30.435  34.999  1.00  0.00     0.049 A 
ATOM     64  H   UNL A   1      41.060  29.502  33.118  1.00  0.00     0.167 HD
ATOM     65  C   UNL A   1      39.018  31.393  33.623  1.00  0.00     0.074 A 
ATOM     66  C   UNL A   1      37.861  32.244  33.431  1.00  0.00     0.031 C 
ATOM     67  C   UNL A   1      39.691  31.273  34.793  1.00  0.00     0.037 A 
BRANCH  54  68
ATOM     68  C   UNL A   1      44.469  27.379  34.548  1.00  0.00     0.064 A 
ATOM     69  C   UNL A   1      44.341  26.135  35.180  1.00  0.00     0.173 A 
ATOM     70  C   UNL A   1      45.726  28.005  34.574  1.00  0.00     0.173 A 
ATOM     71  F   UNL A   1      43.156  25.505  35.195  1.00  0.00    -0.203 F 
ATOM     72  C   UNL A   1      45.424  25.548  35.829  1.00  0.00     0.198 A 
ATOM     73  C   UNL A   1      46.813  27.404  35.204  1.00  0.00     0.198 A 
ATOM     74  F   UNL A   1      45.902  29.194  33.980  1.00  0.00    -0.203 F 
ATOM     75  F   UNL A   1      45.270  24.376  36.461  1.00  0.00    -0.200 F 
ATOM     76  C   UNL A   1      46.660  26.179  35.835  1.00  0.00     0.200 A 
ATOM     77  F   UNL A   1      48.008  28.011  35.200  1.00  0.00    -0.200 F 
ATOM     78  F   UNL A   1      47.702  25.610  36.457  1.00  0.00    -0.200 F 
ENDBRANCH  54  68
BRANCH  55  79
ATOM     79  C   UNL A   1      36.948  31.398  29.403  1.00  0.00     0.064 A 
ATOM     80  C   UNL A   1      35.828  30.628  29.058  1.00  0.00     0.173 A 
ATOM     81  C   UNL A   1      36.959  32.745  29.018  1.00  0.00     0.173 A 
ATOM     82  F   UNL A   1      35.785  29.327  29.379  1.00  0.00    -0.203 F 
ATOM     83  C   UNL A   1      34.763  31.185  28.353  1.00  0.00     0.198 A 
ATOM     84  C   UNL A   1      35.882  33.308  28.336  1.00  0.00     0.198 A 
ATOM     85  F   UNL A   1      38.010  33.522  29.321  1.00  0.00    -0.203 F 
ATOM     86  F   UNL A   1      33.719  30.420  28.006  1.00  0.00    -0.200 F 
ATOM     87  C   UNL A   1      34.788  32.526  28.000  1.00  0.00     0.200 A 
ATOM     88  F   UNL A   1      35.905  34.607  28.008  1.00  0.00    -0.200 F 
ATOM     89  F   UNL A   1      33.758  33.065  27.332  1.00  0.00    -0.200 F 
ENDBRANCH  55  79
BRANCH  67  90
ATOM     90  C   UNL A   1      39.203  32.091  35.949  1.00  0.00     0.064 A 
ATOM     91  C   UNL A   1      39.659  33.401  36.159  1.00  0.00     0.173 A 
ATOM     92  C   UNL A   1      38.247  31.576  36.836  1.00  0.00     0.173 A 
ATOM     93  F   UNL A   1      40.584  33.932  35.346  1.00  0.00    -0.203 F 
ATOM     94  C   UNL A   1      39.188  34.158  37.227  1.00  0.00     0.198 A 
ATOM     95  C   UNL A   1      37.763  32.342  37.891  1.00  0.00     0.198 A 
ATOM     96  F   UNL A   1      37.779  30.329  36.673  1.00  0.00    -0.203 F 
ATOM     97  F   UNL A   1      39.664  35.394  37.433  1.00  0.00    -0.200 F 
ATOM     98  C   UNL A   1      38.237  33.631  38.090  1.00  0.00     0.200 A 
ATOM     99  F   UNL A   1      36.840  31.834  38.720  1.00  0.00    -0.200 F 
ATOM    100  F   UNL A   1      37.784  34.361  39.118  1.00  0.00    -0.200 F 
ENDBRANCH  67  90
ENDBRANCH  41  42
ENDBRANCH  34  36
ENDBRANCH  33  34
ENDBRANCH  32  33
ENDBRANCH  31  32
ENDBRANCH   1  31
TORSDOF 17
ENDMDL
MODEL 3
REMARK VINA RESULT:     -12.6      4.423      8.748
REMARK SMILES COc1ccc(-c2ccc(C(=O)NCc3ccc(C(=O)OCCOC(=O)c4ccc(-c5c6nc(c(-c7c(F)c(F)c(F)c(F)c7F)c7ccc([nH]7)c(-c7c(F)c(F)c(F)c(F)c7F)c7nc(c(-c8c(F)c(F)c(F)c(F)c8F)c8ccc5[nH]8)C=C7)C=C6)cc4)cc3)o2)c([N+](=O)[O-])c1
REMARK SMILES IDX 21 1 19 2 20 3 18 4 15 5 16 6 91 7 17 8 90 9 14 10 13 11
REMARK SMILES IDX 11 12 12 13 10 15 7 16 8 17 92 18 9 19 6 20 3 21 4 22 97 23
REMARK SMILES IDX 5 24 93 25 2 26 1 27 94 28 95 29 96 30 22 31 23 32 24 33
REMARK SMILES IDX 25 34 26 35 27 36 28 37 89 38 29 39 88 40 30 41 31 42 32 43
REMARK SMILES IDX 82 44 33 45 87 46 81 47 83 48 34 49 86 50 80 51 79 52 35 54
REMARK SMILES IDX 67 55 47 56 66 57 48 58 51 59 65 60 84 61 49 62 50 63 64 65
REMARK SMILES IDX 85 66 52 67 36 68 37 69 45 70 38 71 39 72 43 73 46 74 40 75
REMARK SMILES IDX 41 76 44 77 42 78 68 79 69 80 77 81 70 82 71 83 75 84 78 85
REMARK SMILES IDX 72 86 73 87 76 88 74 89 53 90 54 91 62 92 55 93 56 94 60 95
REMARK SMILES IDX 63 96 57 97 58 98 61 99 59 100
REMARK H PARENT 13 14 83 53 51 64
REMARK Flexibility Score: inf
ROOT
ATOM      1  O   UNL A   1      35.645  23.016  24.470  1.00  0.00    -0.458 OA
ENDROOT
BRANCH   1   2
ATOM      2  C   UNL A   1      34.904  23.662  25.404  1.00  0.00     0.338 C 
ATOM      3  O   UNL A   1      34.693  23.295  26.549  1.00  0.00    -0.246 OA
BRANCH   2   4
ATOM      4  C   UNL A   1      34.449  24.977  24.890  1.00  0.00     0.060 A 
ATOM      5  C   UNL A   1      33.580  27.514  24.026  1.00  0.00    -0.029 A 
ATOM      6  C   UNL A   1      33.639  27.210  25.391  1.00  0.00     0.006 A 
ATOM      7  C   UNL A   1      33.988  26.538  23.101  1.00  0.00     0.006 A 
ATOM      8  C   UNL A   1      34.033  25.941  25.816  1.00  0.00     0.016 A 
ATOM      9  C   UNL A   1      34.428  25.280  23.527  1.00  0.00     0.016 A 
BRANCH   5  10
ATOM     10  C   UNL A   1      33.123  28.880  23.573  1.00  0.00     0.152 C 
BRANCH  10  11
ATOM     11  N   UNL A   1      31.997  28.806  22.671  1.00  0.00    -0.345 N 
ATOM     12  C   UNL A   1      30.852  28.049  22.673  1.00  0.00     0.287 C 
ATOM     13  O   UNL A   1      30.090  28.264  21.726  1.00  0.00    -0.266 OA
ATOM     14  H   UNL A   1      32.063  29.420  21.905  1.00  0.00     0.164 HD
BRANCH  12  15
ATOM     15  C   UNL A   1      30.551  27.080  23.712  1.00  0.00     0.192 A 
ATOM     16  C   UNL A   1      30.667  25.029  24.553  1.00  0.00     0.142 A 
ATOM     17  C   UNL A   1      29.927  25.765  25.446  1.00  0.00     0.052 A 
ATOM     18  O   UNL A   1      31.062  25.815  23.520  1.00  0.00    -0.451 OA
ATOM     19  C   UNL A   1      29.866  27.079  24.915  1.00  0.00     0.057 A 
BRANCH  16  20
ATOM     20  C   UNL A   1      31.111  23.648  24.495  1.00  0.00     0.095 A 
ATOM     21  C   UNL A   1      32.117  21.006  24.281  1.00  0.00     0.125 A 
ATOM     22  C   UNL A   1      31.978  21.815  23.150  1.00  0.00     0.047 A 
ATOM     23  C   UNL A   1      31.744  21.508  25.526  1.00  0.00     0.132 A 
ATOM     24  C   UNL A   1      31.475  23.117  23.251  1.00  0.00     0.023 A 
ATOM     25  C   UNL A   1      31.245  22.820  25.618  1.00  0.00     0.284 A 
BRANCH  21  26
ATOM     26  O   UNL A   1      32.632  19.766  24.034  1.00  0.00    -0.497 OA
ATOM     27  C   UNL A   1      32.786  18.893  25.146  1.00  0.00     0.278 C 
ENDBRANCH  21  26
BRANCH  25  28
ATOM     28  N   UNL A   1      30.863  23.290  26.939  1.00  0.00     0.063 N 
ATOM     29  O   UNL A   1      29.713  23.054  27.330  1.00  0.00    -0.258 OA
ATOM     30  O   UNL A   1      31.738  23.869  27.599  1.00  0.00    -0.258 OA
ENDBRANCH  25  28
ENDBRANCH  16  20
ENDBRANCH  12  15
ENDBRANCH  10  11
ENDBRANCH   5  10
ENDBRANCH   2   4
ENDBRANCH   1   2
BRANCH   1  31
ATOM     31  C   UNL A   1      35.671  21.578  24.573  1.00  0.00     0.275 C 
BRANCH  31  32
ATOM     32  C   UNL A   1      37.107  21.080  24.739  1.00  0.00     0.275 C 
BRANCH  32  33
ATOM     33  O   UNL A   1      37.641  21.578  25.979  1.00  0.00    -0.458 OA
BRANCH  33  34
ATOM     34  C   UNL A   1      38.961  21.370  26.183  1.00  0.00     0.338 C 
ATOM     35  O   UNL A   1      39.591  20.342  26.012  1.00  0.00    -0.246 OA
BRANCH  34  36
ATOM     36  C   UNL A   1      39.575  22.617  26.675  1.00  0.00     0.060 A 
ATOM     37  C   UNL A   1      39.109  23.849  26.219  1.00  0.00     0.016 A 
ATOM     38  C   UNL A   1      40.683  22.557  27.519  1.00  0.00     0.016 A 
ATOM     39  C   UNL A   1      39.783  25.023  26.553  1.00  0.00     0.010 A 
ATOM     40  C   UNL A   1      41.314  23.742  27.915  1.00  0.00     0.010 A 
ATOM     41  C   UNL A   1      40.892  24.986  27.410  1.00  0.00    -0.014 A 
BRANCH  41  42
ATOM     42  C   UNL A   1      41.648  26.230  27.731  1.00  0.00     0.031 A 
ATOM     43  C   UNL A   1      41.013  27.297  28.584  1.00  0.00     0.074 A 
ATOM     44  C   UNL A   1      42.905  26.410  27.280  1.00  0.00     0.049 A 
ATOM     45  N   UNL A   1      41.424  28.516  28.834  1.00  0.00    -0.248 NA
ATOM     46  C   UNL A   1      39.739  26.951  29.233  1.00  0.00     0.031 C 
ATOM     47  C   UNL A   1      43.666  25.449  26.484  1.00  0.00     0.029 A 
ATOM     48  N   UNL A   1      43.767  27.469  27.435  1.00  0.00    -0.354 N 
ATOM     49  C   UNL A   1      40.432  29.099  29.611  1.00  0.00     0.074 A 
ATOM     50  C   UNL A   1      39.402  28.100  29.801  1.00  0.00     0.031 C 
ATOM     51  C   UNL A   1      44.892  25.944  26.251  1.00  0.00     0.029 A 
ATOM     52  C   UNL A   1      44.979  27.288  26.814  1.00  0.00     0.049 A 
ATOM     53  H   UNL A   1      43.538  28.281  27.942  1.00  0.00     0.167 HD
ATOM     54  C   UNL A   1      40.383  30.354  30.119  1.00  0.00     0.037 A 
ATOM     55  C   UNL A   1      46.029  28.121  26.680  1.00  0.00     0.037 A 
ATOM     56  C   UNL A   1      41.435  31.329  29.990  1.00  0.00     0.049 A 
ATOM     57  C   UNL A   1      45.951  29.510  27.249  1.00  0.00     0.074 A 
ATOM     58  C   UNL A   1      41.482  32.621  30.485  1.00  0.00     0.029 A 
ATOM     59  N   UNL A   1      42.637  31.109  29.334  1.00  0.00    -0.354 N 
ATOM     60  N   UNL A   1      44.980  30.074  27.924  1.00  0.00    -0.248 NA
ATOM     61  C   UNL A   1      47.109  30.387  27.016  1.00  0.00     0.031 C 
ATOM     62  C   UNL A   1      42.703  33.191  30.109  1.00  0.00     0.029 A 
ATOM     63  C   UNL A   1      43.429  32.243  29.408  1.00  0.00     0.049 A 
ATOM     64  H   UNL A   1      42.890  30.270  28.884  1.00  0.00     0.167 HD
ATOM     65  C   UNL A   1      45.406  31.366  28.197  1.00  0.00     0.074 A 
ATOM     66  C   UNL A   1      46.735  31.498  27.637  1.00  0.00     0.031 C 
ATOM     67  C   UNL A   1      44.748  32.358  28.844  1.00  0.00     0.037 A 
BRANCH  54  68
ATOM     68  C   UNL A   1      39.133  30.762  30.838  1.00  0.00     0.064 A 
ATOM     69  C   UNL A   1      38.037  31.320  30.165  1.00  0.00     0.173 A 
ATOM     70  C   UNL A   1      39.020  30.555  32.222  1.00  0.00     0.173 A 
ATOM     71  F   UNL A   1      38.104  31.552  28.845  1.00  0.00    -0.203 F 
ATOM     72  C   UNL A   1      36.880  31.674  30.854  1.00  0.00     0.198 A 
ATOM     73  C   UNL A   1      37.852  30.888  32.904  1.00  0.00     0.198 A 
ATOM     74  F   UNL A   1      40.038  30.020  32.912  1.00  0.00    -0.203 F 
ATOM     75  F   UNL A   1      35.859  32.243  30.198  1.00  0.00    -0.200 F 
ATOM     76  C   UNL A   1      36.786  31.453  32.220  1.00  0.00     0.200 A 
ATOM     77  F   UNL A   1      37.760  30.665  34.222  1.00  0.00    -0.200 F 
ATOM     78  F   UNL A   1      35.669  31.790  32.880  1.00  0.00    -0.200 F 
ENDBRANCH  54  68
BRANCH  55  79
ATOM     79  C   UNL A   1      47.237  27.669  25.943  1.00  0.00     0.064 A 
ATOM     80  C   UNL A   1      47.303  27.763  24.547  1.00  0.00     0.173 A 
ATOM     81  C   UNL A   1      48.350  27.147  26.617  1.00  0.00     0.173 A 
ATOM     82  F   UNL A   1      46.252  28.228  23.856  1.00  0.00    -0.203 F 
ATOM     83  C   UNL A   1      48.437  27.348  23.852  1.00  0.00     0.198 A 
ATOM     84  C   UNL A   1      49.493  26.757  25.924  1.00  0.00     0.198 A 
ATOM     85  F   UNL A   1      48.332  27.034  27.954  1.00  0.00    -0.203 F 
ATOM     86  F   UNL A   1      48.463  27.416  22.513  1.00  0.00    -0.200 F 
ATOM     87  C   UNL A   1      49.534  26.853  24.542  1.00  0.00     0.200 A 
ATOM     88  F   UNL A   1      50.555  26.291  26.596  1.00  0.00    -0.200 F 
ATOM     89  F   UNL A   1      50.629  26.464  23.875  1.00  0.00    -0.200 F 
ENDBRANCH  55  79
BRANCH  67  90
ATOM     90  C   UNL A   1      45.463  33.667  28.993  1.00  0.00     0.064 A 
ATOM     91  C   UNL A   1      45.319  34.687  28.042  1.00  0.00     0.173 A 
ATOM     92  C   UNL A   1      46.271  33.916  30.112  1.00  0.00     0.173 A 
ATOM     93  F   UNL A   1      44.569  34.490  26.948  1.00  0.00    -0.203 F 
ATOM     94  C   UNL A   1      45.976  35.905  28.197  1.00  0.00     0.198 A 
ATOM     95  C   UNL A   1      46.910  35.141  30.274  1.00  0.00     0.198 A 
ATOM     96  F   UNL A   1      46.436  32.970  31.050  1.00  0.00    -0.203 F 
ATOM     97  F   UNL A   1      45.856  36.854  27.258  1.00  0.00    -0.200 F 
ATOM     98  C   UNL A   1      46.766  36.133  29.315  1.00  0.00     0.200 A 
ATOM     99  F   UNL A   1      47.668  35.362  31.357  1.00  0.00    -0.200 F 
ATOM    100  F   UNL A   1      47.397  37.306  29.463  1.00  0.00    -0.200 F 
ENDBRANCH  67  90
ENDBRANCH  41  42
ENDBRANCH  34  36
ENDBRANCH  33  34
ENDBRANCH  32  33
ENDBRANCH  31  32
ENDBRANCH   1  31
TORSDOF 17
ENDMDL
