MODEL 1
REMARK VINA RESULT:     -12.5      0.000      0.000
REMARK SMILES O=C(COc1ccccc1/C=C1/SC(=S)N(c2ccc(F)c(Cl)c2)C1=O)OCCOC(=O)c1ccc(-c2c3nc(c(-c4c(F)c(F)c(F)c(F)c4F)c4ccc([nH]4)c(-c4c(F)c(F)c(F)c(F)c4F)c4nc(c(-c5c(F)c(F)c(F)c(F)c5F)c5ccc2[nH]5)C=C4)C=C3)cc1
REMARK SMILES IDX 28 1 27 2 2 3 1 4 3 5 4 6 5 7 6 8 10 9 7 10 9 11 8 12 11 13
REMARK SMILES IDX 12 14 13 15 25 16 14 17 16 18 26 19 15 20 17 21 18 22 24 23
REMARK SMILES IDX 19 24 22 25 20 26 23 27 21 28 29 29 30 30 31 31 32 32 33 33
REMARK SMILES IDX 34 34 95 35 35 36 94 37 36 38 37 39 38 40 88 41 39 42 93 43
REMARK SMILES IDX 87 44 89 45 40 46 92 47 86 48 85 49 41 51 73 52 53 53 72 54
REMARK SMILES IDX 54 55 57 56 71 57 90 58 55 59 56 60 70 62 91 63 58 64 42 65
REMARK SMILES IDX 43 66 51 67 44 68 45 69 49 70 52 71 46 72 47 73 50 74 48 75
REMARK SMILES IDX 74 76 75 77 83 78 76 79 77 80 81 81 84 82 78 83 79 84 82 85
REMARK SMILES IDX 80 86 59 87 60 88 68 89 61 90 62 91 66 92 69 93 63 94 64 95
REMARK SMILES IDX 67 96 65 97
REMARK H PARENT 89 50 57 61
REMARK Flexibility Score: inf
ROOT
ATOM      1  C   UNL A   1      31.509  29.661  24.735  1.00  0.00     0.274 C 
ENDROOT
BRANCH   1   2
ATOM      2  O   UNL A   1      32.857  29.383  24.293  1.00  0.00    -0.460 OA
BRANCH   2   3
ATOM      3  C   UNL A   1      33.141  28.672  23.173  1.00  0.00     0.344 C 
ATOM      4  O   UNL A   1      34.298  28.560  22.777  1.00  0.00    -0.248 OA
BRANCH   3   5
ATOM      5  C   UNL A   1      32.006  27.938  22.499  1.00  0.00     0.352 C 
BRANCH   5   6
ATOM      6  O   UNL A   1      32.175  26.536  22.694  1.00  0.00    -0.481 OA
BRANCH   6   7
ATOM      7  C   UNL A   1      31.551  26.120  23.843  1.00  0.00     0.127 A 
ATOM      8  C   UNL A   1      30.193  26.437  23.949  1.00  0.00     0.047 A 
ATOM      9  C   UNL A   1      32.216  25.426  24.872  1.00  0.00     0.018 A 
ATOM     10  C   UNL A   1      29.461  26.014  25.055  1.00  0.00     0.004 A 
ATOM     11  C   UNL A   1      31.455  24.999  25.971  1.00  0.00     0.012 A 
ATOM     12  C   UNL A   1      30.090  25.287  26.061  1.00  0.00     0.001 A 
BRANCH   9  13
ATOM     13  C   UNL A   1      33.628  25.004  24.850  1.00  0.00     0.033 C 
ATOM     14  C   UNL A   1      34.154  23.781  24.677  1.00  0.00     0.081 C 
ATOM     15  S   UNL A   1      35.846  23.491  24.822  1.00  0.00    -0.054 SA
ATOM     16  C   UNL A   1      33.445  22.493  24.451  1.00  0.00     0.270 C 
ATOM     17  C   UNL A   1      35.640  21.743  24.903  1.00  0.00     0.152 C 
ATOM     18  N   UNL A   1      34.303  21.414  24.708  1.00  0.00    -0.261 N 
ATOM     19  O   UNL A   1      32.268  22.440  24.115  1.00  0.00    -0.268 OA
ATOM     20  S   UNL A   1      36.980  20.750  25.064  1.00  0.00    -0.051 S 
BRANCH  18  21
ATOM     21  C   UNL A   1      33.757  20.088  24.800  1.00  0.00     0.052 A 
ATOM     22  C   UNL A   1      33.030  19.688  25.935  1.00  0.00     0.030 A 
ATOM     23  C   UNL A   1      34.048  19.110  23.832  1.00  0.00     0.050 A 
ATOM     24  C   UNL A   1      32.634  18.360  26.116  1.00  0.00     0.043 A 
ATOM     25  C   UNL A   1      33.670  17.776  24.023  1.00  0.00     0.078 A 
ATOM     26  C   UNL A   1      32.969  17.407  25.165  1.00  0.00     0.141 A 
ATOM     27  Cl  UNL A   1      34.153  16.590  22.872  1.00  0.00    -0.081 Cl
ATOM     28  F   UNL A   1      32.630  16.129  25.383  1.00  0.00    -0.205 F 
ENDBRANCH  18  21
ENDBRANCH   9  13
ENDBRANCH   6   7
ENDBRANCH   5   6
ENDBRANCH   3   5
ENDBRANCH   2   3
ENDBRANCH   1   2
BRANCH   1  29
ATOM     29  C   UNL A   1      31.591  30.409  26.068  1.00  0.00     0.275 C 
BRANCH  29  30
ATOM     30  O   UNL A   1      32.983  30.552  26.390  1.00  0.00    -0.458 OA
BRANCH  30  31
ATOM     31  C   UNL A   1      33.323  31.674  27.073  1.00  0.00     0.338 C 
ATOM     32  O   UNL A   1      32.633  32.659  27.255  1.00  0.00    -0.246 OA
BRANCH  31  33
ATOM     33  C   UNL A   1      34.577  31.365  27.804  1.00  0.00     0.060 A 
ATOM     34  C   UNL A   1      34.816  30.045  28.209  1.00  0.00     0.016 A 
ATOM     35  C   UNL A   1      35.561  32.343  27.987  1.00  0.00     0.016 A 
ATOM     36  C   UNL A   1      36.041  29.697  28.780  1.00  0.00     0.010 A 
ATOM     37  C   UNL A   1      36.776  32.001  28.569  1.00  0.00     0.010 A 
ATOM     38  C   UNL A   1      37.016  30.681  28.980  1.00  0.00    -0.014 A 
BRANCH  38  39
ATOM     39  C   UNL A   1      38.224  30.412  29.787  1.00  0.00     0.031 A 
ATOM     40  C   UNL A   1      39.215  29.426  29.245  1.00  0.00     0.074 A 
ATOM     41  C   UNL A   1      38.381  30.956  31.005  1.00  0.00     0.049 A 
ATOM     42  N   UNL A   1      40.264  28.899  29.821  1.00  0.00    -0.248 NA
ATOM     43  C   UNL A   1      38.979  28.953  27.869  1.00  0.00     0.031 C 
ATOM     44  C   UNL A   1      37.483  31.931  31.621  1.00  0.00     0.029 A 
ATOM     45  N   UNL A   1      39.343  30.733  31.957  1.00  0.00    -0.354 N 
ATOM     46  C   UNL A   1      40.807  28.034  28.883  1.00  0.00     0.074 A 
ATOM     47  C   UNL A   1      39.963  28.083  27.710  1.00  0.00     0.031 C 
ATOM     48  C   UNL A   1      37.920  32.199  32.866  1.00  0.00     0.029 A 
ATOM     49  C   UNL A   1      39.107  31.392  33.139  1.00  0.00     0.049 A 
ATOM     50  H   UNL A   1      40.126  30.157  31.808  1.00  0.00     0.167 HD
ATOM     51  C   UNL A   1      41.917  27.270  28.992  1.00  0.00     0.037 A 
ATOM     52  C   UNL A   1      39.765  31.319  34.314  1.00  0.00     0.037 A 
ATOM     53  C   UNL A   1      42.743  27.216  30.164  1.00  0.00     0.049 A 
ATOM     54  C   UNL A   1      40.963  30.408  34.427  1.00  0.00     0.074 A 
ATOM     55  C   UNL A   1      43.908  26.499  30.368  1.00  0.00     0.029 A 
ATOM     56  N   UNL A   1      42.480  27.902  31.339  1.00  0.00    -0.354 N 
ATOM     57  N   UNL A   1      41.506  29.634  33.519  1.00  0.00    -0.248 NA
ATOM     58  C   UNL A   1      41.638  30.359  35.733  1.00  0.00     0.031 C 
ATOM     59  C   UNL A   1      44.326  26.717  31.685  1.00  0.00     0.029 A 
ATOM     60  C   UNL A   1      43.446  27.604  32.286  1.00  0.00     0.049 A 
ATOM     61  H   UNL A   1      41.719  28.511  31.482  1.00  0.00     0.167 HD
ATOM     62  C   UNL A   1      42.595  29.028  34.133  1.00  0.00     0.074 A 
ATOM     63  C   UNL A   1      42.646  29.536  35.487  1.00  0.00     0.031 C 
ATOM     64  C   UNL A   1      43.476  28.131  33.625  1.00  0.00     0.037 A 
BRANCH  51  65
ATOM     65  C   UNL A   1      42.285  26.416  27.817  1.00  0.00     0.064 A 
ATOM     66  C   UNL A   1      43.225  26.843  26.868  1.00  0.00     0.173 A 
ATOM     67  C   UNL A   1      41.711  25.147  27.654  1.00  0.00     0.173 A 
ATOM     68  F   UNL A   1      43.784  28.059  26.972  1.00  0.00    -0.203 F 
ATOM     69  C   UNL A   1      43.569  26.035  25.789  1.00  0.00     0.198 A 
ATOM     70  C   UNL A   1      42.075  24.331  26.586  1.00  0.00     0.198 A 
ATOM     71  F   UNL A   1      40.803  24.697  28.531  1.00  0.00    -0.203 F 
ATOM     72  F   UNL A   1      44.442  26.476  24.874  1.00  0.00    -0.200 F 
ATOM     73  C   UNL A   1      43.000  24.777  25.653  1.00  0.00     0.200 A 
ATOM     74  F   UNL A   1      41.528  23.115  26.459  1.00  0.00    -0.200 F 
ATOM     75  F   UNL A   1      43.337  23.996  24.618  1.00  0.00    -0.200 F 
ENDBRANCH  51  65
BRANCH  52  76
ATOM     76  C   UNL A   1      39.302  32.104  35.487  1.00  0.00     0.064 A 
ATOM     77  C   UNL A   1      39.734  33.422  35.690  1.00  0.00     0.173 A 
ATOM     78  C   UNL A   1      38.459  31.539  36.457  1.00  0.00     0.173 A 
ATOM     79  F   UNL A   1      40.562  33.997  34.805  1.00  0.00    -0.203 F 
ATOM     80  C   UNL A   1      39.364  34.136  36.829  1.00  0.00     0.198 A 
ATOM     81  C   UNL A   1      38.068  32.264  37.582  1.00  0.00     0.198 A 
ATOM     82  F   UNL A   1      38.018  30.281  36.314  1.00  0.00    -0.203 F 
ATOM     83  F   UNL A   1      39.837  35.374  37.023  1.00  0.00    -0.200 F 
ATOM     84  C   UNL A   1      38.529  33.558  37.772  1.00  0.00     0.200 A 
ATOM     85  F   UNL A   1      37.253  31.704  38.486  1.00  0.00    -0.200 F 
ATOM     86  F   UNL A   1      38.179  34.241  38.869  1.00  0.00    -0.200 F 
ENDBRANCH  52  76
BRANCH  64  87
ATOM     87  C   UNL A   1      44.581  27.664  34.525  1.00  0.00     0.064 A 
ATOM     88  C   UNL A   1      44.441  26.522  35.324  1.00  0.00     0.173 A 
ATOM     89  C   UNL A   1      45.813  28.336  34.544  1.00  0.00     0.173 A 
ATOM     90  F   UNL A   1      43.276  25.854  35.350  1.00  0.00    -0.203 F 
ATOM     91  C   UNL A   1      45.488  26.078  36.126  1.00  0.00     0.198 A 
ATOM     92  C   UNL A   1      46.866  27.874  35.326  1.00  0.00     0.198 A 
ATOM     93  F   UNL A   1      45.998  29.430  33.790  1.00  0.00    -0.203 F 
ATOM     94  F   UNL A   1      45.320  25.006  36.913  1.00  0.00    -0.200 F 
ATOM     95  C   UNL A   1      46.702  26.749  36.120  1.00  0.00     0.200 A 
ATOM     96  F   UNL A   1      48.044  28.516  35.308  1.00  0.00    -0.200 F 
ATOM     97  F   UNL A   1      47.713  26.315  36.885  1.00  0.00    -0.200 F 
ENDBRANCH  64  87
ENDBRANCH  38  39
ENDBRANCH  31  33
ENDBRANCH  30  31
ENDBRANCH  29  30
ENDBRANCH   1  29
TORSDOF 15
ENDMDL
MODEL 2
REMARK VINA RESULT:     -12.4      0.559      1.968
REMARK SMILES O=C(COc1ccccc1/C=C1/SC(=S)N(c2ccc(F)c(Cl)c2)C1=O)OCCOC(=O)c1ccc(-c2c3nc(c(-c4c(F)c(F)c(F)c(F)c4F)c4ccc([nH]4)c(-c4c(F)c(F)c(F)c(F)c4F)c4nc(c(-c5c(F)c(F)c(F)c(F)c5F)c5ccc2[nH]5)C=C4)C=C3)cc1
REMARK SMILES IDX 28 1 27 2 2 3 1 4 3 5 4 6 5 7 6 8 10 9 7 10 9 11 8 12 11 13
REMARK SMILES IDX 12 14 13 15 25 16 14 17 16 18 26 19 15 20 17 21 18 22 24 23
REMARK SMILES IDX 19 24 22 25 20 26 23 27 21 28 29 29 30 30 31 31 32 32 33 33
REMARK SMILES IDX 34 34 95 35 35 36 94 37 36 38 37 39 38 40 88 41 39 42 93 43
REMARK SMILES IDX 87 44 89 45 40 46 92 47 86 48 85 49 41 51 73 52 53 53 72 54
REMARK SMILES IDX 54 55 57 56 71 57 90 58 55 59 56 60 70 62 91 63 58 64 42 65
REMARK SMILES IDX 43 66 51 67 44 68 45 69 49 70 52 71 46 72 47 73 50 74 48 75
REMARK SMILES IDX 74 76 75 77 83 78 76 79 77 80 81 81 84 82 78 83 79 84 82 85
REMARK SMILES IDX 80 86 59 87 60 88 68 89 61 90 62 91 66 92 69 93 63 94 64 95
REMARK SMILES IDX 67 96 65 97
REMARK H PARENT 89 50 57 61
REMARK Flexibility Score: inf
ROOT
ATOM      1  C   UNL A   1      31.618  29.780  25.001  1.00  0.00     0.274 C 
ENDROOT
BRANCH   1   2
ATOM      2  O   UNL A   1      32.930  29.637  24.411  1.00  0.00    -0.460 OA
BRANCH   2   3
ATOM      3  C   UNL A   1      33.157  28.961  23.256  1.00  0.00     0.344 C 
ATOM      4  O   UNL A   1      34.298  28.651  22.923  1.00  0.00    -0.248 OA
BRANCH   3   5
ATOM      5  C   UNL A   1      31.957  28.510  22.457  1.00  0.00     0.352 C 
BRANCH   5   6
ATOM      6  O   UNL A   1      31.887  27.086  22.483  1.00  0.00    -0.481 OA
BRANCH   6   7
ATOM      7  C   UNL A   1      31.119  26.649  23.532  1.00  0.00     0.127 A 
ATOM      8  C   UNL A   1      29.754  26.944  23.453  1.00  0.00     0.047 A 
ATOM      9  C   UNL A   1      31.648  25.957  24.638  1.00  0.00     0.018 A 
ATOM     10  C   UNL A   1      28.885  26.498  24.445  1.00  0.00     0.004 A 
ATOM     11  C   UNL A   1      30.751  25.506  25.619  1.00  0.00     0.012 A 
ATOM     12  C   UNL A   1      29.382  25.772  25.523  1.00  0.00     0.001 A 
BRANCH   9  13
ATOM     13  C   UNL A   1      33.057  25.557  24.806  1.00  0.00     0.033 C 
ATOM     14  C   UNL A   1      33.623  24.345  24.696  1.00  0.00     0.081 C 
ATOM     15  S   UNL A   1      35.283  24.080  25.071  1.00  0.00    -0.054 SA
ATOM     16  C   UNL A   1      32.975  23.048  24.364  1.00  0.00     0.270 C 
ATOM     17  C   UNL A   1      35.099  22.328  25.107  1.00  0.00     0.152 C 
ATOM     18  N   UNL A   1      33.807  21.981  24.726  1.00  0.00    -0.261 N 
ATOM     19  O   UNL A   1      31.856  22.980  23.868  1.00  0.00    -0.268 OA
ATOM     20  S   UNL A   1      36.421  21.355  25.442  1.00  0.00    -0.051 S 
BRANCH  18  21
ATOM     21  C   UNL A   1      33.277  20.644  24.730  1.00  0.00     0.052 A 
ATOM     22  C   UNL A   1      33.200  19.907  25.924  1.00  0.00     0.030 A 
ATOM     23  C   UNL A   1      32.953  19.985  23.531  1.00  0.00     0.050 A 
ATOM     24  C   UNL A   1      32.843  18.555  25.924  1.00  0.00     0.043 A 
ATOM     25  C   UNL A   1      32.615  18.627  23.528  1.00  0.00     0.078 A 
ATOM     26  C   UNL A   1      32.567  17.918  24.723  1.00  0.00     0.141 A 
ATOM     27  Cl  UNL A   1      32.345  17.829  22.026  1.00  0.00    -0.081 Cl
ATOM     28  F   UNL A   1      32.282  16.608  24.737  1.00  0.00    -0.205 F 
ENDBRANCH  18  21
ENDBRANCH   9  13
ENDBRANCH   6   7
ENDBRANCH   5   6
ENDBRANCH   3   5
ENDBRANCH   2   3
ENDBRANCH   1   2
BRANCH   1  29
ATOM     29  C   UNL A   1      31.790  30.359  26.407  1.00  0.00     0.275 C 
BRANCH  29  30
ATOM     30  O   UNL A   1      33.201  30.481  26.647  1.00  0.00    -0.458 OA
BRANCH  30  31
ATOM     31  C   UNL A   1      33.603  31.621  27.262  1.00  0.00     0.338 C 
ATOM     32  O   UNL A   1      32.957  32.641  27.410  1.00  0.00    -0.246 OA
BRANCH  31  33
ATOM     33  C   UNL A   1      34.864  31.300  27.975  1.00  0.00     0.060 A 
ATOM     34  C   UNL A   1      35.086  29.981  28.395  1.00  0.00     0.016 A 
ATOM     35  C   UNL A   1      35.868  32.262  28.128  1.00  0.00     0.016 A 
ATOM     36  C   UNL A   1      36.314  29.619  28.950  1.00  0.00     0.010 A 
ATOM     37  C   UNL A   1      37.087  31.906  28.694  1.00  0.00     0.010 A 
ATOM     38  C   UNL A   1      37.310  30.588  29.119  1.00  0.00    -0.014 A 
BRANCH  38  39
ATOM     39  C   UNL A   1      38.527  30.307  29.909  1.00  0.00     0.031 A 
ATOM     40  C   UNL A   1      39.500  29.310  29.355  1.00  0.00     0.074 A 
ATOM     41  C   UNL A   1      38.707  30.853  31.123  1.00  0.00     0.049 A 
ATOM     42  N   UNL A   1      40.551  28.774  29.917  1.00  0.00    -0.248 NA
ATOM     43  C   UNL A   1      39.238  28.837  27.984  1.00  0.00     0.031 C 
ATOM     44  C   UNL A   1      37.829  31.838  31.751  1.00  0.00     0.029 A 
ATOM     45  N   UNL A   1      39.681  30.622  32.062  1.00  0.00    -0.354 N 
ATOM     46  C   UNL A   1      41.071  27.901  28.973  1.00  0.00     0.074 A 
ATOM     47  C   UNL A   1      40.211  27.956  27.812  1.00  0.00     0.031 C 
ATOM     48  C   UNL A   1      38.286  32.105  32.988  1.00  0.00     0.029 A 
ATOM     49  C   UNL A   1      39.469  31.286  33.246  1.00  0.00     0.049 A 
ATOM     50  H   UNL A   1      40.456  30.037  31.902  1.00  0.00     0.167 HD
ATOM     51  C   UNL A   1      42.174  27.125  29.068  1.00  0.00     0.037 A 
ATOM     52  C   UNL A   1      40.143  31.208  34.411  1.00  0.00     0.037 A 
ATOM     53  C   UNL A   1      43.017  27.065  30.228  1.00  0.00     0.049 A 
ATOM     54  C   UNL A   1      41.333  30.285  34.509  1.00  0.00     0.074 A 
ATOM     55  C   UNL A   1      44.177  26.337  30.417  1.00  0.00     0.029 A 
ATOM     56  N   UNL A   1      42.778  27.757  31.405  1.00  0.00    -0.354 N 
ATOM     57  N   UNL A   1      41.855  29.503  33.594  1.00  0.00    -0.248 NA
ATOM     58  C   UNL A   1      42.026  30.232  35.805  1.00  0.00     0.031 C 
ATOM     59  C   UNL A   1      44.617  26.553  31.727  1.00  0.00     0.029 A 
ATOM     60  C   UNL A   1      43.755  27.450  32.338  1.00  0.00     0.049 A 
ATOM     61  H   UNL A   1      42.026  28.374  31.557  1.00  0.00     0.167 HD
ATOM     62  C   UNL A   1      42.946  28.888  34.194  1.00  0.00     0.074 A 
ATOM     63  C   UNL A   1      43.022  29.398  35.546  1.00  0.00     0.031 C 
ATOM     64  C   UNL A   1      43.810  27.980  33.675  1.00  0.00     0.037 A 
BRANCH  51  65
ATOM     65  C   UNL A   1      42.516  26.265  27.890  1.00  0.00     0.064 A 
ATOM     66  C   UNL A   1      41.928  25.005  27.707  1.00  0.00     0.173 A 
ATOM     67  C   UNL A   1      43.420  26.719  26.918  1.00  0.00     0.173 A 
ATOM     68  F   UNL A   1      41.074  24.521  28.622  1.00  0.00    -0.203 F 
ATOM     69  C   UNL A   1      42.244  24.223  26.601  1.00  0.00     0.198 A 
ATOM     70  C   UNL A   1      43.716  25.944  25.800  1.00  0.00     0.198 A 
ATOM     71  F   UNL A   1      44.013  27.914  27.051  1.00  0.00    -0.203 F 
ATOM     72  F   UNL A   1      41.699  23.007  26.465  1.00  0.00    -0.200 F 
ATOM     73  C   UNL A   1      43.131  24.696  25.644  1.00  0.00     0.200 A 
ATOM     74  F   UNL A   1      44.569  26.404  24.875  1.00  0.00    -0.200 F 
ATOM     75  F   UNL A   1      43.428  23.945  24.575  1.00  0.00    -0.200 F 
ENDBRANCH  51  65
BRANCH  52  76
ATOM     76  C   UNL A   1      39.706  32.001  35.589  1.00  0.00     0.064 A 
ATOM     77  C   UNL A   1      38.706  31.523  36.448  1.00  0.00     0.173 A 
ATOM     78  C   UNL A   1      40.240  33.271  35.854  1.00  0.00     0.173 A 
ATOM     79  F   UNL A   1      38.145  30.326  36.221  1.00  0.00    -0.203 F 
ATOM     80  C   UNL A   1      38.238  32.296  37.510  1.00  0.00     0.198 A 
ATOM     81  C   UNL A   1      39.790  34.031  36.933  1.00  0.00     0.198 A 
ATOM     82  F   UNL A   1      41.197  33.777  35.063  1.00  0.00    -0.203 F 
ATOM     83  F   UNL A   1      37.243  31.836  38.281  1.00  0.00    -0.200 F 
ATOM     84  C   UNL A   1      38.782  33.547  37.754  1.00  0.00     0.200 A 
ATOM     85  F   UNL A   1      40.325  35.236  37.170  1.00  0.00    -0.200 F 
ATOM     86  F   UNL A   1      38.328  34.291  38.771  1.00  0.00    -0.200 F 
ENDBRANCH  52  76
BRANCH  64  87
ATOM     87  C   UNL A   1      44.923  27.504  34.560  1.00  0.00     0.064 A 
ATOM     88  C   UNL A   1      46.125  28.217  34.674  1.00  0.00     0.173 A 
ATOM     89  C   UNL A   1      44.763  26.351  35.345  1.00  0.00     0.173 A 
ATOM     90  F   UNL A   1      46.330  29.317  33.932  1.00  0.00    -0.203 F 
ATOM     91  C   UNL A   1      47.134  27.783  35.527  1.00  0.00     0.198 A 
ATOM     92  C   UNL A   1      45.763  25.936  36.217  1.00  0.00     0.198 A 
ATOM     93  F   UNL A   1      43.628  25.639  35.276  1.00  0.00    -0.203 F 
ATOM     94  F   UNL A   1      48.291  28.457  35.592  1.00  0.00    -0.200 F 
ATOM     95  C   UNL A   1      46.950  26.648  36.305  1.00  0.00     0.200 A 
ATOM     96  F   UNL A   1      45.578  24.847  36.977  1.00  0.00    -0.200 F 
ATOM     97  F   UNL A   1      47.919  26.238  37.134  1.00  0.00    -0.200 F 
ENDBRANCH  64  87
ENDBRANCH  38  39
ENDBRANCH  31  33
ENDBRANCH  30  31
ENDBRANCH  29  30
ENDBRANCH   1  29
TORSDOF 15
ENDMDL
MODEL 3
REMARK VINA RESULT:     -12.2      2.525      3.747
REMARK SMILES O=C(COc1ccccc1/C=C1/SC(=S)N(c2ccc(F)c(Cl)c2)C1=O)OCCOC(=O)c1ccc(-c2c3nc(c(-c4c(F)c(F)c(F)c(F)c4F)c4ccc([nH]4)c(-c4c(F)c(F)c(F)c(F)c4F)c4nc(c(-c5c(F)c(F)c(F)c(F)c5F)c5ccc2[nH]5)C=C4)C=C3)cc1
REMARK SMILES IDX 28 1 27 2 2 3 1 4 3 5 4 6 5 7 6 8 10 9 7 10 9 11 8 12 11 13
REMARK SMILES IDX 12 14 13 15 25 16 14 17 16 18 26 19 15 20 17 21 18 22 24 23
REMARK SMILES IDX 19 24 22 25 20 26 23 27 21 28 29 29 30 30 31 31 32 32 33 33
REMARK SMILES IDX 34 34 95 35 35 36 94 37 36 38 37 39 38 40 88 41 39 42 93 43
REMARK SMILES IDX 87 44 89 45 40 46 92 47 86 48 85 49 41 51 73 52 53 53 72 54
REMARK SMILES IDX 54 55 57 56 71 57 90 58 55 59 56 60 70 62 91 63 58 64 42 65
REMARK SMILES IDX 43 66 51 67 44 68 45 69 49 70 52 71 46 72 47 73 50 74 48 75
REMARK SMILES IDX 74 76 75 77 83 78 76 79 77 80 81 81 84 82 78 83 79 84 82 85
REMARK SMILES IDX 80 86 59 87 60 88 68 89 61 90 62 91 66 92 69 93 63 94 64 95
REMARK SMILES IDX 67 96 65 97
REMARK H PARENT 89 50 57 61
REMARK Flexibility Score: inf
ROOT
ATOM      1  C   UNL A   1      31.621  31.998  26.889  1.00  0.00     0.274 C 
ENDROOT
BRANCH   1   2
ATOM      2  O   UNL A   1      32.749  31.096  26.933  1.00  0.00    -0.460 OA
BRANCH   2   3
ATOM      3  C   UNL A   1      32.808  29.942  26.222  1.00  0.00     0.344 C 
ATOM      4  O   UNL A   1      33.831  29.262  26.210  1.00  0.00    -0.248 OA
BRANCH   3   5
ATOM      5  C   UNL A   1      31.544  29.470  25.542  1.00  0.00     0.352 C 
BRANCH   5   6
ATOM      6  O   UNL A   1      31.593  29.831  24.163  1.00  0.00    -0.481 OA
BRANCH   6   7
ATOM      7  C   UNL A   1      30.330  29.983  23.649  1.00  0.00     0.127 A 
ATOM      8  C   UNL A   1      29.535  30.956  24.264  1.00  0.00     0.047 A 
ATOM      9  C   UNL A   1      29.836  29.213  22.580  1.00  0.00     0.018 A 
ATOM     10  C   UNL A   1      28.256  31.220  23.781  1.00  0.00     0.004 A 
ATOM     11  C   UNL A   1      28.549  29.505  22.102  1.00  0.00     0.012 A 
ATOM     12  C   UNL A   1      27.767  30.501  22.694  1.00  0.00     0.001 A 
BRANCH   9  13
ATOM     13  C   UNL A   1      30.596  28.194  21.833  1.00  0.00     0.033 C 
ATOM     14  C   UNL A   1      30.993  26.970  22.216  1.00  0.00     0.081 C 
ATOM     15  S   UNL A   1      31.997  25.987  21.220  1.00  0.00    -0.054 SA
ATOM     16  C   UNL A   1      30.769  26.291  23.521  1.00  0.00     0.270 C 
ATOM     17  C   UNL A   1      32.383  24.876  22.532  1.00  0.00     0.152 C 
ATOM     18  N   UNL A   1      31.654  25.214  23.667  1.00  0.00    -0.261 N 
ATOM     19  O   UNL A   1      29.932  26.678  24.328  1.00  0.00    -0.268 OA
ATOM     20  S   UNL A   1      33.398  23.573  22.254  1.00  0.00    -0.051 S 
BRANCH  18  21
ATOM     21  C   UNL A   1      31.784  24.581  24.951  1.00  0.00     0.052 A 
ATOM     22  C   UNL A   1      33.052  24.359  25.516  1.00  0.00     0.030 A 
ATOM     23  C   UNL A   1      30.669  24.039  25.615  1.00  0.00     0.050 A 
ATOM     24  C   UNL A   1      33.210  23.602  26.680  1.00  0.00     0.043 A 
ATOM     25  C   UNL A   1      30.827  23.264  26.769  1.00  0.00     0.078 A 
ATOM     26  C   UNL A   1      32.096  23.045  27.293  1.00  0.00     0.141 A 
ATOM     27  Cl  UNL A   1      29.447  22.518  27.479  1.00  0.00    -0.081 Cl
ATOM     28  F   UNL A   1      32.272  22.275  28.376  1.00  0.00    -0.205 F 
ENDBRANCH  18  21
ENDBRANCH   9  13
ENDBRANCH   6   7
ENDBRANCH   5   6
ENDBRANCH   3   5
ENDBRANCH   2   3
ENDBRANCH   1   2
BRANCH   1  29
ATOM     29  C   UNL A   1      32.152  33.429  27.002  1.00  0.00     0.275 C 
BRANCH  29  30
ATOM     30  O   UNL A   1      32.209  33.752  28.401  1.00  0.00    -0.458 OA
BRANCH  30  31
ATOM     31  C   UNL A   1      33.003  34.799  28.737  1.00  0.00     0.338 C 
ATOM     32  O   UNL A   1      32.690  35.974  28.768  1.00  0.00    -0.246 OA
BRANCH  31  33
ATOM     33  C   UNL A   1      34.232  34.228  29.339  1.00  0.00     0.060 A 
ATOM     34  C   UNL A   1      34.108  33.181  30.264  1.00  0.00     0.016 A 
ATOM     35  C   UNL A   1      35.499  34.640  28.913  1.00  0.00     0.016 A 
ATOM     36  C   UNL A   1      35.247  32.535  30.748  1.00  0.00     0.010 A 
ATOM     37  C   UNL A   1      36.634  34.007  29.406  1.00  0.00     0.010 A 
ATOM     38  C   UNL A   1      36.514  32.962  30.335  1.00  0.00    -0.014 A 
BRANCH  38  39
ATOM     39  C   UNL A   1      37.742  32.470  30.993  1.00  0.00     0.031 A 
ATOM     40  C   UNL A   1      38.489  31.355  30.325  1.00  0.00     0.074 A 
ATOM     41  C   UNL A   1      38.121  32.939  32.194  1.00  0.00     0.049 A 
ATOM     42  N   UNL A   1      39.492  30.644  30.768  1.00  0.00    -0.248 NA
ATOM     43  C   UNL A   1      38.026  30.975  28.978  1.00  0.00     0.031 C 
ATOM     44  C   UNL A   1      37.472  34.025  32.925  1.00  0.00     0.029 A 
ATOM     45  N   UNL A   1      39.132  32.528  33.026  1.00  0.00    -0.354 N 
ATOM     46  C   UNL A   1      39.776  29.735  29.760  1.00  0.00     0.074 A 
ATOM     47  C   UNL A   1      38.828  29.962  28.693  1.00  0.00     0.031 C 
ATOM     48  C   UNL A   1      38.083  34.174  34.115  1.00  0.00     0.029 A 
ATOM     49  C   UNL A   1      39.142  33.175  34.237  1.00  0.00     0.049 A 
ATOM     50  H   UNL A   1      39.787  31.837  32.777  1.00  0.00     0.167 HD
ATOM     51  C   UNL A   1      40.748  28.795  29.728  1.00  0.00     0.037 A 
ATOM     52  C   UNL A   1      39.904  32.954  35.327  1.00  0.00     0.037 A 
ATOM     53  C   UNL A   1      41.679  28.566  30.797  1.00  0.00     0.049 A 
ATOM     54  C   UNL A   1      40.939  31.856  35.287  1.00  0.00     0.074 A 
ATOM     55  C   UNL A   1      42.723  27.662  30.854  1.00  0.00     0.029 A 
ATOM     56  N   UNL A   1      41.665  29.245  32.006  1.00  0.00    -0.354 N 
ATOM     57  N   UNL A   1      41.241  31.035  34.310  1.00  0.00    -0.248 NA
ATOM     58  C   UNL A   1      41.736  31.651  36.506  1.00  0.00     0.031 C 
ATOM     59  C   UNL A   1      43.315  27.762  32.118  1.00  0.00     0.029 A 
ATOM     60  C   UNL A   1      42.666  28.759  32.829  1.00  0.00     0.049 A 
ATOM     61  H   UNL A   1      41.037  29.964  32.244  1.00  0.00     0.167 HD
ATOM     62  C   UNL A   1      42.275  30.239  34.785  1.00  0.00     0.074 A 
ATOM     63  C   UNL A   1      42.560  30.683  36.132  1.00  0.00     0.031 C 
ATOM     64  C   UNL A   1      42.933  29.227  34.164  1.00  0.00     0.037 A 
BRANCH  51  65
ATOM     65  C   UNL A   1      40.836  27.935  28.505  1.00  0.00     0.064 A 
ATOM     66  C   UNL A   1      40.170  26.703  28.427  1.00  0.00     0.173 A 
ATOM     67  C   UNL A   1      41.572  28.360  27.390  1.00  0.00     0.173 A 
ATOM     68  F   UNL A   1      39.472  26.245  29.478  1.00  0.00    -0.203 F 
ATOM     69  C   UNL A   1      40.249  25.920  27.279  1.00  0.00     0.198 A 
ATOM     70  C   UNL A   1      41.629  27.585  26.234  1.00  0.00     0.198 A 
ATOM     71  F   UNL A   1      42.231  29.528  27.419  1.00  0.00    -0.203 F 
ATOM     72  F   UNL A   1      39.636  24.730  27.239  1.00  0.00    -0.200 F 
ATOM     73  C   UNL A   1      40.971  26.365  26.181  1.00  0.00     0.200 A 
ATOM     74  F   UNL A   1      42.323  28.019  25.174  1.00  0.00    -0.200 F 
ATOM     75  F   UNL A   1      41.040  25.615  25.074  1.00  0.00    -0.200 F 
ENDBRANCH  51  65
BRANCH  52  76
ATOM     76  C   UNL A   1      39.711  33.762  36.558  1.00  0.00     0.064 A 
ATOM     77  C   UNL A   1      38.873  33.317  37.590  1.00  0.00     0.173 A 
ATOM     78  C   UNL A   1      40.319  35.018  36.710  1.00  0.00     0.173 A 
ATOM     79  F   UNL A   1      38.248  32.135  37.479  1.00  0.00    -0.203 F 
ATOM     80  C   UNL A   1      38.628  34.106  38.713  1.00  0.00     0.198 A 
ATOM     81  C   UNL A   1      40.095  35.794  37.847  1.00  0.00     0.198 A 
ATOM     82  F   UNL A   1      41.129  35.494  35.753  1.00  0.00    -0.203 F 
ATOM     83  F   UNL A   1      37.779  33.678  39.656  1.00  0.00    -0.200 F 
ATOM     84  C   UNL A   1      39.241  35.342  38.842  1.00  0.00     0.200 A 
ATOM     85  F   UNL A   1      40.697  36.985  37.971  1.00  0.00    -0.200 F 
ATOM     86  F   UNL A   1      39.002  36.103  39.918  1.00  0.00    -0.200 F 
ENDBRANCH  52  76
BRANCH  64  87
ATOM     87  C   UNL A   1      44.037  28.555  34.924  1.00  0.00     0.064 A 
ATOM     88  C   UNL A   1      43.805  27.400  35.683  1.00  0.00     0.173 A 
ATOM     89  C   UNL A   1      45.351  29.040  34.845  1.00  0.00     0.173 A 
ATOM     90  F   UNL A   1      42.562  26.906  35.800  1.00  0.00    -0.203 F 
ATOM     91  C   UNL A   1      44.847  26.764  36.352  1.00  0.00     0.198 A 
ATOM     92  C   UNL A   1      46.394  28.387  35.492  1.00  0.00     0.198 A 
ATOM     93  F   UNL A   1      45.624  30.139  34.124  1.00  0.00    -0.203 F 
ATOM     94  F   UNL A   1      44.598  25.683  37.105  1.00  0.00    -0.200 F 
ATOM     95  C   UNL A   1      46.142  27.253  36.249  1.00  0.00     0.200 A 
ATOM     96  F   UNL A   1      47.647  28.853  35.381  1.00  0.00    -0.200 F 
ATOM     97  F   UNL A   1      47.146  26.633  36.886  1.00  0.00    -0.200 F 
ENDBRANCH  64  87
ENDBRANCH  38  39
ENDBRANCH  31  33
ENDBRANCH  30  31
ENDBRANCH  29  30
ENDBRANCH   1  29
TORSDOF 15
ENDMDL
