MODEL 1
REMARK VINA RESULT:     -13.8      0.000      0.000
REMARK SMILES Cc1ccccc1C(=O)Nc1ccc(OCC(=O)OCCOC(=O)c2ccc(-c3c4nc(c(-c5c(F)c(F)c(F)c(F)c5F)c5ccc([nH]5)c(-c5c(F)c(F)c(F)c(F)c5F)c5nc(c(-c6c(F)c(F)c(F)c(F)c6F)c6ccc3[nH]6)C=C5)C=C4)cc2)c(-c2nc3ccccc3s2)c1
REMARK SMILES IDX 20 1 19 2 17 3 18 4 16 5 15 6 14 7 11 8 12 9 98 10 13 11
REMARK SMILES IDX 88 12 10 13 8 14 9 15 7 17 1 18 2 19 3 20 4 21 6 22 5 23
REMARK SMILES IDX 89 24 90 25 97 26 91 27 96 28 92 29 95 30 93 31 94 32 21 33
REMARK SMILES IDX 22 34 23 35 24 36 25 37 26 38 87 39 27 40 86 41 28 42 29 43
REMARK SMILES IDX 30 44 80 45 31 46 85 47 79 48 81 49 32 50 84 51 78 52 77 53
REMARK SMILES IDX 33 55 65 56 45 57 64 58 46 59 49 60 63 61 82 62 47 63 48 64
REMARK SMILES IDX 62 66 83 67 50 68 34 69 35 70 43 71 36 72 37 73 41 74 44 75
REMARK SMILES IDX 38 76 39 77 42 78 40 79 66 80 67 81 75 82 68 83 69 84 73 85
REMARK SMILES IDX 76 86 70 87 71 88 74 89 72 90 51 91 52 92 60 93 53 94 54 95
REMARK SMILES IDX 58 96 61 97 55 98 56 99 59 100 57 101
REMARK H PARENT 10 16 81 54 49 65
REMARK Flexibility Score: inf
ROOT
ATOM      1  C   UNL A   1      34.072  31.389  27.628  1.00  0.00     0.274 C 
ENDROOT
BRANCH   1   2
ATOM      2  O   UNL A   1      32.922  30.526  27.566  1.00  0.00    -0.460 OA
BRANCH   2   3
ATOM      3  C   UNL A   1      32.696  30.017  26.324  1.00  0.00     0.344 C 
ATOM      4  O   UNL A   1      31.755  30.367  25.614  1.00  0.00    -0.248 OA
BRANCH   3   5
ATOM      5  C   UNL A   1      33.701  28.934  25.881  1.00  0.00     0.352 C 
BRANCH   5   6
ATOM      6  O   UNL A   1      33.438  27.978  24.858  1.00  0.00    -0.481 OA
BRANCH   6   7
ATOM      7  C   UNL A   1      32.942  26.742  25.182  1.00  0.00     0.130 A 
ATOM      8  C   UNL A   1      32.221  24.037  25.375  1.00  0.00     0.042 A 
ATOM      9  C   UNL A   1      33.242  24.538  26.173  1.00  0.00     0.030 A 
ATOM     10  C   UNL A   1      31.440  24.921  24.645  1.00  0.00     0.041 A 
ATOM     11  C   UNL A   1      33.637  25.869  26.031  1.00  0.00     0.049 A 
ATOM     12  C   UNL A   1      31.720  26.310  24.608  1.00  0.00     0.055 A 
BRANCH   8  13
ATOM     13  N   UNL A   1      32.020  22.654  25.353  1.00  0.00    -0.322 N 
ATOM     14  C   UNL A   1      32.748  21.638  24.768  1.00  0.00     0.255 C 
ATOM     15  O   UNL A   1      32.188  20.549  24.609  1.00  0.00    -0.269 OA
ATOM     16  H   UNL A   1      31.219  22.351  25.839  1.00  0.00     0.170 HD
BRANCH  14  17
ATOM     17  C   UNL A   1      34.217  21.705  24.473  1.00  0.00     0.043 A 
ATOM     18  C   UNL A   1      34.023  23.309  22.480  1.00  0.00     0.045 C 
ATOM     19  C   UNL A   1      34.803  22.529  23.496  1.00  0.00    -0.038 A 
ATOM     20  C   UNL A   1      36.216  22.630  23.452  1.00  0.00     0.004 A 
ATOM     21  C   UNL A   1      37.039  21.948  24.339  1.00  0.00     0.000 A 
ATOM     22  C   UNL A   1      35.064  21.090  25.417  1.00  0.00     0.014 A 
ATOM     23  C   UNL A   1      36.459  21.198  25.346  1.00  0.00     0.001 A 
ENDBRANCH  14  17
ENDBRANCH   8  13
BRANCH  12  24
ATOM     24  C   UNL A   1      30.708  27.131  23.885  1.00  0.00     0.128 A 
ATOM     25  N   UNL A   1      31.065  28.093  23.051  1.00  0.00    -0.236 NA
ATOM     26  S   UNL A   1      29.003  26.861  23.908  1.00  0.00    -0.114 S 
ATOM     27  C   UNL A   1      29.985  28.848  22.664  1.00  0.00     0.082 A 
ATOM     28  C   UNL A   1      28.744  28.342  23.045  1.00  0.00     0.055 A 
ATOM     29  C   UNL A   1      30.052  30.079  21.980  1.00  0.00     0.030 A 
ATOM     30  C   UNL A   1      27.555  29.041  22.753  1.00  0.00     0.021 A 
ATOM     31  C   UNL A   1      28.887  30.813  21.751  1.00  0.00     0.002 A 
ATOM     32  C   UNL A   1      27.653  30.300  22.139  1.00  0.00     0.002 A 
ENDBRANCH  12  24
ENDBRANCH   6   7
ENDBRANCH   5   6
ENDBRANCH   3   5
ENDBRANCH   2   3
ENDBRANCH   1   2
BRANCH   1  33
ATOM     33  C   UNL A   1      33.697  32.835  27.950  1.00  0.00     0.275 C 
BRANCH  33  34
ATOM     34  O   UNL A   1      33.663  33.205  29.357  1.00  0.00    -0.458 OA
BRANCH  34  35
ATOM     35  C   UNL A   1      34.575  33.831  30.133  1.00  0.00     0.338 C 
ATOM     36  O   UNL A   1      34.401  34.917  30.660  1.00  0.00    -0.246 OA
BRANCH  35  37
ATOM     37  C   UNL A   1      35.832  33.131  30.232  1.00  0.00     0.060 A 
ATOM     38  C   UNL A   1      36.972  33.564  29.546  1.00  0.00     0.016 A 
ATOM     39  C   UNL A   1      35.847  32.103  31.154  1.00  0.00     0.016 A 
ATOM     40  C   UNL A   1      38.180  32.961  29.808  1.00  0.00     0.010 A 
ATOM     41  C   UNL A   1      37.055  31.702  31.598  1.00  0.00     0.010 A 
ATOM     42  C   UNL A   1      38.174  32.012  30.811  1.00  0.00    -0.014 A 
BRANCH  42  43
ATOM     43  C   UNL A   1      39.260  31.106  31.063  1.00  0.00     0.031 A 
ATOM     44  C   UNL A   1      39.205  29.823  30.368  1.00  0.00     0.074 A 
ATOM     45  C   UNL A   1      40.281  31.782  31.643  1.00  0.00     0.049 A 
ATOM     46  N   UNL A   1      39.727  28.726  30.793  1.00  0.00    -0.248 NA
ATOM     47  C   UNL A   1      38.409  29.623  29.147  1.00  0.00     0.031 C 
ATOM     48  C   UNL A   1      41.716  31.664  31.507  1.00  0.00     0.029 A 
ATOM     49  N   UNL A   1      40.139  32.914  32.471  1.00  0.00    -0.354 N 
ATOM     50  C   UNL A   1      39.852  27.965  29.649  1.00  0.00     0.074 A 
ATOM     51  C   UNL A   1      38.758  28.378  28.810  1.00  0.00     0.031 C 
ATOM     52  C   UNL A   1      42.306  32.437  32.446  1.00  0.00     0.029 A 
ATOM     53  C   UNL A   1      41.265  32.998  33.293  1.00  0.00     0.049 A 
ATOM     54  H   UNL A   1      39.377  33.538  32.470  1.00  0.00     0.167 HD
ATOM     55  C   UNL A   1      41.091  27.470  29.343  1.00  0.00     0.037 A 
ATOM     56  C   UNL A   1      41.065  32.729  34.620  1.00  0.00     0.037 A 
ATOM     57  C   UNL A   1      42.068  27.914  30.359  1.00  0.00     0.049 A 
ATOM     58  C   UNL A   1      41.515  31.331  34.952  1.00  0.00     0.074 A 
ATOM     59  C   UNL A   1      43.128  28.806  30.337  1.00  0.00     0.029 A 
ATOM     60  N   UNL A   1      41.798  27.698  31.707  1.00  0.00    -0.354 N 
ATOM     61  N   UNL A   1      41.764  30.397  34.078  1.00  0.00    -0.248 NA
ATOM     62  C   UNL A   1      41.744  30.901  36.314  1.00  0.00     0.031 C 
ATOM     63  C   UNL A   1      43.527  29.065  31.682  1.00  0.00     0.029 A 
ATOM     64  C   UNL A   1      42.684  28.366  32.527  1.00  0.00     0.049 A 
ATOM     65  H   UNL A   1      41.062  27.134  32.037  1.00  0.00     0.167 HD
ATOM     66  C   UNL A   1      42.238  29.274  34.703  1.00  0.00     0.074 A 
ATOM     67  C   UNL A   1      42.201  29.655  36.108  1.00  0.00     0.031 C 
ATOM     68  C   UNL A   1      42.613  28.165  33.978  1.00  0.00     0.037 A 
BRANCH  55  69
ATOM     69  C   UNL A   1      41.510  26.886  28.001  1.00  0.00     0.064 A 
ATOM     70  C   UNL A   1      41.526  25.486  27.804  1.00  0.00     0.173 A 
ATOM     71  C   UNL A   1      41.865  27.629  26.855  1.00  0.00     0.173 A 
ATOM     72  F   UNL A   1      41.122  24.636  28.756  1.00  0.00    -0.203 F 
ATOM     73  C   UNL A   1      41.928  24.887  26.606  1.00  0.00     0.198 A 
ATOM     74  C   UNL A   1      42.292  27.030  25.661  1.00  0.00     0.198 A 
ATOM     75  F   UNL A   1      41.754  28.961  26.812  1.00  0.00    -0.203 F 
ATOM     76  F   UNL A   1      41.917  23.551  26.498  1.00  0.00    -0.200 F 
ATOM     77  C   UNL A   1      42.325  25.658  25.538  1.00  0.00     0.200 A 
ATOM     78  F   UNL A   1      42.651  27.799  24.623  1.00  0.00    -0.200 F 
ATOM     79  F   UNL A   1      42.702  25.085  24.387  1.00  0.00    -0.200 F 
ENDBRANCH  55  69
BRANCH  56  80
ATOM     80  C   UNL A   1      39.795  33.365  35.118  1.00  0.00     0.064 A 
ATOM     81  C   UNL A   1      38.779  32.482  35.544  1.00  0.00     0.173 A 
ATOM     82  C   UNL A   1      39.876  34.610  35.749  1.00  0.00     0.173 A 
ATOM     83  F   UNL A   1      38.615  31.303  34.924  1.00  0.00    -0.203 F 
ATOM     84  C   UNL A   1      38.075  32.717  36.722  1.00  0.00     0.198 A 
ATOM     85  C   UNL A   1      39.196  34.820  36.943  1.00  0.00     0.198 A 
ATOM     86  F   UNL A   1      40.767  35.526  35.346  1.00  0.00    -0.203 F 
ATOM     87  F   UNL A   1      37.239  31.786  37.204  1.00  0.00    -0.200 F 
ATOM     88  C   UNL A   1      38.349  33.850  37.461  1.00  0.00     0.200 A 
ATOM     89  F   UNL A   1      39.463  35.930  37.641  1.00  0.00    -0.200 F 
ATOM     90  F   UNL A   1      37.841  33.974  38.692  1.00  0.00    -0.200 F 
ENDBRANCH  56  80
BRANCH  68  91
ATOM     91  C   UNL A   1      42.990  26.772  34.486  1.00  0.00     0.064 A 
ATOM     92  C   UNL A   1      42.103  25.817  34.998  1.00  0.00     0.173 A 
ATOM     93  C   UNL A   1      44.343  26.315  34.427  1.00  0.00     0.173 A 
ATOM     94  F   UNL A   1      40.798  26.039  35.117  1.00  0.00    -0.203 F 
ATOM     95  C   UNL A   1      42.514  24.548  35.417  1.00  0.00     0.198 A 
ATOM     96  C   UNL A   1      44.740  25.031  34.788  1.00  0.00     0.198 A 
ATOM     97  F   UNL A   1      45.357  27.086  34.018  1.00  0.00    -0.203 F 
ATOM     98  F   UNL A   1      41.607  23.706  35.932  1.00  0.00    -0.200 F 
ATOM     99  C   UNL A   1      43.826  24.147  35.297  1.00  0.00     0.200 A 
ATOM    100  F   UNL A   1      46.021  24.668  34.632  1.00  0.00    -0.200 F 
ATOM    101  F   UNL A   1      44.204  22.920  35.673  1.00  0.00    -0.200 F 
ENDBRANCH  68  91
ENDBRANCH  42  43
ENDBRANCH  35  37
ENDBRANCH  34  35
ENDBRANCH  33  34
ENDBRANCH   1  33
TORSDOF 16
ENDMDL
MODEL 2
REMARK VINA RESULT:     -13.7      1.616      2.535
REMARK SMILES Cc1ccccc1C(=O)Nc1ccc(OCC(=O)OCCOC(=O)c2ccc(-c3c4nc(c(-c5c(F)c(F)c(F)c(F)c5F)c5ccc([nH]5)c(-c5c(F)c(F)c(F)c(F)c5F)c5nc(c(-c6c(F)c(F)c(F)c(F)c6F)c6ccc3[nH]6)C=C5)C=C4)cc2)c(-c2nc3ccccc3s2)c1
REMARK SMILES IDX 20 1 19 2 17 3 18 4 16 5 15 6 14 7 11 8 12 9 98 10 13 11
REMARK SMILES IDX 88 12 10 13 8 14 9 15 7 17 1 18 2 19 3 20 4 21 6 22 5 23
REMARK SMILES IDX 89 24 90 25 97 26 91 27 96 28 92 29 95 30 93 31 94 32 21 33
REMARK SMILES IDX 22 34 23 35 24 36 25 37 26 38 87 39 27 40 86 41 28 42 29 43
REMARK SMILES IDX 30 44 80 45 31 46 85 47 79 48 81 49 32 50 84 51 78 52 77 53
REMARK SMILES IDX 33 55 65 56 45 57 64 58 46 59 49 60 63 61 82 62 47 63 48 64
REMARK SMILES IDX 62 66 83 67 50 68 34 69 35 70 43 71 36 72 37 73 41 74 44 75
REMARK SMILES IDX 38 76 39 77 42 78 40 79 66 80 67 81 75 82 68 83 69 84 73 85
REMARK SMILES IDX 76 86 70 87 71 88 74 89 72 90 51 91 52 92 60 93 53 94 54 95
REMARK SMILES IDX 58 96 61 97 55 98 56 99 59 100 57 101
REMARK H PARENT 10 16 81 54 49 65
REMARK Flexibility Score: inf
ROOT
ATOM      1  C   UNL A   1      31.997  29.542  25.495  1.00  0.00     0.274 C 
ENDROOT
BRANCH   1   2
ATOM      2  O   UNL A   1      33.212  28.825  25.210  1.00  0.00    -0.460 OA
BRANCH   2   3
ATOM      3  C   UNL A   1      33.193  27.536  25.646  1.00  0.00     0.344 C 
ATOM      4  O   UNL A   1      33.899  26.652  25.165  1.00  0.00    -0.248 OA
BRANCH   3   5
ATOM      5  C   UNL A   1      32.187  27.256  26.781  1.00  0.00     0.352 C 
BRANCH   5   6
ATOM      6  O   UNL A   1      30.878  26.735  26.570  1.00  0.00    -0.481 OA
BRANCH   6   7
ATOM      7  C   UNL A   1      30.706  25.562  25.883  1.00  0.00     0.130 A 
ATOM      8  C   UNL A   1      30.896  23.256  24.294  1.00  0.00     0.042 A 
ATOM      9  C   UNL A   1      31.072  23.164  25.670  1.00  0.00     0.030 A 
ATOM     10  C   UNL A   1      30.431  24.445  23.752  1.00  0.00     0.041 A 
ATOM     11  C   UNL A   1      31.036  24.321  26.448  1.00  0.00     0.049 A 
ATOM     12  C   UNL A   1      30.229  25.601  24.548  1.00  0.00     0.055 A 
BRANCH   8  13
ATOM     13  N   UNL A   1      31.190  22.134  23.515  1.00  0.00    -0.322 N 
ATOM     14  C   UNL A   1      32.386  21.662  23.015  1.00  0.00     0.255 C 
ATOM     15  O   UNL A   1      32.338  20.847  22.087  1.00  0.00    -0.269 OA
ATOM     16  H   UNL A   1      30.407  21.584  23.283  1.00  0.00     0.170 HD
BRANCH  14  17
ATOM     17  C   UNL A   1      33.729  21.928  23.627  1.00  0.00     0.043 A 
ATOM     18  C   UNL A   1      33.715  19.907  25.207  1.00  0.00     0.045 C 
ATOM     19  C   UNL A   1      34.371  21.087  24.553  1.00  0.00    -0.038 A 
ATOM     20  C   UNL A   1      35.714  21.366  24.906  1.00  0.00     0.004 A 
ATOM     21  C   UNL A   1      36.419  22.435  24.368  1.00  0.00     0.000 A 
ATOM     22  C   UNL A   1      34.487  22.956  23.028  1.00  0.00     0.014 A 
ATOM     23  C   UNL A   1      35.811  23.216  23.401  1.00  0.00     0.001 A 
ENDBRANCH  14  17
ENDBRANCH   8  13
BRANCH  12  24
ATOM     24  C   UNL A   1      29.602  26.749  23.834  1.00  0.00     0.128 A 
ATOM     25  N   UNL A   1      30.308  27.543  23.047  1.00  0.00    -0.236 NA
ATOM     26  S   UNL A   1      27.912  27.104  23.805  1.00  0.00    -0.114 S 
ATOM     27  C   UNL A   1      29.582  28.644  22.665  1.00  0.00     0.082 A 
ATOM     28  C   UNL A   1      28.229  28.603  22.995  1.00  0.00     0.055 A 
ATOM     29  C   UNL A   1      30.107  29.789  22.032  1.00  0.00     0.030 A 
ATOM     30  C   UNL A   1      27.378  29.688  22.703  1.00  0.00     0.021 A 
ATOM     31  C   UNL A   1      29.288  30.897  21.804  1.00  0.00     0.002 A 
ATOM     32  C   UNL A   1      27.939  30.846  22.140  1.00  0.00     0.002 A 
ENDBRANCH  12  24
ENDBRANCH   6   7
ENDBRANCH   5   6
ENDBRANCH   3   5
ENDBRANCH   2   3
ENDBRANCH   1   2
BRANCH   1  33
ATOM     33  C   UNL A   1      32.196  30.624  26.555  1.00  0.00     0.275 C 
BRANCH  33  34
ATOM     34  O   UNL A   1      33.514  30.704  27.170  1.00  0.00    -0.458 OA
BRANCH  34  35
ATOM     35  C   UNL A   1      34.143  31.726  27.790  1.00  0.00     0.338 C 
ATOM     36  O   UNL A   1      33.687  32.853  27.895  1.00  0.00    -0.246 OA
BRANCH  35  37
ATOM     37  C   UNL A   1      35.463  31.393  28.266  1.00  0.00     0.060 A 
ATOM     38  C   UNL A   1      36.534  32.286  28.151  1.00  0.00     0.016 A 
ATOM     39  C   UNL A   1      35.541  30.200  28.959  1.00  0.00     0.016 A 
ATOM     40  C   UNL A   1      37.725  31.986  28.771  1.00  0.00     0.010 A 
ATOM     41  C   UNL A   1      36.602  30.039  29.773  1.00  0.00     0.010 A 
ATOM     42  C   UNL A   1      37.731  30.839  29.540  1.00  0.00    -0.014 A 
BRANCH  42  43
ATOM     43  C   UNL A   1      38.924  30.229  30.058  1.00  0.00     0.031 A 
ATOM     44  C   UNL A   1      39.305  28.950  29.465  1.00  0.00     0.074 A 
ATOM     45  C   UNL A   1      39.625  31.147  30.765  1.00  0.00     0.049 A 
ATOM     46  N   UNL A   1      39.969  28.024  30.062  1.00  0.00    -0.248 NA
ATOM     47  C   UNL A   1      38.836  28.529  28.136  1.00  0.00     0.031 C 
ATOM     48  C   UNL A   1      41.046  31.374  30.909  1.00  0.00     0.029 A 
ATOM     49  N   UNL A   1      39.065  32.236  31.464  1.00  0.00    -0.354 N 
ATOM     50  C   UNL A   1      40.491  27.282  29.023  1.00  0.00     0.074 A 
ATOM     51  C   UNL A   1      39.521  27.394  27.966  1.00  0.00     0.031 C 
ATOM     52  C   UNL A   1      41.244  32.293  31.879  1.00  0.00     0.029 A 
ATOM     53  C   UNL A   1      39.955  32.613  32.473  1.00  0.00     0.049 A 
ATOM     54  H   UNL A   1      38.196  32.659  31.273  1.00  0.00     0.167 HD
ATOM     55  C   UNL A   1      41.846  27.090  28.992  1.00  0.00     0.037 A 
ATOM     56  C   UNL A   1      39.562  32.343  33.755  1.00  0.00     0.037 A 
ATOM     57  C   UNL A   1      42.472  27.786  30.135  1.00  0.00     0.049 A 
ATOM     58  C   UNL A   1      40.246  31.104  34.271  1.00  0.00     0.074 A 
ATOM     59  C   UNL A   1      43.282  28.905  30.243  1.00  0.00     0.029 A 
ATOM     60  N   UNL A   1      41.997  27.552  31.422  1.00  0.00    -0.354 N 
ATOM     61  N   UNL A   1      40.871  30.232  33.532  1.00  0.00    -0.248 NA
ATOM     62  C   UNL A   1      40.291  30.783  35.681  1.00  0.00     0.031 C 
ATOM     63  C   UNL A   1      43.335  29.292  31.615  1.00  0.00     0.029 A 
ATOM     64  C   UNL A   1      42.524  28.436  32.339  1.00  0.00     0.049 A 
ATOM     65  H   UNL A   1      41.359  26.837  31.650  1.00  0.00     0.167 HD
ATOM     66  C   UNL A   1      41.456  29.275  34.318  1.00  0.00     0.074 A 
ATOM     67  C   UNL A   1      41.054  29.678  35.658  1.00  0.00     0.031 C 
ATOM     68  C   UNL A   1      42.212  28.268  33.763  1.00  0.00     0.037 A 
BRANCH  55  69
ATOM     69  C   UNL A   1      42.647  26.584  27.799  1.00  0.00     0.064 A 
ATOM     70  C   UNL A   1      42.798  25.196  27.576  1.00  0.00     0.173 A 
ATOM     71  C   UNL A   1      43.255  27.392  26.814  1.00  0.00     0.173 A 
ATOM     72  F   UNL A   1      42.202  24.288  28.359  1.00  0.00    -0.203 F 
ATOM     73  C   UNL A   1      43.544  24.669  26.518  1.00  0.00     0.198 A 
ATOM     74  C   UNL A   1      44.023  26.865  25.767  1.00  0.00     0.198 A 
ATOM     75  F   UNL A   1      43.081  28.717  26.779  1.00  0.00    -0.203 F 
ATOM     76  F   UNL A   1      43.642  23.340  26.375  1.00  0.00    -0.200 F 
ATOM     77  C   UNL A   1      44.170  25.503  25.620  1.00  0.00     0.200 A 
ATOM     78  F   UNL A   1      44.605  27.694  24.887  1.00  0.00    -0.200 F 
ATOM     79  F   UNL A   1      44.878  24.998  24.601  1.00  0.00    -0.200 F 
ENDBRANCH  55  69
BRANCH  56  80
ATOM     80  C   UNL A   1      38.106  32.669  33.958  1.00  0.00     0.064 A 
ATOM     81  C   UNL A   1      37.741  34.024  33.802  1.00  0.00     0.173 A 
ATOM     82  C   UNL A   1      37.154  31.700  33.625  1.00  0.00     0.173 A 
ATOM     83  F   UNL A   1      38.594  34.992  34.172  1.00  0.00    -0.203 F 
ATOM     84  C   UNL A   1      36.602  34.380  33.086  1.00  0.00     0.198 A 
ATOM     85  C   UNL A   1      36.037  32.063  32.880  1.00  0.00     0.198 A 
ATOM     86  F   UNL A   1      37.404  30.398  33.817  1.00  0.00    -0.203 F 
ATOM     87  F   UNL A   1      36.362  35.668  32.798  1.00  0.00    -0.200 F 
ATOM     88  C   UNL A   1      35.798  33.391  32.555  1.00  0.00     0.200 A 
ATOM     89  F   UNL A   1      35.260  31.093  32.384  1.00  0.00    -0.200 F 
ATOM     90  F   UNL A   1      34.832  33.719  31.690  1.00  0.00    -0.200 F 
ENDBRANCH  56  80
BRANCH  68  91
ATOM     91  C   UNL A   1      42.792  27.021  34.436  1.00  0.00     0.064 A 
ATOM     92  C   UNL A   1      42.051  25.976  35.001  1.00  0.00     0.173 A 
ATOM     93  C   UNL A   1      44.204  26.815  34.498  1.00  0.00     0.173 A 
ATOM     94  F   UNL A   1      40.722  25.968  35.027  1.00  0.00    -0.203 F 
ATOM     95  C   UNL A   1      42.647  24.848  35.575  1.00  0.00     0.198 A 
ATOM     96  C   UNL A   1      44.793  25.664  35.016  1.00  0.00     0.198 A 
ATOM     97  F   UNL A   1      45.094  27.714  34.062  1.00  0.00    -0.203 F 
ATOM     98  F   UNL A   1      41.867  23.910  36.129  1.00  0.00    -0.200 F 
ATOM     99  C   UNL A   1      44.014  24.683  35.568  1.00  0.00     0.200 A 
ATOM    100  F   UNL A   1      46.126  25.527  34.967  1.00  0.00    -0.200 F 
ATOM    101  F   UNL A   1      44.573  23.587  36.093  1.00  0.00    -0.200 F 
ENDBRANCH  68  91
ENDBRANCH  42  43
ENDBRANCH  35  37
ENDBRANCH  34  35
ENDBRANCH  33  34
ENDBRANCH   1  33
TORSDOF 16
ENDMDL
MODEL 3
REMARK VINA RESULT:     -13.6      0.481      1.210
REMARK SMILES Cc1ccccc1C(=O)Nc1ccc(OCC(=O)OCCOC(=O)c2ccc(-c3c4nc(c(-c5c(F)c(F)c(F)c(F)c5F)c5ccc([nH]5)c(-c5c(F)c(F)c(F)c(F)c5F)c5nc(c(-c6c(F)c(F)c(F)c(F)c6F)c6ccc3[nH]6)C=C5)C=C4)cc2)c(-c2nc3ccccc3s2)c1
REMARK SMILES IDX 20 1 19 2 17 3 18 4 16 5 15 6 14 7 11 8 12 9 98 10 13 11
REMARK SMILES IDX 88 12 10 13 8 14 9 15 7 17 1 18 2 19 3 20 4 21 6 22 5 23
REMARK SMILES IDX 89 24 90 25 97 26 91 27 96 28 92 29 95 30 93 31 94 32 21 33
REMARK SMILES IDX 22 34 23 35 24 36 25 37 26 38 87 39 27 40 86 41 28 42 29 43
REMARK SMILES IDX 30 44 80 45 31 46 85 47 79 48 81 49 32 50 84 51 78 52 77 53
REMARK SMILES IDX 33 55 65 56 45 57 64 58 46 59 49 60 63 61 82 62 47 63 48 64
REMARK SMILES IDX 62 66 83 67 50 68 34 69 35 70 43 71 36 72 37 73 41 74 44 75
REMARK SMILES IDX 38 76 39 77 42 78 40 79 66 80 67 81 75 82 68 83 69 84 73 85
REMARK SMILES IDX 76 86 70 87 71 88 74 89 72 90 51 91 52 92 60 93 53 94 54 95
REMARK SMILES IDX 58 96 61 97 55 98 56 99 59 100 57 101
REMARK H PARENT 10 16 81 54 49 65
REMARK Flexibility Score: inf
ROOT
ATOM      1  C   UNL A   1      34.183  31.765  27.717  1.00  0.00     0.274 C 
ENDROOT
BRANCH   1   2
ATOM      2  O   UNL A   1      33.325  30.779  27.116  1.00  0.00    -0.460 OA
BRANCH   2   3
ATOM      3  C   UNL A   1      33.870  29.532  27.092  1.00  0.00     0.344 C 
ATOM      4  O   UNL A   1      35.068  29.318  27.267  1.00  0.00    -0.248 OA
BRANCH   3   5
ATOM      5  C   UNL A   1      32.868  28.398  26.795  1.00  0.00     0.352 C 
BRANCH   5   6
ATOM      6  O   UNL A   1      32.900  27.600  25.616  1.00  0.00    -0.481 OA
BRANCH   6   7
ATOM      7  C   UNL A   1      32.445  26.308  25.646  1.00  0.00     0.130 A 
ATOM      8  C   UNL A   1      31.902  23.578  25.284  1.00  0.00     0.042 A 
ATOM      9  C   UNL A   1      32.720  23.986  26.330  1.00  0.00     0.030 A 
ATOM     10  C   UNL A   1      31.206  24.534  24.559  1.00  0.00     0.041 A 
ATOM     11  C   UNL A   1      33.036  25.339  26.471  1.00  0.00     0.049 A 
ATOM     12  C   UNL A   1      31.385  25.922  24.788  1.00  0.00     0.055 A 
BRANCH   8  13
ATOM     13  N   UNL A   1      31.812  22.210  25.013  1.00  0.00    -0.322 N 
ATOM     14  C   UNL A   1      32.663  21.357  24.340  1.00  0.00     0.255 C 
ATOM     15  O   UNL A   1      32.203  20.279  23.951  1.00  0.00    -0.269 OA
ATOM     16  H   UNL A   1      30.999  21.779  25.364  1.00  0.00     0.170 HD
BRANCH  14  17
ATOM     17  C   UNL A   1      34.141  21.565  24.202  1.00  0.00     0.043 A 
ATOM     18  C   UNL A   1      33.993  23.408  22.424  1.00  0.00     0.045 C 
ATOM     19  C   UNL A   1      34.742  22.553  23.402  1.00  0.00    -0.038 A 
ATOM     20  C   UNL A   1      36.140  22.756  23.510  1.00  0.00     0.004 A 
ATOM     21  C   UNL A   1      36.935  22.018  24.378  1.00  0.00     0.000 A 
ATOM     22  C   UNL A   1      34.950  20.886  25.137  1.00  0.00     0.014 A 
ATOM     23  C   UNL A   1      36.332  21.099  25.217  1.00  0.00     0.001 A 
ENDBRANCH  14  17
ENDBRANCH   8  13
BRANCH  12  24
ATOM     24  C   UNL A   1      30.465  26.805  24.017  1.00  0.00     0.128 A 
ATOM     25  N   UNL A   1      30.922  27.693  23.151  1.00  0.00    -0.236 NA
ATOM     26  S   UNL A   1      28.741  26.699  24.024  1.00  0.00    -0.114 S 
ATOM     27  C   UNL A   1      29.924  28.530  22.717  1.00  0.00     0.082 A 
ATOM     28  C   UNL A   1      28.636  28.161  23.097  1.00  0.00     0.055 A 
ATOM     29  C   UNL A   1      30.117  29.720  21.986  1.00  0.00     0.030 A 
ATOM     30  C   UNL A   1      27.523  28.957  22.760  1.00  0.00     0.021 A 
ATOM     31  C   UNL A   1      29.030  30.552  21.709  1.00  0.00     0.002 A 
ATOM     32  C   UNL A   1      27.748  30.175  22.096  1.00  0.00     0.002 A 
ENDBRANCH  12  24
ENDBRANCH   6   7
ENDBRANCH   5   6
ENDBRANCH   3   5
ENDBRANCH   2   3
ENDBRANCH   1   2
BRANCH   1  33
ATOM     33  C   UNL A   1      33.448  33.072  28.013  1.00  0.00     0.275 C 
BRANCH  33  34
ATOM     34  O   UNL A   1      34.083  33.981  28.957  1.00  0.00    -0.458 OA
BRANCH  34  35
ATOM     35  C   UNL A   1      34.519  33.786  30.220  1.00  0.00     0.338 C 
ATOM     36  O   UNL A   1      33.937  34.181  31.218  1.00  0.00    -0.246 OA
BRANCH  35  37
ATOM     37  C   UNL A   1      35.796  33.121  30.300  1.00  0.00     0.060 A 
ATOM     38  C   UNL A   1      36.911  33.581  29.590  1.00  0.00     0.016 A 
ATOM     39  C   UNL A   1      35.856  32.099  31.228  1.00  0.00     0.016 A 
ATOM     40  C   UNL A   1      38.140  33.012  29.833  1.00  0.00     0.010 A 
ATOM     41  C   UNL A   1      37.082  31.735  31.651  1.00  0.00     0.010 A 
ATOM     42  C   UNL A   1      38.178  32.069  30.841  1.00  0.00    -0.014 A 
BRANCH  42  43
ATOM     43  C   UNL A   1      39.293  31.195  31.078  1.00  0.00     0.031 A 
ATOM     44  C   UNL A   1      39.248  29.897  30.411  1.00  0.00     0.074 A 
ATOM     45  C   UNL A   1      40.314  31.906  31.613  1.00  0.00     0.049 A 
ATOM     46  N   UNL A   1      39.809  28.822  30.841  1.00  0.00    -0.248 NA
ATOM     47  C   UNL A   1      38.421  29.653  29.219  1.00  0.00     0.031 C 
ATOM     48  C   UNL A   1      41.747  31.820  31.436  1.00  0.00     0.029 A 
ATOM     49  N   UNL A   1      40.170  33.051  32.423  1.00  0.00    -0.354 N 
ATOM     50  C   UNL A   1      39.918  28.041  29.709  1.00  0.00     0.074 A 
ATOM     51  C   UNL A   1      38.790  28.410  28.896  1.00  0.00     0.031 C 
ATOM     52  C   UNL A   1      42.346  32.625  32.340  1.00  0.00     0.029 A 
ATOM     53  C   UNL A   1      41.317  33.179  33.208  1.00  0.00     0.049 A 
ATOM     54  H   UNL A   1      39.393  33.658  32.432  1.00  0.00     0.167 HD
ATOM     55  C   UNL A   1      41.159  27.569  29.375  1.00  0.00     0.037 A 
ATOM     56  C   UNL A   1      41.164  32.933  34.545  1.00  0.00     0.037 A 
ATOM     57  C   UNL A   1      42.154  28.057  30.352  1.00  0.00     0.049 A 
ATOM     58  C   UNL A   1      41.658  31.553  34.891  1.00  0.00     0.074 A 
ATOM     59  C   UNL A   1      43.192  28.972  30.280  1.00  0.00     0.029 A 
ATOM     60  N   UNL A   1      41.931  27.862  31.711  1.00  0.00    -0.354 N 
ATOM     61  N   UNL A   1      41.903  30.607  34.029  1.00  0.00    -0.248 NA
ATOM     62  C   UNL A   1      41.938  31.156  36.254  1.00  0.00     0.031 C 
ATOM     63  C   UNL A   1      43.625  29.269  31.607  1.00  0.00     0.029 A 
ATOM     64  C   UNL A   1      42.825  28.567  32.491  1.00  0.00     0.049 A 
ATOM     65  H   UNL A   1      41.218  27.287  32.075  1.00  0.00     0.167 HD
ATOM     66  C   UNL A   1      42.422  29.509  34.661  1.00  0.00     0.074 A 
ATOM     67  C   UNL A   1      42.418  29.918  36.058  1.00  0.00     0.031 C 
ATOM     68  C   UNL A   1      42.802  28.395  33.947  1.00  0.00     0.037 A 
BRANCH  55  69
ATOM     69  C   UNL A   1      41.552  26.968  28.033  1.00  0.00     0.064 A 
ATOM     70  C   UNL A   1      41.549  25.565  27.848  1.00  0.00     0.173 A 
ATOM     71  C   UNL A   1      41.898  27.696  26.874  1.00  0.00     0.173 A 
ATOM     72  F   UNL A   1      41.149  24.729  28.815  1.00  0.00    -0.203 F 
ATOM     73  C   UNL A   1      41.926  24.951  26.651  1.00  0.00     0.198 A 
ATOM     74  C   UNL A   1      42.300  27.081  25.681  1.00  0.00     0.198 A 
ATOM     75  F   UNL A   1      41.801  29.028  26.821  1.00  0.00    -0.203 F 
ATOM     76  F   UNL A   1      41.898  23.614  26.555  1.00  0.00    -0.200 F 
ATOM     77  C   UNL A   1      42.316  25.707  25.570  1.00  0.00     0.200 A 
ATOM     78  F   UNL A   1      42.653  27.836  24.630  1.00  0.00    -0.200 F 
ATOM     79  F   UNL A   1      42.670  25.119  24.419  1.00  0.00    -0.200 F 
ENDBRANCH  55  69
BRANCH  56  80
ATOM     80  C   UNL A   1      39.894  33.548  35.069  1.00  0.00     0.064 A 
ATOM     81  C   UNL A   1      38.909  32.651  35.535  1.00  0.00     0.173 A 
ATOM     82  C   UNL A   1      39.965  34.804  35.681  1.00  0.00     0.173 A 
ATOM     83  F   UNL A   1      38.754  31.459  34.936  1.00  0.00    -0.203 F 
ATOM     84  C   UNL A   1      38.233  32.887  36.728  1.00  0.00     0.198 A 
ATOM     85  C   UNL A   1      39.313  35.017  36.890  1.00  0.00     0.198 A 
ATOM     86  F   UNL A   1      40.825  35.733  35.242  1.00  0.00    -0.203 F 
ATOM     87  F   UNL A   1      37.430  31.945  37.245  1.00  0.00    -0.200 F 
ATOM     88  C   UNL A   1      38.502  34.035  37.444  1.00  0.00     0.200 A 
ATOM     89  F   UNL A   1      39.575  36.141  37.566  1.00  0.00    -0.200 F 
ATOM     90  F   UNL A   1      38.024  34.166  38.687  1.00  0.00    -0.200 F 
ENDBRANCH  56  80
BRANCH  68  91
ATOM     91  C   UNL A   1      43.228  27.021  34.470  1.00  0.00     0.064 A 
ATOM     92  C   UNL A   1      44.547  26.578  34.629  1.00  0.00     0.173 A 
ATOM     93  C   UNL A   1      42.254  26.066  34.893  1.00  0.00     0.173 A 
ATOM     94  F   UNL A   1      45.600  27.325  34.312  1.00  0.00    -0.203 F 
ATOM     95  C   UNL A   1      44.867  25.317  35.142  1.00  0.00     0.198 A 
ATOM     96  C   UNL A   1      42.575  24.835  35.459  1.00  0.00     0.198 A 
ATOM     97  F   UNL A   1      40.936  26.268  34.780  1.00  0.00    -0.203 F 
ATOM     98  F   UNL A   1      46.154  24.954  35.226  1.00  0.00    -0.200 F 
ATOM     99  C   UNL A   1      43.885  24.453  35.574  1.00  0.00     0.200 A 
ATOM    100  F   UNL A   1      41.593  24.032  35.892  1.00  0.00    -0.200 F 
ATOM    101  F   UNL A   1      44.201  23.261  36.091  1.00  0.00    -0.200 F 
ENDBRANCH  68  91
ENDBRANCH  42  43
ENDBRANCH  35  37
ENDBRANCH  34  35
ENDBRANCH  33  34
ENDBRANCH   1  33
TORSDOF 16
ENDMDL
