MODEL 1
REMARK VINA RESULT:     -13.1      0.000      0.000
REMARK SMILES Cc1c(CC(=O)N[C@H](CO)C(=O)OCCOC(=O)c2ccc(-c3c4nc(c(-c5c(F)c(F)c(F)c(F)c5F)c5ccc([nH]5)c(-c5c(F)c(F)c(F)c(F)c5F)c5nc(c(-c6c(F)c(F)c(F)c(F)c6F)c6ccc3[nH]6)C=C5)C=C4)cc2)cc(-c2ccc(S(C)(=O)=O)cc2)n1-c1cccc(F)c1
REMARK SMILES IDX 13 1 11 2 12 3 8 4 7 5 5 6 6 7 4 9 3 10 1 11 2 12 94 13
REMARK SMILES IDX 82 14 83 15 95 16 96 17 101 18 97 19 99 20 98 21 100 22
REMARK SMILES IDX 84 23 85 24 93 25 86 26 92 27 87 28 88 29 89 30 90 31 91 32
REMARK SMILES IDX 9 33 10 34 14 36 15 37 16 38 17 39 18 40 19 41 20 42 81 43
REMARK SMILES IDX 21 44 80 45 22 46 23 47 24 48 74 49 25 50 79 51 73 52 75 53
REMARK SMILES IDX 26 54 78 55 72 56 71 57 27 59 59 60 39 61 58 62 40 63 43 64
REMARK SMILES IDX 57 65 76 66 41 67 42 68 56 70 77 71 44 72 28 73 29 74 37 75
REMARK SMILES IDX 30 76 31 77 35 78 38 79 32 80 33 81 36 82 34 83 60 84 61 85
REMARK SMILES IDX 69 86 62 87 63 88 67 89 70 90 64 91 65 92 68 93 66 94 45 95
REMARK SMILES IDX 46 96 54 97 47 98 48 99 52 100 55 101 49 102 50 103 53 104
REMARK SMILES IDX 51 105
REMARK H PARENT 7 8 10 35 75 58 43 69
REMARK Flexibility Score: inf
ROOT
ATOM      1  O   UNL A   1      31.441  29.459  24.593  1.00  0.00    -0.460 OA
ENDROOT
BRANCH   1   2
ATOM      2  C   UNL A   1      30.291  30.115  24.278  1.00  0.00     0.331 C 
ATOM      3  O   UNL A   1      30.074  31.291  24.551  1.00  0.00    -0.250 OA
BRANCH   2   4
ATOM      4  C   UNL A   1      29.289  29.248  23.468  1.00  0.00     0.218 C 
BRANCH   4   5
ATOM      5  N   UNL A   1      29.997  28.495  22.408  1.00  0.00    -0.341 N 
ATOM      6  C   UNL A   1      30.462  27.208  22.408  1.00  0.00     0.225 C 
ATOM      7  O   UNL A   1      31.025  26.800  21.389  1.00  0.00    -0.275 OA
ATOM      8  H   UNL A   1      30.159  28.997  21.577  1.00  0.00     0.164 HD
BRANCH   6   9
ATOM      9  C   UNL A   1      30.262  26.295  23.611  1.00  0.00     0.137 C 
BRANCH   9  10
ATOM     10  C   UNL A   1      31.285  25.202  23.680  1.00  0.00    -0.017 A 
ATOM     11  C   UNL A   1      33.454  26.609  23.762  1.00  0.00     0.065 C 
ATOM     12  C   UNL A   1      32.662  25.341  23.811  1.00  0.00     0.024 A 
ATOM     13  N   UNL A   1      33.222  24.073  23.915  1.00  0.00    -0.313 N 
ATOM     14  C   UNL A   1      31.021  23.811  23.591  1.00  0.00     0.033 A 
ATOM     15  C   UNL A   1      32.205  23.126  23.779  1.00  0.00     0.053 A 
BRANCH  13  16
ATOM     16  C   UNL A   1      34.592  23.773  24.147  1.00  0.00     0.049 A 
ATOM     17  C   UNL A   1      35.351  23.166  23.136  1.00  0.00     0.027 A 
ATOM     18  C   UNL A   1      35.142  23.991  25.413  1.00  0.00     0.065 A 
ATOM     19  C   UNL A   1      36.661  22.765  23.394  1.00  0.00     0.005 A 
ATOM     20  C   UNL A   1      36.445  23.572  25.656  1.00  0.00     0.125 A 
ATOM     21  C   UNL A   1      37.207  22.962  24.662  1.00  0.00     0.039 A 
ATOM     22  F   UNL A   1      36.971  23.733  26.877  1.00  0.00    -0.207 F 
ENDBRANCH  13  16
BRANCH  15  23
ATOM     23  C   UNL A   1      32.386  21.678  23.919  1.00  0.00    -0.001 A 
ATOM     24  C   UNL A   1      32.715  21.115  25.163  1.00  0.00     0.011 A 
ATOM     25  C   UNL A   1      32.249  20.845  22.803  1.00  0.00     0.011 A 
ATOM     26  C   UNL A   1      32.968  19.752  25.277  1.00  0.00     0.021 A 
ATOM     27  C   UNL A   1      32.494  19.475  22.910  1.00  0.00     0.021 A 
ATOM     28  C   UNL A   1      32.876  18.943  24.145  1.00  0.00     0.067 A 
BRANCH  28  29
ATOM     29  S   UNL A   1      33.141  17.200  24.311  1.00  0.00     0.175 S 
ATOM     30  C   UNL A   1      34.841  17.037  24.776  1.00  0.00     0.163 C 
ATOM     31  O   UNL A   1      32.339  16.795  25.469  1.00  0.00    -0.224 OA
ATOM     32  O   UNL A   1      32.976  16.598  23.021  1.00  0.00    -0.224 OA
ENDBRANCH  28  29
ENDBRANCH  15  23
ENDBRANCH   9  10
ENDBRANCH   6   9
ENDBRANCH   4   5
BRANCH   4  33
ATOM     33  C   UNL A   1      28.078  30.019  22.904  1.00  0.00     0.193 C 
BRANCH  33  34
ATOM     34  O   UNL A   1      26.867  29.257  22.895  1.00  0.00    -0.394 OA
ATOM     35  H   UNL A   1      26.831  28.697  23.688  1.00  0.00     0.210 HD
ENDBRANCH  33  34
ENDBRANCH   4  33
ENDBRANCH   2   4
ENDBRANCH   1   2
BRANCH   1  36
ATOM     36  C   UNL A   1      31.807  29.315  25.995  1.00  0.00     0.274 C 
BRANCH  36  37
ATOM     37  C   UNL A   1      33.090  30.145  26.294  1.00  0.00     0.275 C 
BRANCH  37  38
ATOM     38  O   UNL A   1      33.409  30.473  27.701  1.00  0.00    -0.458 OA
BRANCH  38  39
ATOM     39  C   UNL A   1      34.462  31.328  27.937  1.00  0.00     0.338 C 
ATOM     40  O   UNL A   1      34.363  32.545  27.845  1.00  0.00    -0.246 OA
BRANCH  39  41
ATOM     41  C   UNL A   1      35.798  30.665  28.338  1.00  0.00     0.060 A 
ATOM     42  C   UNL A   1      36.740  30.357  27.368  1.00  0.00     0.016 A 
ATOM     43  C   UNL A   1      36.061  30.077  29.599  1.00  0.00     0.016 A 
ATOM     44  C   UNL A   1      37.914  29.564  27.676  1.00  0.00     0.010 A 
ATOM     45  C   UNL A   1      37.234  29.208  29.888  1.00  0.00     0.010 A 
ATOM     46  C   UNL A   1      38.228  28.910  28.934  1.00  0.00    -0.014 A 
BRANCH  46  47
ATOM     47  C   UNL A   1      39.320  27.642  28.886  1.00  0.00     0.031 A 
ATOM     48  C   UNL A   1      40.188  27.982  30.049  1.00  0.00     0.074 A 
ATOM     49  C   UNL A   1      39.812  26.520  28.172  1.00  0.00     0.049 A 
ATOM     50  N   UNL A   1      40.776  29.147  30.091  1.00  0.00    -0.248 NA
ATOM     51  C   UNL A   1      40.127  27.281  31.333  1.00  0.00     0.031 C 
ATOM     52  C   UNL A   1      39.391  26.014  26.850  1.00  0.00     0.029 A 
ATOM     53  N   UNL A   1      40.839  25.521  28.458  1.00  0.00    -0.354 N 
ATOM     54  C   UNL A   1      41.471  29.168  31.269  1.00  0.00     0.074 A 
ATOM     55  C   UNL A   1      40.811  28.155  32.083  1.00  0.00     0.031 C 
ATOM     56  C   UNL A   1      39.976  24.816  26.530  1.00  0.00     0.029 A 
ATOM     57  C   UNL A   1      40.923  24.372  27.559  1.00  0.00     0.049 A 
ATOM     58  H   UNL A   1      41.450  25.618  29.223  1.00  0.00     0.167 HD
ATOM     59  C   UNL A   1      42.806  29.422  31.139  1.00  0.00     0.037 A 
ATOM     60  C   UNL A   1      41.717  23.208  27.563  1.00  0.00     0.037 A 
ATOM     61  C   UNL A   1      43.609  28.248  31.321  1.00  0.00     0.049 A 
ATOM     62  C   UNL A   1      42.941  23.533  28.300  1.00  0.00     0.074 A 
ATOM     63  C   UNL A   1      43.514  27.146  32.146  1.00  0.00     0.029 A 
ATOM     64  N   UNL A   1      44.409  27.880  30.265  1.00  0.00    -0.354 N 
ATOM     65  N   UNL A   1      43.904  24.195  27.735  1.00  0.00    -0.248 NA
ATOM     66  C   UNL A   1      43.243  22.982  29.617  1.00  0.00     0.031 C 
ATOM     67  C   UNL A   1      43.748  26.052  31.287  1.00  0.00     0.029 A 
ATOM     68  C   UNL A   1      44.382  26.512  30.141  1.00  0.00     0.049 A 
ATOM     69  H   UNL A   1      44.918  28.496  29.692  1.00  0.00     0.167 HD
ATOM     70  C   UNL A   1      44.662  24.585  28.787  1.00  0.00     0.074 A 
ATOM     71  C   UNL A   1      44.401  23.613  29.834  1.00  0.00     0.031 C 
ATOM     72  C   UNL A   1      44.793  25.926  28.895  1.00  0.00     0.037 A 
BRANCH  59  73
ATOM     73  C   UNL A   1      43.142  30.524  30.164  1.00  0.00     0.064 A 
ATOM     74  C   UNL A   1      43.221  30.240  28.800  1.00  0.00     0.173 A 
ATOM     75  C   UNL A   1      43.487  31.832  30.561  1.00  0.00     0.173 A 
ATOM     76  F   UNL A   1      42.701  29.102  28.321  1.00  0.00    -0.203 F 
ATOM     77  C   UNL A   1      43.783  31.151  27.906  1.00  0.00     0.198 A 
ATOM     78  C   UNL A   1      44.092  32.722  29.684  1.00  0.00     0.198 A 
ATOM     79  F   UNL A   1      43.197  32.275  31.798  1.00  0.00    -0.203 F 
ATOM     80  F   UNL A   1      43.848  30.855  26.600  1.00  0.00    -0.200 F 
ATOM     81  C   UNL A   1      44.263  32.370  28.358  1.00  0.00     0.200 A 
ATOM     82  F   UNL A   1      44.495  33.924  30.121  1.00  0.00    -0.200 F 
ATOM     83  F   UNL A   1      44.836  33.230  27.505  1.00  0.00    -0.200 F 
ENDBRANCH  59  73
BRANCH  60  84
ATOM     84  C   UNL A   1      41.951  21.760  26.949  1.00  0.00     0.064 A 
ATOM     85  C   UNL A   1      42.849  21.545  25.830  1.00  0.00     0.173 A 
ATOM     86  C   UNL A   1      41.718  20.585  27.678  1.00  0.00     0.173 A 
ATOM     87  F   UNL A   1      43.156  22.529  24.974  1.00  0.00    -0.203 F 
ATOM     88  C   UNL A   1      43.534  20.339  25.572  1.00  0.00     0.198 A 
ATOM     89  C   UNL A   1      42.377  19.354  27.386  1.00  0.00     0.198 A 
ATOM     90  F   UNL A   1      40.917  20.617  28.749  1.00  0.00    -0.203 F 
ATOM     91  F   UNL A   1      44.459  20.278  24.598  1.00  0.00    -0.200 F 
ATOM     92  C   UNL A   1      43.311  19.244  26.365  1.00  0.00     0.200 A 
ATOM     93  F   UNL A   1      42.154  18.278  28.155  1.00  0.00    -0.200 F 
ATOM     94  F   UNL A   1      44.007  18.111  26.172  1.00  0.00    -0.200 F 
ENDBRANCH  60  84
BRANCH  72  95
ATOM     95  C   UNL A   1      45.144  26.690  27.633  1.00  0.00     0.064 A 
ATOM     96  C   UNL A   1      44.278  27.057  26.574  1.00  0.00     0.173 A 
ATOM     97  C   UNL A   1      46.494  27.029  27.469  1.00  0.00     0.173 A 
ATOM     98  F   UNL A   1      42.950  26.890  26.641  1.00  0.00    -0.203 F 
ATOM     99  C   UNL A   1      44.761  27.653  25.405  1.00  0.00     0.198 A 
ATOM    100  C   UNL A   1      46.963  27.676  26.328  1.00  0.00     0.198 A 
ATOM    101  F   UNL A   1      47.373  26.756  28.446  1.00  0.00    -0.203 F 
ATOM    102  F   UNL A   1      43.922  27.934  24.396  1.00  0.00    -0.200 F 
ATOM    103  C   UNL A   1      46.102  27.968  25.287  1.00  0.00     0.200 A 
ATOM    104  F   UNL A   1      48.254  28.023  26.250  1.00  0.00    -0.200 F 
ATOM    105  F   UNL A   1      46.562  28.569  24.182  1.00  0.00    -0.200 F 
ENDBRANCH  72  95
ENDBRANCH  46  47
ENDBRANCH  39  41
ENDBRANCH  38  39
ENDBRANCH  37  38
ENDBRANCH  36  37
ENDBRANCH   1  36
TORSDOF 19
ENDMDL
MODEL 2
REMARK VINA RESULT:     -12.5      3.852      9.214
REMARK SMILES Cc1c(CC(=O)N[C@H](CO)C(=O)OCCOC(=O)c2ccc(-c3c4nc(c(-c5c(F)c(F)c(F)c(F)c5F)c5ccc([nH]5)c(-c5c(F)c(F)c(F)c(F)c5F)c5nc(c(-c6c(F)c(F)c(F)c(F)c6F)c6ccc3[nH]6)C=C5)C=C4)cc2)cc(-c2ccc(S(C)(=O)=O)cc2)n1-c1cccc(F)c1
REMARK SMILES IDX 13 1 11 2 12 3 8 4 7 5 5 6 6 7 4 9 3 10 1 11 2 12 94 13
REMARK SMILES IDX 82 14 83 15 95 16 96 17 101 18 97 19 99 20 98 21 100 22
REMARK SMILES IDX 84 23 85 24 93 25 86 26 92 27 87 28 88 29 89 30 90 31 91 32
REMARK SMILES IDX 9 33 10 34 14 36 15 37 16 38 17 39 18 40 19 41 20 42 81 43
REMARK SMILES IDX 21 44 80 45 22 46 23 47 24 48 74 49 25 50 79 51 73 52 75 53
REMARK SMILES IDX 26 54 78 55 72 56 71 57 27 59 59 60 39 61 58 62 40 63 43 64
REMARK SMILES IDX 57 65 76 66 41 67 42 68 56 70 77 71 44 72 28 73 29 74 37 75
REMARK SMILES IDX 30 76 31 77 35 78 38 79 32 80 33 81 36 82 34 83 60 84 61 85
REMARK SMILES IDX 69 86 62 87 63 88 67 89 70 90 64 91 65 92 68 93 66 94 45 95
REMARK SMILES IDX 46 96 54 97 47 98 48 99 52 100 55 101 49 102 50 103 53 104
REMARK SMILES IDX 51 105
REMARK H PARENT 7 8 10 35 75 58 43 69
REMARK Flexibility Score: inf
ROOT
ATOM      1  O   UNL A   1      36.771  21.206  25.587  1.00  0.00    -0.460 OA
ENDROOT
BRANCH   1   2
ATOM      2  C   UNL A   1      35.597  20.890  24.978  1.00  0.00     0.331 C 
ATOM      3  O   UNL A   1      35.127  19.758  24.937  1.00  0.00    -0.250 OA
BRANCH   2   4
ATOM      4  C   UNL A   1      34.857  22.122  24.388  1.00  0.00     0.218 C 
BRANCH   4   5
ATOM      5  N   UNL A   1      33.927  21.700  23.315  1.00  0.00    -0.341 N 
ATOM      6  C   UNL A   1      32.569  21.543  23.343  1.00  0.00     0.225 C 
ATOM      7  O   UNL A   1      32.010  21.179  22.304  1.00  0.00    -0.275 OA
ATOM      8  H   UNL A   1      34.352  21.502  22.449  1.00  0.00     0.164 HD
BRANCH   6   9
ATOM      9  C   UNL A   1      31.764  21.839  24.603  1.00  0.00     0.137 C 
BRANCH   9  10
ATOM     10  C   UNL A   1      31.521  23.306  24.797  1.00  0.00    -0.017 A 
ATOM     11  C   UNL A   1      33.022  23.750  26.857  1.00  0.00     0.065 C 
ATOM     12  C   UNL A   1      32.118  24.143  25.732  1.00  0.00     0.024 A 
ATOM     13  N   UNL A   1      31.665  25.439  25.511  1.00  0.00    -0.313 N 
ATOM     14  C   UNL A   1      30.601  24.098  24.065  1.00  0.00     0.033 A 
ATOM     15  C   UNL A   1      30.727  25.411  24.478  1.00  0.00     0.053 A 
BRANCH  13  16
ATOM     16  C   UNL A   1      32.093  26.610  26.193  1.00  0.00     0.049 A 
ATOM     17  C   UNL A   1      31.217  27.261  27.073  1.00  0.00     0.027 A 
ATOM     18  C   UNL A   1      33.345  27.160  25.903  1.00  0.00     0.065 A 
ATOM     19  C   UNL A   1      31.588  28.472  27.657  1.00  0.00     0.005 A 
ATOM     20  C   UNL A   1      33.692  28.374  26.484  1.00  0.00     0.125 A 
ATOM     21  C   UNL A   1      32.828  29.034  27.354  1.00  0.00     0.039 A 
ATOM     22  F   UNL A   1      34.870  28.935  26.181  1.00  0.00    -0.207 F 
ENDBRANCH  13  16
BRANCH  15  23
ATOM     23  C   UNL A   1      30.086  26.594  23.895  1.00  0.00    -0.001 A 
ATOM     24  C   UNL A   1      30.862  27.630  23.349  1.00  0.00     0.011 A 
ATOM     25  C   UNL A   1      28.692  26.708  23.897  1.00  0.00     0.011 A 
ATOM     26  C   UNL A   1      30.258  28.789  22.872  1.00  0.00     0.021 A 
ATOM     27  C   UNL A   1      28.077  27.864  23.414  1.00  0.00     0.021 A 
ATOM     28  C   UNL A   1      28.869  28.908  22.927  1.00  0.00     0.067 A 
BRANCH  28  29
ATOM     29  S   UNL A   1      28.105  30.360  22.263  1.00  0.00     0.175 S 
ATOM     30  C   UNL A   1      29.281  31.657  22.524  1.00  0.00     0.163 C 
ATOM     31  O   UNL A   1      28.031  30.133  20.818  1.00  0.00    -0.224 OA
ATOM     32  O   UNL A   1      26.944  30.653  23.050  1.00  0.00    -0.224 OA
ENDBRANCH  28  29
ENDBRANCH  15  23
ENDBRANCH   9  10
ENDBRANCH   6   9
ENDBRANCH   4   5
BRANCH   4  33
ATOM     33  C   UNL A   1      35.778  23.267  23.922  1.00  0.00     0.193 C 
BRANCH  33  34
ATOM     34  O   UNL A   1      36.502  23.890  24.988  1.00  0.00    -0.394 OA
ATOM     35  H   UNL A   1      37.251  24.387  24.621  1.00  0.00     0.210 HD
ENDBRANCH  33  34
ENDBRANCH   4  33
ENDBRANCH   2   4
ENDBRANCH   1   2
BRANCH   1  36
ATOM     36  C   UNL A   1      38.008  20.641  25.067  1.00  0.00     0.274 C 
BRANCH  36  37
ATOM     37  C   UNL A   1      39.228  21.298  25.777  1.00  0.00     0.275 C 
BRANCH  37  38
ATOM     38  O   UNL A   1      40.265  20.418  26.359  1.00  0.00    -0.458 OA
BRANCH  38  39
ATOM     39  C   UNL A   1      41.583  20.779  26.185  1.00  0.00     0.338 C 
ATOM     40  O   UNL A   1      42.400  20.058  25.626  1.00  0.00    -0.246 OA
BRANCH  39  41
ATOM     41  C   UNL A   1      41.986  22.165  26.733  1.00  0.00     0.060 A 
ATOM     42  C   UNL A   1      41.741  22.485  28.061  1.00  0.00     0.016 A 
ATOM     43  C   UNL A   1      42.348  23.276  25.934  1.00  0.00     0.016 A 
ATOM     44  C   UNL A   1      41.925  23.833  28.563  1.00  0.00     0.010 A 
ATOM     45  C   UNL A   1      42.468  24.669  26.444  1.00  0.00     0.010 A 
ATOM     46  C   UNL A   1      42.265  25.018  27.794  1.00  0.00    -0.014 A 
BRANCH  46  47
ATOM     47  C   UNL A   1      41.893  26.503  28.472  1.00  0.00     0.031 A 
ATOM     48  C   UNL A   1      43.238  27.143  28.489  1.00  0.00     0.074 A 
ATOM     49  C   UNL A   1      40.917  27.308  29.114  1.00  0.00     0.049 A 
ATOM     50  N   UNL A   1      44.225  26.547  29.101  1.00  0.00    -0.248 NA
ATOM     51  C   UNL A   1      43.645  28.188  27.547  1.00  0.00     0.031 C 
ATOM     52  C   UNL A   1      39.544  26.945  29.516  1.00  0.00     0.029 A 
ATOM     53  N   UNL A   1      40.910  28.693  29.581  1.00  0.00    -0.354 N 
ATOM     54  C   UNL A   1      45.313  27.355  28.925  1.00  0.00     0.074 A 
ATOM     55  C   UNL A   1      44.968  28.156  27.757  1.00  0.00     0.031 C 
ATOM     56  C   UNL A   1      38.826  28.018  29.978  1.00  0.00     0.029 A 
ATOM     57  C   UNL A   1      39.628  29.245  30.015  1.00  0.00     0.049 A 
ATOM     58  H   UNL A   1      41.733  29.231  29.602  1.00  0.00     0.167 HD
ATOM     59  C   UNL A   1      45.923  27.751  30.080  1.00  0.00     0.037 A 
ATOM     60  C   UNL A   1      39.234  30.528  30.445  1.00  0.00     0.037 A 
ATOM     61  C   UNL A   1      45.647  29.119  30.408  1.00  0.00     0.049 A 
ATOM     62  C   UNL A   1      40.428  31.174  30.997  1.00  0.00     0.074 A 
ATOM     63  C   UNL A   1      45.484  30.266  29.658  1.00  0.00     0.029 A 
ATOM     64  N   UNL A   1      45.033  29.350  31.616  1.00  0.00    -0.354 N 
ATOM     65  N   UNL A   1      40.847  30.895  32.192  1.00  0.00    -0.248 NA
ATOM     66  C   UNL A   1      41.098  32.292  30.340  1.00  0.00     0.031 C 
ATOM     67  C   UNL A   1      44.324  30.865  30.192  1.00  0.00     0.029 A 
ATOM     68  C   UNL A   1      44.094  30.339  31.456  1.00  0.00     0.049 A 
ATOM     69  H   UNL A   1      45.233  28.883  32.457  1.00  0.00     0.167 HD
ATOM     70  C   UNL A   1      42.104  31.397  32.199  1.00  0.00     0.074 A 
ATOM     71  C   UNL A   1      42.103  32.456  31.204  1.00  0.00     0.031 C 
ATOM     72  C   UNL A   1      43.059  30.472  32.445  1.00  0.00     0.037 A 
BRANCH  59  73
ATOM     73  C   UNL A   1      46.084  26.659  31.109  1.00  0.00     0.064 A 
ATOM     74  C   UNL A   1      44.991  26.280  31.890  1.00  0.00     0.173 A 
ATOM     75  C   UNL A   1      47.320  26.050  31.408  1.00  0.00     0.173 A 
ATOM     76  F   UNL A   1      43.753  26.638  31.529  1.00  0.00    -0.203 F 
ATOM     77  C   UNL A   1      45.157  25.477  33.019  1.00  0.00     0.198 A 
ATOM     78  C   UNL A   1      47.498  25.293  32.558  1.00  0.00     0.198 A 
ATOM     79  F   UNL A   1      48.359  26.149  30.559  1.00  0.00    -0.203 F 
ATOM     80  F   UNL A   1      44.092  25.127  33.754  1.00  0.00    -0.200 F 
ATOM     81  C   UNL A   1      46.417  25.026  33.378  1.00  0.00     0.200 A 
ATOM     82  F   UNL A   1      48.712  24.809  32.860  1.00  0.00    -0.200 F 
ATOM     83  F   UNL A   1      46.582  24.286  34.483  1.00  0.00    -0.200 F 
ENDBRANCH  59  73
BRANCH  60  84
ATOM     84  C   UNL A   1      38.022  31.501  30.776  1.00  0.00     0.064 A 
ATOM     85  C   UNL A   1      37.090  31.932  29.752  1.00  0.00     0.173 A 
ATOM     86  C   UNL A   1      37.489  31.629  32.068  1.00  0.00     0.173 A 
ATOM     87  F   UNL A   1      37.427  31.943  28.455  1.00  0.00    -0.203 F 
ATOM     88  C   UNL A   1      35.750  32.303  29.989  1.00  0.00     0.198 A 
ATOM     89  C   UNL A   1      36.147  32.050  32.308  1.00  0.00     0.198 A 
ATOM     90  F   UNL A   1      38.221  31.265  33.126  1.00  0.00    -0.203 F 
ATOM     91  F   UNL A   1      34.919  32.546  28.961  1.00  0.00    -0.200 F 
ATOM     92  C   UNL A   1      35.271  32.343  31.273  1.00  0.00     0.200 A 
ATOM     93  F   UNL A   1      35.678  32.098  33.564  1.00  0.00    -0.200 F 
ATOM     94  F   UNL A   1      33.979  32.628  31.508  1.00  0.00    -0.200 F 
ENDBRANCH  60  84
BRANCH  72  95
ATOM     95  C   UNL A   1      42.822  29.528  33.608  1.00  0.00     0.064 A 
ATOM     96  C   UNL A   1      42.083  28.320  33.607  1.00  0.00     0.173 A 
ATOM     97  C   UNL A   1      43.355  29.922  34.844  1.00  0.00     0.173 A 
ATOM     98  F   UNL A   1      41.607  27.770  32.481  1.00  0.00    -0.203 F 
ATOM     99  C   UNL A   1      41.839  27.608  34.785  1.00  0.00     0.198 A 
ATOM    100  C   UNL A   1      43.159  29.179  36.005  1.00  0.00     0.198 A 
ATOM    101  F   UNL A   1      44.106  31.032  34.922  1.00  0.00    -0.203 F 
ATOM    102  F   UNL A   1      41.085  26.499  34.758  1.00  0.00    -0.200 F 
ATOM    103  C   UNL A   1      42.383  28.035  35.982  1.00  0.00     0.200 A 
ATOM    104  F   UNL A   1      43.737  29.575  37.147  1.00  0.00    -0.200 F 
ATOM    105  F   UNL A   1      42.178  27.338  37.106  1.00  0.00    -0.200 F 
ENDBRANCH  72  95
ENDBRANCH  46  47
ENDBRANCH  39  41
ENDBRANCH  38  39
ENDBRANCH  37  38
ENDBRANCH  36  37
ENDBRANCH   1  36
TORSDOF 19
ENDMDL
MODEL 3
REMARK VINA RESULT:     -12.4      3.975      9.510
REMARK SMILES Cc1c(CC(=O)N[C@H](CO)C(=O)OCCOC(=O)c2ccc(-c3c4nc(c(-c5c(F)c(F)c(F)c(F)c5F)c5ccc([nH]5)c(-c5c(F)c(F)c(F)c(F)c5F)c5nc(c(-c6c(F)c(F)c(F)c(F)c6F)c6ccc3[nH]6)C=C5)C=C4)cc2)cc(-c2ccc(S(C)(=O)=O)cc2)n1-c1cccc(F)c1
REMARK SMILES IDX 13 1 11 2 12 3 8 4 7 5 5 6 6 7 4 9 3 10 1 11 2 12 94 13
REMARK SMILES IDX 82 14 83 15 95 16 96 17 101 18 97 19 99 20 98 21 100 22
REMARK SMILES IDX 84 23 85 24 93 25 86 26 92 27 87 28 88 29 89 30 90 31 91 32
REMARK SMILES IDX 9 33 10 34 14 36 15 37 16 38 17 39 18 40 19 41 20 42 81 43
REMARK SMILES IDX 21 44 80 45 22 46 23 47 24 48 74 49 25 50 79 51 73 52 75 53
REMARK SMILES IDX 26 54 78 55 72 56 71 57 27 59 59 60 39 61 58 62 40 63 43 64
REMARK SMILES IDX 57 65 76 66 41 67 42 68 56 70 77 71 44 72 28 73 29 74 37 75
REMARK SMILES IDX 30 76 31 77 35 78 38 79 32 80 33 81 36 82 34 83 60 84 61 85
REMARK SMILES IDX 69 86 62 87 63 88 67 89 70 90 64 91 65 92 68 93 66 94 45 95
REMARK SMILES IDX 46 96 54 97 47 98 48 99 52 100 55 101 49 102 50 103 53 104
REMARK SMILES IDX 51 105
REMARK H PARENT 7 8 10 35 75 58 43 69
REMARK Flexibility Score: inf
ROOT
ATOM      1  O   UNL A   1      37.146  21.389  24.614  1.00  0.00    -0.460 OA
ENDROOT
BRANCH   1   2
ATOM      2  C   UNL A   1      35.798  21.298  24.774  1.00  0.00     0.331 C 
ATOM      3  O   UNL A   1      35.240  20.408  25.407  1.00  0.00    -0.250 OA
BRANCH   2   4
ATOM      4  C   UNL A   1      35.019  22.477  24.130  1.00  0.00     0.218 C 
BRANCH   4   5
ATOM      5  N   UNL A   1      34.061  21.973  23.119  1.00  0.00    -0.341 N 
ATOM      6  C   UNL A   1      32.718  21.734  23.226  1.00  0.00     0.225 C 
ATOM      7  O   UNL A   1      32.128  21.311  22.228  1.00  0.00    -0.275 OA
ATOM      8  H   UNL A   1      34.450  21.778  22.236  1.00  0.00     0.164 HD
BRANCH   6   9
ATOM      9  C   UNL A   1      31.966  22.014  24.521  1.00  0.00     0.137 C 
BRANCH   9  10
ATOM     10  C   UNL A   1      31.735  23.477  24.748  1.00  0.00    -0.017 A 
ATOM     11  C   UNL A   1      33.152  23.841  26.882  1.00  0.00     0.065 C 
ATOM     12  C   UNL A   1      32.302  24.279  25.731  1.00  0.00     0.024 A 
ATOM     13  N   UNL A   1      31.878  25.587  25.528  1.00  0.00    -0.313 N 
ATOM     14  C   UNL A   1      30.859  24.305  24.000  1.00  0.00     0.033 A 
ATOM     15  C   UNL A   1      30.985  25.603  24.455  1.00  0.00     0.053 A 
BRANCH  13  16
ATOM     16  C   UNL A   1      32.293  26.732  26.262  1.00  0.00     0.049 A 
ATOM     17  C   UNL A   1      31.362  27.431  27.044  1.00  0.00     0.027 A 
ATOM     18  C   UNL A   1      33.598  27.211  26.116  1.00  0.00     0.065 A 
ATOM     19  C   UNL A   1      31.733  28.618  27.674  1.00  0.00     0.005 A 
ATOM     20  C   UNL A   1      33.945  28.403  26.740  1.00  0.00     0.125 A 
ATOM     21  C   UNL A   1      33.029  29.110  27.513  1.00  0.00     0.039 A 
ATOM     22  F   UNL A   1      35.179  28.897  26.573  1.00  0.00    -0.207 F 
ENDBRANCH  13  16
BRANCH  15  23
ATOM     23  C   UNL A   1      30.388  26.812  23.880  1.00  0.00    -0.001 A 
ATOM     24  C   UNL A   1      28.994  26.984  23.868  1.00  0.00     0.011 A 
ATOM     25  C   UNL A   1      31.206  27.798  23.318  1.00  0.00     0.011 A 
ATOM     26  C   UNL A   1      28.423  28.091  23.248  1.00  0.00     0.021 A 
ATOM     27  C   UNL A   1      30.643  28.916  22.700  1.00  0.00     0.021 A 
ATOM     28  C   UNL A   1      29.251  29.040  22.649  1.00  0.00     0.067 A 
BRANCH  28  29
ATOM     29  S   UNL A   1      28.520  30.476  21.915  1.00  0.00     0.175 S 
ATOM     30  C   UNL A   1      27.331  31.040  23.098  1.00  0.00     0.163 C 
ATOM     31  O   UNL A   1      29.589  31.476  21.870  1.00  0.00    -0.224 OA
ATOM     32  O   UNL A   1      27.811  30.064  20.739  1.00  0.00    -0.224 OA
ENDBRANCH  28  29
ENDBRANCH  15  23
ENDBRANCH   9  10
ENDBRANCH   6   9
ENDBRANCH   4   5
BRANCH   4  33
ATOM     33  C   UNL A   1      35.906  23.602  23.559  1.00  0.00     0.193 C 
BRANCH  33  34
ATOM     34  O   UNL A   1      36.775  23.169  22.507  1.00  0.00    -0.394 OA
ATOM     35  H   UNL A   1      37.696  23.216  22.809  1.00  0.00     0.210 HD
ENDBRANCH  33  34
ENDBRANCH   4  33
ENDBRANCH   2   4
ENDBRANCH   1   2
BRANCH   1  36
ATOM     36  C   UNL A   1      37.967  21.758  25.759  1.00  0.00     0.274 C 
BRANCH  36  37
ATOM     37  C   UNL A   1      39.326  21.001  25.699  1.00  0.00     0.275 C 
BRANCH  37  38
ATOM     38  O   UNL A   1      40.390  21.385  26.652  1.00  0.00    -0.458 OA
BRANCH  38  39
ATOM     39  C   UNL A   1      41.470  22.085  26.160  1.00  0.00     0.338 C 
ATOM     40  O   UNL A   1      42.254  21.612  25.348  1.00  0.00    -0.246 OA
BRANCH  39  41
ATOM     41  C   UNL A   1      41.641  23.526  26.690  1.00  0.00     0.060 A 
ATOM     42  C   UNL A   1      41.336  23.822  28.010  1.00  0.00     0.016 A 
ATOM     43  C   UNL A   1      41.831  24.668  25.876  1.00  0.00     0.016 A 
ATOM     44  C   UNL A   1      41.298  25.189  28.491  1.00  0.00     0.010 A 
ATOM     45  C   UNL A   1      41.724  26.070  26.364  1.00  0.00     0.010 A 
ATOM     46  C   UNL A   1      41.454  26.402  27.707  1.00  0.00    -0.014 A 
BRANCH  46  47
ATOM     47  C   UNL A   1      40.844  27.818  28.358  1.00  0.00     0.031 A 
ATOM     48  C   UNL A   1      42.051  28.692  28.297  1.00  0.00     0.074 A 
ATOM     49  C   UNL A   1      39.764  28.457  29.020  1.00  0.00     0.049 A 
ATOM     50  N   UNL A   1      43.152  28.305  28.882  1.00  0.00    -0.248 NA
ATOM     51  C   UNL A   1      42.224  29.758  27.309  1.00  0.00     0.031 C 
ATOM     52  C   UNL A   1      38.496  27.866  29.492  1.00  0.00     0.029 A 
ATOM     53  N   UNL A   1      39.523  29.833  29.446  1.00  0.00    -0.354 N 
ATOM     54  C   UNL A   1      44.067  29.290  28.634  1.00  0.00     0.074 A 
ATOM     55  C   UNL A   1      43.538  29.973  27.460  1.00  0.00     0.031 C 
ATOM     56  C   UNL A   1      37.613  28.808  29.955  1.00  0.00     0.029 A 
ATOM     57  C   UNL A   1      38.180  30.160  29.920  1.00  0.00     0.049 A 
ATOM     58  H   UNL A   1      40.235  30.512  29.416  1.00  0.00     0.167 HD
ATOM     59  C   UNL A   1      44.639  29.831  29.750  1.00  0.00     0.037 A 
ATOM     60  C   UNL A   1      37.576  31.366  30.331  1.00  0.00     0.037 A 
ATOM     61  C   UNL A   1      44.132  31.138  30.050  1.00  0.00     0.049 A 
ATOM     62  C   UNL A   1      38.653  32.236  30.811  1.00  0.00     0.074 A 
ATOM     63  C   UNL A   1      43.734  32.208  29.276  1.00  0.00     0.029 A 
ATOM     64  N   UNL A   1      43.532  31.298  31.277  1.00  0.00    -0.354 N 
ATOM     65  N   UNL A   1      39.161  32.081  31.994  1.00  0.00    -0.248 NA
ATOM     66  C   UNL A   1      39.082  33.432  30.093  1.00  0.00     0.031 C 
ATOM     67  C   UNL A   1      42.506  32.607  29.844  1.00  0.00     0.029 A 
ATOM     68  C   UNL A   1      42.424  32.094  31.131  1.00  0.00     0.049 A 
ATOM     69  H   UNL A   1      43.847  30.904  32.122  1.00  0.00     0.167 HD
ATOM     70  C   UNL A   1      40.305  32.802  31.930  1.00  0.00     0.074 A 
ATOM     71  C   UNL A   1      40.073  33.806  30.907  1.00  0.00     0.031 C 
ATOM     72  C   UNL A   1      41.420  32.074  32.161  1.00  0.00     0.037 A 
BRANCH  59  73
ATOM     73  C   UNL A   1      45.035  28.824  30.801  1.00  0.00     0.064 A 
ATOM     74  C   UNL A   1      46.386  28.611  31.080  1.00  0.00     0.173 A 
ATOM     75  C   UNL A   1      44.110  27.992  31.466  1.00  0.00     0.173 A 
ATOM     76  F   UNL A   1      47.303  29.495  30.668  1.00  0.00    -0.203 F 
ATOM     77  C   UNL A   1      46.801  27.517  31.840  1.00  0.00     0.198 A 
ATOM     78  C   UNL A   1      44.521  26.874  32.180  1.00  0.00     0.198 A 
ATOM     79  F   UNL A   1      42.798  28.285  31.466  1.00  0.00    -0.203 F 
ATOM     80  F   UNL A   1      48.104  27.334  32.094  1.00  0.00    -0.200 F 
ATOM     81  C   UNL A   1      45.871  26.623  32.346  1.00  0.00     0.200 A 
ATOM     82  F   UNL A   1      43.609  26.052  32.718  1.00  0.00    -0.200 F 
ATOM     83  F   UNL A   1      46.272  25.551  33.043  1.00  0.00    -0.200 F 
ENDBRANCH  59  73
BRANCH  60  84
ATOM     84  C   UNL A   1      36.220  32.115  30.688  1.00  0.00     0.064 A 
ATOM     85  C   UNL A   1      35.716  32.172  32.046  1.00  0.00     0.173 A 
ATOM     86  C   UNL A   1      35.684  33.128  29.878  1.00  0.00     0.173 A 
ATOM     87  F   UNL A   1      36.061  31.258  32.963  1.00  0.00    -0.203 F 
ATOM     88  C   UNL A   1      34.895  33.200  32.556  1.00  0.00     0.198 A 
ATOM     89  C   UNL A   1      34.816  34.140  30.386  1.00  0.00     0.198 A 
ATOM     90  F   UNL A   1      36.055  33.219  28.597  1.00  0.00    -0.203 F 
ATOM     91  F   UNL A   1      34.598  33.246  33.867  1.00  0.00    -0.200 F 
ATOM     92  C   UNL A   1      34.459  34.199  31.726  1.00  0.00     0.200 A 
ATOM     93  F   UNL A   1      34.381  35.115  29.574  1.00  0.00    -0.200 F 
ATOM     94  F   UNL A   1      33.734  35.220  32.213  1.00  0.00    -0.200 F 
ENDBRANCH  60  84
BRANCH  72  95
ATOM     95  C   UNL A   1      41.405  31.145  33.360  1.00  0.00     0.064 A 
ATOM     96  C   UNL A   1      41.759  31.450  34.696  1.00  0.00     0.173 A 
ATOM     97  C   UNL A   1      41.046  29.814  33.107  1.00  0.00     0.173 A 
ATOM     98  F   UNL A   1      42.022  32.701  35.103  1.00  0.00    -0.203 F 
ATOM     99  C   UNL A   1      41.819  30.462  35.683  1.00  0.00     0.198 A 
ATOM    100  C   UNL A   1      41.050  28.843  34.106  1.00  0.00     0.198 A 
ATOM    101  F   UNL A   1      40.654  29.451  31.875  1.00  0.00    -0.203 F 
ATOM    102  F   UNL A   1      42.216  30.775  36.926  1.00  0.00    -0.200 F 
ATOM    103  C   UNL A   1      41.458  29.160  35.388  1.00  0.00     0.200 A 
ATOM    104  F   UNL A   1      40.647  27.599  33.818  1.00  0.00    -0.200 F 
ATOM    105  F   UNL A   1      41.483  28.218  36.339  1.00  0.00    -0.200 F 
ENDBRANCH  72  95
ENDBRANCH  46  47
ENDBRANCH  39  41
ENDBRANCH  38  39
ENDBRANCH  37  38
ENDBRANCH  36  37
ENDBRANCH   1  36
TORSDOF 19
ENDMDL
