MODEL 1
REMARK VINA RESULT:     -10.3      0.000      0.000
REMARK SMILES Cc1ccc(C)c(NC(=O)/C=C/C(=O)OCCOC(=O)c2ccc(-c3c4nc(c(-c5c(F)c(F)c(F)c(F)c5F)c5ccc([nH]5)c(-c5c(F)c(F)c(F)c(F)c5F)c5nc(c(-c6c(F)c(F)c(F)c(F)c6F)c6ccc3[nH]6)C=C5)C=C4)cc2)c1
REMARK SMILES IDX 16 1 15 2 13 3 14 4 12 5 11 6 9 7 8 8 10 10 7 11 1 12 2 13
REMARK SMILES IDX 3 14 84 15 4 16 5 17 6 18 17 19 18 20 19 21 20 22 21 23
REMARK SMILES IDX 22 24 83 25 23 26 82 27 24 28 25 29 26 30 76 31 27 32 81 33
REMARK SMILES IDX 75 34 77 35 28 36 80 37 74 38 73 39 29 41 61 42 41 43 60 44
REMARK SMILES IDX 42 45 45 46 59 47 78 48 43 49 44 50 58 52 79 53 46 54 30 55
REMARK SMILES IDX 31 56 39 57 32 58 33 59 37 60 40 61 34 62 35 63 38 64 36 65
REMARK SMILES IDX 62 66 63 67 71 68 64 69 65 70 69 71 72 72 66 73 67 74 70 75
REMARK SMILES IDX 68 76 47 77 48 78 56 79 49 80 50 81 54 82 57 83 51 84 52 85
REMARK SMILES IDX 55 86 53 87
REMARK H PARENT 8 9 77 40 45 51
REMARK Flexibility Score: inf
ROOT
ATOM      1  C   UNL A   1      33.314  35.801  31.885  1.00  0.00     0.275 C 
ENDROOT
BRANCH   1   2
ATOM      2  O   UNL A   1      34.089  35.831  30.678  1.00  0.00    -0.459 OA
BRANCH   2   3
ATOM      3  C   UNL A   1      33.418  35.345  29.472  1.00  0.00     0.331 C 
ATOM      4  O   UNL A   1      32.805  36.352  29.021  1.00  0.00    -0.247 OA
BRANCH   3   5
ATOM      5  C   UNL A   1      33.550  33.340  28.746  1.00  0.00     0.099 C 
ATOM      6  C   UNL A   1      34.443  32.283  28.438  1.00  0.00     0.079 C 
BRANCH   6   7
ATOM      7  C   UNL A   1      34.245  30.927  27.810  1.00  0.00     0.248 C 
ATOM      8  N   UNL A   1      35.003  29.820  28.127  1.00  0.00    -0.322 N 
ATOM      9  H   UNL A   1      34.668  28.989  27.720  1.00  0.00     0.170 HD
ATOM     10  O   UNL A   1      33.267  30.776  27.075  1.00  0.00    -0.270 OA
BRANCH   8  11
ATOM     11  C   UNL A   1      36.162  29.631  28.912  1.00  0.00     0.044 A 
ATOM     12  C   UNL A   1      37.216  29.781  32.597  1.00  0.00     0.044 C 
ATOM     13  C   UNL A   1      37.137  29.418  31.141  1.00  0.00    -0.049 A 
ATOM     14  C   UNL A   1      38.148  28.627  30.597  1.00  0.00     0.004 A 
ATOM     15  C   UNL A   1      36.095  29.853  30.299  1.00  0.00     0.029 A 
ATOM     16  C   UNL A   1      38.307  28.588  29.219  1.00  0.00     0.006 A 
ATOM     17  C   UNL A   1      37.405  29.280  28.401  1.00  0.00    -0.027 A 
ATOM     18  C   UNL A   1      37.982  30.062  27.245  1.00  0.00     0.046 C 
ENDBRANCH   8  11
ENDBRANCH   6   7
ENDBRANCH   3   5
ENDBRANCH   2   3
ENDBRANCH   1   2
BRANCH   1  19
ATOM     19  C   UNL A   1      33.921  34.754  32.827  1.00  0.00     0.275 C 
BRANCH  19  20
ATOM     20  O   UNL A   1      35.366  34.662  32.734  1.00  0.00    -0.458 OA
BRANCH  20  21
ATOM     21  C   UNL A   1      35.904  33.434  32.508  1.00  0.00     0.338 C 
ATOM     22  O   UNL A   1      35.354  32.370  32.711  1.00  0.00    -0.246 OA
BRANCH  21  23
ATOM     23  C   UNL A   1      37.296  33.580  32.039  1.00  0.00     0.060 A 
ATOM     24  C   UNL A   1      37.688  33.085  30.328  1.00  0.00     0.016 A 
ATOM     25  C   UNL A   1      38.524  33.378  33.364  1.00  0.00     0.016 A 
ATOM     26  C   UNL A   1      39.243  32.183  29.964  1.00  0.00     0.010 A 
ATOM     27  C   UNL A   1      40.104  32.541  32.984  1.00  0.00     0.010 A 
ATOM     28  C   UNL A   1      40.398  31.846  31.326  1.00  0.00    -0.014 A 
BRANCH  28  29
ATOM     29  C   UNL A   1      41.436  30.792  31.252  1.00  0.00     0.031 A 
ATOM     30  C   UNL A   1      42.576  31.370  30.532  1.00  0.00     0.074 A 
ATOM     31  C   UNL A   1      41.597  29.609  31.909  1.00  0.00     0.049 A 
ATOM     32  N   UNL A   1      42.674  31.459  29.246  1.00  0.00    -0.248 NA
ATOM     33  C   UNL A   1      43.491  32.251  31.275  1.00  0.00     0.031 C 
ATOM     34  C   UNL A   1      40.776  28.987  32.951  1.00  0.00     0.029 A 
ATOM     35  N   UNL A   1      42.638  28.702  31.804  1.00  0.00    -0.354 N 
ATOM     36  C   UNL A   1      43.833  32.189  29.067  1.00  0.00     0.074 A 
ATOM     37  C   UNL A   1      43.970  32.974  30.260  1.00  0.00     0.031 C 
ATOM     38  C   UNL A   1      41.439  27.937  33.510  1.00  0.00     0.029 A 
ATOM     39  C   UNL A   1      42.687  27.710  32.798  1.00  0.00     0.049 A 
ATOM     40  H   UNL A   1      43.302  28.749  31.079  1.00  0.00     0.167 HD
ATOM     41  C   UNL A   1      44.822  31.714  28.259  1.00  0.00     0.037 A 
ATOM     42  C   UNL A   1      43.681  26.789  33.010  1.00  0.00     0.037 A 
ATOM     43  C   UNL A   1      44.335  30.593  27.472  1.00  0.00     0.049 A 
ATOM     44  C   UNL A   1      44.466  26.706  31.758  1.00  0.00     0.074 A 
ATOM     45  C   UNL A   1      43.266  30.361  26.626  1.00  0.00     0.029 A 
ATOM     46  N   UNL A   1      44.791  29.352  27.839  1.00  0.00    -0.354 N 
ATOM     47  N   UNL A   1      44.030  26.172  30.656  1.00  0.00    -0.248 NA
ATOM     48  C   UNL A   1      45.613  27.586  31.621  1.00  0.00     0.031 C 
ATOM     49  C   UNL A   1      42.882  29.001  26.848  1.00  0.00     0.029 A 
ATOM     50  C   UNL A   1      43.777  28.437  27.755  1.00  0.00     0.049 A 
ATOM     51  H   UNL A   1      45.712  29.149  28.122  1.00  0.00     0.167 HD
ATOM     52  C   UNL A   1      44.491  27.025  29.671  1.00  0.00     0.074 A 
ATOM     53  C   UNL A   1      45.559  27.795  30.305  1.00  0.00     0.031 C 
ATOM     54  C   UNL A   1      43.736  27.234  28.552  1.00  0.00     0.037 A 
BRANCH  41  55
ATOM     55  C   UNL A   1      46.307  31.913  28.528  1.00  0.00     0.064 A 
ATOM     56  C   UNL A   1      47.099  32.395  27.469  1.00  0.00     0.173 A 
ATOM     57  C   UNL A   1      47.037  31.426  29.641  1.00  0.00     0.173 A 
ATOM     58  F   UNL A   1      46.526  32.873  26.355  1.00  0.00    -0.203 F 
ATOM     59  C   UNL A   1      48.494  32.303  27.484  1.00  0.00     0.198 A 
ATOM     60  C   UNL A   1      48.427  31.384  29.673  1.00  0.00     0.198 A 
ATOM     61  F   UNL A   1      46.472  30.868  30.714  1.00  0.00    -0.203 F 
ATOM     62  F   UNL A   1      49.192  32.650  26.395  1.00  0.00    -0.200 F 
ATOM     63  C   UNL A   1      49.157  31.789  28.582  1.00  0.00     0.200 A 
ATOM     64  F   UNL A   1      49.041  30.861  30.745  1.00  0.00    -0.200 F 
ATOM     65  F   UNL A   1      50.486  31.638  28.574  1.00  0.00    -0.200 F 
ENDBRANCH  41  55
BRANCH  42  66
ATOM     66  C   UNL A   1      44.212  26.097  34.230  1.00  0.00     0.064 A 
ATOM     67  C   UNL A   1      44.538  26.817  35.406  1.00  0.00     0.173 A 
ATOM     68  C   UNL A   1      44.075  24.709  34.389  1.00  0.00     0.173 A 
ATOM     69  F   UNL A   1      44.654  28.153  35.375  1.00  0.00    -0.203 F 
ATOM     70  C   UNL A   1      44.663  26.194  36.657  1.00  0.00     0.198 A 
ATOM     71  C   UNL A   1      44.203  24.088  35.639  1.00  0.00     0.198 A 
ATOM     72  F   UNL A   1      43.710  23.941  33.354  1.00  0.00    -0.203 F 
ATOM     73  F   UNL A   1      44.892  26.928  37.757  1.00  0.00    -0.200 F 
ATOM     74  C   UNL A   1      44.479  24.829  36.776  1.00  0.00     0.200 A 
ATOM     75  F   UNL A   1      43.982  22.769  35.751  1.00  0.00    -0.200 F 
ATOM     76  F   UNL A   1      44.518  24.239  37.979  1.00  0.00    -0.200 F 
ENDBRANCH  42  66
BRANCH  54  77
ATOM     77  C   UNL A   1      42.666  26.220  28.242  1.00  0.00     0.064 A 
ATOM     78  C   UNL A   1      41.345  26.258  28.729  1.00  0.00     0.173 A 
ATOM     79  C   UNL A   1      42.989  25.189  27.348  1.00  0.00     0.173 A 
ATOM     80  F   UNL A   1      40.924  27.257  29.517  1.00  0.00    -0.203 F 
ATOM     81  C   UNL A   1      40.417  25.276  28.379  1.00  0.00     0.198 A 
ATOM     82  C   UNL A   1      42.049  24.237  26.967  1.00  0.00     0.198 A 
ATOM     83  F   UNL A   1      44.221  25.121  26.821  1.00  0.00    -0.203 F 
ATOM     84  F   UNL A   1      39.174  25.315  28.881  1.00  0.00    -0.200 F 
ATOM     85  C   UNL A   1      40.769  24.270  27.493  1.00  0.00     0.200 A 
ATOM     86  F   UNL A   1      42.384  23.292  26.078  1.00  0.00    -0.200 F 
ATOM     87  F   UNL A   1      39.869  23.345  27.131  1.00  0.00    -0.200 F 
ENDBRANCH  54  77
ENDBRANCH  28  29
ENDBRANCH  21  23
ENDBRANCH  20  21
ENDBRANCH  19  20
ENDBRANCH   1  19
TORSDOF 13
ENDMDL
MODEL 2
REMARK VINA RESULT:     -10.2      3.193      7.638
REMARK SMILES Cc1ccc(C)c(NC(=O)/C=C/C(=O)OCCOC(=O)c2ccc(-c3c4nc(c(-c5c(F)c(F)c(F)c(F)c5F)c5ccc([nH]5)c(-c5c(F)c(F)c(F)c(F)c5F)c5nc(c(-c6c(F)c(F)c(F)c(F)c6F)c6ccc3[nH]6)C=C5)C=C4)cc2)c1
REMARK SMILES IDX 16 1 15 2 13 3 14 4 12 5 11 6 9 7 8 8 10 10 7 11 1 12 2 13
REMARK SMILES IDX 3 14 84 15 4 16 5 17 6 18 17 19 18 20 19 21 20 22 21 23
REMARK SMILES IDX 22 24 83 25 23 26 82 27 24 28 25 29 26 30 76 31 27 32 81 33
REMARK SMILES IDX 75 34 77 35 28 36 80 37 74 38 73 39 29 41 61 42 41 43 60 44
REMARK SMILES IDX 42 45 45 46 59 47 78 48 43 49 44 50 58 52 79 53 46 54 30 55
REMARK SMILES IDX 31 56 39 57 32 58 33 59 37 60 40 61 34 62 35 63 38 64 36 65
REMARK SMILES IDX 62 66 63 67 71 68 64 69 65 70 69 71 72 72 66 73 67 74 70 75
REMARK SMILES IDX 68 76 47 77 48 78 56 79 49 80 50 81 54 82 57 83 51 84 52 85
REMARK SMILES IDX 55 86 53 87
REMARK H PARENT 8 9 77 40 45 51
REMARK Flexibility Score: inf
ROOT
ATOM      1  C   UNL A   1      34.091  31.216  28.117  1.00  0.00     0.275 C 
ENDROOT
BRANCH   1   2
ATOM      2  O   UNL A   1      33.759  30.701  26.820  1.00  0.00    -0.459 OA
BRANCH   2   3
ATOM      3  C   UNL A   1      34.130  29.308  26.569  1.00  0.00     0.331 C 
ATOM      4  O   UNL A   1      34.774  28.960  27.598  1.00  0.00    -0.247 OA
BRANCH   3   5
ATOM      5  C   UNL A   1      33.610  28.223  24.804  1.00  0.00     0.099 C 
ATOM      6  C   UNL A   1      33.654  28.239  23.387  1.00  0.00     0.079 C 
BRANCH   6   7
ATOM      7  C   UNL A   1      33.086  27.320  22.336  1.00  0.00     0.248 C 
ATOM      8  N   UNL A   1      31.758  27.309  21.966  1.00  0.00    -0.322 N 
ATOM      9  H   UNL A   1      31.576  26.740  21.184  1.00  0.00     0.170 HD
ATOM     10  O   UNL A   1      33.881  26.640  21.682  1.00  0.00    -0.270 OA
BRANCH   8  11
ATOM     11  C   UNL A   1      30.604  27.943  22.478  1.00  0.00     0.044 A 
ATOM     12  C   UNL A   1      28.846  31.346  22.284  1.00  0.00     0.044 C 
ATOM     13  C   UNL A   1      29.110  29.874  22.424  1.00  0.00    -0.049 A 
ATOM     14  C   UNL A   1      28.067  29.048  22.843  1.00  0.00     0.004 A 
ATOM     15  C   UNL A   1      30.367  29.293  22.164  1.00  0.00     0.029 A 
ATOM     16  C   UNL A   1      28.363  27.785  23.335  1.00  0.00     0.006 A 
ATOM     17  C   UNL A   1      29.689  27.335  23.328  1.00  0.00    -0.027 A 
ATOM     18  C   UNL A   1      30.182  26.623  24.565  1.00  0.00     0.046 C 
ENDBRANCH   8  11
ENDBRANCH   6   7
ENDBRANCH   3   5
ENDBRANCH   2   3
ENDBRANCH   1   2
BRANCH   1  19
ATOM     19  C   UNL A   1      34.436  32.704  27.976  1.00  0.00     0.275 C 
BRANCH  19  20
ATOM     20  O   UNL A   1      35.400  33.168  28.957  1.00  0.00    -0.458 OA
BRANCH  20  21
ATOM     21  C   UNL A   1      35.001  33.216  30.256  1.00  0.00     0.338 C 
ATOM     22  O   UNL A   1      33.970  33.712  30.663  1.00  0.00    -0.246 OA
BRANCH  21  23
ATOM     23  C   UNL A   1      36.046  32.630  31.119  1.00  0.00     0.060 A 
ATOM     24  C   UNL A   1      37.635  33.512  31.272  1.00  0.00     0.016 A 
ATOM     25  C   UNL A   1      35.984  30.815  31.188  1.00  0.00     0.016 A 
ATOM     26  C   UNL A   1      39.210  32.572  31.282  1.00  0.00     0.010 A 
ATOM     27  C   UNL A   1      37.553  29.880  31.269  1.00  0.00     0.010 A 
ATOM     28  C   UNL A   1      39.148  30.758  31.193  1.00  0.00    -0.014 A 
BRANCH  28  29
ATOM     29  C   UNL A   1      40.307  29.938  30.770  1.00  0.00     0.031 A 
ATOM     30  C   UNL A   1      41.020  29.552  31.993  1.00  0.00     0.074 A 
ATOM     31  C   UNL A   1      40.621  29.322  29.596  1.00  0.00     0.049 A 
ATOM     32  N   UNL A   1      41.866  30.297  32.625  1.00  0.00    -0.248 NA
ATOM     33  C   UNL A   1      40.486  28.431  32.783  1.00  0.00     0.031 C 
ATOM     34  C   UNL A   1      39.879  29.256  28.335  1.00  0.00     0.029 A 
ATOM     35  N   UNL A   1      41.719  28.529  29.309  1.00  0.00    -0.354 N 
ATOM     36  C   UNL A   1      42.147  29.563  33.761  1.00  0.00     0.074 A 
ATOM     37  C   UNL A   1      40.984  28.751  33.979  1.00  0.00     0.031 C 
ATOM     38  C   UNL A   1      40.431  28.324  27.510  1.00  0.00     0.029 A 
ATOM     39  C   UNL A   1      41.648  27.798  28.110  1.00  0.00     0.049 A 
ATOM     40  H   UNL A   1      42.500  28.479  29.906  1.00  0.00     0.167 HD
ATOM     41  C   UNL A   1      43.438  29.282  34.092  1.00  0.00     0.037 A 
ATOM     42  C   UNL A   1      42.521  26.839  27.664  1.00  0.00     0.037 A 
ATOM     43  C   UNL A   1      44.349  30.084  33.294  1.00  0.00     0.049 A 
ATOM     44  C   UNL A   1      43.783  27.021  28.416  1.00  0.00     0.074 A 
ATOM     45  C   UNL A   1      44.508  31.431  33.017  1.00  0.00     0.029 A 
ATOM     46  N   UNL A   1      45.034  29.422  32.307  1.00  0.00    -0.354 N 
ATOM     47  N   UNL A   1      44.595  28.022  28.248  1.00  0.00    -0.248 NA
ATOM     48  C   UNL A   1      43.945  26.280  29.654  1.00  0.00     0.031 C 
ATOM     49  C   UNL A   1      44.940  31.499  31.656  1.00  0.00     0.029 A 
ATOM     50  C   UNL A   1      45.105  30.199  31.183  1.00  0.00     0.049 A 
ATOM     51  H   UNL A   1      45.418  28.520  32.394  1.00  0.00     0.167 HD
ATOM     52  C   UNL A   1      44.992  28.345  29.532  1.00  0.00     0.074 A 
ATOM     53  C   UNL A   1      44.668  27.169  30.336  1.00  0.00     0.031 C 
ATOM     54  C   UNL A   1      45.238  29.649  29.855  1.00  0.00     0.037 A 
BRANCH  41  55
ATOM     55  C   UNL A   1      43.884  27.979  34.742  1.00  0.00     0.064 A 
ATOM     56  C   UNL A   1      44.662  28.070  35.911  1.00  0.00     0.173 A 
ATOM     57  C   UNL A   1      43.828  26.686  34.165  1.00  0.00     0.173 A 
ATOM     58  F   UNL A   1      44.802  29.243  36.545  1.00  0.00    -0.203 F 
ATOM     59  C   UNL A   1      45.397  26.986  36.400  1.00  0.00     0.198 A 
ATOM     60  C   UNL A   1      44.521  25.596  34.684  1.00  0.00     0.198 A 
ATOM     61  F   UNL A   1      43.199  26.408  33.021  1.00  0.00    -0.203 F 
ATOM     62  F   UNL A   1      46.228  27.162  37.434  1.00  0.00    -0.200 F 
ATOM     63  C   UNL A   1      45.333  25.752  35.780  1.00  0.00     0.200 A 
ATOM     64  F   UNL A   1      44.455  24.416  34.050  1.00  0.00    -0.200 F 
ATOM     65  F   UNL A   1      46.086  24.730  36.205  1.00  0.00    -0.200 F 
ENDBRANCH  41  55
BRANCH  42  66
ATOM     66  C   UNL A   1      42.370  25.613  26.815  1.00  0.00     0.064 A 
ATOM     67  C   UNL A   1      43.234  25.359  25.721  1.00  0.00     0.173 A 
ATOM     68  C   UNL A   1      41.623  24.511  27.264  1.00  0.00     0.173 A 
ATOM     69  F   UNL A   1      44.022  26.331  25.237  1.00  0.00    -0.203 F 
ATOM     70  C   UNL A   1      43.377  24.082  25.157  1.00  0.00     0.198 A 
ATOM     71  C   UNL A   1      41.766  23.237  26.698  1.00  0.00     0.198 A 
ATOM     72  F   UNL A   1      40.821  24.627  28.330  1.00  0.00    -0.203 F 
ATOM     73  F   UNL A   1      44.269  23.872  24.177  1.00  0.00    -0.200 F 
ATOM     74  C   UNL A   1      42.653  23.016  25.658  1.00  0.00     0.200 A 
ATOM     75  F   UNL A   1      41.089  22.201  27.217  1.00  0.00    -0.200 F 
ATOM     76  F   UNL A   1      42.843  21.779  25.179  1.00  0.00    -0.200 F 
ENDBRANCH  42  66
BRANCH  54  77
ATOM     77  C   UNL A   1      45.485  30.607  28.718  1.00  0.00     0.064 A 
ATOM     78  C   UNL A   1      44.484  31.261  27.975  1.00  0.00     0.173 A 
ATOM     79  C   UNL A   1      46.817  30.922  28.413  1.00  0.00     0.173 A 
ATOM     80  F   UNL A   1      43.185  31.088  28.256  1.00  0.00    -0.203 F 
ATOM     81  C   UNL A   1      44.810  32.141  26.942  1.00  0.00     0.198 A 
ATOM     82  C   UNL A   1      47.138  31.833  27.412  1.00  0.00     0.198 A 
ATOM     83  F   UNL A   1      47.814  30.358  29.112  1.00  0.00    -0.203 F 
ATOM     84  F   UNL A   1      43.838  32.728  26.225  1.00  0.00    -0.200 F 
ATOM     85  C   UNL A   1      46.136  32.430  26.666  1.00  0.00     0.200 A 
ATOM     86  F   UNL A   1      48.421  32.140  27.180  1.00  0.00    -0.200 F 
ATOM     87  F   UNL A   1      46.450  33.300  25.695  1.00  0.00    -0.200 F 
ENDBRANCH  54  77
ENDBRANCH  28  29
ENDBRANCH  21  23
ENDBRANCH  20  21
ENDBRANCH  19  20
ENDBRANCH   1  19
TORSDOF 13
ENDMDL
MODEL 3
REMARK VINA RESULT:     -10.0      5.302     10.518
REMARK SMILES Cc1ccc(C)c(NC(=O)/C=C/C(=O)OCCOC(=O)c2ccc(-c3c4nc(c(-c5c(F)c(F)c(F)c(F)c5F)c5ccc([nH]5)c(-c5c(F)c(F)c(F)c(F)c5F)c5nc(c(-c6c(F)c(F)c(F)c(F)c6F)c6ccc3[nH]6)C=C5)C=C4)cc2)c1
REMARK SMILES IDX 16 1 15 2 13 3 14 4 12 5 11 6 9 7 8 8 10 10 7 11 1 12 2 13
REMARK SMILES IDX 3 14 84 15 4 16 5 17 6 18 17 19 18 20 19 21 20 22 21 23
REMARK SMILES IDX 22 24 83 25 23 26 82 27 24 28 25 29 26 30 76 31 27 32 81 33
REMARK SMILES IDX 75 34 77 35 28 36 80 37 74 38 73 39 29 41 61 42 41 43 60 44
REMARK SMILES IDX 42 45 45 46 59 47 78 48 43 49 44 50 58 52 79 53 46 54 30 55
REMARK SMILES IDX 31 56 39 57 32 58 33 59 37 60 40 61 34 62 35 63 38 64 36 65
REMARK SMILES IDX 62 66 63 67 71 68 64 69 65 70 69 71 72 72 66 73 67 74 70 75
REMARK SMILES IDX 68 76 47 77 48 78 56 79 49 80 50 81 54 82 57 83 51 84 52 85
REMARK SMILES IDX 55 86 53 87
REMARK H PARENT 8 9 77 40 45 51
REMARK Flexibility Score: inf
ROOT
ATOM      1  C   UNL A   1      48.260  25.662  29.529  1.00  0.00     0.275 C 
ENDROOT
BRANCH   1   2
ATOM      2  O   UNL A   1      47.055  25.572  28.756  1.00  0.00    -0.459 OA
BRANCH   2   3
ATOM      3  C   UNL A   1      47.105  24.685  27.593  1.00  0.00     0.331 C 
ATOM      4  O   UNL A   1      48.337  24.502  27.385  1.00  0.00    -0.247 OA
BRANCH   3   5
ATOM      5  C   UNL A   1      45.382  23.930  26.579  1.00  0.00     0.099 C 
ATOM      6  C   UNL A   1      44.507  24.138  25.484  1.00  0.00     0.079 C 
BRANCH   6   7
ATOM      7  C   UNL A   1      43.239  23.454  25.044  1.00  0.00     0.248 C 
ATOM      8  N   UNL A   1      41.978  23.859  25.427  1.00  0.00    -0.322 N 
ATOM      9  H   UNL A   1      41.256  23.384  24.957  1.00  0.00     0.170 HD
ATOM     10  O   UNL A   1      43.334  22.568  24.190  1.00  0.00    -0.270 OA
BRANCH   8  11
ATOM     11  C   UNL A   1      41.508  24.814  26.356  1.00  0.00     0.044 A 
ATOM     12  C   UNL A   1      40.900  28.595  26.561  1.00  0.00     0.044 C 
ATOM     13  C   UNL A   1      40.799  27.112  26.778  1.00  0.00    -0.049 A 
ATOM     14  C   UNL A   1      39.982  26.645  27.808  1.00  0.00     0.004 A 
ATOM     15  C   UNL A   1      41.503  26.174  25.999  1.00  0.00     0.029 A 
ATOM     16  C   UNL A   1      40.153  25.348  28.269  1.00  0.00     0.006 A 
ATOM     17  C   UNL A   1      41.085  24.511  27.643  1.00  0.00    -0.027 A 
ATOM     18  C   UNL A   1      41.965  23.669  28.537  1.00  0.00     0.046 C 
ENDBRANCH   8  11
ENDBRANCH   6   7
ENDBRANCH   3   5
ENDBRANCH   2   3
ENDBRANCH   1   2
BRANCH   1  19
ATOM     19  C   UNL A   1      47.975  26.510  30.775  1.00  0.00     0.275 C 
BRANCH  19  20
ATOM     20  O   UNL A   1      46.560  26.712  31.026  1.00  0.00    -0.458 OA
BRANCH  20  21
ATOM     21  C   UNL A   1      45.951  25.867  31.900  1.00  0.00     0.338 C 
ATOM     22  O   UNL A   1      46.510  25.052  32.606  1.00  0.00    -0.246 OA
BRANCH  21  23
ATOM     23  C   UNL A   1      44.487  26.038  31.818  1.00  0.00     0.060 A 
ATOM     24  C   UNL A   1      43.753  26.446  30.200  1.00  0.00     0.016 A 
ATOM     25  C   UNL A   1      43.753  26.676  33.355  1.00  0.00     0.016 A 
ATOM     26  C   UNL A   1      42.397  27.676  30.088  1.00  0.00     0.010 A 
ATOM     27  C   UNL A   1      42.355  27.850  33.244  1.00  0.00     0.010 A 
ATOM     28  C   UNL A   1      41.771  28.431  31.619  1.00  0.00    -0.014 A 
BRANCH  28  29
ATOM     29  C   UNL A   1      41.013  29.703  31.632  1.00  0.00     0.031 A 
ATOM     30  C   UNL A   1      41.955  30.760  31.248  1.00  0.00     0.074 A 
ATOM     31  C   UNL A   1      39.680  29.982  31.665  1.00  0.00     0.049 A 
ATOM     32  N   UNL A   1      42.796  31.332  32.047  1.00  0.00    -0.248 NA
ATOM     33  C   UNL A   1      42.260  30.931  29.818  1.00  0.00     0.031 C 
ATOM     34  C   UNL A   1      38.525  29.080  31.679  1.00  0.00     0.029 A 
ATOM     35  N   UNL A   1      39.060  31.219  31.628  1.00  0.00    -0.354 N 
ATOM     36  C   UNL A   1      43.538  32.135  31.202  1.00  0.00     0.074 A 
ATOM     37  C   UNL A   1      43.465  31.498  29.919  1.00  0.00     0.031 C 
ATOM     38  C   UNL A   1      37.379  29.777  31.449  1.00  0.00     0.029 A 
ATOM     39  C   UNL A   1      37.674  31.201  31.393  1.00  0.00     0.049 A 
ATOM     40  H   UNL A   1      39.557  32.058  31.757  1.00  0.00     0.167 HD
ATOM     41  C   UNL A   1      43.679  33.463  31.471  1.00  0.00     0.037 A 
ATOM     42  C   UNL A   1      36.851  32.274  31.167  1.00  0.00     0.037 A 
ATOM     43  C   UNL A   1      43.226  33.756  32.820  1.00  0.00     0.049 A 
ATOM     44  C   UNL A   1      37.563  33.475  31.661  1.00  0.00     0.074 A 
ATOM     45  C   UNL A   1      43.497  33.272  34.088  1.00  0.00     0.029 A 
ATOM     46  N   UNL A   1      42.031  34.422  32.927  1.00  0.00    -0.354 N 
ATOM     47  N   UNL A   1      37.771  33.735  32.918  1.00  0.00    -0.248 NA
ATOM     48  C   UNL A   1      38.400  34.198  30.721  1.00  0.00     0.031 C 
ATOM     49  C   UNL A   1      42.257  33.327  34.798  1.00  0.00     0.029 A 
ATOM     50  C   UNL A   1      41.303  33.913  33.968  1.00  0.00     0.049 A 
ATOM     51  H   UNL A   1      41.740  35.157  32.341  1.00  0.00     0.167 HD
ATOM     52  C   UNL A   1      39.061  34.229  32.944  1.00  0.00     0.074 A 
ATOM     53  C   UNL A   1      39.348  34.612  31.563  1.00  0.00     0.031 C 
ATOM     54  C   UNL A   1      39.861  33.970  34.020  1.00  0.00     0.037 A 
BRANCH  41  55
ATOM     55  C   UNL A   1      43.744  34.543  30.400  1.00  0.00     0.064 A 
ATOM     56  C   UNL A   1      44.818  35.452  30.459  1.00  0.00     0.173 A 
ATOM     57  C   UNL A   1      42.710  34.905  29.501  1.00  0.00     0.173 A 
ATOM     58  F   UNL A   1      45.853  35.228  31.281  1.00  0.00    -0.203 F 
ATOM     59  C   UNL A   1      44.807  36.660  29.757  1.00  0.00     0.198 A 
ATOM     60  C   UNL A   1      42.727  36.084  28.764  1.00  0.00     0.198 A 
ATOM     61  F   UNL A   1      41.579  34.211  29.350  1.00  0.00    -0.203 F 
ATOM     62  F   UNL A   1      45.787  37.550  29.954  1.00  0.00    -0.200 F 
ATOM     63  C   UNL A   1      43.757  36.980  28.916  1.00  0.00     0.200 A 
ATOM     64  F   UNL A   1      41.684  36.376  27.972  1.00  0.00    -0.200 F 
ATOM     65  F   UNL A   1      43.710  38.164  28.294  1.00  0.00    -0.200 F 
ENDBRANCH  41  55
BRANCH  42  66
ATOM     66  C   UNL A   1      35.594  32.469  30.374  1.00  0.00     0.064 A 
ATOM     67  C   UNL A   1      34.743  33.580  30.596  1.00  0.00     0.173 A 
ATOM     68  C   UNL A   1      35.389  31.783  29.166  1.00  0.00     0.173 A 
ATOM     69  F   UNL A   1      34.878  34.330  31.700  1.00  0.00    -0.203 F 
ATOM     70  C   UNL A   1      33.796  34.002  29.651  1.00  0.00     0.198 A 
ATOM     71  C   UNL A   1      34.441  32.204  28.223  1.00  0.00     0.198 A 
ATOM     72  F   UNL A   1      36.178  30.755  28.829  1.00  0.00    -0.203 F 
ATOM     73  F   UNL A   1      33.069  35.109  29.869  1.00  0.00    -0.200 F 
ATOM     74  C   UNL A   1      33.657  33.322  28.455  1.00  0.00     0.200 A 
ATOM     75  F   UNL A   1      34.341  31.562  27.050  1.00  0.00    -0.200 F 
ATOM     76  F   UNL A   1      32.811  33.765  27.515  1.00  0.00    -0.200 F 
ENDBRANCH  42  66
BRANCH  54  77
ATOM     77  C   UNL A   1      39.185  33.539  35.295  1.00  0.00     0.064 A 
ATOM     78  C   UNL A   1      38.739  32.234  35.576  1.00  0.00     0.173 A 
ATOM     79  C   UNL A   1      39.043  34.497  36.310  1.00  0.00     0.173 A 
ATOM     80  F   UNL A   1      38.915  31.235  34.700  1.00  0.00    -0.203 F 
ATOM     81  C   UNL A   1      38.130  31.925  36.794  1.00  0.00     0.198 A 
ATOM     82  C   UNL A   1      38.475  34.175  37.538  1.00  0.00     0.198 A 
ATOM     83  F   UNL A   1      39.484  35.749  36.115  1.00  0.00    -0.203 F 
ATOM     84  F   UNL A   1      37.682  30.681  37.027  1.00  0.00    -0.200 F 
ATOM     85  C   UNL A   1      38.005  32.895  37.775  1.00  0.00     0.200 A 
ATOM     86  F   UNL A   1      38.396  35.107  38.497  1.00  0.00    -0.200 F 
ATOM     87  F   UNL A   1      37.448  32.592  38.957  1.00  0.00    -0.200 F 
ENDBRANCH  54  77
ENDBRANCH  28  29
ENDBRANCH  21  23
ENDBRANCH  20  21
ENDBRANCH  19  20
ENDBRANCH   1  19
TORSDOF 13
ENDMDL
