MODEL 1
REMARK VINA RESULT:     -12.2      0.000      0.000
REMARK SMILES O=C(OCCOC(=O)[C@H](CCc1ccccn1)c1ccccc1Br)c1ccc(-c2c3nc(c(-c4c(F)c(F)c(F)c(F)c4F)c4ccc([nH]4)c(-c4c(F)c(F)c(F)c(F)c4F)c4nc(c(-c5c(F)c(F)c(F)c(F)c5F)c5ccc2[nH]5)C=C4)C=C3)cc1
REMARK SMILES IDX 5 1 4 2 3 3 2 4 1 5 25 6 26 7 87 8 27 9 86 10 28 11 29 12
REMARK SMILES IDX 30 13 80 14 31 15 85 16 79 17 81 18 32 19 84 20 78 21 77 22
REMARK SMILES IDX 33 24 65 25 45 26 64 27 46 28 49 29 63 30 82 31 47 32 48 33
REMARK SMILES IDX 62 35 83 36 50 37 34 38 35 39 43 40 36 41 37 42 41 43 44 44
REMARK SMILES IDX 38 45 39 46 42 47 40 48 66 49 67 50 75 51 68 52 69 53 73 54
REMARK SMILES IDX 76 55 70 56 71 57 74 58 72 59 51 60 52 61 60 62 53 63 54 64
REMARK SMILES IDX 58 65 61 66 55 67 56 68 59 69 57 70 6 71 7 72 8 73 9 74
REMARK SMILES IDX 18 75 19 76 23 77 20 78 22 79 24 80 21 81 10 82 11 83 12 84
REMARK SMILES IDX 13 85 17 86 14 87 16 88 15 89
REMARK H PARENT 81 23 49 34
REMARK Flexibility Score: inf
ROOT
ATOM      1  C   UNL A   1      36.199  19.728  25.000  1.00  0.00     0.274 C 
ENDROOT
BRANCH   1   2
ATOM      2  C   UNL A   1      37.708  19.932  24.899  1.00  0.00     0.275 C 
BRANCH   2   3
ATOM      3  O   UNL A   1      38.166  21.147  25.513  1.00  0.00    -0.458 OA
BRANCH   3   4
ATOM      4  C   UNL A   1      39.326  21.431  26.143  1.00  0.00     0.338 C 
ATOM      5  O   UNL A   1      40.095  20.499  26.379  1.00  0.00    -0.246 OA
BRANCH   4   6
ATOM      6  C   UNL A   1      39.709  22.786  26.665  1.00  0.00     0.060 A 
ATOM      7  C   UNL A   1      39.147  24.020  26.325  1.00  0.00     0.016 A 
ATOM      8  C   UNL A   1      40.762  22.803  27.594  1.00  0.00     0.016 A 
ATOM      9  C   UNL A   1      39.579  25.212  26.930  1.00  0.00     0.010 A 
ATOM     10  C   UNL A   1      41.182  23.983  28.215  1.00  0.00     0.010 A 
ATOM     11  C   UNL A   1      40.605  25.201  27.877  1.00  0.00    -0.014 A 
BRANCH  11  12
ATOM     12  C   UNL A   1      41.224  26.476  28.307  1.00  0.00     0.031 A 
ATOM     13  C   UNL A   1      42.593  26.788  27.792  1.00  0.00     0.074 A 
ATOM     14  C   UNL A   1      40.573  27.353  29.091  1.00  0.00     0.049 A 
ATOM     15  N   UNL A   1      43.270  27.902  27.867  1.00  0.00    -0.248 NA
ATOM     16  C   UNL A   1      43.312  25.685  27.136  1.00  0.00     0.031 C 
ATOM     17  C   UNL A   1      39.314  27.085  29.763  1.00  0.00     0.029 A 
ATOM     18  N   UNL A   1      40.856  28.653  29.431  1.00  0.00    -0.354 N 
ATOM     19  C   UNL A   1      44.496  27.626  27.284  1.00  0.00     0.074 A 
ATOM     20  C   UNL A   1      44.489  26.233  26.900  1.00  0.00     0.031 C 
ATOM     21  C   UNL A   1      38.858  28.215  30.327  1.00  0.00     0.029 A 
ATOM     22  C   UNL A   1      39.825  29.280  30.095  1.00  0.00     0.049 A 
ATOM     23  H   UNL A   1      41.712  29.093  29.221  1.00  0.00     0.167 HD
ATOM     24  C   UNL A   1      45.535  28.466  27.083  1.00  0.00     0.037 A 
ATOM     25  C   UNL A   1      39.682  30.574  30.446  1.00  0.00     0.037 A 
ATOM     26  C   UNL A   1      45.529  29.842  27.495  1.00  0.00     0.049 A 
ATOM     27  C   UNL A   1      40.823  31.513  30.145  1.00  0.00     0.074 A 
ATOM     28  C   UNL A   1      46.524  30.790  27.360  1.00  0.00     0.029 A 
ATOM     29  N   UNL A   1      44.465  30.459  28.140  1.00  0.00    -0.354 N 
ATOM     30  N   UNL A   1      41.954  31.268  29.527  1.00  0.00    -0.248 NA
ATOM     31  C   UNL A   1      40.680  32.901  30.604  1.00  0.00     0.031 C 
ATOM     32  C   UNL A   1      46.077  31.972  27.962  1.00  0.00     0.029 A 
ATOM     33  C   UNL A   1      44.781  31.777  28.418  1.00  0.00     0.049 A 
ATOM     34  H   UNL A   1      43.611  30.023  28.365  1.00  0.00     0.167 HD
ATOM     35  C   UNL A   1      42.655  32.464  29.517  1.00  0.00     0.074 A 
ATOM     36  C   UNL A   1      41.801  33.448  30.153  1.00  0.00     0.031 C 
ATOM     37  C   UNL A   1      43.898  32.728  29.044  1.00  0.00     0.037 A 
BRANCH  24  38
ATOM     38  C   UNL A   1      46.754  27.880  26.437  1.00  0.00     0.064 A 
ATOM     39  C   UNL A   1      46.888  27.810  25.040  1.00  0.00     0.173 A 
ATOM     40  C   UNL A   1      47.766  27.313  27.224  1.00  0.00     0.173 A 
ATOM     41  F   UNL A   1      45.928  28.308  24.244  1.00  0.00    -0.203 F 
ATOM     42  C   UNL A   1      47.967  27.151  24.458  1.00  0.00     0.198 A 
ATOM     43  C   UNL A   1      48.861  26.685  26.636  1.00  0.00     0.198 A 
ATOM     44  F   UNL A   1      47.680  27.343  28.561  1.00  0.00    -0.203 F 
ATOM     45  F   UNL A   1      48.030  27.023  23.125  1.00  0.00    -0.200 F 
ATOM     46  C   UNL A   1      48.953  26.593  25.255  1.00  0.00     0.200 A 
ATOM     47  F   UNL A   1      49.816  26.148  27.409  1.00  0.00    -0.200 F 
ATOM     48  F   UNL A   1      49.985  25.946  24.694  1.00  0.00    -0.200 F 
ENDBRANCH  24  38
BRANCH  25  49
ATOM     49  C   UNL A   1      38.422  31.077  31.069  1.00  0.00     0.064 A 
ATOM     50  C   UNL A   1      38.310  31.197  32.466  1.00  0.00     0.173 A 
ATOM     51  C   UNL A   1      37.295  31.416  30.307  1.00  0.00     0.173 A 
ATOM     52  F   UNL A   1      39.348  30.872  33.251  1.00  0.00    -0.203 F 
ATOM     53  C   UNL A   1      37.120  31.602  33.069  1.00  0.00     0.198 A 
ATOM     54  C   UNL A   1      36.116  31.857  30.909  1.00  0.00     0.198 A 
ATOM     55  F   UNL A   1      37.338  31.324  28.969  1.00  0.00    -0.203 F 
ATOM     56  F   UNL A   1      37.028  31.647  34.406  1.00  0.00    -0.200 F 
ATOM     57  C   UNL A   1      36.024  31.937  32.290  1.00  0.00     0.200 A 
ATOM     58  F   UNL A   1      35.067  32.198  30.149  1.00  0.00    -0.200 F 
ATOM     59  F   UNL A   1      34.881  32.330  32.868  1.00  0.00    -0.200 F 
ENDBRANCH  25  49
BRANCH  37  60
ATOM     60  C   UNL A   1      44.389  34.140  29.171  1.00  0.00     0.064 A 
ATOM     61  C   UNL A   1      44.133  35.103  28.185  1.00  0.00     0.173 A 
ATOM     62  C   UNL A   1      45.089  34.539  30.319  1.00  0.00     0.173 A 
ATOM     63  F   UNL A   1      43.477  34.765  27.063  1.00  0.00    -0.203 F 
ATOM     64  C   UNL A   1      44.586  36.410  28.330  1.00  0.00     0.198 A 
ATOM     65  C   UNL A   1      45.510  35.856  30.476  1.00  0.00     0.198 A 
ATOM     66  F   UNL A   1      45.351  33.656  31.293  1.00  0.00    -0.203 F 
ATOM     67  F   UNL A   1      44.377  37.302  27.352  1.00  0.00    -0.200 F 
ATOM     68  C   UNL A   1      45.267  36.787  29.478  1.00  0.00     0.200 A 
ATOM     69  F   UNL A   1      46.154  36.222  31.593  1.00  0.00    -0.200 F 
ATOM     70  F   UNL A   1      45.695  38.048  29.620  1.00  0.00    -0.200 F 
ENDBRANCH  37  60
ENDBRANCH  11  12
ENDBRANCH   4   6
ENDBRANCH   3   4
ENDBRANCH   2   3
ENDBRANCH   1   2
BRANCH   1  71
ATOM     71  O   UNL A   1      35.465  20.933  24.730  1.00  0.00    -0.462 OA
BRANCH  71  72
ATOM     72  C   UNL A   1      34.620  21.399  25.704  1.00  0.00     0.313 C 
ATOM     73  O   UNL A   1      34.904  21.452  26.894  1.00  0.00    -0.252 OA
BRANCH  72  74
ATOM     74  C   UNL A   1      33.272  21.823  25.090  1.00  0.00     0.131 C 
BRANCH  74  75
ATOM     75  C   UNL A   1      33.042  23.334  25.289  1.00  0.00    -0.020 A 
ATOM     76  C   UNL A   1      34.004  24.190  24.695  1.00  0.00     0.006 A 
ATOM     77  C   UNL A   1      32.007  23.963  26.001  1.00  0.00     0.022 A 
ATOM     78  C   UNL A   1      34.005  25.573  24.891  1.00  0.00     0.000 A 
ATOM     79  C   UNL A   1      32.052  25.347  26.254  1.00  0.00     0.016 A 
ATOM     80  Br  UNL A   1      30.410  23.116  26.589  1.00  0.00    -0.051 Br
ATOM     81  C   UNL A   1      33.054  26.148  25.716  1.00  0.00     0.001 A 
ENDBRANCH  74  75
BRANCH  74  82
ATOM     82  C   UNL A   1      33.084  21.252  23.656  1.00  0.00     0.026 C 
BRANCH  82  83
ATOM     83  C   UNL A   1      32.152  20.031  23.508  1.00  0.00     0.057 C 
BRANCH  83  84
ATOM     84  C   UNL A   1      32.654  18.667  23.947  1.00  0.00     0.040 A 
ATOM     85  C   UNL A   1      33.386  17.807  23.133  1.00  0.00     0.024 A 
ATOM     86  N   UNL A   1      32.392  18.343  25.242  1.00  0.00    -0.261 NA
ATOM     87  C   UNL A   1      33.816  16.579  23.639  1.00  0.00     0.003 A 
ATOM     88  C   UNL A   1      32.828  17.150  25.714  1.00  0.00     0.111 A 
ATOM     89  C   UNL A   1      33.527  16.237  24.952  1.00  0.00     0.020 A 
ENDBRANCH  83  84
ENDBRANCH  82  83
ENDBRANCH  74  82
ENDBRANCH  72  74
ENDBRANCH  71  72
ENDBRANCH   1  71
TORSDOF 15
ENDMDL
MODEL 2
REMARK VINA RESULT:     -12.1      4.877     10.294
REMARK SMILES O=C(OCCOC(=O)[C@H](CCc1ccccn1)c1ccccc1Br)c1ccc(-c2c3nc(c(-c4c(F)c(F)c(F)c(F)c4F)c4ccc([nH]4)c(-c4c(F)c(F)c(F)c(F)c4F)c4nc(c(-c5c(F)c(F)c(F)c(F)c5F)c5ccc2[nH]5)C=C4)C=C3)cc1
REMARK SMILES IDX 5 1 4 2 3 3 2 4 1 5 25 6 26 7 87 8 27 9 86 10 28 11 29 12
REMARK SMILES IDX 30 13 80 14 31 15 85 16 79 17 81 18 32 19 84 20 78 21 77 22
REMARK SMILES IDX 33 24 65 25 45 26 64 27 46 28 49 29 63 30 82 31 47 32 48 33
REMARK SMILES IDX 62 35 83 36 50 37 34 38 35 39 43 40 36 41 37 42 41 43 44 44
REMARK SMILES IDX 38 45 39 46 42 47 40 48 66 49 67 50 75 51 68 52 69 53 73 54
REMARK SMILES IDX 76 55 70 56 71 57 74 58 72 59 51 60 52 61 60 62 53 63 54 64
REMARK SMILES IDX 58 65 61 66 55 67 56 68 59 69 57 70 6 71 7 72 8 73 9 74
REMARK SMILES IDX 18 75 19 76 23 77 20 78 22 79 24 80 21 81 10 82 11 83 12 84
REMARK SMILES IDX 13 85 17 86 14 87 16 88 15 89
REMARK H PARENT 81 23 49 34
REMARK Flexibility Score: inf
ROOT
ATOM      1  C   UNL A   1      32.440  28.834  25.788  1.00  0.00     0.274 C 
ENDROOT
BRANCH   1   2
ATOM      2  C   UNL A   1      31.778  29.970  26.564  1.00  0.00     0.275 C 
BRANCH   2   3
ATOM      3  O   UNL A   1      32.470  31.223  26.449  1.00  0.00    -0.458 OA
BRANCH   3   4
ATOM      4  C   UNL A   1      33.292  31.856  27.313  1.00  0.00     0.338 C 
ATOM      5  O   UNL A   1      32.996  33.002  27.653  1.00  0.00    -0.246 OA
BRANCH   4   6
ATOM      6  C   UNL A   1      34.594  31.304  27.819  1.00  0.00     0.060 A 
ATOM      7  C   UNL A   1      34.891  29.974  28.129  1.00  0.00     0.016 A 
ATOM      8  C   UNL A   1      35.619  32.245  28.008  1.00  0.00     0.016 A 
ATOM      9  C   UNL A   1      36.176  29.592  28.553  1.00  0.00     0.010 A 
ATOM     10  C   UNL A   1      36.904  31.869  28.411  1.00  0.00     0.010 A 
ATOM     11  C   UNL A   1      37.190  30.540  28.703  1.00  0.00    -0.014 A 
BRANCH  11  12
ATOM     12  C   UNL A   1      38.446  30.172  29.395  1.00  0.00     0.031 A 
ATOM     13  C   UNL A   1      38.601  30.597  30.820  1.00  0.00     0.074 A 
ATOM     14  C   UNL A   1      39.401  29.440  28.794  1.00  0.00     0.049 A 
ATOM     15  N   UNL A   1      39.508  30.250  31.693  1.00  0.00    -0.248 NA
ATOM     16  C   UNL A   1      37.622  31.576  31.319  1.00  0.00     0.031 C 
ATOM     17  C   UNL A   1      39.419  29.107  27.380  1.00  0.00     0.029 A 
ATOM     18  N   UNL A   1      40.518  28.818  29.292  1.00  0.00    -0.354 N 
ATOM     19  C   UNL A   1      39.217  30.980  32.834  1.00  0.00     0.074 A 
ATOM     20  C   UNL A   1      38.080  31.820  32.533  1.00  0.00     0.031 C 
ATOM     21  C   UNL A   1      40.412  28.236  27.139  1.00  0.00     0.029 A 
ATOM     22  C   UNL A   1      41.133  27.988  28.381  1.00  0.00     0.049 A 
ATOM     23  H   UNL A   1      40.848  28.951  30.210  1.00  0.00     0.167 HD
ATOM     24  C   UNL A   1      39.842  30.945  34.031  1.00  0.00     0.037 A 
ATOM     25  C   UNL A   1      42.146  27.114  28.551  1.00  0.00     0.037 A 
ATOM     26  C   UNL A   1      40.986  30.120  34.301  1.00  0.00     0.049 A 
ATOM     27  C   UNL A   1      42.783  27.036  29.916  1.00  0.00     0.074 A 
ATOM     28  C   UNL A   1      41.716  30.006  35.467  1.00  0.00     0.029 A 
ATOM     29  N   UNL A   1      41.572  29.270  33.371  1.00  0.00    -0.354 N 
ATOM     30  N   UNL A   1      42.460  27.673  31.017  1.00  0.00    -0.248 NA
ATOM     31  C   UNL A   1      43.934  26.135  30.061  1.00  0.00     0.031 C 
ATOM     32  C   UNL A   1      42.772  29.117  35.230  1.00  0.00     0.029 A 
ATOM     33  C   UNL A   1      42.662  28.632  33.935  1.00  0.00     0.049 A 
ATOM     34  H   UNL A   1      41.257  29.140  32.447  1.00  0.00     0.167 HD
ATOM     35  C   UNL A   1      43.359  27.251  31.983  1.00  0.00     0.074 A 
ATOM     36  C   UNL A   1      44.216  26.267  31.350  1.00  0.00     0.031 C 
ATOM     37  C   UNL A   1      43.484  27.649  33.274  1.00  0.00     0.037 A 
BRANCH  24  38
ATOM     38  C   UNL A   1      39.315  31.866  35.088  1.00  0.00     0.064 A 
ATOM     39  C   UNL A   1      39.668  33.226  35.126  1.00  0.00     0.173 A 
ATOM     40  C   UNL A   1      38.507  31.369  36.120  1.00  0.00     0.173 A 
ATOM     41  F   UNL A   1      40.469  33.742  34.180  1.00  0.00    -0.203 F 
ATOM     42  C   UNL A   1      39.271  34.039  36.184  1.00  0.00     0.198 A 
ATOM     43  C   UNL A   1      38.083  32.194  37.158  1.00  0.00     0.198 A 
ATOM     44  F   UNL A   1      38.151  30.076  36.137  1.00  0.00    -0.203 F 
ATOM     45  F   UNL A   1      39.691  35.310  36.243  1.00  0.00    -0.200 F 
ATOM     46  C   UNL A   1      38.477  33.524  37.197  1.00  0.00     0.200 A 
ATOM     47  F   UNL A   1      37.313  31.696  38.135  1.00  0.00    -0.200 F 
ATOM     48  F   UNL A   1      38.107  34.304  38.222  1.00  0.00    -0.200 F 
ENDBRANCH  24  38
BRANCH  25  49
ATOM     49  C   UNL A   1      42.596  26.218  27.445  1.00  0.00     0.064 A 
ATOM     50  C   UNL A   1      43.633  26.610  26.581  1.00  0.00     0.173 A 
ATOM     51  C   UNL A   1      41.991  24.978  27.196  1.00  0.00     0.173 A 
ATOM     52  F   UNL A   1      44.240  27.793  26.757  1.00  0.00    -0.203 F 
ATOM     53  C   UNL A   1      44.023  25.816  25.503  1.00  0.00     0.198 A 
ATOM     54  C   UNL A   1      42.406  24.167  26.139  1.00  0.00     0.198 A 
ATOM     55  F   UNL A   1      40.996  24.547  27.984  1.00  0.00    -0.203 F 
ATOM     56  F   UNL A   1      44.975  26.247  24.663  1.00  0.00    -0.200 F 
ATOM     57  C   UNL A   1      43.413  24.591  25.285  1.00  0.00     0.200 A 
ATOM     58  F   UNL A   1      41.825  22.975  25.945  1.00  0.00    -0.200 F 
ATOM     59  F   UNL A   1      43.787  23.825  24.251  1.00  0.00    -0.200 F 
ENDBRANCH  25  49
BRANCH  37  60
ATOM     60  C   UNL A   1      44.562  26.997  34.087  1.00  0.00     0.064 A 
ATOM     61  C   UNL A   1      44.337  25.810  34.797  1.00  0.00     0.173 A 
ATOM     62  C   UNL A   1      45.851  27.551  34.116  1.00  0.00     0.173 A 
ATOM     63  F   UNL A   1      43.117  25.250  34.808  1.00  0.00    -0.203 F 
ATOM     64  C   UNL A   1      45.355  25.215  35.533  1.00  0.00     0.198 A 
ATOM     65  C   UNL A   1      46.876  26.933  34.826  1.00  0.00     0.198 A 
ATOM     66  F   UNL A   1      46.118  28.681  33.446  1.00  0.00    -0.203 F 
ATOM     67  F   UNL A   1      45.105  24.109  36.248  1.00  0.00    -0.200 F 
ATOM     68  C   UNL A   1      46.626  25.772  35.540  1.00  0.00     0.200 A 
ATOM     69  F   UNL A   1      48.107  27.465  34.818  1.00  0.00    -0.200 F 
ATOM     70  F   UNL A   1      47.608  25.193  36.243  1.00  0.00    -0.200 F 
ENDBRANCH  37  60
ENDBRANCH  11  12
ENDBRANCH   4   6
ENDBRANCH   3   4
ENDBRANCH   2   3
ENDBRANCH   1   2
BRANCH   1  71
ATOM     71  O   UNL A   1      32.224  27.553  26.404  1.00  0.00    -0.462 OA
BRANCH  71  72
ATOM     72  C   UNL A   1      31.181  26.792  25.946  1.00  0.00     0.313 C 
ATOM     73  O   UNL A   1      30.303  26.326  26.661  1.00  0.00    -0.252 OA
BRANCH  72  74
ATOM     74  C   UNL A   1      31.283  26.597  24.422  1.00  0.00     0.131 C 
BRANCH  74  75
ATOM     75  C   UNL A   1      31.699  25.150  24.091  1.00  0.00    -0.020 A 
ATOM     76  C   UNL A   1      30.741  24.375  23.389  1.00  0.00     0.006 A 
ATOM     77  C   UNL A   1      32.903  24.503  24.415  1.00  0.00     0.022 A 
ATOM     78  C   UNL A   1      30.917  23.014  23.129  1.00  0.00     0.000 A 
ATOM     79  C   UNL A   1      33.047  23.117  24.214  1.00  0.00     0.016 A 
ATOM     80  Br  UNL A   1      34.483  25.369  25.022  1.00  0.00    -0.051 Br
ATOM     81  C   UNL A   1      32.053  22.372  23.588  1.00  0.00     0.001 A 
ENDBRANCH  74  75
BRANCH  74  82
ATOM     82  C   UNL A   1      30.044  27.173  23.680  1.00  0.00     0.026 C 
BRANCH  82  83
ATOM     83  C   UNL A   1      30.316  28.186  22.548  1.00  0.00     0.057 C 
BRANCH  83  84
ATOM     84  C   UNL A   1      29.551  29.498  22.537  1.00  0.00     0.040 A 
ATOM     85  C   UNL A   1      29.413  30.328  23.646  1.00  0.00     0.024 A 
ATOM     86  N   UNL A   1      29.038  29.859  21.330  1.00  0.00    -0.261 NA
ATOM     87  C   UNL A   1      28.702  31.524  23.526  1.00  0.00     0.003 A 
ATOM     88  C   UNL A   1      28.362  31.029  21.235  1.00  0.00     0.111 A 
ATOM     89  C   UNL A   1      28.158  31.882  22.301  1.00  0.00     0.020 A 
ENDBRANCH  83  84
ENDBRANCH  82  83
ENDBRANCH  74  82
ENDBRANCH  72  74
ENDBRANCH  71  72
ENDBRANCH   1  71
TORSDOF 15
ENDMDL
MODEL 3
REMARK VINA RESULT:     -11.9      4.703     10.050
REMARK SMILES O=C(OCCOC(=O)[C@H](CCc1ccccn1)c1ccccc1Br)c1ccc(-c2c3nc(c(-c4c(F)c(F)c(F)c(F)c4F)c4ccc([nH]4)c(-c4c(F)c(F)c(F)c(F)c4F)c4nc(c(-c5c(F)c(F)c(F)c(F)c5F)c5ccc2[nH]5)C=C4)C=C3)cc1
REMARK SMILES IDX 5 1 4 2 3 3 2 4 1 5 25 6 26 7 87 8 27 9 86 10 28 11 29 12
REMARK SMILES IDX 30 13 80 14 31 15 85 16 79 17 81 18 32 19 84 20 78 21 77 22
REMARK SMILES IDX 33 24 65 25 45 26 64 27 46 28 49 29 63 30 82 31 47 32 48 33
REMARK SMILES IDX 62 35 83 36 50 37 34 38 35 39 43 40 36 41 37 42 41 43 44 44
REMARK SMILES IDX 38 45 39 46 42 47 40 48 66 49 67 50 75 51 68 52 69 53 73 54
REMARK SMILES IDX 76 55 70 56 71 57 74 58 72 59 51 60 52 61 60 62 53 63 54 64
REMARK SMILES IDX 58 65 61 66 55 67 56 68 59 69 57 70 6 71 7 72 8 73 9 74
REMARK SMILES IDX 18 75 19 76 23 77 20 78 22 79 24 80 21 81 10 82 11 83 12 84
REMARK SMILES IDX 13 85 17 86 14 87 16 88 15 89
REMARK H PARENT 81 23 49 34
REMARK Flexibility Score: inf
ROOT
ATOM      1  C   UNL A   1      32.114  28.536  26.078  1.00  0.00     0.274 C 
ENDROOT
BRANCH   1   2
ATOM      2  C   UNL A   1      31.750  29.773  26.895  1.00  0.00     0.275 C 
BRANCH   2   3
ATOM      3  O   UNL A   1      32.555  30.921  26.587  1.00  0.00    -0.458 OA
BRANCH   3   4
ATOM      4  C   UNL A   1      33.443  31.601  27.345  1.00  0.00     0.338 C 
ATOM      5  O   UNL A   1      33.187  32.775  27.616  1.00  0.00    -0.246 OA
BRANCH   4   6
ATOM      6  C   UNL A   1      34.767  31.062  27.805  1.00  0.00     0.060 A 
ATOM      7  C   UNL A   1      35.117  29.725  28.012  1.00  0.00     0.016 A 
ATOM      8  C   UNL A   1      35.756  32.025  28.063  1.00  0.00     0.016 A 
ATOM      9  C   UNL A   1      36.417  29.362  28.403  1.00  0.00     0.010 A 
ATOM     10  C   UNL A   1      37.056  31.670  28.434  1.00  0.00     0.010 A 
ATOM     11  C   UNL A   1      37.395  30.335  28.623  1.00  0.00    -0.014 A 
BRANCH  11  12
ATOM     12  C   UNL A   1      38.668  29.964  29.282  1.00  0.00     0.031 A 
ATOM     13  C   UNL A   1      38.870  30.410  30.695  1.00  0.00     0.074 A 
ATOM     14  C   UNL A   1      39.596  29.213  28.665  1.00  0.00     0.049 A 
ATOM     15  N   UNL A   1      39.799  30.066  31.545  1.00  0.00    -0.248 NA
ATOM     16  C   UNL A   1      37.918  31.407  31.208  1.00  0.00     0.031 C 
ATOM     17  C   UNL A   1      39.568  28.857  27.256  1.00  0.00     0.029 A 
ATOM     18  N   UNL A   1      40.722  28.586  29.139  1.00  0.00    -0.354 N 
ATOM     19  C   UNL A   1      39.551  30.817  32.683  1.00  0.00     0.074 A 
ATOM     20  C   UNL A   1      38.415  31.665  32.404  1.00  0.00     0.031 C 
ATOM     21  C   UNL A   1      40.544  27.972  26.999  1.00  0.00     0.029 A 
ATOM     22  C   UNL A   1      41.300  27.736  28.222  1.00  0.00     0.049 A 
ATOM     23  H   UNL A   1      41.080  28.730  30.044  1.00  0.00     0.167 HD
ATOM     24  C   UNL A   1      40.213  30.794  33.861  1.00  0.00     0.037 A 
ATOM     25  C   UNL A   1      42.308  26.854  28.376  1.00  0.00     0.037 A 
ATOM     26  C   UNL A   1      41.355  29.961  34.109  1.00  0.00     0.049 A 
ATOM     27  C   UNL A   1      42.986  26.790  29.722  1.00  0.00     0.074 A 
ATOM     28  C   UNL A   1      42.119  29.857  35.255  1.00  0.00     0.029 A 
ATOM     29  N   UNL A   1      41.904  29.090  33.176  1.00  0.00    -0.354 N 
ATOM     30  N   UNL A   1      42.704  27.448  30.821  1.00  0.00    -0.248 NA
ATOM     31  C   UNL A   1      44.131  25.879  29.846  1.00  0.00     0.031 C 
ATOM     32  C   UNL A   1      43.158  28.954  35.000  1.00  0.00     0.029 A 
ATOM     33  C   UNL A   1      43.004  28.449  33.717  1.00  0.00     0.049 A 
ATOM     34  H   UNL A   1      41.560  28.950  32.264  1.00  0.00     0.167 HD
ATOM     35  C   UNL A   1      43.627  27.031  31.767  1.00  0.00     0.074 A 
ATOM     36  C   UNL A   1      44.453  26.028  31.123  1.00  0.00     0.031 C 
ATOM     37  C   UNL A   1      43.795  27.448  33.046  1.00  0.00     0.037 A 
BRANCH  24  38
ATOM     38  C   UNL A   1      39.727  31.737  34.919  1.00  0.00     0.064 A 
ATOM     39  C   UNL A   1      38.788  31.342  35.887  1.00  0.00     0.173 A 
ATOM     40  C   UNL A   1      40.148  33.075  34.921  1.00  0.00     0.173 A 
ATOM     41  F   UNL A   1      38.327  30.081  35.904  1.00  0.00    -0.203 F 
ATOM     42  C   UNL A   1      38.253  32.263  36.783  1.00  0.00     0.198 A 
ATOM     43  C   UNL A   1      39.637  33.984  35.843  1.00  0.00     0.198 A 
ATOM     44  F   UNL A   1      41.034  33.506  34.012  1.00  0.00    -0.203 F 
ATOM     45  F   UNL A   1      37.296  31.882  37.640  1.00  0.00    -0.200 F 
ATOM     46  C   UNL A   1      38.681  33.582  36.763  1.00  0.00     0.200 A 
ATOM     47  F   UNL A   1      40.053  35.258  35.823  1.00  0.00    -0.200 F 
ATOM     48  F   UNL A   1      38.155  34.470  37.618  1.00  0.00    -0.200 F 
ENDBRANCH  24  38
BRANCH  25  49
ATOM     49  C   UNL A   1      42.715  25.936  27.271  1.00  0.00     0.064 A 
ATOM     50  C   UNL A   1      42.028  24.730  27.048  1.00  0.00     0.173 A 
ATOM     51  C   UNL A   1      43.809  26.211  26.437  1.00  0.00     0.173 A 
ATOM     52  F   UNL A   1      40.983  24.402  27.823  1.00  0.00    -0.203 F 
ATOM     53  C   UNL A   1      42.434  23.831  26.063  1.00  0.00     0.198 A 
ATOM     54  C   UNL A   1      44.193  25.328  25.427  1.00  0.00     0.198 A 
ATOM     55  F   UNL A   1      44.506  27.345  26.598  1.00  0.00    -0.203 F 
ATOM     56  F   UNL A   1      41.793  22.663  25.917  1.00  0.00    -0.200 F 
ATOM     57  C   UNL A   1      43.514  24.132  25.248  1.00  0.00     0.200 A 
ATOM     58  F   UNL A   1      45.226  25.635  24.630  1.00  0.00    -0.200 F 
ATOM     59  F   UNL A   1      43.905  23.271  24.300  1.00  0.00    -0.200 F 
ENDBRANCH  25  49
BRANCH  37  60
ATOM     60  C   UNL A   1      44.891  26.797  33.837  1.00  0.00     0.064 A 
ATOM     61  C   UNL A   1      46.181  27.341  33.898  1.00  0.00     0.173 A 
ATOM     62  C   UNL A   1      44.627  25.635  34.578  1.00  0.00     0.173 A 
ATOM     63  F   UNL A   1      46.484  28.444  33.197  1.00  0.00    -0.203 F 
ATOM     64  C   UNL A   1      47.179  26.728  34.649  1.00  0.00     0.198 A 
ATOM     65  C   UNL A   1      45.618  25.045  35.355  1.00  0.00     0.198 A 
ATOM     66  F   UNL A   1      43.405  25.082  34.558  1.00  0.00    -0.203 F 
ATOM     67  F   UNL A   1      48.419  27.233  34.652  1.00  0.00    -0.200 F 
ATOM     68  C   UNL A   1      46.894  25.585  35.384  1.00  0.00     0.200 A 
ATOM     69  F   UNL A   1      45.337  23.950  36.076  1.00  0.00    -0.200 F 
ATOM     70  F   UNL A   1      47.854  25.001  36.113  1.00  0.00    -0.200 F 
ENDBRANCH  37  60
ENDBRANCH  11  12
ENDBRANCH   4   6
ENDBRANCH   3   4
ENDBRANCH   2   3
ENDBRANCH   1   2
BRANCH   1  71
ATOM     71  O   UNL A   1      31.020  27.609  25.971  1.00  0.00    -0.462 OA
BRANCH  71  72
ATOM     72  C   UNL A   1      31.320  26.291  25.749  1.00  0.00     0.313 C 
ATOM     73  O   UNL A   1      30.991  25.375  26.493  1.00  0.00    -0.252 OA
BRANCH  72  74
ATOM     74  C   UNL A   1      32.135  26.134  24.452  1.00  0.00     0.131 C 
BRANCH  74  75
ATOM     75  C   UNL A   1      33.145  24.978  24.587  1.00  0.00    -0.020 A 
ATOM     76  C   UNL A   1      34.365  25.293  25.239  1.00  0.00     0.006 A 
ATOM     77  C   UNL A   1      33.011  23.657  24.128  1.00  0.00     0.022 A 
ATOM     78  C   UNL A   1      35.428  24.392  25.326  1.00  0.00     0.000 A 
ATOM     79  C   UNL A   1      34.109  22.775  24.156  1.00  0.00     0.016 A 
ATOM     80  Br  UNL A   1      31.386  22.857  23.551  1.00  0.00    -0.051 Br
ATOM     81  C   UNL A   1      35.317  23.145  24.739  1.00  0.00     0.001 A 
ENDBRANCH  74  75
BRANCH  74  82
ATOM     82  C   UNL A   1      31.225  26.146  23.191  1.00  0.00     0.026 C 
BRANCH  82  83
ATOM     83  C   UNL A   1      31.175  27.456  22.378  1.00  0.00     0.057 C 
BRANCH  83  84
ATOM     84  C   UNL A   1      29.925  28.315  22.446  1.00  0.00     0.040 A 
ATOM     85  C   UNL A   1      28.762  27.946  23.116  1.00  0.00     0.024 A 
ATOM     86  N   UNL A   1      30.024  29.531  21.845  1.00  0.00    -0.261 NA
ATOM     87  C   UNL A   1      27.670  28.816  23.133  1.00  0.00     0.003 A 
ATOM     88  C   UNL A   1      28.955  30.364  21.883  1.00  0.00     0.111 A 
ATOM     89  C   UNL A   1      27.762  30.047  22.499  1.00  0.00     0.020 A 
ENDBRANCH  83  84
ENDBRANCH  82  83
ENDBRANCH  74  82
ENDBRANCH  72  74
ENDBRANCH  71  72
ENDBRANCH   1  71
TORSDOF 15
ENDMDL
