MODEL 1
REMARK VINA RESULT:     -12.8      0.000      0.000
REMARK SMILES COc1cccc([C@H](CC(=O)OCCOC(=O)c2ccc(-c3c4nc(c(-c5c(F)c(F)c(F)c(F)c5F)c5ccc([nH]5)c(-c5c(F)c(F)c(F)c(F)c5F)c5nc(c(-c6c(F)c(F)c(F)c(F)c6F)c6ccc3[nH]6)C=C5)C=C4)cc2)NS(=O)(=O)c2ccc3c(c2)C[C@@H](C)N3C(C)=O)c1
REMARK SMILES IDX 12 1 10 2 11 3 9 4 8 5 7 6 3 7 4 8 98 9 5 10 6 11 2 12 1 13
REMARK SMILES IDX 81 14 82 16 83 17 84 18 85 19 86 20 90 21 87 22 89 23 88 24
REMARK SMILES IDX 91 25 94 26 92 27 93 28 95 29 96 30 97 31 13 32 14 33 15 34
REMARK SMILES IDX 16 35 17 36 18 37 19 38 80 39 20 40 79 41 21 42 22 43 23 44
REMARK SMILES IDX 73 45 24 46 78 47 72 48 74 49 25 50 77 51 71 52 70 53 26 55
REMARK SMILES IDX 58 56 38 57 57 58 39 59 42 60 56 61 75 62 40 63 41 64 55 66
REMARK SMILES IDX 76 67 43 68 27 69 28 70 36 71 29 72 30 73 34 74 37 75 31 76
REMARK SMILES IDX 32 77 35 78 33 79 59 80 60 81 68 82 61 83 62 84 66 85 69 86
REMARK SMILES IDX 63 87 64 88 67 89 65 90 44 91 45 92 53 93 46 94 47 95 51 96
REMARK SMILES IDX 54 97 48 98 49 99 52 100 50 101
REMARK H PARENT 81 15 74 54 42 65
REMARK Flexibility Score: inf
ROOT
ATOM      1  O   UNL A   1      31.003  27.970  25.707  1.00  0.00    -0.462 OA
ENDROOT
BRANCH   1   2
ATOM      2  C   UNL A   1      30.992  26.620  25.728  1.00  0.00     0.307 C 
ATOM      3  O   UNL A   1      31.580  25.934  26.557  1.00  0.00    -0.252 OA
BRANCH   2   4
ATOM      4  C   UNL A   1      30.198  26.004  24.596  1.00  0.00     0.147 C 
BRANCH   4   5
ATOM      5  C   UNL A   1      30.372  26.669  23.216  1.00  0.00     0.111 C 
BRANCH   5   6
ATOM      6  C   UNL A   1      29.414  27.837  23.081  1.00  0.00    -0.026 A 
ATOM      7  C   UNL A   1      28.883  30.015  22.184  1.00  0.00     0.119 A 
ATOM      8  C   UNL A   1      27.565  29.896  22.610  1.00  0.00     0.046 A 
ATOM      9  C   UNL A   1      29.828  29.047  22.508  1.00  0.00     0.051 A 
ATOM     10  C   UNL A   1      27.158  28.735  23.260  1.00  0.00     0.004 A 
ATOM     11  C   UNL A   1      28.066  27.693  23.448  1.00  0.00     0.005 A 
BRANCH   7  12
ATOM     12  O   UNL A   1      29.217  31.068  21.373  1.00  0.00    -0.497 OA
ATOM     13  C   UNL A   1      28.077  31.932  21.231  1.00  0.00     0.278 C 
ENDBRANCH   7  12
ENDBRANCH   5   6
BRANCH   5  14
ATOM     14  N   UNL A   1      31.804  27.039  23.057  1.00  0.00    -0.203 NA
ATOM     15  H   UNL A   1      32.208  26.993  23.992  1.00  0.00     0.142 HD
BRANCH  14  16
ATOM     16  S   UNL A   1      32.876  26.218  22.053  1.00  0.00     0.241 S 
ATOM     17  O   UNL A   1      32.260  25.734  20.846  1.00  0.00    -0.207 OA
ATOM     18  O   UNL A   1      34.016  27.116  21.998  1.00  0.00    -0.207 OA
BRANCH  16  19
ATOM     19  C   UNL A   1      33.386  24.790  22.954  1.00  0.00     0.082 A 
ATOM     20  C   UNL A   1      33.099  23.490  22.486  1.00  0.00     0.024 A 
ATOM     21  C   UNL A   1      34.141  25.002  24.108  1.00  0.00     0.027 A 
ATOM     22  C   UNL A   1      33.512  22.369  23.217  1.00  0.00     0.028 A 
ATOM     23  C   UNL A   1      34.496  23.896  24.836  1.00  0.00    -0.021 A 
ATOM     24  C   UNL A   1      34.161  22.601  24.413  1.00  0.00     0.047 A 
ATOM     25  C   UNL A   1      35.273  23.848  26.114  1.00  0.00     0.063 C 
ATOM     26  N   UNL A   1      34.581  21.689  25.408  1.00  0.00    -0.309 N 
ATOM     27  C   UNL A   1      34.743  22.509  26.644  1.00  0.00     0.092 C 
ATOM     28  C   UNL A   1      33.362  22.711  27.317  1.00  0.00     0.032 C 
BRANCH  26  29
ATOM     29  C   UNL A   1      35.301  20.569  25.041  1.00  0.00     0.224 C 
ATOM     30  C   UNL A   1      36.786  20.813  24.875  1.00  0.00     0.115 C 
ATOM     31  O   UNL A   1      34.790  19.503  24.705  1.00  0.00    -0.275 OA
ENDBRANCH  26  29
ENDBRANCH  16  19
ENDBRANCH  14  16
ENDBRANCH   5  14
ENDBRANCH   4   5
ENDBRANCH   2   4
ENDBRANCH   1   2
BRANCH   1  32
ATOM     32  C   UNL A   1      31.895  28.655  26.608  1.00  0.00     0.274 C 
BRANCH  32  33
ATOM     33  C   UNL A   1      31.940  30.151  26.292  1.00  0.00     0.275 C 
BRANCH  33  34
ATOM     34  O   UNL A   1      33.298  30.626  26.249  1.00  0.00    -0.458 OA
BRANCH  34  35
ATOM     35  C   UNL A   1      33.604  31.584  27.152  1.00  0.00     0.338 C 
ATOM     36  O   UNL A   1      32.918  32.533  27.490  1.00  0.00    -0.246 OA
BRANCH  35  37
ATOM     37  C   UNL A   1      34.863  31.234  27.820  1.00  0.00     0.060 A 
ATOM     38  C   UNL A   1      34.997  29.945  28.346  1.00  0.00     0.016 A 
ATOM     39  C   UNL A   1      35.873  32.180  27.985  1.00  0.00     0.016 A 
ATOM     40  C   UNL A   1      36.147  29.593  29.041  1.00  0.00     0.010 A 
ATOM     41  C   UNL A   1      37.033  31.822  28.678  1.00  0.00     0.010 A 
ATOM     42  C   UNL A   1      37.172  30.531  29.217  1.00  0.00    -0.014 A 
BRANCH  42  43
ATOM     43  C   UNL A   1      38.373  30.170  30.004  1.00  0.00     0.031 A 
ATOM     44  C   UNL A   1      39.388  29.232  29.422  1.00  0.00     0.074 A 
ATOM     45  C   UNL A   1      38.549  30.691  31.232  1.00  0.00     0.049 A 
ATOM     46  N   UNL A   1      40.466  28.733  29.971  1.00  0.00    -0.248 NA
ATOM     47  C   UNL A   1      39.157  28.793  28.039  1.00  0.00     0.031 C 
ATOM     48  C   UNL A   1      37.648  31.644  31.879  1.00  0.00     0.029 A 
ATOM     49  N   UNL A   1      39.542  30.487  32.155  1.00  0.00    -0.354 N 
ATOM     50  C   UNL A   1      41.027  27.901  29.012  1.00  0.00     0.074 A 
ATOM     51  C   UNL A   1      40.158  27.945  27.855  1.00  0.00     0.031 C 
ATOM     52  C   UNL A   1      38.132  31.948  33.094  1.00  0.00     0.029 A 
ATOM     53  C   UNL A   1      39.346  31.172  33.329  1.00  0.00     0.049 A 
ATOM     54  H   UNL A   1      40.320  29.907  31.993  1.00  0.00     0.167 HD
ATOM     55  C   UNL A   1      42.165  27.171  29.094  1.00  0.00     0.037 A 
ATOM     56  C   UNL A   1      40.053  31.151  34.475  1.00  0.00     0.037 A 
ATOM     57  C   UNL A   1      43.022  27.139  30.253  1.00  0.00     0.049 A 
ATOM     58  C   UNL A   1      41.275  30.277  34.564  1.00  0.00     0.074 A 
ATOM     59  C   UNL A   1      44.213  26.456  30.429  1.00  0.00     0.029 A 
ATOM     60  N   UNL A   1      42.772  27.815  31.440  1.00  0.00    -0.354 N 
ATOM     61  N   UNL A   1      41.813  29.509  33.648  1.00  0.00    -0.248 NA
ATOM     62  C   UNL A   1      41.986  30.265  35.849  1.00  0.00     0.031 C 
ATOM     63  C   UNL A   1      44.650  26.667  31.740  1.00  0.00     0.029 A 
ATOM     64  C   UNL A   1      43.769  27.537  32.363  1.00  0.00     0.049 A 
ATOM     65  H   UNL A   1      42.001  28.405  31.602  1.00  0.00     0.167 HD
ATOM     66  C   UNL A   1      42.938  28.946  34.233  1.00  0.00     0.074 A 
ATOM     67  C   UNL A   1      43.013  29.472  35.580  1.00  0.00     0.031 C 
ATOM     68  C   UNL A   1      43.831  28.072  33.702  1.00  0.00     0.037 A 
BRANCH  55  69
ATOM     69  C   UNL A   1      42.523  26.313  27.914  1.00  0.00     0.064 A 
ATOM     70  C   UNL A   1      41.971  25.036  27.727  1.00  0.00     0.173 A 
ATOM     71  C   UNL A   1      43.426  26.782  26.946  1.00  0.00     0.173 A 
ATOM     72  F   UNL A   1      41.113  24.530  28.626  1.00  0.00    -0.203 F 
ATOM     73  C   UNL A   1      42.338  24.247  26.637  1.00  0.00     0.198 A 
ATOM     74  C   UNL A   1      43.763  26.006  25.840  1.00  0.00     0.198 A 
ATOM     75  F   UNL A   1      43.980  27.997  27.071  1.00  0.00    -0.203 F 
ATOM     76  F   UNL A   1      41.845  23.007  26.516  1.00  0.00    -0.200 F 
ATOM     77  C   UNL A   1      43.228  24.736  25.693  1.00  0.00     0.200 A 
ATOM     78  F   UNL A   1      44.611  26.486  24.921  1.00  0.00    -0.200 F 
ATOM     79  F   UNL A   1      43.575  23.978  24.643  1.00  0.00    -0.200 F 
ENDBRANCH  55  69
BRANCH  56  80
ATOM     80  C   UNL A   1      39.617  31.980  35.629  1.00  0.00     0.064 A 
ATOM     81  C   UNL A   1      38.649  31.510  36.527  1.00  0.00     0.173 A 
ATOM     82  C   UNL A   1      40.160  33.252  35.862  1.00  0.00     0.173 A 
ATOM     83  F   UNL A   1      38.082  30.310  36.334  1.00  0.00    -0.203 F 
ATOM     84  C   UNL A   1      38.230  32.287  37.606  1.00  0.00     0.198 A 
ATOM     85  C   UNL A   1      39.763  34.015  36.958  1.00  0.00     0.198 A 
ATOM     86  F   UNL A   1      41.089  33.749  35.033  1.00  0.00    -0.203 F 
ATOM     87  F   UNL A   1      37.272  31.831  38.425  1.00  0.00    -0.200 F 
ATOM     88  C   UNL A   1      38.793  33.535  37.825  1.00  0.00     0.200 A 
ATOM     89  F   UNL A   1      40.320  35.215  37.174  1.00  0.00    -0.200 F 
ATOM     90  F   UNL A   1      38.397  34.278  38.867  1.00  0.00    -0.200 F 
ENDBRANCH  56  80
BRANCH  68  91
ATOM     91  C   UNL A   1      44.990  27.663  34.566  1.00  0.00     0.064 A 
ATOM     92  C   UNL A   1      46.180  28.406  34.609  1.00  0.00     0.173 A 
ATOM     93  C   UNL A   1      44.895  26.531  35.388  1.00  0.00     0.173 A 
ATOM     94  F   UNL A   1      46.329  29.488  33.831  1.00  0.00    -0.203 F 
ATOM     95  C   UNL A   1      47.240  28.012  35.422  1.00  0.00     0.198 A 
ATOM     96  C   UNL A   1      45.943  26.159  36.226  1.00  0.00     0.198 A 
ATOM     97  F   UNL A   1      43.776  25.788  35.391  1.00  0.00    -0.203 F 
ATOM     98  F   UNL A   1      48.387  28.705  35.407  1.00  0.00    -0.200 F 
ATOM     99  C   UNL A   1      47.118  26.895  36.235  1.00  0.00     0.200 A 
ATOM    100  F   UNL A   1      45.816  25.090  37.023  1.00  0.00    -0.200 F 
ATOM    101  F   UNL A   1      48.136  26.523  37.023  1.00  0.00    -0.200 F 
ENDBRANCH  68  91
ENDBRANCH  42  43
ENDBRANCH  35  37
ENDBRANCH  34  35
ENDBRANCH  33  34
ENDBRANCH  32  33
ENDBRANCH   1  32
TORSDOF 18
ENDMDL
MODEL 2
REMARK VINA RESULT:     -12.6      1.891      7.431
REMARK SMILES COc1cccc([C@H](CC(=O)OCCOC(=O)c2ccc(-c3c4nc(c(-c5c(F)c(F)c(F)c(F)c5F)c5ccc([nH]5)c(-c5c(F)c(F)c(F)c(F)c5F)c5nc(c(-c6c(F)c(F)c(F)c(F)c6F)c6ccc3[nH]6)C=C5)C=C4)cc2)NS(=O)(=O)c2ccc3c(c2)C[C@@H](C)N3C(C)=O)c1
REMARK SMILES IDX 12 1 10 2 11 3 9 4 8 5 7 6 3 7 4 8 98 9 5 10 6 11 2 12 1 13
REMARK SMILES IDX 81 14 82 16 83 17 84 18 85 19 86 20 90 21 87 22 89 23 88 24
REMARK SMILES IDX 91 25 94 26 92 27 93 28 95 29 96 30 97 31 13 32 14 33 15 34
REMARK SMILES IDX 16 35 17 36 18 37 19 38 80 39 20 40 79 41 21 42 22 43 23 44
REMARK SMILES IDX 73 45 24 46 78 47 72 48 74 49 25 50 77 51 71 52 70 53 26 55
REMARK SMILES IDX 58 56 38 57 57 58 39 59 42 60 56 61 75 62 40 63 41 64 55 66
REMARK SMILES IDX 76 67 43 68 27 69 28 70 36 71 29 72 30 73 34 74 37 75 31 76
REMARK SMILES IDX 32 77 35 78 33 79 59 80 60 81 68 82 61 83 62 84 66 85 69 86
REMARK SMILES IDX 63 87 64 88 67 89 65 90 44 91 45 92 53 93 46 94 47 95 51 96
REMARK SMILES IDX 54 97 48 98 49 99 52 100 50 101
REMARK H PARENT 81 15 74 54 42 65
REMARK Flexibility Score: inf
ROOT
ATOM      1  O   UNL A   1      32.434  30.737  27.304  1.00  0.00    -0.462 OA
ENDROOT
BRANCH   1   2
ATOM      2  C   UNL A   1      32.014  29.754  26.480  1.00  0.00     0.307 C 
ATOM      3  O   UNL A   1      31.798  28.599  26.830  1.00  0.00    -0.252 OA
BRANCH   2   4
ATOM      4  C   UNL A   1      31.857  30.197  25.041  1.00  0.00     0.147 C 
BRANCH   4   5
ATOM      5  C   UNL A   1      31.382  29.112  24.053  1.00  0.00     0.111 C 
BRANCH   5   6
ATOM      6  C   UNL A   1      29.921  29.330  23.710  1.00  0.00    -0.026 A 
ATOM      7  C   UNL A   1      28.098  30.820  23.170  1.00  0.00     0.119 A 
ATOM      8  C   UNL A   1      27.288  29.744  22.828  1.00  0.00     0.046 A 
ATOM      9  C   UNL A   1      29.365  30.617  23.708  1.00  0.00     0.051 A 
ATOM     10  C   UNL A   1      27.797  28.451  22.908  1.00  0.00     0.004 A 
ATOM     11  C   UNL A   1      29.121  28.252  23.298  1.00  0.00     0.005 A 
BRANCH   7  12
ATOM     12  O   UNL A   1      27.655  32.087  22.895  1.00  0.00    -0.497 OA
ATOM     13  C   UNL A   1      28.777  32.984  22.879  1.00  0.00     0.278 C 
ENDBRANCH   7  12
ENDBRANCH   5   6
BRANCH   5  14
ATOM     14  N   UNL A   1      32.290  29.129  22.875  1.00  0.00    -0.203 NA
ATOM     15  H   UNL A   1      32.660  30.077  22.823  1.00  0.00     0.142 HD
BRANCH  14  16
ATOM     16  S   UNL A   1      33.618  28.110  22.705  1.00  0.00     0.241 S 
ATOM     17  O   UNL A   1      33.783  27.618  21.363  1.00  0.00    -0.207 OA
ATOM     18  O   UNL A   1      34.679  28.855  23.359  1.00  0.00    -0.207 OA
BRANCH  16  19
ATOM     19  C   UNL A   1      33.280  26.701  23.709  1.00  0.00     0.082 A 
ATOM     20  C   UNL A   1      33.924  26.518  24.951  1.00  0.00     0.024 A 
ATOM     21  C   UNL A   1      32.303  25.814  23.255  1.00  0.00     0.027 A 
ATOM     22  C   UNL A   1      33.643  25.391  25.735  1.00  0.00     0.028 A 
ATOM     23  C   UNL A   1      32.074  24.694  24.011  1.00  0.00    -0.021 A 
ATOM     24  C   UNL A   1      32.756  24.470  25.216  1.00  0.00     0.047 A 
ATOM     25  C   UNL A   1      31.111  23.582  23.736  1.00  0.00     0.063 C 
ATOM     26  N   UNL A   1      32.375  23.202  25.710  1.00  0.00    -0.309 N 
ATOM     27  C   UNL A   1      31.818  22.477  24.532  1.00  0.00     0.092 C 
ATOM     28  C   UNL A   1      32.977  21.877  23.696  1.00  0.00     0.032 C 
BRANCH  26  29
ATOM     29  C   UNL A   1      31.996  23.074  27.032  1.00  0.00     0.224 C 
ATOM     30  C   UNL A   1      33.007  22.357  27.901  1.00  0.00     0.115 C 
ATOM     31  O   UNL A   1      30.875  23.352  27.456  1.00  0.00    -0.275 OA
ENDBRANCH  26  29
ENDBRANCH  16  19
ENDBRANCH  14  16
ENDBRANCH   5  14
ENDBRANCH   4   5
ENDBRANCH   2   4
ENDBRANCH   1   2
BRANCH   1  32
ATOM     32  C   UNL A   1      32.013  32.086  27.020  1.00  0.00     0.274 C 
BRANCH  32  33
ATOM     33  C   UNL A   1      32.994  33.096  27.618  1.00  0.00     0.275 C 
BRANCH  33  34
ATOM     34  O   UNL A   1      32.299  34.255  28.113  1.00  0.00    -0.458 OA
BRANCH  34  35
ATOM     35  C   UNL A   1      33.077  35.181  28.718  1.00  0.00     0.338 C 
ATOM     36  O   UNL A   1      32.873  36.379  28.809  1.00  0.00    -0.246 OA
BRANCH  35  37
ATOM     37  C   UNL A   1      34.176  34.505  29.418  1.00  0.00     0.060 A 
ATOM     38  C   UNL A   1      35.459  34.589  28.870  1.00  0.00     0.016 A 
ATOM     39  C   UNL A   1      33.937  33.744  30.560  1.00  0.00     0.016 A 
ATOM     40  C   UNL A   1      36.516  33.911  29.465  1.00  0.00     0.010 A 
ATOM     41  C   UNL A   1      35.001  33.069  31.163  1.00  0.00     0.010 A 
ATOM     42  C   UNL A   1      36.294  33.141  30.614  1.00  0.00    -0.014 A 
BRANCH  42  43
ATOM     43  C   UNL A   1      37.411  32.378  31.215  1.00  0.00     0.031 A 
ATOM     44  C   UNL A   1      37.891  32.724  32.593  1.00  0.00     0.074 A 
ATOM     45  C   UNL A   1      37.983  31.376  30.525  1.00  0.00     0.049 A 
ATOM     46  N   UNL A   1      38.898  32.231  33.269  1.00  0.00    -0.248 NA
ATOM     47  C   UNL A   1      37.141  33.769  33.305  1.00  0.00     0.031 C 
ATOM     48  C   UNL A   1      37.570  30.926  29.195  1.00  0.00     0.029 A 
ATOM     49  N   UNL A   1      39.037  30.558  30.843  1.00  0.00    -0.354 N 
ATOM     50  C   UNL A   1      38.919  32.923  34.472  1.00  0.00     0.074 A 
ATOM     51  C   UNL A   1      37.839  33.885  34.425  1.00  0.00     0.031 C 
ATOM     52  C   UNL A   1      38.358  29.908  28.813  1.00  0.00     0.029 A 
ATOM     53  C   UNL A   1      39.362  29.672  29.846  1.00  0.00     0.049 A 
ATOM     54  H   UNL A   1      39.514  30.601  31.703  1.00  0.00     0.167 HD
ATOM     55  C   UNL A   1      39.764  32.762  35.518  1.00  0.00     0.037 A 
ATOM     56  C   UNL A   1      40.376  28.788  29.766  1.00  0.00     0.037 A 
ATOM     57  C   UNL A   1      40.834  31.797  35.552  1.00  0.00     0.049 A 
ATOM     58  C   UNL A   1      41.343  28.680  30.914  1.00  0.00     0.074 A 
ATOM     59  C   UNL A   1      41.729  31.534  36.574  1.00  0.00     0.029 A 
ATOM     60  N   UNL A   1      41.160  30.941  34.507  1.00  0.00    -0.354 N 
ATOM     61  N   UNL A   1      41.346  29.320  32.058  1.00  0.00    -0.248 NA
ATOM     62  C   UNL A   1      42.449  27.726  30.757  1.00  0.00     0.031 C 
ATOM     63  C   UNL A   1      42.633  30.566  36.127  1.00  0.00     0.029 A 
ATOM     64  C   UNL A   1      42.263  30.174  34.850  1.00  0.00     0.049 A 
ATOM     65  H   UNL A   1      40.678  30.887  33.651  1.00  0.00     0.167 HD
ATOM     66  C   UNL A   1      42.433  28.829  32.768  1.00  0.00     0.074 A 
ATOM     67  C   UNL A   1      43.058  27.827  31.930  1.00  0.00     0.031 C 
ATOM     68  C   UNL A   1      42.873  29.176  34.004  1.00  0.00     0.037 A 
BRANCH  55  69
ATOM     69  C   UNL A   1      39.592  33.683  36.694  1.00  0.00     0.064 A 
ATOM     70  C   UNL A   1      38.817  33.330  37.809  1.00  0.00     0.173 A 
ATOM     71  C   UNL A   1      40.223  34.937  36.708  1.00  0.00     0.173 A 
ATOM     72  F   UNL A   1      38.179  32.150  37.845  1.00  0.00    -0.203 F 
ATOM     73  C   UNL A   1      38.650  34.211  38.876  1.00  0.00     0.198 A 
ATOM     74  C   UNL A   1      40.084  35.801  37.791  1.00  0.00     0.198 A 
ATOM     75  F   UNL A   1      40.980  35.325  35.670  1.00  0.00    -0.203 F 
ATOM     76  F   UNL A   1      37.853  33.875  39.900  1.00  0.00    -0.200 F 
ATOM     77  C   UNL A   1      39.289  35.442  38.868  1.00  0.00     0.200 A 
ATOM     78  F   UNL A   1      40.714  36.983  37.788  1.00  0.00    -0.200 F 
ATOM     79  F   UNL A   1      39.132  36.286  39.898  1.00  0.00    -0.200 F 
ENDBRANCH  55  69
BRANCH  56  80
ATOM     80  C   UNL A   1      40.528  27.944  28.552  1.00  0.00     0.064 A 
ATOM     81  C   UNL A   1      41.264  28.396  27.449  1.00  0.00     0.173 A 
ATOM     82  C   UNL A   1      39.947  26.669  28.471  1.00  0.00     0.173 A 
ATOM     83  F   UNL A   1      41.818  29.617  27.468  1.00  0.00    -0.203 F 
ATOM     84  C   UNL A   1      41.402  27.612  26.305  1.00  0.00     0.198 A 
ATOM     85  C   UNL A   1      40.112  25.874  27.340  1.00  0.00     0.198 A 
ATOM     86  F   UNL A   1      39.232  26.189  29.499  1.00  0.00    -0.203 F 
ATOM     87  F   UNL A   1      42.075  28.086  25.248  1.00  0.00    -0.200 F 
ATOM     88  C   UNL A   1      40.832  26.348  26.255  1.00  0.00     0.200 A 
ATOM     89  F   UNL A   1      39.572  24.647  27.300  1.00  0.00    -0.200 F 
ATOM     90  F   UNL A   1      40.973  25.591  25.158  1.00  0.00    -0.200 F 
ENDBRANCH  56  80
BRANCH  68  91
ATOM     91  C   UNL A   1      44.065  28.436  34.543  1.00  0.00     0.064 A 
ATOM     92  C   UNL A   1      45.374  28.906  34.359  1.00  0.00     0.173 A 
ATOM     93  C   UNL A   1      43.890  27.257  35.282  1.00  0.00     0.173 A 
ATOM     94  F   UNL A   1      45.597  30.020  33.646  1.00  0.00    -0.203 F 
ATOM     95  C   UNL A   1      46.464  28.208  34.873  1.00  0.00     0.198 A 
ATOM     96  C   UNL A   1      44.980  26.579  35.823  1.00  0.00     0.198 A 
ATOM     97  F   UNL A   1      42.658  26.766  35.493  1.00  0.00    -0.203 F 
ATOM     98  F   UNL A   1      47.708  28.646  34.639  1.00  0.00    -0.200 F 
ATOM     99  C   UNL A   1      46.265  27.051  35.611  1.00  0.00     0.200 A 
ATOM    100  F   UNL A   1      44.784  25.471  36.551  1.00  0.00    -0.200 F 
ATOM    101  F   UNL A   1      47.315  26.384  36.110  1.00  0.00    -0.200 F 
ENDBRANCH  68  91
ENDBRANCH  42  43
ENDBRANCH  35  37
ENDBRANCH  34  35
ENDBRANCH  33  34
ENDBRANCH  32  33
ENDBRANCH   1  32
TORSDOF 18
ENDMDL
MODEL 3
REMARK VINA RESULT:     -12.5      4.523      8.630
REMARK SMILES COc1cccc([C@H](CC(=O)OCCOC(=O)c2ccc(-c3c4nc(c(-c5c(F)c(F)c(F)c(F)c5F)c5ccc([nH]5)c(-c5c(F)c(F)c(F)c(F)c5F)c5nc(c(-c6c(F)c(F)c(F)c(F)c6F)c6ccc3[nH]6)C=C5)C=C4)cc2)NS(=O)(=O)c2ccc3c(c2)C[C@@H](C)N3C(C)=O)c1
REMARK SMILES IDX 12 1 10 2 11 3 9 4 8 5 7 6 3 7 4 8 98 9 5 10 6 11 2 12 1 13
REMARK SMILES IDX 81 14 82 16 83 17 84 18 85 19 86 20 90 21 87 22 89 23 88 24
REMARK SMILES IDX 91 25 94 26 92 27 93 28 95 29 96 30 97 31 13 32 14 33 15 34
REMARK SMILES IDX 16 35 17 36 18 37 19 38 80 39 20 40 79 41 21 42 22 43 23 44
REMARK SMILES IDX 73 45 24 46 78 47 72 48 74 49 25 50 77 51 71 52 70 53 26 55
REMARK SMILES IDX 58 56 38 57 57 58 39 59 42 60 56 61 75 62 40 63 41 64 55 66
REMARK SMILES IDX 76 67 43 68 27 69 28 70 36 71 29 72 30 73 34 74 37 75 31 76
REMARK SMILES IDX 32 77 35 78 33 79 59 80 60 81 68 82 61 83 62 84 66 85 69 86
REMARK SMILES IDX 63 87 64 88 67 89 65 90 44 91 45 92 53 93 46 94 47 95 51 96
REMARK SMILES IDX 54 97 48 98 49 99 52 100 50 101
REMARK H PARENT 81 15 74 54 42 65
REMARK Flexibility Score: inf
ROOT
ATOM      1  O   UNL A   1      37.890  21.315  24.995  1.00  0.00    -0.462 OA
ENDROOT
BRANCH   1   2
ATOM      2  C   UNL A   1      36.587  21.551  24.732  1.00  0.00     0.307 C 
ATOM      3  O   UNL A   1      36.181  22.367  23.912  1.00  0.00    -0.252 OA
BRANCH   2   4
ATOM      4  C   UNL A   1      35.641  20.727  25.579  1.00  0.00     0.147 C 
BRANCH   4   5
ATOM      5  C   UNL A   1      34.149  20.813  25.193  1.00  0.00     0.111 C 
BRANCH   5   6
ATOM      6  C   UNL A   1      33.755  19.592  24.383  1.00  0.00    -0.026 A 
ATOM      7  C   UNL A   1      33.863  17.210  24.001  1.00  0.00     0.119 A 
ATOM      8  C   UNL A   1      32.844  17.291  23.060  1.00  0.00     0.046 A 
ATOM      9  C   UNL A   1      34.392  18.360  24.581  1.00  0.00     0.051 A 
ATOM     10  C   UNL A   1      32.260  18.524  22.787  1.00  0.00     0.004 A 
ATOM     11  C   UNL A   1      32.680  19.657  23.482  1.00  0.00     0.005 A 
BRANCH   7  12
ATOM     12  O   UNL A   1      34.286  15.971  24.405  1.00  0.00    -0.497 OA
ATOM     13  C   UNL A   1      33.283  15.383  25.248  1.00  0.00     0.278 C 
ENDBRANCH   7  12
ENDBRANCH   5   6
BRANCH   5  14
ATOM     14  N   UNL A   1      33.358  20.994  26.440  1.00  0.00    -0.203 NA
ATOM     15  H   UNL A   1      33.749  20.337  27.114  1.00  0.00     0.142 HD
BRANCH  14  16
ATOM     16  S   UNL A   1      33.220  22.459  27.253  1.00  0.00     0.241 S 
ATOM     17  O   UNL A   1      32.007  22.567  28.020  1.00  0.00    -0.207 OA
ATOM     18  O   UNL A   1      34.517  22.594  27.893  1.00  0.00    -0.207 OA
BRANCH  16  19
ATOM     19  C   UNL A   1      33.128  23.701  26.005  1.00  0.00     0.082 A 
ATOM     20  C   UNL A   1      34.165  24.642  25.834  1.00  0.00     0.024 A 
ATOM     21  C   UNL A   1      32.022  23.669  25.155  1.00  0.00     0.027 A 
ATOM     22  C   UNL A   1      34.073  25.622  24.836  1.00  0.00     0.028 A 
ATOM     23  C   UNL A   1      31.925  24.662  24.215  1.00  0.00    -0.021 A 
ATOM     24  C   UNL A   1      32.920  25.642  24.078  1.00  0.00     0.047 A 
ATOM     25  C   UNL A   1      30.836  24.873  23.211  1.00  0.00     0.063 C 
ATOM     26  N   UNL A   1      32.495  26.568  23.099  1.00  0.00    -0.309 N 
ATOM     27  C   UNL A   1      31.018  26.381  23.001  1.00  0.00     0.092 C 
ATOM     28  C   UNL A   1      30.320  27.166  24.141  1.00  0.00     0.032 C 
BRANCH  26  29
ATOM     29  C   UNL A   1      33.365  26.936  22.091  1.00  0.00     0.224 C 
ATOM     30  C   UNL A   1      33.923  28.336  22.234  1.00  0.00     0.115 C 
ATOM     31  O   UNL A   1      33.552  26.277  21.070  1.00  0.00    -0.275 OA
ENDBRANCH  26  29
ENDBRANCH  16  19
ENDBRANCH  14  16
ENDBRANCH   5  14
ENDBRANCH   4   5
ENDBRANCH   2   4
ENDBRANCH   1   2
BRANCH   1  32
ATOM     32  C   UNL A   1      38.362  19.955  24.915  1.00  0.00     0.274 C 
BRANCH  32  33
ATOM     33  C   UNL A   1      39.404  19.679  26.001  1.00  0.00     0.275 C 
BRANCH  33  34
ATOM     34  O   UNL A   1      40.646  19.242  25.421  1.00  0.00    -0.458 OA
BRANCH  34  35
ATOM     35  C   UNL A   1      41.722  19.318  26.236  1.00  0.00     0.338 C 
ATOM     36  O   UNL A   1      42.466  18.413  26.572  1.00  0.00    -0.246 OA
BRANCH  35  37
ATOM     37  C   UNL A   1      41.986  20.726  26.557  1.00  0.00     0.060 A 
ATOM     38  C   UNL A   1      42.081  21.638  25.503  1.00  0.00     0.016 A 
ATOM     39  C   UNL A   1      42.201  21.131  27.873  1.00  0.00     0.016 A 
ATOM     40  C   UNL A   1      42.393  22.968  25.759  1.00  0.00     0.010 A 
ATOM     41  C   UNL A   1      42.506  22.470  28.130  1.00  0.00     0.010 A 
ATOM     42  C   UNL A   1      42.613  23.393  27.075  1.00  0.00    -0.014 A 
BRANCH  42  43
ATOM     43  C   UNL A   1      42.996  24.799  27.340  1.00  0.00     0.031 A 
ATOM     44  C   UNL A   1      44.390  25.259  27.036  1.00  0.00     0.074 A 
ATOM     45  C   UNL A   1      42.089  25.654  27.844  1.00  0.00     0.049 A 
ATOM     46  N   UNL A   1      44.947  26.422  27.262  1.00  0.00    -0.248 NA
ATOM     47  C   UNL A   1      45.280  24.278  26.398  1.00  0.00     0.031 C 
ATOM     48  C   UNL A   1      40.694  25.326  28.138  1.00  0.00     0.029 A 
ATOM     49  N   UNL A   1      42.206  26.973  28.203  1.00  0.00    -0.354 N 
ATOM     50  C   UNL A   1      46.257  26.305  26.819  1.00  0.00     0.074 A 
ATOM     51  C   UNL A   1      46.419  24.951  26.332  1.00  0.00     0.031 C 
ATOM     52  C   UNL A   1      40.081  26.416  28.627  1.00  0.00     0.029 A 
ATOM     53  C   UNL A   1      41.054  27.501  28.730  1.00  0.00     0.049 A 
ATOM     54  H   UNL A   1      43.036  27.491  28.093  1.00  0.00     0.167 HD
ATOM     55  C   UNL A   1      47.231  27.246  26.818  1.00  0.00     0.037 A 
ATOM     56  C   UNL A   1      40.819  28.716  29.263  1.00  0.00     0.037 A 
ATOM     57  C   UNL A   1      47.055  28.592  27.303  1.00  0.00     0.049 A 
ATOM     58  C   UNL A   1      41.939  29.719  29.314  1.00  0.00     0.074 A 
ATOM     59  C   UNL A   1      47.968  29.631  27.321  1.00  0.00     0.029 A 
ATOM     60  N   UNL A   1      45.884  29.081  27.868  1.00  0.00    -0.354 N 
ATOM     61  N   UNL A   1      43.169  29.611  28.875  1.00  0.00    -0.248 NA
ATOM     62  C   UNL A   1      41.636  31.014  29.938  1.00  0.00     0.031 C 
ATOM     63  C   UNL A   1      47.372  30.728  27.951  1.00  0.00     0.029 A 
ATOM     64  C   UNL A   1      46.064  30.397  28.267  1.00  0.00     0.049 A 
ATOM     65  H   UNL A   1      45.049  28.570  27.968  1.00  0.00     0.167 HD
ATOM     66  C   UNL A   1      43.780  30.829  29.142  1.00  0.00     0.074 A 
ATOM     67  C   UNL A   1      42.778  31.666  29.770  1.00  0.00     0.031 C 
ATOM     68  C   UNL A   1      45.054  31.219  28.889  1.00  0.00     0.037 A 
BRANCH  55  69
ATOM     69  C   UNL A   1      48.588  26.836  26.317  1.00  0.00     0.064 A 
ATOM     70  C   UNL A   1      48.982  27.037  24.985  1.00  0.00     0.173 A 
ATOM     71  C   UNL A   1      49.514  26.243  27.190  1.00  0.00     0.173 A 
ATOM     72  F   UNL A   1      48.134  27.587  24.103  1.00  0.00    -0.203 F 
ATOM     73  C   UNL A   1      50.236  26.625  24.538  1.00  0.00     0.198 A 
ATOM     74  C   UNL A   1      50.779  25.865  26.748  1.00  0.00     0.198 A 
ATOM     75  F   UNL A   1      49.193  26.031  28.475  1.00  0.00    -0.203 F 
ATOM     76  F   UNL A   1      50.564  26.770  23.246  1.00  0.00    -0.200 F 
ATOM     77  C   UNL A   1      51.134  26.045  25.421  1.00  0.00     0.200 A 
ATOM     78  F   UNL A   1      51.651  25.319  27.606  1.00  0.00    -0.200 F 
ATOM     79  F   UNL A   1      52.342  25.656  24.989  1.00  0.00    -0.200 F 
ENDBRANCH  55  69
BRANCH  56  80
ATOM     80  C   UNL A   1      39.470  29.043  29.794  1.00  0.00     0.064 A 
ATOM     81  C   UNL A   1      39.128  28.746  31.120  1.00  0.00     0.173 A 
ATOM     82  C   UNL A   1      38.499  29.662  28.993  1.00  0.00     0.173 A 
ATOM     83  F   UNL A   1      40.013  28.132  31.919  1.00  0.00    -0.203 F 
ATOM     84  C   UNL A   1      37.861  29.042  31.621  1.00  0.00     0.198 A 
ATOM     85  C   UNL A   1      37.245  29.987  29.503  1.00  0.00     0.198 A 
ATOM     86  F   UNL A   1      38.776  29.968  27.717  1.00  0.00    -0.203 F 
ATOM     87  F   UNL A   1      37.546  28.708  32.880  1.00  0.00    -0.200 F 
ATOM     88  C   UNL A   1      36.924  29.670  30.814  1.00  0.00     0.200 A 
ATOM     89  F   UNL A   1      36.346  30.606  28.725  1.00  0.00    -0.200 F 
ATOM     90  F   UNL A   1      35.709  29.963  31.299  1.00  0.00    -0.200 F 
ENDBRANCH  56  80
BRANCH  68  91
ATOM     91  C   UNL A   1      45.427  32.629  29.253  1.00  0.00     0.064 A 
ATOM     92  C   UNL A   1      45.211  33.702  28.376  1.00  0.00     0.173 A 
ATOM     93  C   UNL A   1      45.976  32.912  30.513  1.00  0.00     0.173 A 
ATOM     94  F   UNL A   1      44.703  33.484  27.153  1.00  0.00    -0.203 F 
ATOM     95  C   UNL A   1      45.558  35.002  28.736  1.00  0.00     0.198 A 
ATOM     96  C   UNL A   1      46.290  34.218  30.883  1.00  0.00     0.198 A 
ATOM     97  F   UNL A   1      46.197  31.923  31.393  1.00  0.00    -0.203 F 
ATOM     98  F   UNL A   1      45.393  36.004  27.862  1.00  0.00    -0.200 F 
ATOM     99  C   UNL A   1      46.089  35.259  29.992  1.00  0.00     0.200 A 
ATOM    100  F   UNL A   1      46.786  34.466  32.102  1.00  0.00    -0.200 F 
ATOM    101  F   UNL A   1      46.414  36.512  30.339  1.00  0.00    -0.200 F 
ENDBRANCH  68  91
ENDBRANCH  42  43
ENDBRANCH  35  37
ENDBRANCH  34  35
ENDBRANCH  33  34
ENDBRANCH  32  33
ENDBRANCH   1  32
TORSDOF 18
ENDMDL
