MODEL 1
REMARK VINA RESULT:     -14.5      0.000      0.000
REMARK SMILES Cc1ccc(S(=O)(=O)n2cc(C(=O)C(=O)N[C@@H](Cc3c[nH]c4ccccc34)C(=O)OCCOC(=O)c3ccc(-c4c5nc(c(-c6c(F)c(F)c(F)c(F)c6F)c6ccc([nH]6)c(-c6c(F)c(F)c(F)c(F)c6F)c6nc(c(-c7c(F)c(F)c(F)c(F)c7F)c7ccc4[nH]7)C=C6)C=C5)cc3)c3ccccc32)cc1
REMARK SMILES IDX 30 1 28 2 29 3 17 4 16 5 14 6 15 7 12 9 13 10 11 11 9 12
REMARK SMILES IDX 10 13 104 14 99 15 103 16 100 17 102 18 101 19 6 20 7 21
REMARK SMILES IDX 8 22 5 23 1 24 2 25 3 26 106 27 4 28 105 29 18 30 19 31
REMARK SMILES IDX 20 32 27 33 21 34 22 35 26 36 23 38 25 39 24 40 31 41 32 42
REMARK SMILES IDX 33 43 34 44 35 45 36 46 37 47 98 48 38 49 97 50 39 51 40 52
REMARK SMILES IDX 41 53 91 54 42 55 96 56 90 57 92 58 43 59 95 60 89 61 88 62
REMARK SMILES IDX 44 64 76 65 56 66 75 67 57 68 60 69 74 70 93 71 58 72 59 73
REMARK SMILES IDX 73 75 94 76 61 77 45 78 46 79 54 80 47 81 48 82 52 83 55 84
REMARK SMILES IDX 49 85 50 86 53 87 51 88 77 89 78 90 86 91 79 92 80 93 84 94
REMARK SMILES IDX 87 95 81 96 82 97 85 98 83 99 62 100 63 101 71 102 64 103
REMARK SMILES IDX 65 104 69 105 72 106 66 107 67 108 70 109 68 110
REMARK H PARENT 16 8 21 37 92 63 60 74
REMARK Flexibility Score: inf
ROOT
ATOM      1  O   UNL A   1      33.004  28.953  26.085  1.00  0.00    -0.461 OA
ENDROOT
BRANCH   1   2
ATOM      2  C   UNL A   1      32.089  28.111  26.645  1.00  0.00     0.329 C 
ATOM      3  O   UNL A   1      31.350  28.434  27.567  1.00  0.00    -0.250 OA
BRANCH   2   4
ATOM      4  C   UNL A   1      31.977  26.777  25.882  1.00  0.00     0.197 C 
BRANCH   4   5
ATOM      5  N   UNL A   1      31.097  25.786  26.563  1.00  0.00    -0.335 N 
ATOM      6  C   UNL A   1      30.879  24.426  26.334  1.00  0.00     0.293 C 
ATOM      7  O   UNL A   1      30.117  23.798  27.063  1.00  0.00    -0.265 OA
ATOM      8  H   UNL A   1      30.576  26.156  27.311  1.00  0.00     0.164 HD
BRANCH   6   9
ATOM      9  C   UNL A   1      31.550  23.714  25.154  1.00  0.00     0.252 C 
ATOM     10  O   UNL A   1      30.792  23.363  24.245  1.00  0.00    -0.283 OA
BRANCH   9  11
ATOM     11  C   UNL A   1      32.964  23.300  25.042  1.00  0.00     0.054 A 
ATOM     12  N   UNL A   1      35.117  22.832  25.498  1.00  0.00    -0.240 N 
ATOM     13  C   UNL A   1      34.214  23.887  25.304  1.00  0.00     0.117 A 
ATOM     14  C   UNL A   1      34.400  21.630  25.373  1.00  0.00     0.065 A 
ATOM     15  C   UNL A   1      33.274  21.965  24.643  1.00  0.00     0.012 A 
ATOM     16  C   UNL A   1      34.789  20.288  25.550  1.00  0.00     0.028 A 
ATOM     17  C   UNL A   1      32.649  20.969  23.865  1.00  0.00     0.011 A 
ATOM     18  C   UNL A   1      34.215  19.336  24.713  1.00  0.00     0.002 A 
ATOM     19  C   UNL A   1      33.194  19.683  23.839  1.00  0.00     0.001 A 
BRANCH  12  20
ATOM     20  S   UNL A   1      36.744  22.604  24.973  1.00  0.00     0.268 S 
ATOM     21  O   UNL A   1      37.369  23.870  25.329  1.00  0.00    -0.201 OA
ATOM     22  O   UNL A   1      36.522  22.244  23.575  1.00  0.00    -0.201 OA
BRANCH  20  23
ATOM     23  C   UNL A   1      37.957  21.418  25.386  1.00  0.00     0.088 A 
ATOM     24  C   UNL A   1      41.700  19.527  26.410  1.00  0.00     0.044 C 
ATOM     25  C   UNL A   1      40.358  20.125  26.101  1.00  0.00    -0.051 A 
ATOM     26  C   UNL A   1      40.165  21.444  26.475  1.00  0.00     0.005 A 
ATOM     27  C   UNL A   1      39.325  19.448  25.411  1.00  0.00     0.005 A 
ATOM     28  C   UNL A   1      38.980  22.063  26.137  1.00  0.00     0.022 A 
ATOM     29  C   UNL A   1      38.112  20.091  25.040  1.00  0.00     0.022 A 
ENDBRANCH  20  23
ENDBRANCH  12  20
ENDBRANCH   9  11
ENDBRANCH   6   9
ENDBRANCH   4   5
BRANCH   4  30
ATOM     30  C   UNL A   1      31.622  27.037  24.394  1.00  0.00     0.074 C 
BRANCH  30  31
ATOM     31  C   UNL A   1      30.154  27.279  24.194  1.00  0.00    -0.020 A 
ATOM     32  C   UNL A   1      29.166  26.322  24.060  1.00  0.00     0.087 A 
ATOM     33  C   UNL A   1      29.558  28.521  23.852  1.00  0.00     0.003 A 
ATOM     34  N   UNL A   1      28.038  26.915  23.570  1.00  0.00    -0.361 N 
ATOM     35  C   UNL A   1      28.283  28.248  23.356  1.00  0.00     0.046 A 
ATOM     36  C   UNL A   1      30.048  29.835  23.796  1.00  0.00     0.010 A 
ATOM     37  H   UNL A   1      27.183  26.459  23.396  1.00  0.00     0.166 HD
ATOM     38  C   UNL A   1      27.496  29.217  22.733  1.00  0.00     0.026 A 
ATOM     39  C   UNL A   1      29.278  30.816  23.173  1.00  0.00     0.001 A 
ATOM     40  C   UNL A   1      28.032  30.505  22.633  1.00  0.00     0.002 A 
ENDBRANCH  30  31
ENDBRANCH   4  30
ENDBRANCH   2   4
ENDBRANCH   1   2
BRANCH   1  41
ATOM     41  C   UNL A   1      32.803  30.335  26.399  1.00  0.00     0.274 C 
BRANCH  41  42
ATOM     42  C   UNL A   1      33.726  30.791  27.534  1.00  0.00     0.275 C 
BRANCH  42  43
ATOM     43  O   UNL A   1      35.145  30.439  27.556  1.00  0.00    -0.458 OA
BRANCH  43  44
ATOM     44  C   UNL A   1      36.128  31.214  28.087  1.00  0.00     0.338 C 
ATOM     45  O   UNL A   1      36.153  32.425  28.006  1.00  0.00    -0.246 OA
BRANCH  44  46
ATOM     46  C   UNL A   1      37.220  30.430  28.719  1.00  0.00     0.060 A 
ATOM     47  C   UNL A   1      37.095  29.037  28.896  1.00  0.00     0.016 A 
ATOM     48  C   UNL A   1      38.440  31.050  28.923  1.00  0.00     0.016 A 
ATOM     49  C   UNL A   1      38.236  28.239  29.089  1.00  0.00     0.010 A 
ATOM     50  C   UNL A   1      39.560  30.262  28.961  1.00  0.00     0.010 A 
ATOM     51  C   UNL A   1      39.484  28.855  29.062  1.00  0.00    -0.014 A 
BRANCH  51  52
ATOM     52  C   UNL A   1      40.807  28.261  29.289  1.00  0.00     0.031 A 
ATOM     53  C   UNL A   1      41.337  27.073  28.568  1.00  0.00     0.074 A 
ATOM     54  C   UNL A   1      41.604  29.121  29.961  1.00  0.00     0.049 A 
ATOM     55  N   UNL A   1      42.496  27.036  27.981  1.00  0.00    -0.248 NA
ATOM     56  C   UNL A   1      40.603  25.805  28.469  1.00  0.00     0.031 C 
ATOM     57  C   UNL A   1      43.043  29.196  30.087  1.00  0.00     0.029 A 
ATOM     58  N   UNL A   1      41.145  30.155  30.797  1.00  0.00    -0.354 N 
ATOM     59  C   UNL A   1      42.724  25.741  27.547  1.00  0.00     0.074 A 
ATOM     60  C   UNL A   1      41.479  25.026  27.815  1.00  0.00     0.031 C 
ATOM     61  C   UNL A   1      43.336  29.939  31.173  1.00  0.00     0.029 A 
ATOM     62  C   UNL A   1      42.073  30.248  31.836  1.00  0.00     0.049 A 
ATOM     63  H   UNL A   1      40.335  30.702  30.676  1.00  0.00     0.167 HD
ATOM     64  C   UNL A   1      43.937  25.148  27.757  1.00  0.00     0.037 A 
ATOM     65  C   UNL A   1      41.671  29.796  33.062  1.00  0.00     0.037 A 
ATOM     66  C   UNL A   1      44.603  25.720  28.897  1.00  0.00     0.049 A 
ATOM     67  C   UNL A   1      42.470  28.574  33.417  1.00  0.00     0.074 A 
ATOM     68  C   UNL A   1      45.471  26.778  29.072  1.00  0.00     0.029 A 
ATOM     69  N   UNL A   1      44.184  25.311  30.148  1.00  0.00    -0.354 N 
ATOM     70  N   UNL A   1      42.812  27.640  32.568  1.00  0.00    -0.248 NA
ATOM     71  C   UNL A   1      43.074  28.417  34.734  1.00  0.00     0.031 C 
ATOM     72  C   UNL A   1      45.523  27.047  30.465  1.00  0.00     0.029 A 
ATOM     73  C   UNL A   1      44.707  26.133  31.117  1.00  0.00     0.049 A 
ATOM     74  H   UNL A   1      43.595  24.541  30.321  1.00  0.00     0.167 HD
ATOM     75  C   UNL A   1      43.748  26.842  33.173  1.00  0.00     0.074 A 
ATOM     76  C   UNL A   1      43.850  27.343  34.531  1.00  0.00     0.031 C 
ATOM     77  C   UNL A   1      44.460  25.878  32.521  1.00  0.00     0.037 A 
BRANCH  64  78
ATOM     78  C   UNL A   1      44.629  24.320  26.702  1.00  0.00     0.064 A 
ATOM     79  C   UNL A   1      44.329  22.942  26.565  1.00  0.00     0.173 A 
ATOM     80  C   UNL A   1      45.652  24.799  25.864  1.00  0.00     0.173 A 
ATOM     81  F   UNL A   1      43.352  22.366  27.277  1.00  0.00    -0.203 F 
ATOM     82  C   UNL A   1      45.044  22.099  25.710  1.00  0.00     0.198 A 
ATOM     83  C   UNL A   1      46.353  23.953  24.991  1.00  0.00     0.198 A 
ATOM     84  F   UNL A   1      46.007  26.092  25.877  1.00  0.00    -0.203 F 
ATOM     85  F   UNL A   1      44.752  20.791  25.668  1.00  0.00    -0.200 F 
ATOM     86  C   UNL A   1      46.062  22.602  24.929  1.00  0.00     0.200 A 
ATOM     87  F   UNL A   1      47.332  24.452  24.221  1.00  0.00    -0.200 F 
ATOM     88  F   UNL A   1      46.763  21.789  24.126  1.00  0.00    -0.200 F 
ENDBRANCH  64  78
BRANCH  65  89
ATOM     89  C   UNL A   1      40.200  30.004  33.290  1.00  0.00     0.064 A 
ATOM     90  C   UNL A   1      39.771  31.319  33.593  1.00  0.00     0.173 A 
ATOM     91  C   UNL A   1      39.220  29.110  32.839  1.00  0.00     0.173 A 
ATOM     92  F   UNL A   1      40.661  32.226  34.031  1.00  0.00    -0.203 F 
ATOM     93  C   UNL A   1      38.478  31.755  33.306  1.00  0.00     0.198 A 
ATOM     94  C   UNL A   1      37.909  29.543  32.592  1.00  0.00     0.198 A 
ATOM     95  F   UNL A   1      39.540  27.843  32.539  1.00  0.00    -0.203 F 
ATOM     96  F   UNL A   1      38.159  33.049  33.461  1.00  0.00    -0.200 F 
ATOM     97  C   UNL A   1      37.553  30.871  32.783  1.00  0.00     0.200 A 
ATOM     98  F   UNL A   1      37.008  28.691  32.081  1.00  0.00    -0.200 F 
ATOM     99  F   UNL A   1      36.335  31.306  32.426  1.00  0.00    -0.200 F 
ENDBRANCH  65  89
BRANCH  77 100
ATOM    100  C   UNL A   1      45.115  24.696  33.193  1.00  0.00     0.064 A 
ATOM    101  C   UNL A   1      46.440  24.720  33.662  1.00  0.00     0.173 A 
ATOM    102  C   UNL A   1      44.373  23.542  33.545  1.00  0.00     0.173 A 
ATOM    103  F   UNL A   1      47.200  25.819  33.561  1.00  0.00    -0.203 F 
ATOM    104  C   UNL A   1      47.017  23.633  34.316  1.00  0.00     0.198 A 
ATOM    105  C   UNL A   1      44.932  22.486  34.263  1.00  0.00     0.198 A 
ATOM    106  F   UNL A   1      43.071  23.418  33.251  1.00  0.00    -0.203 F 
ATOM    107  F   UNL A   1      48.305  23.691  34.678  1.00  0.00    -0.200 F 
ATOM    108  C   UNL A   1      46.263  22.519  34.622  1.00  0.00     0.200 A 
ATOM    109  F   UNL A   1      44.164  21.451  34.630  1.00  0.00    -0.200 F 
ATOM    110  F   UNL A   1      46.809  21.495  35.291  1.00  0.00    -0.200 F 
ENDBRANCH  77 100
ENDBRANCH  51  52
ENDBRANCH  44  46
ENDBRANCH  43  44
ENDBRANCH  42  43
ENDBRANCH  41  42
ENDBRANCH   1  41
TORSDOF 18
ENDMDL
MODEL 2
REMARK VINA RESULT:     -14.4      1.889      2.567
REMARK SMILES Cc1ccc(S(=O)(=O)n2cc(C(=O)C(=O)N[C@@H](Cc3c[nH]c4ccccc34)C(=O)OCCOC(=O)c3ccc(-c4c5nc(c(-c6c(F)c(F)c(F)c(F)c6F)c6ccc([nH]6)c(-c6c(F)c(F)c(F)c(F)c6F)c6nc(c(-c7c(F)c(F)c(F)c(F)c7F)c7ccc4[nH]7)C=C6)C=C5)cc3)c3ccccc32)cc1
REMARK SMILES IDX 30 1 28 2 29 3 17 4 16 5 14 6 15 7 12 9 13 10 11 11 9 12
REMARK SMILES IDX 10 13 104 14 99 15 103 16 100 17 102 18 101 19 6 20 7 21
REMARK SMILES IDX 8 22 5 23 1 24 2 25 3 26 106 27 4 28 105 29 18 30 19 31
REMARK SMILES IDX 20 32 27 33 21 34 22 35 26 36 23 38 25 39 24 40 31 41 32 42
REMARK SMILES IDX 33 43 34 44 35 45 36 46 37 47 98 48 38 49 97 50 39 51 40 52
REMARK SMILES IDX 41 53 91 54 42 55 96 56 90 57 92 58 43 59 95 60 89 61 88 62
REMARK SMILES IDX 44 64 76 65 56 66 75 67 57 68 60 69 74 70 93 71 58 72 59 73
REMARK SMILES IDX 73 75 94 76 61 77 45 78 46 79 54 80 47 81 48 82 52 83 55 84
REMARK SMILES IDX 49 85 50 86 53 87 51 88 77 89 78 90 86 91 79 92 80 93 84 94
REMARK SMILES IDX 87 95 81 96 82 97 85 98 83 99 62 100 63 101 71 102 64 103
REMARK SMILES IDX 65 104 69 105 72 106 66 107 67 108 70 109 68 110
REMARK H PARENT 16 8 21 37 92 63 60 74
REMARK Flexibility Score: inf
ROOT
ATOM      1  O   UNL A   1      33.462  29.250  25.924  1.00  0.00    -0.461 OA
ENDROOT
BRANCH   1   2
ATOM      2  C   UNL A   1      33.007  27.972  25.786  1.00  0.00     0.329 C 
ATOM      3  O   UNL A   1      33.580  26.997  26.260  1.00  0.00    -0.250 OA
BRANCH   2   4
ATOM      4  C   UNL A   1      31.620  27.913  25.119  1.00  0.00     0.197 C 
BRANCH   4   5
ATOM      5  N   UNL A   1      30.676  26.993  25.814  1.00  0.00    -0.335 N 
ATOM      6  C   UNL A   1      30.410  25.634  25.643  1.00  0.00     0.293 C 
ATOM      7  O   UNL A   1      29.597  25.073  26.373  1.00  0.00    -0.265 OA
ATOM      8  H   UNL A   1      30.143  27.421  26.522  1.00  0.00     0.164 HD
BRANCH   6   9
ATOM      9  C   UNL A   1      31.093  24.836  24.526  1.00  0.00     0.252 C 
ATOM     10  O   UNL A   1      30.396  24.607  23.535  1.00  0.00    -0.283 OA
BRANCH   9  11
ATOM     11  C   UNL A   1      32.436  24.219  24.557  1.00  0.00     0.054 A 
ATOM     12  N   UNL A   1      34.662  23.900  24.598  1.00  0.00    -0.240 N 
ATOM     13  C   UNL A   1      33.599  24.285  23.770  1.00  0.00     0.117 A 
ATOM     14  C   UNL A   1      34.133  23.628  25.872  1.00  0.00     0.065 A 
ATOM     15  C   UNL A   1      32.792  23.373  25.650  1.00  0.00     0.012 A 
ATOM     16  C   UNL A   1      34.755  23.284  27.088  1.00  0.00     0.028 A 
ATOM     17  C   UNL A   1      32.101  22.540  26.554  1.00  0.00     0.011 A 
ATOM     18  C   UNL A   1      34.086  22.396  27.925  1.00  0.00     0.002 A 
ATOM     19  C   UNL A   1      32.794  21.983  27.633  1.00  0.00     0.001 A 
BRANCH  12  20
ATOM     20  S   UNL A   1      36.038  22.900  24.307  1.00  0.00     0.268 S 
ATOM     21  O   UNL A   1      36.572  23.455  23.072  1.00  0.00    -0.201 OA
ATOM     22  O   UNL A   1      35.414  21.580  24.329  1.00  0.00    -0.201 OA
BRANCH  20  23
ATOM     23  C   UNL A   1      37.465  22.560  25.255  1.00  0.00     0.088 A 
ATOM     24  C   UNL A   1      41.194  22.966  27.391  1.00  0.00     0.044 C 
ATOM     25  C   UNL A   1      39.874  22.763  26.704  1.00  0.00    -0.051 A 
ATOM     26  C   UNL A   1      39.046  23.870  26.613  1.00  0.00     0.005 A 
ATOM     27  C   UNL A   1      39.465  21.548  26.107  1.00  0.00     0.005 A 
ATOM     28  C   UNL A   1      37.861  23.755  25.917  1.00  0.00     0.022 A 
ATOM     29  C   UNL A   1      38.255  21.434  25.368  1.00  0.00     0.022 A 
ENDBRANCH  20  23
ENDBRANCH  12  20
ENDBRANCH   9  11
ENDBRANCH   6   9
ENDBRANCH   4   5
BRANCH   4  30
ATOM     30  C   UNL A   1      31.072  29.347  24.892  1.00  0.00     0.074 C 
BRANCH  30  31
ATOM     31  C   UNL A   1      30.527  29.535  23.506  1.00  0.00    -0.020 A 
ATOM     32  C   UNL A   1      31.120  29.143  22.321  1.00  0.00     0.087 A 
ATOM     33  C   UNL A   1      29.435  30.371  23.151  1.00  0.00     0.003 A 
ATOM     34  N   UNL A   1      30.494  29.773  21.283  1.00  0.00    -0.361 N 
ATOM     35  C   UNL A   1      29.513  30.595  21.777  1.00  0.00     0.046 A 
ATOM     36  C   UNL A   1      28.473  31.061  23.905  1.00  0.00     0.010 A 
ATOM     37  H   UNL A   1      30.713  29.657  20.330  1.00  0.00     0.166 HD
ATOM     38  C   UNL A   1      28.721  31.540  21.124  1.00  0.00     0.026 A 
ATOM     39  C   UNL A   1      27.676  32.012  23.272  1.00  0.00     0.001 A 
ATOM     40  C   UNL A   1      27.813  32.260  21.907  1.00  0.00     0.002 A 
ENDBRANCH  30  31
ENDBRANCH   4  30
ENDBRANCH   2   4
ENDBRANCH   1   2
BRANCH   1  41
ATOM     41  C   UNL A   1      33.432  29.745  27.266  1.00  0.00     0.274 C 
BRANCH  41  42
ATOM     42  C   UNL A   1      32.982  31.210  27.314  1.00  0.00     0.275 C 
BRANCH  42  43
ATOM     43  O   UNL A   1      33.879  32.273  27.762  1.00  0.00    -0.458 OA
BRANCH  43  44
ATOM     44  C   UNL A   1      34.517  32.294  28.963  1.00  0.00     0.338 C 
ATOM     45  O   UNL A   1      34.015  32.703  29.989  1.00  0.00    -0.246 OA
BRANCH  44  46
ATOM     46  C   UNL A   1      35.928  31.835  28.888  1.00  0.00     0.060 A 
ATOM     47  C   UNL A   1      36.985  32.766  28.823  1.00  0.00     0.016 A 
ATOM     48  C   UNL A   1      36.194  30.496  29.107  1.00  0.00     0.016 A 
ATOM     49  C   UNL A   1      38.292  32.383  29.170  1.00  0.00     0.010 A 
ATOM     50  C   UNL A   1      37.432  30.159  29.588  1.00  0.00     0.010 A 
ATOM     51  C   UNL A   1      38.502  31.080  29.613  1.00  0.00    -0.014 A 
BRANCH  51  52
ATOM     52  C   UNL A   1      39.765  30.428  29.978  1.00  0.00     0.031 A 
ATOM     53  C   UNL A   1      40.367  29.279  29.250  1.00  0.00     0.074 A 
ATOM     54  C   UNL A   1      40.477  31.210  30.820  1.00  0.00     0.049 A 
ATOM     55  N   UNL A   1      41.597  29.247  28.832  1.00  0.00    -0.248 NA
ATOM     56  C   UNL A   1      39.626  28.047  28.951  1.00  0.00     0.031 C 
ATOM     57  C   UNL A   1      41.884  31.228  31.154  1.00  0.00     0.029 A 
ATOM     58  N   UNL A   1      39.925  32.194  31.661  1.00  0.00    -0.354 N 
ATOM     59  C   UNL A   1      41.856  27.980  28.336  1.00  0.00     0.074 A 
ATOM     60  C   UNL A   1      40.570  27.290  28.369  1.00  0.00     0.031 C 
ATOM     61  C   UNL A   1      42.034  31.879  32.325  1.00  0.00     0.029 A 
ATOM     62  C   UNL A   1      40.696  32.180  32.824  1.00  0.00     0.049 A 
ATOM     63  H   UNL A   1      39.153  32.774  31.469  1.00  0.00     0.167 HD
ATOM     64  C   UNL A   1      43.013  27.334  28.669  1.00  0.00     0.037 A 
ATOM     65  C   UNL A   1      40.113  31.652  33.942  1.00  0.00     0.037 A 
ATOM     66  C   UNL A   1      43.522  27.799  29.931  1.00  0.00     0.049 A 
ATOM     67  C   UNL A   1      40.825  30.382  34.312  1.00  0.00     0.074 A 
ATOM     68  C   UNL A   1      44.378  28.812  30.309  1.00  0.00     0.029 A 
ATOM     69  N   UNL A   1      42.919  27.314  31.076  1.00  0.00    -0.354 N 
ATOM     70  N   UNL A   1      41.265  29.502  33.450  1.00  0.00    -0.248 NA
ATOM     71  C   UNL A   1      41.231  30.110  35.685  1.00  0.00     0.031 C 
ATOM     72  C   UNL A   1      44.236  28.977  31.712  1.00  0.00     0.029 A 
ATOM     73  C   UNL A   1      43.315  28.044  32.169  1.00  0.00     0.049 A 
ATOM     74  H   UNL A   1      42.294  26.553  31.103  1.00  0.00     0.167 HD
ATOM     75  C   UNL A   1      42.087  28.632  34.118  1.00  0.00     0.074 A 
ATOM     76  C   UNL A   1      42.004  29.029  35.511  1.00  0.00     0.031 C 
ATOM     77  C   UNL A   1      42.863  27.695  33.500  1.00  0.00     0.037 A 
BRANCH  64  78
ATOM     78  C   UNL A   1      43.831  26.563  27.661  1.00  0.00     0.064 A 
ATOM     79  C   UNL A   1      44.140  25.200  27.885  1.00  0.00     0.173 A 
ATOM     80  C   UNL A   1      44.409  27.130  26.511  1.00  0.00     0.173 A 
ATOM     81  F   UNL A   1      43.625  24.529  28.924  1.00  0.00    -0.203 F 
ATOM     82  C   UNL A   1      45.014  24.482  27.064  1.00  0.00     0.198 A 
ATOM     83  C   UNL A   1      45.270  26.400  25.677  1.00  0.00     0.198 A 
ATOM     84  F   UNL A   1      44.169  28.405  26.172  1.00  0.00    -0.203 F 
ATOM     85  F   UNL A   1      45.314  23.209  27.362  1.00  0.00    -0.200 F 
ATOM     86  C   UNL A   1      45.587  25.084  25.965  1.00  0.00     0.200 A 
ATOM     87  F   UNL A   1      45.811  26.987  24.599  1.00  0.00    -0.200 F 
ATOM     88  F   UNL A   1      46.443  24.403  25.190  1.00  0.00    -0.200 F 
ENDBRANCH  64  78
BRANCH  65  89
ATOM     89  C   UNL A   1      38.629  31.892  33.976  1.00  0.00     0.064 A 
ATOM     90  C   UNL A   1      38.189  33.183  34.357  1.00  0.00     0.173 A 
ATOM     91  C   UNL A   1      37.708  31.089  33.290  1.00  0.00     0.173 A 
ATOM     92  F   UNL A   1      39.024  34.003  35.019  1.00  0.00    -0.203 F 
ATOM     93  C   UNL A   1      36.963  33.696  33.936  1.00  0.00     0.198 A 
ATOM     94  C   UNL A   1      36.458  31.596  32.904  1.00  0.00     0.198 A 
ATOM     95  F   UNL A   1      38.040  29.851  32.900  1.00  0.00    -0.203 F 
ATOM     96  F   UNL A   1      36.654  34.977  34.186  1.00  0.00    -0.200 F 
ATOM     97  C   UNL A   1      36.107  32.910  33.189  1.00  0.00     0.200 A 
ATOM     98  F   UNL A   1      35.625  30.840  32.177  1.00  0.00    -0.200 F 
ATOM     99  F   UNL A   1      34.966  33.426  32.709  1.00  0.00    -0.200 F 
ENDBRANCH  65  89
BRANCH  77 100
ATOM    100  C   UNL A   1      43.389  26.446  34.165  1.00  0.00     0.064 A 
ATOM    101  C   UNL A   1      44.761  26.171  34.299  1.00  0.00     0.173 A 
ATOM    102  C   UNL A   1      42.526  25.555  34.848  1.00  0.00     0.173 A 
ATOM    103  F   UNL A   1      45.694  27.026  33.862  1.00  0.00    -0.203 F 
ATOM    104  C   UNL A   1      45.229  25.032  34.951  1.00  0.00     0.198 A 
ATOM    105  C   UNL A   1      43.002  24.455  35.561  1.00  0.00     0.198 A 
ATOM    106  F   UNL A   1      41.200  25.743  34.890  1.00  0.00    -0.203 F 
ATOM    107  F   UNL A   1      46.547  24.790  34.986  1.00  0.00    -0.200 F 
ATOM    108  C   UNL A   1      44.353  24.177  35.587  1.00  0.00     0.200 A 
ATOM    109  F   UNL A   1      42.146  23.686  36.246  1.00  0.00    -0.200 F 
ATOM    110  F   UNL A   1      44.811  23.108  36.251  1.00  0.00    -0.200 F 
ENDBRANCH  77 100
ENDBRANCH  51  52
ENDBRANCH  44  46
ENDBRANCH  43  44
ENDBRANCH  42  43
ENDBRANCH  41  42
ENDBRANCH   1  41
TORSDOF 18
ENDMDL
MODEL 3
REMARK VINA RESULT:     -14.3      3.789     10.267
REMARK SMILES Cc1ccc(S(=O)(=O)n2cc(C(=O)C(=O)N[C@@H](Cc3c[nH]c4ccccc34)C(=O)OCCOC(=O)c3ccc(-c4c5nc(c(-c6c(F)c(F)c(F)c(F)c6F)c6ccc([nH]6)c(-c6c(F)c(F)c(F)c(F)c6F)c6nc(c(-c7c(F)c(F)c(F)c(F)c7F)c7ccc4[nH]7)C=C6)C=C5)cc3)c3ccccc32)cc1
REMARK SMILES IDX 30 1 28 2 29 3 17 4 16 5 14 6 15 7 12 9 13 10 11 11 9 12
REMARK SMILES IDX 10 13 104 14 99 15 103 16 100 17 102 18 101 19 6 20 7 21
REMARK SMILES IDX 8 22 5 23 1 24 2 25 3 26 106 27 4 28 105 29 18 30 19 31
REMARK SMILES IDX 20 32 27 33 21 34 22 35 26 36 23 38 25 39 24 40 31 41 32 42
REMARK SMILES IDX 33 43 34 44 35 45 36 46 37 47 98 48 38 49 97 50 39 51 40 52
REMARK SMILES IDX 41 53 91 54 42 55 96 56 90 57 92 58 43 59 95 60 89 61 88 62
REMARK SMILES IDX 44 64 76 65 56 66 75 67 57 68 60 69 74 70 93 71 58 72 59 73
REMARK SMILES IDX 73 75 94 76 61 77 45 78 46 79 54 80 47 81 48 82 52 83 55 84
REMARK SMILES IDX 49 85 50 86 53 87 51 88 77 89 78 90 86 91 79 92 80 93 84 94
REMARK SMILES IDX 87 95 81 96 82 97 85 98 83 99 62 100 63 101 71 102 64 103
REMARK SMILES IDX 65 104 69 105 72 106 66 107 67 108 70 109 68 110
REMARK H PARENT 16 8 21 37 92 63 60 74
REMARK Flexibility Score: inf
ROOT
ATOM      1  O   UNL A   1      36.797  22.714  24.230  1.00  0.00    -0.461 OA
ENDROOT
BRANCH   1   2
ATOM      2  C   UNL A   1      35.558  23.067  23.783  1.00  0.00     0.329 C 
ATOM      3  O   UNL A   1      35.367  23.930  22.934  1.00  0.00    -0.250 OA
BRANCH   2   4
ATOM      4  C   UNL A   1      34.452  22.150  24.339  1.00  0.00     0.197 C 
BRANCH   4   5
ATOM      5  N   UNL A   1      33.291  22.009  23.416  1.00  0.00    -0.335 N 
ATOM      6  C   UNL A   1      31.963  22.427  23.524  1.00  0.00     0.293 C 
ATOM      7  O   UNL A   1      31.181  22.223  22.599  1.00  0.00    -0.265 OA
ATOM      8  H   UNL A   1      33.496  21.536  22.578  1.00  0.00     0.164 HD
BRANCH   6   9
ATOM      9  C   UNL A   1      31.458  23.106  24.802  1.00  0.00     0.252 C 
ATOM     10  O   UNL A   1      30.678  22.437  25.485  1.00  0.00    -0.283 OA
BRANCH   9  11
ATOM     11  C   UNL A   1      31.703  24.497  25.237  1.00  0.00     0.054 A 
ATOM     12  N   UNL A   1      32.515  26.320  26.274  1.00  0.00    -0.240 N 
ATOM     13  C   UNL A   1      31.709  25.189  26.460  1.00  0.00     0.117 A 
ATOM     14  C   UNL A   1      33.000  26.285  24.955  1.00  0.00     0.065 A 
ATOM     15  C   UNL A   1      32.115  25.468  24.275  1.00  0.00     0.012 A 
ATOM     16  C   UNL A   1      33.904  27.120  24.270  1.00  0.00     0.028 A 
ATOM     17  C   UNL A   1      31.949  25.655  22.887  1.00  0.00     0.011 A 
ATOM     18  C   UNL A   1      33.669  27.351  22.918  1.00  0.00     0.002 A 
ATOM     19  C   UNL A   1      32.666  26.668  22.246  1.00  0.00     0.001 A 
BRANCH  12  20
ATOM     20  S   UNL A   1      32.332  27.956  26.790  1.00  0.00     0.268 S 
ATOM     21  O   UNL A   1      31.477  27.822  27.962  1.00  0.00    -0.201 OA
ATOM     22  O   UNL A   1      31.830  28.566  25.562  1.00  0.00    -0.201 OA
BRANCH  20  23
ATOM     23  C   UNL A   1      33.488  29.176  27.264  1.00  0.00     0.088 A 
ATOM     24  C   UNL A   1      35.499  32.950  27.852  1.00  0.00     0.044 C 
ATOM     25  C   UNL A   1      34.833  31.610  27.723  1.00  0.00    -0.051 A 
ATOM     26  C   UNL A   1      33.452  31.611  27.621  1.00  0.00     0.005 A 
ATOM     27  C   UNL A   1      35.528  30.381  27.641  1.00  0.00     0.005 A 
ATOM     28  C   UNL A   1      32.801  30.413  27.415  1.00  0.00     0.022 A 
ATOM     29  C   UNL A   1      34.861  29.147  27.404  1.00  0.00     0.022 A 
ENDBRANCH  20  23
ENDBRANCH  12  20
ENDBRANCH   9  11
ENDBRANCH   6   9
ENDBRANCH   4   5
BRANCH   4  30
ATOM     30  C   UNL A   1      35.060  20.805  24.818  1.00  0.00     0.074 C 
BRANCH  30  31
ATOM     31  C   UNL A   1      34.009  19.835  25.274  1.00  0.00    -0.020 A 
ATOM     32  C   UNL A   1      33.258  19.909  26.431  1.00  0.00     0.087 A 
ATOM     33  C   UNL A   1      33.781  18.544  24.730  1.00  0.00     0.003 A 
ATOM     34  N   UNL A   1      32.665  18.699  26.653  1.00  0.00    -0.361 N 
ATOM     35  C   UNL A   1      33.040  17.823  25.667  1.00  0.00     0.046 A 
ATOM     36  C   UNL A   1      34.259  17.890  23.584  1.00  0.00     0.010 A 
ATOM     37  H   UNL A   1      32.063  18.488  27.403  1.00  0.00     0.166 HD
ATOM     38  C   UNL A   1      32.816  16.451  25.551  1.00  0.00     0.026 A 
ATOM     39  C   UNL A   1      34.048  16.519  23.453  1.00  0.00     0.001 A 
ATOM     40  C   UNL A   1      33.355  15.809  24.432  1.00  0.00     0.002 A 
ENDBRANCH  30  31
ENDBRANCH   4  30
ENDBRANCH   2   4
ENDBRANCH   1   2
BRANCH   1  41
ATOM     41  C   UNL A   1      37.311  23.556  25.267  1.00  0.00     0.274 C 
BRANCH  41  42
ATOM     42  C   UNL A   1      38.469  22.884  26.014  1.00  0.00     0.275 C 
BRANCH  42  43
ATOM     43  O   UNL A   1      39.054  23.478  27.214  1.00  0.00    -0.458 OA
BRANCH  43  44
ATOM     44  C   UNL A   1      40.383  23.700  27.400  1.00  0.00     0.338 C 
ATOM     45  O   UNL A   1      41.213  22.817  27.472  1.00  0.00    -0.246 OA
BRANCH  44  46
ATOM     46  C   UNL A   1      40.720  25.134  27.585  1.00  0.00     0.060 A 
ATOM     47  C   UNL A   1      39.916  26.142  27.014  1.00  0.00     0.016 A 
ATOM     48  C   UNL A   1      41.700  25.465  28.504  1.00  0.00     0.016 A 
ATOM     49  C   UNL A   1      39.964  27.456  27.509  1.00  0.00     0.010 A 
ATOM     50  C   UNL A   1      41.640  26.704  29.086  1.00  0.00     0.010 A 
ATOM     51  C   UNL A   1      40.793  27.722  28.595  1.00  0.00    -0.014 A 
BRANCH  51  52
ATOM     52  C   UNL A   1      41.059  29.007  29.254  1.00  0.00     0.031 A 
ATOM     53  C   UNL A   1      40.011  29.927  29.771  1.00  0.00     0.074 A 
ATOM     54  C   UNL A   1      42.350  29.080  29.646  1.00  0.00     0.049 A 
ATOM     55  N   UNL A   1      40.004  30.417  30.974  1.00  0.00    -0.248 NA
ATOM     56  C   UNL A   1      38.884  30.393  28.954  1.00  0.00     0.031 C 
ATOM     57  C   UNL A   1      43.007  29.906  30.634  1.00  0.00     0.029 A 
ATOM     58  N   UNL A   1      43.408  28.355  29.066  1.00  0.00    -0.354 N 
ATOM     59  C   UNL A   1      38.977  31.343  31.061  1.00  0.00     0.074 A 
ATOM     60  C   UNL A   1      38.263  31.238  29.792  1.00  0.00     0.031 C 
ATOM     61  C   UNL A   1      44.328  29.919  30.366  1.00  0.00     0.029 A 
ATOM     62  C   UNL A   1      44.520  29.196  29.113  1.00  0.00     0.049 A 
ATOM     63  H   UNL A   1      43.371  27.441  28.700  1.00  0.00     0.167 HD
ATOM     64  C   UNL A   1      39.193  32.557  31.652  1.00  0.00     0.037 A 
ATOM     65  C   UNL A   1      44.938  29.731  27.927  1.00  0.00     0.037 A 
ATOM     66  C   UNL A   1      40.579  32.931  31.576  1.00  0.00     0.049 A 
ATOM     67  C   UNL A   1      44.710  31.216  27.953  1.00  0.00     0.074 A 
ATOM     68  C   UNL A   1      41.678  32.723  32.385  1.00  0.00     0.029 A 
ATOM     69  N   UNL A   1      41.036  33.433  30.372  1.00  0.00    -0.354 N 
ATOM     70  N   UNL A   1      43.664  31.795  28.483  1.00  0.00    -0.248 NA
ATOM     71  C   UNL A   1      45.742  32.151  27.522  1.00  0.00     0.031 C 
ATOM     72  C   UNL A   1      42.827  33.053  31.619  1.00  0.00     0.029 A 
ATOM     73  C   UNL A   1      42.409  33.481  30.367  1.00  0.00     0.049 A 
ATOM     74  H   UNL A   1      40.460  33.716  29.625  1.00  0.00     0.167 HD
ATOM     75  C   UNL A   1      43.924  33.139  28.567  1.00  0.00     0.074 A 
ATOM     76  C   UNL A   1      45.212  33.315  27.923  1.00  0.00     0.031 C 
ATOM     77  C   UNL A   1      43.130  34.025  29.234  1.00  0.00     0.037 A 
BRANCH  64  78
ATOM     78  C   UNL A   1      38.198  33.188  32.595  1.00  0.00     0.064 A 
ATOM     79  C   UNL A   1      38.188  32.833  33.965  1.00  0.00     0.173 A 
ATOM     80  C   UNL A   1      37.180  34.073  32.195  1.00  0.00     0.173 A 
ATOM     81  F   UNL A   1      39.124  32.027  34.484  1.00  0.00    -0.203 F 
ATOM     82  C   UNL A   1      37.198  33.271  34.849  1.00  0.00     0.198 A 
ATOM     83  C   UNL A   1      36.199  34.529  33.090  1.00  0.00     0.198 A 
ATOM     84  F   UNL A   1      37.099  34.508  30.930  1.00  0.00    -0.203 F 
ATOM     85  F   UNL A   1      37.210  32.853  36.123  1.00  0.00    -0.200 F 
ATOM     86  C   UNL A   1      36.198  34.112  34.410  1.00  0.00     0.200 A 
ATOM     87  F   UNL A   1      35.238  35.360  32.661  1.00  0.00    -0.200 F 
ATOM     88  F   UNL A   1      35.235  34.514  35.252  1.00  0.00    -0.200 F 
ENDBRANCH  64  78
BRANCH  65  89
ATOM     89  C   UNL A   1      44.691  28.805  26.768  1.00  0.00     0.064 A 
ATOM     90  C   UNL A   1      45.614  27.748  26.575  1.00  0.00     0.173 A 
ATOM     91  C   UNL A   1      43.444  28.675  26.144  1.00  0.00     0.173 A 
ATOM     92  F   UNL A   1      46.829  27.812  27.145  1.00  0.00    -0.203 F 
ATOM     93  C   UNL A   1      45.252  26.565  25.934  1.00  0.00     0.198 A 
ATOM     94  C   UNL A   1      43.099  27.497  25.464  1.00  0.00     0.198 A 
ATOM     95  F   UNL A   1      42.516  29.633  26.269  1.00  0.00    -0.203 F 
ATOM     96  F   UNL A   1      46.105  25.529  25.911  1.00  0.00    -0.200 F 
ATOM     97  C   UNL A   1      43.985  26.430  25.399  1.00  0.00     0.200 A 
ATOM     98  F   UNL A   1      41.870  27.359  24.946  1.00  0.00    -0.200 F 
ATOM     99  F   UNL A   1      43.604  25.263  24.858  1.00  0.00    -0.200 F 
ENDBRANCH  65  89
BRANCH  77 100
ATOM    100  C   UNL A   1      43.093  35.510  28.967  1.00  0.00     0.064 A 
ATOM    101  C   UNL A   1      42.310  36.086  27.952  1.00  0.00     0.173 A 
ATOM    102  C   UNL A   1      43.720  36.432  29.841  1.00  0.00     0.173 A 
ATOM    103  F   UNL A   1      41.518  35.341  27.169  1.00  0.00    -0.203 F 
ATOM    104  C   UNL A   1      42.257  37.463  27.746  1.00  0.00     0.198 A 
ATOM    105  C   UNL A   1      43.607  37.812  29.675  1.00  0.00     0.198 A 
ATOM    106  F   UNL A   1      44.422  36.032  30.910  1.00  0.00    -0.203 F 
ATOM    107  F   UNL A   1      41.546  37.947  26.718  1.00  0.00    -0.200 F 
ATOM    108  C   UNL A   1      42.899  38.326  28.608  1.00  0.00     0.200 A 
ATOM    109  F   UNL A   1      44.163  38.637  30.571  1.00  0.00    -0.200 F 
ATOM    110  F   UNL A   1      42.809  39.651  28.433  1.00  0.00    -0.200 F 
ENDBRANCH  77 100
ENDBRANCH  51  52
ENDBRANCH  44  46
ENDBRANCH  43  44
ENDBRANCH  42  43
ENDBRANCH  41  42
ENDBRANCH   1  41
TORSDOF 18
ENDMDL
