MODEL 1
REMARK VINA RESULT:     -11.4      0.000      0.000
REMARK SMILES CC(C)CCN(C(=O)N[C@H](C(=O)OCCOC(=O)c1ccc(-c2c3nc(c(-c4c(F)c(F)c(F)c(F)c4F)c4ccc([nH]4)c(-c4c(F)c(F)c(F)c(F)c4F)c4nc(c(-c5c(F)c(F)c(F)c(F)c5F)c5ccc2[nH]5)C=C4)C=C3)cc1)[C@H](C)O)C1CCCC1
REMARK SMILES IDX 13 1 11 2 12 3 10 4 9 5 7 6 8 7 6 9 5 10 4 11 2 12 1 13 3 14
REMARK SMILES IDX 85 15 86 16 89 17 87 18 88 19 82 20 83 21 84 22 14 24 15 25
REMARK SMILES IDX 16 26 17 27 18 28 19 29 20 30 81 31 21 32 80 33 22 34 23 35
REMARK SMILES IDX 24 36 74 37 25 38 79 39 73 40 75 41 26 42 78 43 72 44 71 45
REMARK SMILES IDX 27 47 59 48 39 49 58 50 40 51 43 52 57 53 76 54 41 55 42 56
REMARK SMILES IDX 56 58 77 59 44 60 28 61 29 62 37 63 30 64 31 65 35 66 38 67
REMARK SMILES IDX 32 68 33 69 36 70 34 71 60 72 61 73 69 74 62 75 63 76 67 77
REMARK SMILES IDX 70 78 64 79 65 80 68 81 66 82 45 83 46 84 54 85 47 86 48 87
REMARK SMILES IDX 52 88 55 89 49 90 50 91 53 92 51 93
REMARK H PARENT 9 8 84 23 75 46 43 57
REMARK Flexibility Score: inf
ROOT
ATOM      1  O   UNL A   1      32.286  27.411  25.327  1.00  0.00    -0.460 OA
ENDROOT
BRANCH   1   2
ATOM      2  C   UNL A   1      31.748  26.505  26.190  1.00  0.00     0.331 C 
ATOM      3  O   UNL A   1      31.251  26.771  27.278  1.00  0.00    -0.250 OA
BRANCH   2   4
ATOM      4  C   UNL A   1      31.876  25.082  25.640  1.00  0.00     0.222 C 
BRANCH   4   5
ATOM      5  N   UNL A   1      32.066  24.197  26.790  1.00  0.00    -0.322 N 
ATOM      6  C   UNL A   1      32.645  23.029  27.080  1.00  0.00     0.318 C 
ATOM      7  O   UNL A   1      32.441  22.670  28.243  1.00  0.00    -0.249 OA
ATOM      8  H   UNL A   1      31.638  24.578  27.591  1.00  0.00     0.166 HD
BRANCH   6   9
ATOM      9  N   UNL A   1      33.392  22.301  26.198  1.00  0.00    -0.322 N 
BRANCH   9  10
ATOM     10  C   UNL A   1      34.853  22.284  26.070  1.00  0.00     0.122 C 
BRANCH  10  11
ATOM     11  C   UNL A   1      35.469  23.674  25.861  1.00  0.00     0.024 C 
BRANCH  11  12
ATOM     12  C   UNL A   1      36.796  23.702  25.078  1.00  0.00    -0.016 C 
ATOM     13  C   UNL A   1      38.003  23.383  25.962  1.00  0.00     0.007 C 
ATOM     14  C   UNL A   1      36.737  22.702  23.920  1.00  0.00     0.007 C 
ENDBRANCH  11  12
ENDBRANCH  10  11
ENDBRANCH   9  10
BRANCH   9  15
ATOM     15  C   UNL A   1      32.689  21.470  25.210  1.00  0.00     0.087 C 
ATOM     16  C   UNL A   1      32.939  21.799  23.737  1.00  0.00     0.025 C 
ATOM     17  C   UNL A   1      32.976  19.974  25.300  1.00  0.00     0.025 C 
ATOM     18  C   UNL A   1      32.377  20.585  23.002  1.00  0.00     0.002 C 
ATOM     19  C   UNL A   1      32.403  19.422  23.998  1.00  0.00     0.002 C 
ENDBRANCH   9  15
ENDBRANCH   6   9
ENDBRANCH   4   5
BRANCH   4  20
ATOM     20  C   UNL A   1      30.616  24.691  24.832  1.00  0.00     0.145 C 
ATOM     21  C   UNL A   1      30.777  24.768  23.312  1.00  0.00     0.041 C 
BRANCH  20  22
ATOM     22  O   UNL A   1      29.510  25.538  25.176  1.00  0.00    -0.391 OA
ATOM     23  H   UNL A   1      29.416  26.233  24.507  1.00  0.00     0.211 HD
ENDBRANCH  20  22
ENDBRANCH   4  20
ENDBRANCH   2   4
ENDBRANCH   1   2
BRANCH   1  24
ATOM     24  C   UNL A   1      31.442  28.504  24.911  1.00  0.00     0.274 C 
BRANCH  24  25
ATOM     25  C   UNL A   1      32.135  29.833  25.187  1.00  0.00     0.275 C 
BRANCH  25  26
ATOM     26  O   UNL A   1      32.404  29.926  26.598  1.00  0.00    -0.458 OA
BRANCH  26  27
ATOM     27  C   UNL A   1      32.924  31.097  27.021  1.00  0.00     0.338 C 
ATOM     28  O   UNL A   1      32.366  32.180  27.106  1.00  0.00    -0.246 OA
BRANCH  27  29
ATOM     29  C   UNL A   1      34.307  30.879  27.471  1.00  0.00     0.060 A 
ATOM     30  C   UNL A   1      34.753  29.575  27.674  1.00  0.00     0.016 A 
ATOM     31  C   UNL A   1      35.102  31.958  27.849  1.00  0.00     0.016 A 
ATOM     32  C   UNL A   1      35.932  29.346  28.378  1.00  0.00     0.010 A 
ATOM     33  C   UNL A   1      36.345  31.719  28.448  1.00  0.00     0.010 A 
ATOM     34  C   UNL A   1      36.753  30.411  28.772  1.00  0.00    -0.014 A 
BRANCH  34  35
ATOM     35  C   UNL A   1      37.976  30.169  29.594  1.00  0.00     0.031 A 
ATOM     36  C   UNL A   1      39.125  29.384  29.011  1.00  0.00     0.074 A 
ATOM     37  C   UNL A   1      38.105  30.670  30.840  1.00  0.00     0.049 A 
ATOM     38  N   UNL A   1      40.140  28.821  29.618  1.00  0.00    -0.248 NA
ATOM     39  C   UNL A   1      39.119  29.188  27.552  1.00  0.00     0.031 C 
ATOM     40  C   UNL A   1      37.132  31.521  31.526  1.00  0.00     0.029 A 
ATOM     41  N   UNL A   1      39.128  30.545  31.751  1.00  0.00    -0.354 N 
ATOM     42  C   UNL A   1      40.829  28.123  28.635  1.00  0.00     0.074 A 
ATOM     43  C   UNL A   1      40.141  28.360  27.385  1.00  0.00     0.031 C 
ATOM     44  C   UNL A   1      37.631  31.896  32.714  1.00  0.00     0.029 A 
ATOM     45  C   UNL A   1      38.904  31.218  32.928  1.00  0.00     0.049 A 
ATOM     46  H   UNL A   1      39.944  30.023  31.575  1.00  0.00     0.167 HD
ATOM     47  C   UNL A   1      41.928  27.342  28.772  1.00  0.00     0.037 A 
ATOM     48  C   UNL A   1      39.614  31.248  34.073  1.00  0.00     0.037 A 
ATOM     49  C   UNL A   1      42.674  27.197  29.994  1.00  0.00     0.049 A 
ATOM     50  C   UNL A   1      40.845  30.394  34.197  1.00  0.00     0.074 A 
ATOM     51  C   UNL A   1      43.791  26.420  30.240  1.00  0.00     0.029 A 
ATOM     52  N   UNL A   1      42.400  27.886  31.166  1.00  0.00    -0.354 N 
ATOM     53  N   UNL A   1      41.405  29.614  33.306  1.00  0.00    -0.248 NA
ATOM     54  C   UNL A   1      41.520  30.395  35.504  1.00  0.00     0.031 C 
ATOM     55  C   UNL A   1      44.191  26.630  31.565  1.00  0.00     0.029 A 
ATOM     56  C   UNL A   1      43.336  27.560  32.133  1.00  0.00     0.049 A 
ATOM     57  H   UNL A   1      41.652  28.513  31.291  1.00  0.00     0.167 HD
ATOM     58  C   UNL A   1      42.492  29.030  33.941  1.00  0.00     0.074 A 
ATOM     59  C   UNL A   1      42.533  29.569  35.284  1.00  0.00     0.031 C 
ATOM     60  C   UNL A   1      43.368  28.116  33.459  1.00  0.00     0.037 A 
BRANCH  47  61
ATOM     61  C   UNL A   1      42.366  26.541  27.584  1.00  0.00     0.064 A 
ATOM     62  C   UNL A   1      43.382  26.973  26.722  1.00  0.00     0.173 A 
ATOM     63  C   UNL A   1      41.784  25.286  27.338  1.00  0.00     0.173 A 
ATOM     64  F   UNL A   1      43.957  28.170  26.905  1.00  0.00    -0.203 F 
ATOM     65  C   UNL A   1      43.789  26.185  25.647  1.00  0.00     0.198 A 
ATOM     66  C   UNL A   1      42.209  24.491  26.279  1.00  0.00     0.198 A 
ATOM     67  F   UNL A   1      40.810  24.825  28.139  1.00  0.00    -0.203 F 
ATOM     68  F   UNL A   1      44.739  26.631  24.814  1.00  0.00    -0.200 F 
ATOM     69  C   UNL A   1      43.208  24.943  25.432  1.00  0.00     0.200 A 
ATOM     70  F   UNL A   1      41.655  23.288  26.080  1.00  0.00    -0.200 F 
ATOM     71  F   UNL A   1      43.610  24.183  24.404  1.00  0.00    -0.200 F 
ENDBRANCH  47  61
BRANCH  48  72
ATOM     72  C   UNL A   1      39.145  32.071  35.218  1.00  0.00     0.064 A 
ATOM     73  C   UNL A   1      39.451  33.437  35.292  1.00  0.00     0.173 A 
ATOM     74  C   UNL A   1      38.395  31.512  36.262  1.00  0.00     0.173 A 
ATOM     75  F   UNL A   1      40.194  34.010  34.335  1.00  0.00    -0.203 F 
ATOM     76  C   UNL A   1      39.029  34.209  36.373  1.00  0.00     0.198 A 
ATOM     77  C   UNL A   1      37.946  32.291  37.325  1.00  0.00     0.198 A 
ATOM     78  F   UNL A   1      38.082  30.208  36.241  1.00  0.00    -0.203 F 
ATOM     79  F   UNL A   1      39.371  35.503  36.443  1.00  0.00    -0.200 F 
ATOM     80  C   UNL A   1      38.271  33.638  37.384  1.00  0.00     0.200 A 
ATOM     81  F   UNL A   1      37.203  31.738  38.292  1.00  0.00    -0.200 F 
ATOM     82  F   UNL A   1      37.859  34.383  38.419  1.00  0.00    -0.200 F 
ENDBRANCH  48  72
BRANCH  60  83
ATOM     83  C   UNL A   1      44.457  27.663  34.382  1.00  0.00     0.064 A 
ATOM     84  C   UNL A   1      44.299  26.534  35.197  1.00  0.00     0.173 A 
ATOM     85  C   UNL A   1      45.681  28.346  34.427  1.00  0.00     0.173 A 
ATOM     86  F   UNL A   1      43.140  25.858  35.198  1.00  0.00    -0.203 F 
ATOM     87  C   UNL A   1      45.324  26.115  36.042  1.00  0.00     0.198 A 
ATOM     88  C   UNL A   1      46.709  27.914  35.259  1.00  0.00     0.198 A 
ATOM     89  F   UNL A   1      45.878  29.431  33.662  1.00  0.00    -0.203 F 
ATOM     90  F   UNL A   1      45.140  25.056  36.841  1.00  0.00    -0.200 F 
ATOM     91  C   UNL A   1      46.529  26.802  36.068  1.00  0.00     0.200 A 
ATOM     92  F   UNL A   1      47.875  28.575  35.278  1.00  0.00    -0.200 F 
ATOM     93  F   UNL A   1      47.514  26.397  36.881  1.00  0.00    -0.200 F 
ENDBRANCH  60  83
ENDBRANCH  34  35
ENDBRANCH  27  29
ENDBRANCH  26  27
ENDBRANCH  25  26
ENDBRANCH  24  25
ENDBRANCH   1  24
TORSDOF 19
ENDMDL
MODEL 2
REMARK VINA RESULT:     -11.0      4.209      9.593
REMARK SMILES CC(C)CCN(C(=O)N[C@H](C(=O)OCCOC(=O)c1ccc(-c2c3nc(c(-c4c(F)c(F)c(F)c(F)c4F)c4ccc([nH]4)c(-c4c(F)c(F)c(F)c(F)c4F)c4nc(c(-c5c(F)c(F)c(F)c(F)c5F)c5ccc2[nH]5)C=C4)C=C3)cc1)[C@H](C)O)C1CCCC1
REMARK SMILES IDX 13 1 11 2 12 3 10 4 9 5 7 6 8 7 6 9 5 10 4 11 2 12 1 13 3 14
REMARK SMILES IDX 85 15 86 16 89 17 87 18 88 19 82 20 83 21 84 22 14 24 15 25
REMARK SMILES IDX 16 26 17 27 18 28 19 29 20 30 81 31 21 32 80 33 22 34 23 35
REMARK SMILES IDX 24 36 74 37 25 38 79 39 73 40 75 41 26 42 78 43 72 44 71 45
REMARK SMILES IDX 27 47 59 48 39 49 58 50 40 51 43 52 57 53 76 54 41 55 42 56
REMARK SMILES IDX 56 58 77 59 44 60 28 61 29 62 37 63 30 64 31 65 35 66 38 67
REMARK SMILES IDX 32 68 33 69 36 70 34 71 60 72 61 73 69 74 62 75 63 76 67 77
REMARK SMILES IDX 70 78 64 79 65 80 68 81 66 82 45 83 46 84 54 85 47 86 48 87
REMARK SMILES IDX 52 88 55 89 49 90 50 91 53 92 51 93
REMARK H PARENT 9 8 84 23 75 46 43 57
REMARK Flexibility Score: inf
ROOT
ATOM      1  O   UNL A   1      34.323  22.329  24.672  1.00  0.00    -0.460 OA
ENDROOT
BRANCH   1   2
ATOM      2  C   UNL A   1      34.344  23.107  23.554  1.00  0.00     0.331 C 
ATOM      3  O   UNL A   1      35.319  23.289  22.835  1.00  0.00    -0.250 OA
BRANCH   2   4
ATOM      4  C   UNL A   1      32.983  23.769  23.323  1.00  0.00     0.222 C 
BRANCH   4   5
ATOM      5  N   UNL A   1      33.065  24.473  22.042  1.00  0.00    -0.322 N 
ATOM      6  C   UNL A   1      32.884  25.702  21.553  1.00  0.00     0.318 C 
ATOM      7  O   UNL A   1      33.015  25.752  20.327  1.00  0.00    -0.249 OA
ATOM      8  H   UNL A   1      33.333  23.852  21.326  1.00  0.00     0.166 HD
BRANCH   6   9
ATOM      9  N   UNL A   1      32.593  26.799  22.314  1.00  0.00    -0.322 N 
BRANCH   9  10
ATOM     10  C   UNL A   1      33.509  27.551  23.178  1.00  0.00     0.122 C 
BRANCH  10  11
ATOM     11  C   UNL A   1      33.494  27.091  24.641  1.00  0.00     0.024 C 
BRANCH  11  12
ATOM     12  C   UNL A   1      32.988  28.129  25.660  1.00  0.00    -0.016 C 
ATOM     13  C   UNL A   1      31.946  27.548  26.619  1.00  0.00     0.007 C 
ATOM     14  C   UNL A   1      34.167  28.682  26.468  1.00  0.00     0.007 C 
ENDBRANCH  11  12
ENDBRANCH  10  11
ENDBRANCH   9  10
BRANCH   9  15
ATOM     15  C   UNL A   1      31.203  27.276  22.345  1.00  0.00     0.087 C 
ATOM     16  C   UNL A   1      30.289  26.655  23.402  1.00  0.00     0.025 C 
ATOM     17  C   UNL A   1      31.039  28.778  22.562  1.00  0.00     0.025 C 
ATOM     18  C   UNL A   1      29.074  27.578  23.407  1.00  0.00     0.002 C 
ATOM     19  C   UNL A   1      29.553  28.931  22.875  1.00  0.00     0.002 C 
ENDBRANCH   9  15
ENDBRANCH   6   9
ENDBRANCH   4   5
BRANCH   4  20
ATOM     20  C   UNL A   1      31.853  22.712  23.313  1.00  0.00     0.145 C 
ATOM     21  C   UNL A   1      32.108  21.507  22.406  1.00  0.00     0.041 C 
BRANCH  20  22
ATOM     22  O   UNL A   1      30.615  23.298  22.888  1.00  0.00    -0.391 OA
ATOM     23  H   UNL A   1      29.878  22.734  23.171  1.00  0.00     0.211 HD
ENDBRANCH  20  22
ENDBRANCH   4  20
ENDBRANCH   2   4
ENDBRANCH   1   2
BRANCH   1  24
ATOM     24  C   UNL A   1      35.122  21.128  24.651  1.00  0.00     0.274 C 
BRANCH  24  25
ATOM     25  C   UNL A   1      36.184  21.189  25.742  1.00  0.00     0.275 C 
BRANCH  25  26
ATOM     26  O   UNL A   1      37.364  21.809  25.201  1.00  0.00    -0.458 OA
BRANCH  26  27
ATOM     27  C   UNL A   1      38.532  21.452  25.773  1.00  0.00     0.338 C 
ATOM     28  O   UNL A   1      39.105  20.376  25.700  1.00  0.00    -0.246 OA
BRANCH  27  29
ATOM     29  C   UNL A   1      39.106  22.611  26.472  1.00  0.00     0.060 A 
ATOM     30  C   UNL A   1      38.616  23.883  26.183  1.00  0.00     0.016 A 
ATOM     31  C   UNL A   1      40.230  22.461  27.279  1.00  0.00     0.016 A 
ATOM     32  C   UNL A   1      39.326  25.010  26.588  1.00  0.00     0.010 A 
ATOM     33  C   UNL A   1      40.870  23.599  27.785  1.00  0.00     0.010 A 
ATOM     34  C   UNL A   1      40.462  24.891  27.400  1.00  0.00    -0.014 A 
BRANCH  34  35
ATOM     35  C   UNL A   1      41.268  26.092  27.769  1.00  0.00     0.031 A 
ATOM     36  C   UNL A   1      40.678  27.135  28.686  1.00  0.00     0.074 A 
ATOM     37  C   UNL A   1      42.535  26.259  27.336  1.00  0.00     0.049 A 
ATOM     38  N   UNL A   1      41.070  28.364  28.909  1.00  0.00    -0.248 NA
ATOM     39  C   UNL A   1      39.472  26.749  29.438  1.00  0.00     0.031 C 
ATOM     40  C   UNL A   1      43.290  25.311  26.515  1.00  0.00     0.029 A 
ATOM     41  N   UNL A   1      43.421  27.289  27.545  1.00  0.00    -0.354 N 
ATOM     42  C   UNL A   1      40.108  28.925  29.738  1.00  0.00     0.074 A 
ATOM     43  C   UNL A   1      39.130  27.894  30.011  1.00  0.00     0.031 C 
ATOM     44  C   UNL A   1      44.540  25.769  26.348  1.00  0.00     0.029 A 
ATOM     45  C   UNL A   1      44.643  27.095  26.946  1.00  0.00     0.049 A 
ATOM     46  H   UNL A   1      43.201  28.089  28.075  1.00  0.00     0.167 HD
ATOM     47  C   UNL A   1      40.041  30.192  30.213  1.00  0.00     0.037 A 
ATOM     48  C   UNL A   1      45.710  27.911  26.842  1.00  0.00     0.037 A 
ATOM     49  C   UNL A   1      41.071  31.182  30.032  1.00  0.00     0.049 A 
ATOM     50  C   UNL A   1      45.628  29.306  27.397  1.00  0.00     0.074 A 
ATOM     51  C   UNL A   1      41.093  32.497  30.461  1.00  0.00     0.029 A 
ATOM     52  N   UNL A   1      42.283  30.945  29.404  1.00  0.00    -0.354 N 
ATOM     53  N   UNL A   1      44.648  29.879  28.049  1.00  0.00    -0.248 NA
ATOM     54  C   UNL A   1      46.788  30.179  27.166  1.00  0.00     0.031 C 
ATOM     55  C   UNL A   1      42.318  33.061  30.085  1.00  0.00     0.029 A 
ATOM     56  C   UNL A   1      43.067  32.087  29.446  1.00  0.00     0.049 A 
ATOM     57  H   UNL A   1      42.550  30.092  28.990  1.00  0.00     0.167 HD
ATOM     58  C   UNL A   1      45.068  31.178  28.303  1.00  0.00     0.074 A 
ATOM     59  C   UNL A   1      46.405  31.299  27.763  1.00  0.00     0.031 C 
ATOM     60  C   UNL A   1      44.399  32.184  28.914  1.00  0.00     0.037 A 
BRANCH  47  61
ATOM     61  C   UNL A   1      38.794  30.602  30.934  1.00  0.00     0.064 A 
ATOM     62  C   UNL A   1      38.694  30.581  32.332  1.00  0.00     0.173 A 
ATOM     63  C   UNL A   1      37.691  31.074  30.203  1.00  0.00     0.173 A 
ATOM     64  F   UNL A   1      39.713  30.124  33.073  1.00  0.00    -0.203 F 
ATOM     65  C   UNL A   1      37.531  31.004  32.971  1.00  0.00     0.198 A 
ATOM     66  C   UNL A   1      36.539  31.518  30.845  1.00  0.00     0.198 A 
ATOM     67  F   UNL A   1      37.739  31.118  28.862  1.00  0.00    -0.203 F 
ATOM     68  F   UNL A   1      37.443  30.945  34.306  1.00  0.00    -0.200 F 
ATOM     69  C   UNL A   1      36.459  31.479  32.228  1.00  0.00     0.200 A 
ATOM     70  F   UNL A   1      35.511  31.986  30.126  1.00  0.00    -0.200 F 
ATOM     71  F   UNL A   1      35.344  31.895  32.846  1.00  0.00    -0.200 F 
ENDBRANCH  47  61
BRANCH  48  72
ATOM     72  C   UNL A   1      46.931  27.452  26.129  1.00  0.00     0.064 A 
ATOM     73  C   UNL A   1      47.976  26.828  26.825  1.00  0.00     0.173 A 
ATOM     74  C   UNL A   1      47.084  27.634  24.747  1.00  0.00     0.173 A 
ATOM     75  F   UNL A   1      47.891  26.660  28.153  1.00  0.00    -0.203 F 
ATOM     76  C   UNL A   1      49.131  26.412  26.165  1.00  0.00     0.198 A 
ATOM     77  C   UNL A   1      48.224  27.189  24.083  1.00  0.00     0.198 A 
ATOM     78  F   UNL A   1      46.116  28.232  24.037  1.00  0.00    -0.203 F 
ATOM     79  F   UNL A   1      50.134  25.857  26.860  1.00  0.00    -0.200 F 
ATOM     80  C   UNL A   1      49.250  26.585  24.794  1.00  0.00     0.200 A 
ATOM     81  F   UNL A   1      48.329  27.347  22.757  1.00  0.00    -0.200 F 
ATOM     82  F   UNL A   1      50.357  26.177  24.159  1.00  0.00    -0.200 F 
ENDBRANCH  48  72
BRANCH  60  83
ATOM     83  C   UNL A   1      45.114  33.493  29.052  1.00  0.00     0.064 A 
ATOM     84  C   UNL A   1      45.009  34.488  28.071  1.00  0.00     0.173 A 
ATOM     85  C   UNL A   1      45.885  33.766  30.192  1.00  0.00     0.173 A 
ATOM     86  F   UNL A   1      44.295  34.265  26.957  1.00  0.00    -0.203 F 
ATOM     87  C   UNL A   1      45.669  35.706  28.216  1.00  0.00     0.198 A 
ATOM     88  C   UNL A   1      46.527  34.991  30.343  1.00  0.00     0.198 A 
ATOM     89  F   UNL A   1      46.011  32.844  31.158  1.00  0.00    -0.203 F 
ATOM     90  F   UNL A   1      45.586  36.629  27.250  1.00  0.00    -0.200 F 
ATOM     91  C   UNL A   1      46.422  35.957  29.354  1.00  0.00     0.200 A 
ATOM     92  F   UNL A   1      47.250  35.235  31.444  1.00  0.00    -0.200 F 
ATOM     93  F   UNL A   1      47.056  37.130  29.492  1.00  0.00    -0.200 F 
ENDBRANCH  60  83
ENDBRANCH  34  35
ENDBRANCH  27  29
ENDBRANCH  26  27
ENDBRANCH  25  26
ENDBRANCH  24  25
ENDBRANCH   1  24
TORSDOF 19
ENDMDL
MODEL 3
REMARK VINA RESULT:     -10.9      0.545      2.288
REMARK SMILES CC(C)CCN(C(=O)N[C@H](C(=O)OCCOC(=O)c1ccc(-c2c3nc(c(-c4c(F)c(F)c(F)c(F)c4F)c4ccc([nH]4)c(-c4c(F)c(F)c(F)c(F)c4F)c4nc(c(-c5c(F)c(F)c(F)c(F)c5F)c5ccc2[nH]5)C=C4)C=C3)cc1)[C@H](C)O)C1CCCC1
REMARK SMILES IDX 13 1 11 2 12 3 10 4 9 5 7 6 8 7 6 9 5 10 4 11 2 12 1 13 3 14
REMARK SMILES IDX 85 15 86 16 89 17 87 18 88 19 82 20 83 21 84 22 14 24 15 25
REMARK SMILES IDX 16 26 17 27 18 28 19 29 20 30 81 31 21 32 80 33 22 34 23 35
REMARK SMILES IDX 24 36 74 37 25 38 79 39 73 40 75 41 26 42 78 43 72 44 71 45
REMARK SMILES IDX 27 47 59 48 39 49 58 50 40 51 43 52 57 53 76 54 41 55 42 56
REMARK SMILES IDX 56 58 77 59 44 60 28 61 29 62 37 63 30 64 31 65 35 66 38 67
REMARK SMILES IDX 32 68 33 69 36 70 34 71 60 72 61 73 69 74 62 75 63 76 67 77
REMARK SMILES IDX 70 78 64 79 65 80 68 81 66 82 45 83 46 84 54 85 47 86 48 87
REMARK SMILES IDX 52 88 55 89 49 90 50 91 53 92 51 93
REMARK H PARENT 9 8 84 23 75 46 43 57
REMARK Flexibility Score: inf
ROOT
ATOM      1  O   UNL A   1      31.968  27.320  24.952  1.00  0.00    -0.460 OA
ENDROOT
BRANCH   1   2
ATOM      2  C   UNL A   1      31.529  26.365  25.818  1.00  0.00     0.331 C 
ATOM      3  O   UNL A   1      30.970  26.581  26.887  1.00  0.00    -0.250 OA
BRANCH   2   4
ATOM      4  C   UNL A   1      31.858  24.963  25.300  1.00  0.00     0.222 C 
BRANCH   4   5
ATOM      5  N   UNL A   1      32.192  24.146  26.468  1.00  0.00    -0.322 N 
ATOM      6  C   UNL A   1      32.654  22.925  26.746  1.00  0.00     0.318 C 
ATOM      7  O   UNL A   1      32.685  22.689  27.957  1.00  0.00    -0.249 OA
ATOM      8  H   UNL A   1      32.024  24.648  27.298  1.00  0.00     0.166 HD
BRANCH   6   9
ATOM      9  N   UNL A   1      33.061  22.023  25.803  1.00  0.00    -0.322 N 
BRANCH   9  10
ATOM     10  C   UNL A   1      32.304  20.883  25.277  1.00  0.00     0.122 C 
BRANCH  10  11
ATOM     11  C   UNL A   1      32.827  19.521  25.756  1.00  0.00     0.024 C 
BRANCH  11  12
ATOM     12  C   UNL A   1      33.211  18.527  24.644  1.00  0.00    -0.016 C 
ATOM     13  C   UNL A   1      34.725  18.419  24.454  1.00  0.00     0.007 C 
ATOM     14  C   UNL A   1      32.640  17.143  24.964  1.00  0.00     0.007 C 
ENDBRANCH  11  12
ENDBRANCH  10  11
ENDBRANCH   9  10
BRANCH   9  15
ATOM     15  C   UNL A   1      34.427  22.138  25.274  1.00  0.00     0.087 C 
ATOM     16  C   UNL A   1      34.563  22.598  23.821  1.00  0.00     0.025 C 
ATOM     17  C   UNL A   1      35.341  23.090  26.041  1.00  0.00     0.025 C 
ATOM     18  C   UNL A   1      36.043  22.946  23.696  1.00  0.00     0.002 C 
ATOM     19  C   UNL A   1      36.538  23.262  25.110  1.00  0.00     0.002 C 
ENDBRANCH   9  15
ENDBRANCH   6   9
ENDBRANCH   4   5
BRANCH   4  20
ATOM     20  C   UNL A   1      30.659  24.370  24.523  1.00  0.00     0.145 C 
ATOM     21  C   UNL A   1      31.007  23.775  23.158  1.00  0.00     0.041 C 
BRANCH  20  22
ATOM     22  O   UNL A   1      29.657  25.371  24.296  1.00  0.00    -0.391 OA
ATOM     23  H   UNL A   1      29.017  25.358  25.025  1.00  0.00     0.211 HD
ENDBRANCH  20  22
ENDBRANCH   4  20
ENDBRANCH   2   4
ENDBRANCH   1   2
BRANCH   1  24
ATOM     24  C   UNL A   1      31.343  28.617  25.032  1.00  0.00     0.274 C 
BRANCH  24  25
ATOM     25  C   UNL A   1      32.399  29.692  25.266  1.00  0.00     0.275 C 
BRANCH  25  26
ATOM     26  O   UNL A   1      32.560  29.876  26.684  1.00  0.00    -0.458 OA
BRANCH  26  27
ATOM     27  C   UNL A   1      33.085  31.058  27.068  1.00  0.00     0.338 C 
ATOM     28  O   UNL A   1      32.532  32.145  27.112  1.00  0.00    -0.246 OA
BRANCH  27  29
ATOM     29  C   UNL A   1      34.465  30.849  27.529  1.00  0.00     0.060 A 
ATOM     30  C   UNL A   1      34.922  29.548  27.725  1.00  0.00     0.016 A 
ATOM     31  C   UNL A   1      35.246  31.932  27.926  1.00  0.00     0.016 A 
ATOM     32  C   UNL A   1      36.097  29.324  28.438  1.00  0.00     0.010 A 
ATOM     33  C   UNL A   1      36.485  31.700  28.535  1.00  0.00     0.010 A 
ATOM     34  C   UNL A   1      36.902  30.393  28.852  1.00  0.00    -0.014 A 
BRANCH  34  35
ATOM     35  C   UNL A   1      38.119  30.156  29.684  1.00  0.00     0.031 A 
ATOM     36  C   UNL A   1      39.269  29.360  29.117  1.00  0.00     0.074 A 
ATOM     37  C   UNL A   1      38.243  30.669  30.925  1.00  0.00     0.049 A 
ATOM     38  N   UNL A   1      40.278  28.800  29.735  1.00  0.00    -0.248 NA
ATOM     39  C   UNL A   1      39.272  29.148  27.659  1.00  0.00     0.031 C 
ATOM     40  C   UNL A   1      37.268  31.531  31.595  1.00  0.00     0.029 A 
ATOM     41  N   UNL A   1      39.260  30.550  31.843  1.00  0.00    -0.354 N 
ATOM     42  C   UNL A   1      40.970  28.088  28.765  1.00  0.00     0.074 A 
ATOM     43  C   UNL A   1      40.291  28.314  27.507  1.00  0.00     0.031 C 
ATOM     44  C   UNL A   1      37.761  31.917  32.782  1.00  0.00     0.029 A 
ATOM     45  C   UNL A   1      39.030  31.237  33.012  1.00  0.00     0.049 A 
ATOM     46  H   UNL A   1      40.075  30.023  31.679  1.00  0.00     0.167 HD
ATOM     47  C   UNL A   1      42.065  27.305  28.917  1.00  0.00     0.037 A 
ATOM     48  C   UNL A   1      39.733  31.276  34.161  1.00  0.00     0.037 A 
ATOM     49  C   UNL A   1      42.803  27.170  30.145  1.00  0.00     0.049 A 
ATOM     50  C   UNL A   1      40.960  30.419  34.302  1.00  0.00     0.074 A 
ATOM     51  C   UNL A   1      43.916  26.391  30.407  1.00  0.00     0.029 A 
ATOM     52  N   UNL A   1      42.524  27.872  31.308  1.00  0.00    -0.354 N 
ATOM     53  N   UNL A   1      41.522  29.627  33.423  1.00  0.00    -0.248 NA
ATOM     54  C   UNL A   1      41.627  30.431  35.613  1.00  0.00     0.031 C 
ATOM     55  C   UNL A   1      44.308  26.615  31.732  1.00  0.00     0.029 A 
ATOM     56  C   UNL A   1      43.453  27.554  32.285  1.00  0.00     0.049 A 
ATOM     57  H   UNL A   1      41.778  28.504  31.422  1.00  0.00     0.167 HD
ATOM     58  C   UNL A   1      42.604  29.046  34.071  1.00  0.00     0.074 A 
ATOM     59  C   UNL A   1      42.638  29.599  35.408  1.00  0.00     0.031 C 
ATOM     60  C   UNL A   1      43.479  28.124  33.605  1.00  0.00     0.037 A 
BRANCH  47  61
ATOM     61  C   UNL A   1      42.508  26.489  27.741  1.00  0.00     0.064 A 
ATOM     62  C   UNL A   1      41.967  25.228  27.456  1.00  0.00     0.173 A 
ATOM     63  C   UNL A   1      43.465  27.010  26.853  1.00  0.00     0.173 A 
ATOM     64  F   UNL A   1      41.064  24.681  28.283  1.00  0.00    -0.203 F 
ATOM     65  C   UNL A   1      42.377  24.512  26.334  1.00  0.00     0.198 A 
ATOM     66  C   UNL A   1      43.854  26.304  25.720  1.00  0.00     0.198 A 
ATOM     67  F   UNL A   1      44.009  28.216  27.079  1.00  0.00    -0.203 F 
ATOM     68  F   UNL A   1      41.872  23.294  26.097  1.00  0.00    -0.200 F 
ATOM     69  C   UNL A   1      43.313  25.053  25.464  1.00  0.00     0.200 A 
ATOM     70  F   UNL A   1      44.749  26.832  24.876  1.00  0.00    -0.200 F 
ATOM     71  F   UNL A   1      43.698  24.367  24.378  1.00  0.00    -0.200 F 
ENDBRANCH  47  61
BRANCH  48  72
ATOM     72  C   UNL A   1      39.260  32.113  35.294  1.00  0.00     0.064 A 
ATOM     73  C   UNL A   1      38.468  31.562  36.311  1.00  0.00     0.173 A 
ATOM     74  C   UNL A   1      39.579  33.476  35.380  1.00  0.00     0.173 A 
ATOM     75  F   UNL A   1      38.110  30.271  36.256  1.00  0.00    -0.203 F 
ATOM     76  C   UNL A   1      38.007  32.347  37.367  1.00  0.00     0.198 A 
ATOM     77  C   UNL A   1      39.145  34.251  36.452  1.00  0.00     0.198 A 
ATOM     78  F   UNL A   1      40.329  34.052  34.429  1.00  0.00    -0.203 F 
ATOM     79  F   UNL A   1      37.215  31.807  38.303  1.00  0.00    -0.200 F 
ATOM     80  C   UNL A   1      38.352  33.688  37.440  1.00  0.00     0.200 A 
ATOM     81  F   UNL A   1      39.491  35.543  36.526  1.00  0.00    -0.200 F 
ATOM     82  F   UNL A   1      37.915  34.440  38.460  1.00  0.00    -0.200 F 
ENDBRANCH  48  72
BRANCH  60  83
ATOM     83  C   UNL A   1      44.561  27.677  34.539  1.00  0.00     0.064 A 
ATOM     84  C   UNL A   1      44.394  26.556  35.364  1.00  0.00     0.173 A 
ATOM     85  C   UNL A   1      45.786  28.356  34.585  1.00  0.00     0.173 A 
ATOM     86  F   UNL A   1      43.232  25.884  35.364  1.00  0.00    -0.203 F 
ATOM     87  C   UNL A   1      45.411  26.143  36.220  1.00  0.00     0.198 A 
ATOM     88  C   UNL A   1      46.808  27.929  35.428  1.00  0.00     0.198 A 
ATOM     89  F   UNL A   1      45.992  29.432  33.811  1.00  0.00    -0.203 F 
ATOM     90  F   UNL A   1      45.218  25.092  37.029  1.00  0.00    -0.200 F 
ATOM     91  C   UNL A   1      46.618  26.826  36.247  1.00  0.00     0.200 A 
ATOM     92  F   UNL A   1      47.976  28.586  35.449  1.00  0.00    -0.200 F 
ATOM     93  F   UNL A   1      47.597  26.426  37.071  1.00  0.00    -0.200 F 
ENDBRANCH  60  83
ENDBRANCH  34  35
ENDBRANCH  27  29
ENDBRANCH  26  27
ENDBRANCH  25  26
ENDBRANCH  24  25
ENDBRANCH   1  24
TORSDOF 19
ENDMDL
