MODEL 1
REMARK VINA RESULT:     -13.5      0.000      0.000
REMARK SMILES Cc1cccc(N2C(=O)/C(=C/c3cccn3-c3cccc(C(=O)OCCOC(=O)c4ccc(-c5c6nc(c(-c7c(F)c(F)c(F)c(F)c7F)c7ccc([nH]7)c(-c7c(F)c(F)c(F)c(F)c7F)c7nc(c(-c8c(F)c(F)c(F)c(F)c8F)c8ccc5[nH]8)C=C7)C=C6)cc4)c3)C(O)=NC2=S)c1C
REMARK SMILES IDX 25 1 24 2 22 3 23 4 21 5 17 6 18 7 93 8 19 9 20 10 16 11
REMARK SMILES IDX 12 12 13 13 14 14 15 15 11 16 7 17 8 18 97 19 9 20 10 21
REMARK SMILES IDX 96 22 98 23 94 24 6 25 1 26 2 27 3 28 99 29 4 30 100 31 5 32
REMARK SMILES IDX 95 33 26 35 27 36 28 37 29 38 30 39 31 40 92 41 32 42 91 43
REMARK SMILES IDX 33 44 34 45 35 46 85 47 36 48 90 49 84 50 86 51 37 52 89 53
REMARK SMILES IDX 83 54 82 55 38 57 70 58 50 59 69 60 51 61 54 62 68 63 87 64
REMARK SMILES IDX 52 65 53 66 67 68 88 69 55 70 39 71 40 72 48 73 41 74 42 75
REMARK SMILES IDX 46 76 49 77 43 78 44 79 47 80 45 81 71 82 72 83 80 84 73 85
REMARK SMILES IDX 74 86 78 87 81 88 75 89 76 90 79 91 77 92 56 93 57 94 65 95
REMARK SMILES IDX 58 96 59 97 63 98 66 99 60 100 61 101 64 102 62 103
REMARK H PARENT 95 34 86 56 54 67
REMARK Flexibility Score: inf
ROOT
ATOM      1  C   UNL A   1      41.390  20.700  26.797  1.00  0.00     0.275 C 
ENDROOT
BRANCH   1   2
ATOM      2  O   UNL A   1      40.206  21.233  26.175  1.00  0.00    -0.458 OA
BRANCH   2   3
ATOM      3  C   UNL A   1      39.384  20.323  25.589  1.00  0.00     0.338 C 
ATOM      4  O   UNL A   1      39.649  19.146  25.380  1.00  0.00    -0.246 OA
BRANCH   3   5
ATOM      5  C   UNL A   1      38.030  20.900  25.366  1.00  0.00     0.062 A 
ATOM      6  C   UNL A   1      35.687  20.699  24.766  1.00  0.00     0.046 A 
ATOM      7  C   UNL A   1      35.555  22.092  24.800  1.00  0.00     0.026 A 
ATOM      8  C   UNL A   1      36.933  20.106  25.018  1.00  0.00     0.042 A 
ATOM      9  C   UNL A   1      36.648  22.884  25.155  1.00  0.00     0.003 A 
ATOM     10  C   UNL A   1      37.877  22.291  25.450  1.00  0.00     0.016 A 
BRANCH   6  11
ATOM     11  N   UNL A   1      34.543  19.896  24.488  1.00  0.00    -0.317 N 
ATOM     12  C   UNL A   1      33.282  20.314  24.053  1.00  0.00     0.047 A 
ATOM     13  C   UNL A   1      32.485  19.191  23.909  1.00  0.00     0.028 A 
ATOM     14  C   UNL A   1      33.242  18.069  24.302  1.00  0.00     0.020 A 
ATOM     15  C   UNL A   1      34.499  18.521  24.627  1.00  0.00     0.092 A 
BRANCH  12  16
ATOM     16  C   UNL A   1      33.032  21.672  23.728  1.00  0.00     0.046 C 
ATOM     17  N   UNL A   1      31.502  24.821  24.708  1.00  0.00    -0.251 N 
ATOM     18  C   UNL A   1      32.310  23.954  23.970  1.00  0.00     0.270 C 
ATOM     19  C   UNL A   1      30.793  24.419  25.858  1.00  0.00     0.210 C 
ATOM     20  O   UNL A   1      32.892  24.255  22.927  1.00  0.00    -0.268 OA
ATOM     21  C   UNL A   1      32.443  22.576  24.537  1.00  0.00     0.104 C 
ATOM     22  N   UNL A   1      31.187  23.274  26.500  1.00  0.00    -0.184 NA
ATOM     23  S   UNL A   1      29.460  25.259  26.501  1.00  0.00    -0.038 S 
ATOM     24  C   UNL A   1      31.937  22.425  25.903  1.00  0.00     0.226 C 
BRANCH  17  25
ATOM     25  C   UNL A   1      31.370  26.156  24.202  1.00  0.00     0.055 A 
ATOM     26  C   UNL A   1      32.760  29.704  24.681  1.00  0.00     0.044 C 
ATOM     27  C   UNL A   1      31.960  28.522  24.201  1.00  0.00    -0.046 A 
ATOM     28  C   UNL A   1      30.945  28.746  23.255  1.00  0.00     0.004 A 
ATOM     29  C   UNL A   1      32.202  27.208  24.667  1.00  0.00    -0.024 A 
ATOM     30  C   UNL A   1      30.176  27.695  22.763  1.00  0.00     0.002 A 
ATOM     31  C   UNL A   1      33.349  26.910  25.604  1.00  0.00     0.047 C 
ATOM     32  C   UNL A   1      30.388  26.403  23.232  1.00  0.00     0.027 A 
ENDBRANCH  17  25
BRANCH  24  33
ATOM     33  O   UNL A   1      32.315  21.367  26.635  1.00  0.00    -0.493 OA
ATOM     34  H   UNL A   1      31.691  20.926  27.177  1.00  0.00     0.295 HD
ENDBRANCH  24  33
ENDBRANCH  12  16
ENDBRANCH   6  11
ENDBRANCH   3   5
ENDBRANCH   2   3
ENDBRANCH   1   2
BRANCH   1  35
ATOM     35  C   UNL A   1      42.678  21.162  26.111  1.00  0.00     0.275 C 
BRANCH  35  36
ATOM     36  O   UNL A   1      43.179  22.412  26.595  1.00  0.00    -0.458 OA
BRANCH  36  37
ATOM     37  C   UNL A   1      42.977  23.428  25.730  1.00  0.00     0.338 C 
ATOM     38  O   UNL A   1      43.425  23.544  24.600  1.00  0.00    -0.246 OA
BRANCH  37  39
ATOM     39  C   UNL A   1      42.341  24.568  26.381  1.00  0.00     0.060 A 
ATOM     40  C   UNL A   1      42.999  25.796  26.273  1.00  0.00     0.016 A 
ATOM     41  C   UNL A   1      41.364  24.327  27.356  1.00  0.00     0.016 A 
ATOM     42  C   UNL A   1      42.764  26.759  27.229  1.00  0.00     0.010 A 
ATOM     43  C   UNL A   1      41.144  25.283  28.330  1.00  0.00     0.010 A 
ATOM     44  C   UNL A   1      41.867  26.481  28.271  1.00  0.00    -0.014 A 
BRANCH  44  45
ATOM     45  C   UNL A   1      41.527  27.596  29.162  1.00  0.00     0.031 A 
ATOM     46  C   UNL A   1      42.350  27.446  30.480  1.00  0.00     0.074 A 
ATOM     47  C   UNL A   1      40.554  28.445  28.693  1.00  0.00     0.049 A 
ATOM     48  N   UNL A   1      42.111  27.852  31.689  1.00  0.00    -0.248 NA
ATOM     49  C   UNL A   1      43.629  26.662  30.443  1.00  0.00     0.031 C 
ATOM     50  C   UNL A   1      39.965  28.428  27.326  1.00  0.00     0.029 A 
ATOM     51  N   UNL A   1      39.847  29.486  29.253  1.00  0.00    -0.354 N 
ATOM     52  C   UNL A   1      43.272  27.595  32.464  1.00  0.00     0.074 A 
ATOM     53  C   UNL A   1      44.112  26.751  31.682  1.00  0.00     0.031 C 
ATOM     54  C   UNL A   1      38.957  29.327  27.207  1.00  0.00     0.029 A 
ATOM     55  C   UNL A   1      38.776  30.018  28.467  1.00  0.00     0.049 A 
ATOM     56  H   UNL A   1      40.065  29.843  30.144  1.00  0.00     0.167 HD
ATOM     57  C   UNL A   1      43.536  28.234  33.641  1.00  0.00     0.037 A 
ATOM     58  C   UNL A   1      37.793  30.901  28.851  1.00  0.00     0.037 A 
ATOM     59  C   UNL A   1      42.430  29.046  33.994  1.00  0.00     0.049 A 
ATOM     60  C   UNL A   1      38.201  31.263  30.209  1.00  0.00     0.074 A 
ATOM     61  C   UNL A   1      41.233  28.779  34.596  1.00  0.00     0.029 A 
ATOM     62  N   UNL A   1      42.387  30.295  33.432  1.00  0.00    -0.354 N 
ATOM     63  N   UNL A   1      39.198  32.043  30.487  1.00  0.00    -0.248 NA
ATOM     64  C   UNL A   1      37.545  30.592  31.331  1.00  0.00     0.031 C 
ATOM     65  C   UNL A   1      40.354  29.727  34.033  1.00  0.00     0.029 A 
ATOM     66  C   UNL A   1      41.070  30.606  33.214  1.00  0.00     0.049 A 
ATOM     67  H   UNL A   1      43.162  30.864  33.222  1.00  0.00     0.167 HD
ATOM     68  C   UNL A   1      39.492  31.698  31.782  1.00  0.00     0.074 A 
ATOM     69  C   UNL A   1      38.309  31.056  32.315  1.00  0.00     0.031 C 
ATOM     70  C   UNL A   1      40.784  31.552  32.165  1.00  0.00     0.037 A 
BRANCH  57  71
ATOM     71  C   UNL A   1      44.802  28.449  34.434  1.00  0.00     0.064 A 
ATOM     72  C   UNL A   1      45.853  29.174  33.811  1.00  0.00     0.173 A 
ATOM     73  C   UNL A   1      45.169  27.658  35.529  1.00  0.00     0.173 A 
ATOM     74  F   UNL A   1      45.600  30.026  32.805  1.00  0.00    -0.203 F 
ATOM     75  C   UNL A   1      47.191  28.962  34.134  1.00  0.00     0.198 A 
ATOM     76  C   UNL A   1      46.512  27.496  35.890  1.00  0.00     0.198 A 
ATOM     77  F   UNL A   1      44.261  26.942  36.205  1.00  0.00    -0.203 F 
ATOM     78  F   UNL A   1      48.155  29.531  33.394  1.00  0.00    -0.200 F 
ATOM     79  C   UNL A   1      47.522  28.102  35.160  1.00  0.00     0.200 A 
ATOM     80  F   UNL A   1      46.832  26.675  36.901  1.00  0.00    -0.200 F 
ATOM     81  F   UNL A   1      48.807  27.831  35.423  1.00  0.00    -0.200 F 
ENDBRANCH  57  71
BRANCH  58  82
ATOM     82  C   UNL A   1      36.467  31.495  28.399  1.00  0.00     0.064 A 
ATOM     83  C   UNL A   1      35.290  30.793  28.115  1.00  0.00     0.173 A 
ATOM     84  C   UNL A   1      36.319  32.917  28.323  1.00  0.00     0.173 A 
ATOM     85  F   UNL A   1      35.298  29.459  28.020  1.00  0.00    -0.203 F 
ATOM     86  C   UNL A   1      34.057  31.457  27.910  1.00  0.00     0.198 A 
ATOM     87  C   UNL A   1      35.094  33.571  28.185  1.00  0.00     0.198 A 
ATOM     88  F   UNL A   1      37.373  33.741  28.394  1.00  0.00    -0.203 F 
ATOM     89  F   UNL A   1      32.952  30.744  27.647  1.00  0.00    -0.200 F 
ATOM     90  C   UNL A   1      33.952  32.837  27.996  1.00  0.00     0.200 A 
ATOM     91  F   UNL A   1      35.040  34.909  28.263  1.00  0.00    -0.200 F 
ATOM     92  F   UNL A   1      32.767  33.454  27.889  1.00  0.00    -0.200 F 
ENDBRANCH  58  82
BRANCH  70  93
ATOM     93  C   UNL A   1      41.788  32.124  31.161  1.00  0.00     0.064 A 
ATOM     94  C   UNL A   1      41.852  33.507  30.938  1.00  0.00     0.173 A 
ATOM     95  C   UNL A   1      42.584  31.338  30.306  1.00  0.00     0.173 A 
ATOM     96  F   UNL A   1      41.146  34.339  31.718  1.00  0.00    -0.203 F 
ATOM     97  C   UNL A   1      42.631  34.055  29.910  1.00  0.00     0.198 A 
ATOM     98  C   UNL A   1      43.360  31.878  29.276  1.00  0.00     0.198 A 
ATOM     99  F   UNL A   1      42.646  30.020  30.460  1.00  0.00    -0.203 F 
ATOM    100  F   UNL A   1      42.658  35.383  29.733  1.00  0.00    -0.200 F 
ATOM    101  C   UNL A   1      43.378  33.241  29.075  1.00  0.00     0.200 A 
ATOM    102  F   UNL A   1      44.095  31.071  28.494  1.00  0.00    -0.200 F 
ATOM    103  F   UNL A   1      44.127  33.768  28.097  1.00  0.00    -0.200 F 
ENDBRANCH  70  93
ENDBRANCH  44  45
ENDBRANCH  37  39
ENDBRANCH  36  37
ENDBRANCH  35  36
ENDBRANCH   1  35
TORSDOF 15
ENDMDL
MODEL 2
REMARK VINA RESULT:     -13.5      3.780      8.494
REMARK SMILES Cc1cccc(N2C(=O)/C(=C/c3cccn3-c3cccc(C(=O)OCCOC(=O)c4ccc(-c5c6nc(c(-c7c(F)c(F)c(F)c(F)c7F)c7ccc([nH]7)c(-c7c(F)c(F)c(F)c(F)c7F)c7nc(c(-c8c(F)c(F)c(F)c(F)c8F)c8ccc5[nH]8)C=C7)C=C6)cc4)c3)C(O)=NC2=S)c1C
REMARK SMILES IDX 25 1 24 2 22 3 23 4 21 5 17 6 18 7 93 8 19 9 20 10 16 11
REMARK SMILES IDX 12 12 13 13 14 14 15 15 11 16 7 17 8 18 97 19 9 20 10 21
REMARK SMILES IDX 96 22 98 23 94 24 6 25 1 26 2 27 3 28 99 29 4 30 100 31 5 32
REMARK SMILES IDX 95 33 26 35 27 36 28 37 29 38 30 39 31 40 92 41 32 42 91 43
REMARK SMILES IDX 33 44 34 45 35 46 85 47 36 48 90 49 84 50 86 51 37 52 89 53
REMARK SMILES IDX 83 54 82 55 38 57 70 58 50 59 69 60 51 61 54 62 68 63 87 64
REMARK SMILES IDX 52 65 53 66 67 68 88 69 55 70 39 71 40 72 48 73 41 74 42 75
REMARK SMILES IDX 46 76 49 77 43 78 44 79 47 80 45 81 71 82 72 83 80 84 73 85
REMARK SMILES IDX 74 86 78 87 81 88 75 89 76 90 79 91 77 92 56 93 57 94 65 95
REMARK SMILES IDX 58 96 59 97 63 98 66 99 60 100 61 101 64 102 62 103
REMARK H PARENT 95 34 86 56 54 67
REMARK Flexibility Score: inf
ROOT
ATOM      1  C   UNL A   1      33.743  31.430  27.666  1.00  0.00     0.275 C 
ENDROOT
BRANCH   1   2
ATOM      2  O   UNL A   1      33.176  30.171  27.255  1.00  0.00    -0.458 OA
BRANCH   2   3
ATOM      3  C   UNL A   1      34.020  29.324  26.610  1.00  0.00     0.338 C 
ATOM      4  O   UNL A   1      35.055  28.855  27.068  1.00  0.00    -0.246 OA
BRANCH   3   5
ATOM      5  C   UNL A   1      33.445  28.894  25.306  1.00  0.00     0.062 A 
ATOM      6  C   UNL A   1      31.661  27.955  23.956  1.00  0.00     0.046 A 
ATOM      7  C   UNL A   1      32.504  27.950  22.838  1.00  0.00     0.026 A 
ATOM      8  C   UNL A   1      32.142  28.398  25.196  1.00  0.00     0.042 A 
ATOM      9  C   UNL A   1      33.802  28.452  22.946  1.00  0.00     0.003 A 
ATOM     10  C   UNL A   1      34.267  28.935  24.172  1.00  0.00     0.016 A 
BRANCH   6  11
ATOM     11  N   UNL A   1      30.311  27.522  23.812  1.00  0.00    -0.317 N 
ATOM     12  C   UNL A   1      29.840  26.224  23.595  1.00  0.00     0.047 A 
ATOM     13  C   UNL A   1      28.458  26.275  23.528  1.00  0.00     0.028 A 
ATOM     14  C   UNL A   1      28.068  27.623  23.659  1.00  0.00     0.020 A 
ATOM     15  C   UNL A   1      29.212  28.360  23.856  1.00  0.00     0.092 A 
BRANCH  12  16
ATOM     16  C   UNL A   1      30.725  25.115  23.592  1.00  0.00     0.046 C 
ATOM     17  N   UNL A   1      32.455  22.576  25.535  1.00  0.00    -0.251 N 
ATOM     18  C   UNL A   1      31.973  23.222  24.394  1.00  0.00     0.270 C 
ATOM     19  C   UNL A   1      32.144  22.993  26.845  1.00  0.00     0.210 C 
ATOM     20  O   UNL A   1      32.275  22.923  23.238  1.00  0.00    -0.268 OA
ATOM     21  C   UNL A   1      31.024  24.347  24.660  1.00  0.00     0.104 C 
ATOM     22  N   UNL A   1      31.052  23.800  27.029  1.00  0.00    -0.184 NA
ATOM     23  S   UNL A   1      33.049  22.570  28.222  1.00  0.00    -0.038 S 
ATOM     24  C   UNL A   1      30.536  24.425  26.038  1.00  0.00     0.226 C 
BRANCH  17  25
ATOM     25  C   UNL A   1      33.352  21.479  25.315  1.00  0.00     0.055 A 
ATOM     26  C   UNL A   1      37.070  20.707  24.739  1.00  0.00     0.044 C 
ATOM     27  C   UNL A   1      35.580  20.574  24.908  1.00  0.00    -0.046 A 
ATOM     28  C   UNL A   1      35.003  19.302  24.751  1.00  0.00     0.004 A 
ATOM     29  C   UNL A   1      34.754  21.680  25.222  1.00  0.00    -0.024 A 
ATOM     30  C   UNL A   1      33.633  19.109  24.903  1.00  0.00     0.002 A 
ATOM     31  C   UNL A   1      35.346  23.042  25.500  1.00  0.00     0.047 C 
ATOM     32  C   UNL A   1      32.809  20.192  25.187  1.00  0.00     0.027 A 
ENDBRANCH  17  25
BRANCH  24  33
ATOM     33  O   UNL A   1      29.436  25.142  26.311  1.00  0.00    -0.493 OA
ATOM     34  H   UNL A   1      29.326  25.525  27.159  1.00  0.00     0.295 HD
ENDBRANCH  24  33
ENDBRANCH  12  16
ENDBRANCH   6  11
ENDBRANCH   3   5
ENDBRANCH   2   3
ENDBRANCH   1   2
BRANCH   1  35
ATOM     35  C   UNL A   1      32.727  32.574  27.637  1.00  0.00     0.275 C 
BRANCH  35  36
ATOM     36  O   UNL A   1      33.317  33.872  27.505  1.00  0.00    -0.458 OA
BRANCH  36  37
ATOM     37  C   UNL A   1      33.235  34.602  28.637  1.00  0.00     0.338 C 
ATOM     38  O   UNL A   1      32.467  35.520  28.878  1.00  0.00    -0.246 OA
BRANCH  37  39
ATOM     39  C   UNL A   1      34.374  34.356  29.516  1.00  0.00     0.060 A 
ATOM     40  C   UNL A   1      35.642  34.490  28.946  1.00  0.00     0.016 A 
ATOM     41  C   UNL A   1      34.162  33.659  30.713  1.00  0.00     0.016 A 
ATOM     42  C   UNL A   1      36.699  33.816  29.517  1.00  0.00     0.010 A 
ATOM     43  C   UNL A   1      35.216  32.963  31.274  1.00  0.00     0.010 A 
ATOM     44  C   UNL A   1      36.470  33.027  30.654  1.00  0.00    -0.014 A 
BRANCH  44  45
ATOM     45  C   UNL A   1      37.654  32.469  31.318  1.00  0.00     0.031 A 
ATOM     46  C   UNL A   1      38.008  31.110  30.638  1.00  0.00     0.074 A 
ATOM     47  C   UNL A   1      38.123  33.195  32.386  1.00  0.00     0.049 A 
ATOM     48  N   UNL A   1      38.619  30.059  31.093  1.00  0.00    -0.248 NA
ATOM     49  C   UNL A   1      37.551  30.870  29.229  1.00  0.00     0.031 C 
ATOM     50  C   UNL A   1      37.653  34.546  32.798  1.00  0.00     0.029 A 
ATOM     51  N   UNL A   1      39.076  32.960  33.353  1.00  0.00    -0.354 N 
ATOM     52  C   UNL A   1      38.824  29.176  30.001  1.00  0.00     0.074 A 
ATOM     53  C   UNL A   1      38.036  29.667  28.920  1.00  0.00     0.031 C 
ATOM     54  C   UNL A   1      38.244  34.948  33.950  1.00  0.00     0.029 A 
ATOM     55  C   UNL A   1      39.150  33.918  34.412  1.00  0.00     0.049 A 
ATOM     56  H   UNL A   1      39.672  32.177  33.316  1.00  0.00     0.167 HD
ATOM     57  C   UNL A   1      39.763  28.186  30.011  1.00  0.00     0.037 A 
ATOM     58  C   UNL A   1      39.849  33.829  35.595  1.00  0.00     0.037 A 
ATOM     59  C   UNL A   1      40.359  28.116  31.295  1.00  0.00     0.049 A 
ATOM     60  C   UNL A   1      40.601  32.586  35.429  1.00  0.00     0.074 A 
ATOM     61  C   UNL A   1      39.973  27.539  32.471  1.00  0.00     0.029 A 
ATOM     62  N   UNL A   1      41.398  28.977  31.531  1.00  0.00    -0.354 N 
ATOM     63  N   UNL A   1      41.632  32.455  34.654  1.00  0.00    -0.248 NA
ATOM     64  C   UNL A   1      40.079  31.371  36.056  1.00  0.00     0.031 C 
ATOM     65  C   UNL A   1      40.536  28.375  33.458  1.00  0.00     0.029 A 
ATOM     66  C   UNL A   1      41.339  29.345  32.851  1.00  0.00     0.049 A 
ATOM     67  H   UNL A   1      42.065  29.278  30.872  1.00  0.00     0.167 HD
ATOM     68  C   UNL A   1      41.675  31.100  34.446  1.00  0.00     0.074 A 
ATOM     69  C   UNL A   1      40.922  30.493  35.523  1.00  0.00     0.031 C 
ATOM     70  C   UNL A   1      41.923  30.615  33.203  1.00  0.00     0.037 A 
BRANCH  57  71
ATOM     71  C   UNL A   1      40.442  27.398  28.917  1.00  0.00     0.064 A 
ATOM     72  C   UNL A   1      41.317  28.101  28.047  1.00  0.00     0.173 A 
ATOM     73  C   UNL A   1      39.966  26.169  28.445  1.00  0.00     0.173 A 
ATOM     74  F   UNL A   1      41.895  29.250  28.434  1.00  0.00    -0.203 F 
ATOM     75  C   UNL A   1      41.535  27.699  26.732  1.00  0.00     0.198 A 
ATOM     76  C   UNL A   1      40.240  25.738  27.141  1.00  0.00     0.198 A 
ATOM     77  F   UNL A   1      39.147  25.410  29.184  1.00  0.00    -0.203 F 
ATOM     78  F   UNL A   1      42.222  28.493  25.896  1.00  0.00    -0.200 F 
ATOM     79  C   UNL A   1      40.975  26.527  26.271  1.00  0.00     0.200 A 
ATOM     80  F   UNL A   1      39.711  24.587  26.700  1.00  0.00    -0.200 F 
ATOM     81  F   UNL A   1      41.113  26.174  24.986  1.00  0.00    -0.200 F 
ENDBRANCH  57  71
BRANCH  58  82
ATOM     82  C   UNL A   1      40.000  34.496  36.954  1.00  0.00     0.064 A 
ATOM     83  C   UNL A   1      39.069  34.486  37.999  1.00  0.00     0.173 A 
ATOM     84  C   UNL A   1      41.235  35.138  37.293  1.00  0.00     0.173 A 
ATOM     85  F   UNL A   1      37.825  34.037  37.799  1.00  0.00    -0.203 F 
ATOM     86  C   UNL A   1      39.396  34.954  39.294  1.00  0.00     0.198 A 
ATOM     87  C   UNL A   1      41.580  35.541  38.584  1.00  0.00     0.198 A 
ATOM     88  F   UNL A   1      42.173  35.393  36.371  1.00  0.00    -0.203 F 
ATOM     89  F   UNL A   1      38.475  34.919  40.268  1.00  0.00    -0.200 F 
ATOM     90  C   UNL A   1      40.664  35.431  39.596  1.00  0.00     0.200 A 
ATOM     91  F   UNL A   1      42.814  36.007  38.828  1.00  0.00    -0.200 F 
ATOM     92  F   UNL A   1      40.995  35.788  40.845  1.00  0.00    -0.200 F 
ENDBRANCH  58  82
BRANCH  70  93
ATOM     93  C   UNL A   1      42.459  31.669  32.232  1.00  0.00     0.064 A 
ATOM     94  C   UNL A   1      43.735  32.219  32.422  1.00  0.00     0.173 A 
ATOM     95  C   UNL A   1      41.695  32.260  31.208  1.00  0.00     0.173 A 
ATOM     96  F   UNL A   1      44.546  31.708  33.360  1.00  0.00    -0.203 F 
ATOM     97  C   UNL A   1      44.193  33.303  31.662  1.00  0.00     0.198 A 
ATOM     98  C   UNL A   1      42.144  33.343  30.448  1.00  0.00     0.198 A 
ATOM     99  F   UNL A   1      40.493  31.785  30.900  1.00  0.00    -0.203 F 
ATOM    100  F   UNL A   1      45.419  33.798  31.881  1.00  0.00    -0.200 F 
ATOM    101  C   UNL A   1      43.396  33.870  30.681  1.00  0.00     0.200 A 
ATOM    102  F   UNL A   1      41.363  33.862  29.486  1.00  0.00    -0.200 F 
ATOM    103  F   UNL A   1      43.839  34.903  29.951  1.00  0.00    -0.200 F 
ENDBRANCH  70  93
ENDBRANCH  44  45
ENDBRANCH  37  39
ENDBRANCH  36  37
ENDBRANCH  35  36
ENDBRANCH   1  35
TORSDOF 15
ENDMDL
MODEL 3
REMARK VINA RESULT:     -13.4      5.816     11.835
REMARK SMILES Cc1cccc(N2C(=O)/C(=C/c3cccn3-c3cccc(C(=O)OCCOC(=O)c4ccc(-c5c6nc(c(-c7c(F)c(F)c(F)c(F)c7F)c7ccc([nH]7)c(-c7c(F)c(F)c(F)c(F)c7F)c7nc(c(-c8c(F)c(F)c(F)c(F)c8F)c8ccc5[nH]8)C=C7)C=C6)cc4)c3)C(O)=NC2=S)c1C
REMARK SMILES IDX 25 1 24 2 22 3 23 4 21 5 17 6 18 7 93 8 19 9 20 10 16 11
REMARK SMILES IDX 12 12 13 13 14 14 15 15 11 16 7 17 8 18 97 19 9 20 10 21
REMARK SMILES IDX 96 22 98 23 94 24 6 25 1 26 2 27 3 28 99 29 4 30 100 31 5 32
REMARK SMILES IDX 95 33 26 35 27 36 28 37 29 38 30 39 31 40 92 41 32 42 91 43
REMARK SMILES IDX 33 44 34 45 35 46 85 47 36 48 90 49 84 50 86 51 37 52 89 53
REMARK SMILES IDX 83 54 82 55 38 57 70 58 50 59 69 60 51 61 54 62 68 63 87 64
REMARK SMILES IDX 52 65 53 66 67 68 88 69 55 70 39 71 40 72 48 73 41 74 42 75
REMARK SMILES IDX 46 76 49 77 43 78 44 79 47 80 45 81 71 82 72 83 80 84 73 85
REMARK SMILES IDX 74 86 78 87 81 88 75 89 76 90 79 91 77 92 56 93 57 94 65 95
REMARK SMILES IDX 58 96 59 97 63 98 66 99 60 100 61 101 64 102 62 103
REMARK H PARENT 95 34 86 56 54 67
REMARK Flexibility Score: inf
ROOT
ATOM      1  C   UNL A   1      34.539  33.010  29.113  1.00  0.00     0.275 C 
ENDROOT
BRANCH   1   2
ATOM      2  O   UNL A   1      35.543  33.046  30.144  1.00  0.00    -0.458 OA
BRANCH   2   3
ATOM      3  C   UNL A   1      35.130  32.684  31.387  1.00  0.00     0.338 C 
ATOM      4  O   UNL A   1      33.967  32.603  31.762  1.00  0.00    -0.246 OA
BRANCH   3   5
ATOM      5  C   UNL A   1      36.281  32.231  32.216  1.00  0.00     0.062 A 
ATOM      6  C   UNL A   1      38.147  32.658  33.708  1.00  0.00     0.046 A 
ATOM      7  C   UNL A   1      38.534  31.315  33.613  1.00  0.00     0.026 A 
ATOM      8  C   UNL A   1      37.038  33.121  32.984  1.00  0.00     0.042 A 
ATOM      9  C   UNL A   1      37.774  30.426  32.853  1.00  0.00     0.003 A 
ATOM     10  C   UNL A   1      36.643  30.878  32.168  1.00  0.00     0.016 A 
BRANCH   6  11
ATOM     11  N   UNL A   1      38.879  33.536  34.557  1.00  0.00    -0.317 N 
ATOM     12  C   UNL A   1      39.935  34.385  34.215  1.00  0.00     0.047 A 
ATOM     13  C   UNL A   1      40.335  35.056  35.358  1.00  0.00     0.028 A 
ATOM     14  C   UNL A   1      39.550  34.587  36.431  1.00  0.00     0.020 A 
ATOM     15  C   UNL A   1      38.655  33.681  35.914  1.00  0.00     0.092 A 
BRANCH  12  16
ATOM     16  C   UNL A   1      40.346  34.534  32.865  1.00  0.00     0.046 C 
ATOM     17  N   UNL A   1      43.070  34.386  30.462  1.00  0.00    -0.251 N 
ATOM     18  C   UNL A   1      41.751  34.468  30.914  1.00  0.00     0.270 C 
ATOM     19  C   UNL A   1      44.168  34.188  31.324  1.00  0.00     0.210 C 
ATOM     20  O   UNL A   1      40.778  34.703  30.197  1.00  0.00    -0.268 OA
ATOM     21  C   UNL A   1      41.571  34.242  32.381  1.00  0.00     0.104 C 
ATOM     22  N   UNL A   1      43.930  33.683  32.576  1.00  0.00    -0.184 NA
ATOM     23  S   UNL A   1      45.780  34.550  30.917  1.00  0.00    -0.038 S 
ATOM     24  C   UNL A   1      42.748  33.706  33.068  1.00  0.00     0.226 C 
BRANCH  17  25
ATOM     25  C   UNL A   1      43.276  34.578  29.056  1.00  0.00     0.055 A 
ATOM     26  C   UNL A   1      44.283  32.672  25.877  1.00  0.00     0.044 C 
ATOM     27  C   UNL A   1      43.882  33.758  26.841  1.00  0.00    -0.046 A 
ATOM     28  C   UNL A   1      43.789  35.074  26.359  1.00  0.00     0.004 A 
ATOM     29  C   UNL A   1      43.597  33.491  28.201  1.00  0.00    -0.024 A 
ATOM     30  C   UNL A   1      43.415  36.122  27.196  1.00  0.00     0.002 A 
ATOM     31  C   UNL A   1      43.586  32.078  28.734  1.00  0.00     0.047 C 
ATOM     32  C   UNL A   1      43.156  35.876  28.539  1.00  0.00     0.027 A 
ENDBRANCH  17  25
BRANCH  24  33
ATOM     33  O   UNL A   1      42.609  33.136  34.273  1.00  0.00    -0.493 OA
ATOM     34  H   UNL A   1      43.016  33.522  35.024  1.00  0.00     0.295 HD
ENDBRANCH  24  33
ENDBRANCH  12  16
ENDBRANCH   6  11
ENDBRANCH   3   5
ENDBRANCH   2   3
ENDBRANCH   1   2
BRANCH   1  35
ATOM     35  C   UNL A   1      34.414  31.634  28.457  1.00  0.00     0.275 C 
BRANCH  35  36
ATOM     36  O   UNL A   1      35.521  31.286  27.618  1.00  0.00    -0.458 OA
BRANCH  36  37
ATOM     37  C   UNL A   1      35.813  29.969  27.656  1.00  0.00     0.338 C 
ATOM     38  O   UNL A   1      35.058  29.032  27.448  1.00  0.00    -0.246 OA
BRANCH  37  39
ATOM     39  C   UNL A   1      37.127  29.729  28.243  1.00  0.00     0.060 A 
ATOM     40  C   UNL A   1      38.230  29.935  27.409  1.00  0.00     0.016 A 
ATOM     41  C   UNL A   1      37.210  28.974  29.420  1.00  0.00     0.016 A 
ATOM     42  C   UNL A   1      39.406  29.277  27.695  1.00  0.00     0.010 A 
ATOM     43  C   UNL A   1      38.382  28.295  29.695  1.00  0.00     0.010 A 
ATOM     44  C   UNL A   1      39.462  28.433  28.813  1.00  0.00    -0.014 A 
BRANCH  44  45
ATOM     45  C   UNL A   1      40.780  27.892  29.165  1.00  0.00     0.031 A 
ATOM     46  C   UNL A   1      40.968  26.528  28.431  1.00  0.00     0.074 A 
ATOM     47  C   UNL A   1      41.493  28.635  30.075  1.00  0.00     0.049 A 
ATOM     48  N   UNL A   1      41.685  25.488  28.729  1.00  0.00    -0.248 NA
ATOM     49  C   UNL A   1      40.177  26.268  27.183  1.00  0.00     0.031 C 
ATOM     50  C   UNL A   1      41.126  29.986  30.579  1.00  0.00     0.029 A 
ATOM     51  N   UNL A   1      42.659  28.418  30.776  1.00  0.00    -0.354 N 
ATOM     52  C   UNL A   1      41.619  24.594  27.628  1.00  0.00     0.074 A 
ATOM     53  C   UNL A   1      40.581  25.066  26.774  1.00  0.00     0.031 C 
ATOM     54  C   UNL A   1      41.981  30.407  31.544  1.00  0.00     0.029 A 
ATOM     55  C   UNL A   1      42.985  29.390  31.775  1.00  0.00     0.049 A 
ATOM     56  H   UNL A   1      43.236  27.640  30.599  1.00  0.00     0.167 HD
ATOM     57  C   UNL A   1      42.542  23.612  27.413  1.00  0.00     0.037 A 
ATOM     58  C   UNL A   1      43.958  29.320  32.746  1.00  0.00     0.037 A 
ATOM     59  C   UNL A   1      43.441  23.562  28.508  1.00  0.00     0.049 A 
ATOM     60  C   UNL A   1      44.659  28.081  32.409  1.00  0.00     0.074 A 
ATOM     61  C   UNL A   1      43.367  22.995  29.748  1.00  0.00     0.029 A 
ATOM     62  N   UNL A   1      44.496  24.434  28.469  1.00  0.00    -0.354 N 
ATOM     63  N   UNL A   1      45.465  27.950  31.402  1.00  0.00    -0.248 NA
ATOM     64  C   UNL A   1      44.322  26.870  33.158  1.00  0.00     0.031 C 
ATOM     65  C   UNL A   1      44.149  23.848  30.555  1.00  0.00     0.029 A 
ATOM     66  C   UNL A   1      44.765  24.817  29.758  1.00  0.00     0.049 A 
ATOM     67  H   UNL A   1      44.974  24.732  27.662  1.00  0.00     0.167 HD
ATOM     68  C   UNL A   1      45.469  26.592  31.202  1.00  0.00     0.074 A 
ATOM     69  C   UNL A   1      45.015  25.992  32.439  1.00  0.00     0.031 C 
ATOM     70  C   UNL A   1      45.404  26.095  29.942  1.00  0.00     0.037 A 
BRANCH  57  71
ATOM     71  C   UNL A   1      42.935  22.817  26.191  1.00  0.00     0.064 A 
ATOM     72  C   UNL A   1      42.882  21.400  26.284  1.00  0.00     0.173 A 
ATOM     73  C   UNL A   1      43.723  23.334  25.156  1.00  0.00     0.173 A 
ATOM     74  F   UNL A   1      42.092  20.799  27.188  1.00  0.00    -0.203 F 
ATOM     75  C   UNL A   1      43.712  20.577  25.528  1.00  0.00     0.198 A 
ATOM     76  C   UNL A   1      44.510  22.497  24.356  1.00  0.00     0.198 A 
ATOM     77  F   UNL A   1      43.836  24.654  24.961  1.00  0.00    -0.203 F 
ATOM     78  F   UNL A   1      43.758  19.261  25.781  1.00  0.00    -0.200 F 
ATOM     79  C   UNL A   1      44.546  21.129  24.578  1.00  0.00     0.200 A 
ATOM     80  F   UNL A   1      45.305  23.033  23.419  1.00  0.00    -0.200 F 
ATOM     81  F   UNL A   1      45.406  20.354  23.904  1.00  0.00    -0.200 F 
ENDBRANCH  57  71
BRANCH  58  82
ATOM     82  C   UNL A   1      44.437  30.004  34.018  1.00  0.00     0.064 A 
ATOM     83  C   UNL A   1      45.527  30.872  34.143  1.00  0.00     0.173 A 
ATOM     84  C   UNL A   1      43.683  29.853  35.227  1.00  0.00     0.173 A 
ATOM     85  F   UNL A   1      46.400  31.018  33.139  1.00  0.00    -0.203 F 
ATOM     86  C   UNL A   1      45.756  31.619  35.323  1.00  0.00     0.198 A 
ATOM     87  C   UNL A   1      43.869  30.635  36.369  1.00  0.00     0.198 A 
ATOM     88  F   UNL A   1      42.714  28.936  35.345  1.00  0.00    -0.203 F 
ATOM     89  F   UNL A   1      46.809  32.445  35.396  1.00  0.00    -0.200 F 
ATOM     90  C   UNL A   1      44.900  31.537  36.411  1.00  0.00     0.200 A 
ATOM     91  F   UNL A   1      43.023  30.515  37.403  1.00  0.00    -0.200 F 
ATOM     92  F   UNL A   1      45.070  32.312  37.492  1.00  0.00    -0.200 F 
ENDBRANCH  58  82
BRANCH  70  93
ATOM     93  C   UNL A   1      45.669  27.143  28.858  1.00  0.00     0.064 A 
ATOM     94  C   UNL A   1      46.953  27.683  28.699  1.00  0.00     0.173 A 
ATOM     95  C   UNL A   1      44.664  27.736  28.071  1.00  0.00     0.173 A 
ATOM     96  F   UNL A   1      47.982  27.168  29.389  1.00  0.00    -0.203 F 
ATOM     97  C   UNL A   1      47.200  28.761  27.838  1.00  0.00     0.198 A 
ATOM     98  C   UNL A   1      44.902  28.814  27.214  1.00  0.00     0.198 A 
ATOM     99  F   UNL A   1      43.420  27.270  28.097  1.00  0.00    -0.203 F 
ATOM    100  F   UNL A   1      48.444  29.247  27.721  1.00  0.00    -0.200 F 
ATOM    101  C   UNL A   1      46.174  29.332  27.103  1.00  0.00     0.200 A 
ATOM    102  F   UNL A   1      43.897  29.336  26.493  1.00  0.00    -0.200 F 
ATOM    103  F   UNL A   1      46.415  30.359  26.276  1.00  0.00    -0.200 F 
ENDBRANCH  70  93
ENDBRANCH  44  45
ENDBRANCH  37  39
ENDBRANCH  36  37
ENDBRANCH  35  36
ENDBRANCH   1  35
TORSDOF 15
ENDMDL
