MODEL 1
REMARK VINA RESULT:     -12.8      0.000      0.000
REMARK SMILES C[C@H](Oc1cc2oc(=O)cc(-c3ccccc3)c2cc1Cl)C(=O)OCCOC(=O)c1ccc(-c2c3nc(c(-c4c(F)c(F)c(F)c(F)c4F)c4ccc([nH]4)c(-c4c(F)c(F)c(F)c(F)c4F)c4nc(c(-c5c(F)c(F)c(F)c(F)c5F)c5ccc2[nH]5)C=C4)C=C3)cc1
REMARK SMILES IDX 25 1 24 2 22 3 23 4 2 5 1 6 3 7 4 8 5 9 20 10 6 11 19 12
REMARK SMILES IDX 21 13 7 14 18 15 8 16 11 17 9 18 10 19 12 20 13 21 17 22
REMARK SMILES IDX 14 23 16 24 15 25 26 26 27 27 28 28 29 29 30 30 31 31 92 32
REMARK SMILES IDX 32 33 91 34 33 35 34 36 35 37 85 38 36 39 90 40 84 41 86 42
REMARK SMILES IDX 37 43 89 44 83 45 82 46 38 48 70 49 50 50 69 51 51 52 54 53
REMARK SMILES IDX 68 54 87 55 52 56 53 57 67 59 88 60 55 61 39 62 40 63 48 64
REMARK SMILES IDX 41 65 42 66 46 67 49 68 43 69 44 70 47 71 45 72 71 73 72 74
REMARK SMILES IDX 80 75 73 76 74 77 78 78 81 79 75 80 76 81 79 82 77 83 56 84
REMARK SMILES IDX 57 85 65 86 58 87 59 88 63 89 66 90 60 91 61 92 64 93 62 94
REMARK H PARENT 86 47 54 58
REMARK Flexibility Score: inf
ROOT
ATOM      1  C   UNL A   1      43.696  21.144  25.386  1.00  0.00     0.274 C 
ENDROOT
BRANCH   1   2
ATOM      2  O   UNL A   1      42.320  21.553  25.493  1.00  0.00    -0.459 OA
BRANCH   2   3
ATOM      3  C   UNL A   1      41.717  21.383  26.704  1.00  0.00     0.347 C 
ATOM      4  O   UNL A   1      42.284  21.468  27.789  1.00  0.00    -0.248 OA
BRANCH   3   5
ATOM      5  C   UNL A   1      40.254  20.959  26.555  1.00  0.00     0.279 C 
ATOM      6  C   UNL A   1      40.288  19.492  26.120  1.00  0.00     0.066 C 
BRANCH   5   7
ATOM      7  O   UNL A   1      39.613  21.849  25.639  1.00  0.00    -0.477 OA
BRANCH   7   8
ATOM      8  C   UNL A   1      38.273  22.103  25.723  1.00  0.00     0.142 A 
ATOM      9  C   UNL A   1      37.278  21.169  25.459  1.00  0.00     0.096 A 
ATOM     10  C   UNL A   1      37.884  23.411  26.061  1.00  0.00     0.084 A 
ATOM     11  C   UNL A   1      35.949  21.589  25.352  1.00  0.00     0.142 A 
ATOM     12  C   UNL A   1      36.535  23.798  26.028  1.00  0.00     0.037 A 
ATOM     13  Cl  UNL A   1      39.053  24.613  26.483  1.00  0.00    -0.080 Cl
ATOM     14  O   UNL A   1      35.040  20.620  24.891  1.00  0.00    -0.423 OA
ATOM     15  C   UNL A   1      35.549  22.900  25.610  1.00  0.00     0.027 A 
ATOM     16  C   UNL A   1      33.764  20.984  24.510  1.00  0.00     0.336 A 
ATOM     17  C   UNL A   1      34.138  23.274  25.401  1.00  0.00    -0.000 A 
ATOM     18  O   UNL A   1      33.002  20.206  23.949  1.00  0.00    -0.246 OA
ATOM     19  C   UNL A   1      33.337  22.351  24.842  1.00  0.00     0.103 A 
BRANCH  17  20
ATOM     20  C   UNL A   1      33.504  24.582  25.686  1.00  0.00    -0.017 A 
ATOM     21  C   UNL A   1      34.199  25.774  25.421  1.00  0.00     0.009 A 
ATOM     22  C   UNL A   1      32.222  24.660  26.244  1.00  0.00     0.009 A 
ATOM     23  C   UNL A   1      33.627  27.013  25.713  1.00  0.00     0.001 A 
ATOM     24  C   UNL A   1      31.644  25.902  26.522  1.00  0.00     0.001 A 
ATOM     25  C   UNL A   1      32.347  27.076  26.261  1.00  0.00     0.000 A 
ENDBRANCH  17  20
ENDBRANCH   7   8
ENDBRANCH   5   7
ENDBRANCH   3   5
ENDBRANCH   2   3
ENDBRANCH   1   2
BRANCH   1  26
ATOM     26  C   UNL A   1      44.630  22.322  25.100  1.00  0.00     0.275 C 
BRANCH  26  27
ATOM     27  O   UNL A   1      43.888  23.511  24.778  1.00  0.00    -0.458 OA
BRANCH  27  28
ATOM     28  C   UNL A   1      44.513  24.667  25.093  1.00  0.00     0.338 C 
ATOM     29  O   UNL A   1      45.534  25.114  24.587  1.00  0.00    -0.246 OA
BRANCH  28  30
ATOM     30  C   UNL A   1      43.720  25.429  26.069  1.00  0.00     0.060 A 
ATOM     31  C   UNL A   1      44.067  26.770  26.279  1.00  0.00     0.016 A 
ATOM     32  C   UNL A   1      42.710  24.830  26.826  1.00  0.00     0.016 A 
ATOM     33  C   UNL A   1      43.424  27.508  27.268  1.00  0.00     0.010 A 
ATOM     34  C   UNL A   1      42.071  25.570  27.825  1.00  0.00     0.010 A 
ATOM     35  C   UNL A   1      42.446  26.902  28.068  1.00  0.00    -0.014 A 
BRANCH  35  36
ATOM     36  C   UNL A   1      41.913  27.642  29.235  1.00  0.00     0.031 A 
ATOM     37  C   UNL A   1      42.644  27.569  30.545  1.00  0.00     0.074 A 
ATOM     38  C   UNL A   1      40.820  28.414  29.109  1.00  0.00     0.049 A 
ATOM     39  N   UNL A   1      42.374  28.162  31.681  1.00  0.00    -0.248 NA
ATOM     40  C   UNL A   1      43.843  26.717  30.581  1.00  0.00     0.031 C 
ATOM     41  C   UNL A   1      40.047  28.587  27.881  1.00  0.00     0.029 A 
ATOM     42  N   UNL A   1      40.178  29.204  30.028  1.00  0.00    -0.354 N 
ATOM     43  C   UNL A   1      43.361  27.748  32.565  1.00  0.00     0.074 A 
ATOM     44  C   UNL A   1      44.224  26.837  31.843  1.00  0.00     0.031 C 
ATOM     45  C   UNL A   1      39.038  29.443  28.120  1.00  0.00     0.029 A 
ATOM     46  C   UNL A   1      39.082  29.855  29.521  1.00  0.00     0.049 A 
ATOM     47  H   UNL A   1      40.475  29.295  30.963  1.00  0.00     0.167 HD
ATOM     48  C   UNL A   1      43.535  28.103  33.861  1.00  0.00     0.037 A 
ATOM     49  C   UNL A   1      38.212  30.688  30.125  1.00  0.00     0.037 A 
ATOM     50  C   UNL A   1      42.686  29.018  34.574  1.00  0.00     0.049 A 
ATOM     51  C   UNL A   1      38.407  31.033  31.577  1.00  0.00     0.074 A 
ATOM     52  C   UNL A   1      42.795  29.460  35.882  1.00  0.00     0.029 A 
ATOM     53  N   UNL A   1      41.565  29.632  34.036  1.00  0.00    -0.354 N 
ATOM     54  N   UNL A   1      39.358  30.659  32.398  1.00  0.00    -0.248 NA
ATOM     55  C   UNL A   1      37.405  31.920  32.184  1.00  0.00     0.031 C 
ATOM     56  C   UNL A   1      41.716  30.311  36.147  1.00  0.00     0.029 A 
ATOM     57  C   UNL A   1      40.959  30.432  34.993  1.00  0.00     0.049 A 
ATOM     58  H   UNL A   1      41.245  29.517  33.113  1.00  0.00     0.167 HD
ATOM     59  C   UNL A   1      39.087  31.286  33.607  1.00  0.00     0.074 A 
ATOM     60  C   UNL A   1      37.887  32.073  33.411  1.00  0.00     0.031 C 
ATOM     61  C   UNL A   1      39.772  31.217  34.775  1.00  0.00     0.037 A 
BRANCH  48  62
ATOM     62  C   UNL A   1      44.680  27.474  34.597  1.00  0.00     0.064 A 
ATOM     63  C   UNL A   1      45.940  28.086  34.662  1.00  0.00     0.173 A 
ATOM     64  C   UNL A   1      44.507  26.252  35.264  1.00  0.00     0.173 A 
ATOM     65  F   UNL A   1      46.160  29.248  34.028  1.00  0.00    -0.203 F 
ATOM     66  C   UNL A   1      46.992  27.486  35.350  1.00  0.00     0.198 A 
ATOM     67  C   UNL A   1      45.553  25.666  35.970  1.00  0.00     0.198 A 
ATOM     68  F   UNL A   1      43.319  25.628  35.233  1.00  0.00    -0.203 F 
ATOM     69  F   UNL A   1      48.200  28.067  35.364  1.00  0.00    -0.200 F 
ATOM     70  C   UNL A   1      46.796  26.279  36.007  1.00  0.00     0.200 A 
ATOM     71  F   UNL A   1      45.360  24.506  36.612  1.00  0.00    -0.200 F 
ATOM     72  F   UNL A   1      47.809  25.704  36.671  1.00  0.00    -0.200 F 
ENDBRANCH  48  62
BRANCH  49  73
ATOM     73  C   UNL A   1      37.083  31.265  29.353  1.00  0.00     0.064 A 
ATOM     74  C   UNL A   1      37.084  32.615  28.977  1.00  0.00     0.173 A 
ATOM     75  C   UNL A   1      35.976  30.485  28.989  1.00  0.00     0.173 A 
ATOM     76  F   UNL A   1      38.110  33.406  29.325  1.00  0.00    -0.203 F 
ATOM     77  C   UNL A   1      36.013  33.167  28.277  1.00  0.00     0.198 A 
ATOM     78  C   UNL A   1      34.918  31.032  28.269  1.00  0.00     0.198 A 
ATOM     79  F   UNL A   1      35.926  29.190  29.331  1.00  0.00    -0.203 F 
ATOM     80  F   UNL A   1      36.020  34.471  27.965  1.00  0.00    -0.200 F 
ATOM     81  C   UNL A   1      34.934  32.374  27.919  1.00  0.00     0.200 A 
ATOM     82  F   UNL A   1      33.879  30.262  27.918  1.00  0.00    -0.200 F 
ATOM     83  F   UNL A   1      33.904  32.906  27.245  1.00  0.00    -0.200 F 
ENDBRANCH  49  73
BRANCH  61  84
ATOM     84  C   UNL A   1      39.259  32.042  35.919  1.00  0.00     0.064 A 
ATOM     85  C   UNL A   1      39.677  33.366  36.115  1.00  0.00     0.173 A 
ATOM     86  C   UNL A   1      38.314  31.509  36.809  1.00  0.00     0.173 A 
ATOM     87  F   UNL A   1      40.589  33.914  35.299  1.00  0.00    -0.203 F 
ATOM     88  C   UNL A   1      39.186  34.119  37.179  1.00  0.00     0.198 A 
ATOM     89  C   UNL A   1      37.807  32.274  37.856  1.00  0.00     0.198 A 
ATOM     90  F   UNL A   1      37.878  30.250  36.660  1.00  0.00    -0.203 F 
ATOM     91  F   UNL A   1      39.633  35.367  37.376  1.00  0.00    -0.200 F 
ATOM     92  C   UNL A   1      38.248  33.575  38.044  1.00  0.00     0.200 A 
ATOM     93  F   UNL A   1      36.893  31.750  38.686  1.00  0.00    -0.200 F 
ATOM     94  F   UNL A   1      37.775  34.302  39.066  1.00  0.00    -0.200 F 
ENDBRANCH  61  84
ENDBRANCH  35  36
ENDBRANCH  28  30
ENDBRANCH  27  28
ENDBRANCH  26  27
ENDBRANCH   1  26
TORSDOF 14
ENDMDL
MODEL 2
REMARK VINA RESULT:     -12.7      3.487      8.834
REMARK SMILES C[C@H](Oc1cc2oc(=O)cc(-c3ccccc3)c2cc1Cl)C(=O)OCCOC(=O)c1ccc(-c2c3nc(c(-c4c(F)c(F)c(F)c(F)c4F)c4ccc([nH]4)c(-c4c(F)c(F)c(F)c(F)c4F)c4nc(c(-c5c(F)c(F)c(F)c(F)c5F)c5ccc2[nH]5)C=C4)C=C3)cc1
REMARK SMILES IDX 25 1 24 2 22 3 23 4 2 5 1 6 3 7 4 8 5 9 20 10 6 11 19 12
REMARK SMILES IDX 21 13 7 14 18 15 8 16 11 17 9 18 10 19 12 20 13 21 17 22
REMARK SMILES IDX 14 23 16 24 15 25 26 26 27 27 28 28 29 29 30 30 31 31 92 32
REMARK SMILES IDX 32 33 91 34 33 35 34 36 35 37 85 38 36 39 90 40 84 41 86 42
REMARK SMILES IDX 37 43 89 44 83 45 82 46 38 48 70 49 50 50 69 51 51 52 54 53
REMARK SMILES IDX 68 54 87 55 52 56 53 57 67 59 88 60 55 61 39 62 40 63 48 64
REMARK SMILES IDX 41 65 42 66 46 67 49 68 43 69 44 70 47 71 45 72 71 73 72 74
REMARK SMILES IDX 80 75 73 76 74 77 78 78 81 79 75 80 76 81 79 82 77 83 56 84
REMARK SMILES IDX 57 85 65 86 58 87 59 88 63 89 66 90 60 91 61 92 64 93 62 94
REMARK H PARENT 86 47 54 58
REMARK Flexibility Score: inf
ROOT
ATOM      1  C   UNL A   1      32.237  29.649  25.256  1.00  0.00     0.274 C 
ENDROOT
BRANCH   1   2
ATOM      2  O   UNL A   1      31.204  28.656  25.124  1.00  0.00    -0.459 OA
BRANCH   2   3
ATOM      3  C   UNL A   1      30.729  28.423  23.866  1.00  0.00     0.347 C 
ATOM      4  O   UNL A   1      30.590  29.278  22.998  1.00  0.00    -0.248 OA
BRANCH   3   5
ATOM      5  C   UNL A   1      30.279  26.970  23.690  1.00  0.00     0.279 C 
ATOM      6  C   UNL A   1      30.333  26.346  25.086  1.00  0.00     0.066 C 
BRANCH   5   7
ATOM      7  O   UNL A   1      31.119  26.348  22.715  1.00  0.00    -0.477 OA
BRANCH   7   8
ATOM      8  C   UNL A   1      31.969  25.335  23.060  1.00  0.00     0.142 A 
ATOM      9  C   UNL A   1      31.602  23.998  23.152  1.00  0.00     0.096 A 
ATOM     10  C   UNL A   1      33.291  25.685  23.383  1.00  0.00     0.084 A 
ATOM     11  C   UNL A   1      32.482  23.080  23.732  1.00  0.00     0.142 A 
ATOM     12  C   UNL A   1      34.192  24.733  23.889  1.00  0.00     0.037 A 
ATOM     13  Cl  UNL A   1      33.855  27.312  23.219  1.00  0.00    -0.080 Cl
ATOM     14  O   UNL A   1      31.956  21.796  23.963  1.00  0.00    -0.423 OA
ATOM     15  C   UNL A   1      33.774  23.421  24.129  1.00  0.00     0.027 A 
ATOM     16  C   UNL A   1      32.642  20.891  24.749  1.00  0.00     0.336 A 
ATOM     17  C   UNL A   1      34.611  22.407  24.799  1.00  0.00    -0.000 A 
ATOM     18  O   UNL A   1      32.146  19.831  25.110  1.00  0.00    -0.246 OA
ATOM     19  C   UNL A   1      34.023  21.239  25.109  1.00  0.00     0.103 A 
BRANCH  17  20
ATOM     20  C   UNL A   1      36.022  22.548  25.226  1.00  0.00    -0.017 A 
ATOM     21  C   UNL A   1      36.916  21.476  25.068  1.00  0.00     0.009 A 
ATOM     22  C   UNL A   1      36.486  23.730  25.817  1.00  0.00     0.009 A 
ATOM     23  C   UNL A   1      38.241  21.584  25.495  1.00  0.00     0.001 A 
ATOM     24  C   UNL A   1      37.816  23.842  26.230  1.00  0.00     0.001 A 
ATOM     25  C   UNL A   1      38.691  22.769  26.073  1.00  0.00     0.000 A 
ENDBRANCH  17  20
ENDBRANCH   7   8
ENDBRANCH   5   7
ENDBRANCH   3   5
ENDBRANCH   2   3
ENDBRANCH   1   2
BRANCH   1  26
ATOM     26  C   UNL A   1      31.786  30.845  26.097  1.00  0.00     0.275 C 
BRANCH  26  27
ATOM     27  O   UNL A   1      32.485  30.892  27.354  1.00  0.00    -0.458 OA
BRANCH  27  28
ATOM     28  C   UNL A   1      33.300  31.959  27.505  1.00  0.00     0.338 C 
ATOM     29  O   UNL A   1      32.992  33.140  27.424  1.00  0.00    -0.246 OA
BRANCH  28  30
ATOM     30  C   UNL A   1      34.641  31.523  27.925  1.00  0.00     0.060 A 
ATOM     31  C   UNL A   1      34.818  30.166  28.218  1.00  0.00     0.016 A 
ATOM     32  C   UNL A   1      35.687  32.432  28.108  1.00  0.00     0.016 A 
ATOM     33  C   UNL A   1      36.033  29.716  28.726  1.00  0.00     0.010 A 
ATOM     34  C   UNL A   1      36.904  31.980  28.625  1.00  0.00     0.010 A 
ATOM     35  C   UNL A   1      37.071  30.626  28.963  1.00  0.00    -0.014 A 
BRANCH  35  36
ATOM     36  C   UNL A   1      38.283  30.164  29.678  1.00  0.00     0.031 A 
ATOM     37  C   UNL A   1      38.518  30.619  31.091  1.00  0.00     0.074 A 
ATOM     38  C   UNL A   1      39.133  29.304  29.091  1.00  0.00     0.049 A 
ATOM     39  N   UNL A   1      39.491  30.311  31.911  1.00  0.00    -0.248 NA
ATOM     40  C   UNL A   1      37.522  31.542  31.656  1.00  0.00     0.031 C 
ATOM     41  C   UNL A   1      38.991  28.770  27.739  1.00  0.00     0.029 A 
ATOM     42  N   UNL A   1      40.280  28.723  29.567  1.00  0.00    -0.354 N 
ATOM     43  C   UNL A   1      39.229  31.008  33.083  1.00  0.00     0.074 A 
ATOM     44  C   UNL A   1      38.020  31.772  32.862  1.00  0.00     0.031 C 
ATOM     45  C   UNL A   1      40.009  27.927  27.495  1.00  0.00     0.029 A 
ATOM     46  C   UNL A   1      40.884  27.883  28.665  1.00  0.00     0.049 A 
ATOM     47  H   UNL A   1      40.637  28.892  30.469  1.00  0.00     0.167 HD
ATOM     48  C   UNL A   1      39.931  31.003  34.241  1.00  0.00     0.037 A 
ATOM     49  C   UNL A   1      42.018  27.165  28.774  1.00  0.00     0.037 A 
ATOM     50  C   UNL A   1      41.125  30.234  34.464  1.00  0.00     0.049 A 
ATOM     51  C   UNL A   1      42.800  27.211  30.059  1.00  0.00     0.074 A 
ATOM     52  C   UNL A   1      41.895  30.144  35.612  1.00  0.00     0.029 A 
ATOM     53  N   UNL A   1      41.726  29.421  33.515  1.00  0.00    -0.354 N 
ATOM     54  N   UNL A   1      42.531  27.850  31.172  1.00  0.00    -0.248 NA
ATOM     55  C   UNL A   1      44.045  26.430  30.102  1.00  0.00     0.031 C 
ATOM     56  C   UNL A   1      42.984  29.306  35.345  1.00  0.00     0.029 A 
ATOM     57  C   UNL A   1      42.870  28.842  34.044  1.00  0.00     0.049 A 
ATOM     58  H   UNL A   1      41.391  29.276  32.602  1.00  0.00     0.167 HD
ATOM     59  C   UNL A   1      43.553  27.527  32.055  1.00  0.00     0.074 A 
ATOM     60  C   UNL A   1      44.444  26.627  31.352  1.00  0.00     0.031 C 
ATOM     61  C   UNL A   1      43.737  27.939  33.333  1.00  0.00     0.037 A 
BRANCH  48  62
ATOM     62  C   UNL A   1      39.434  31.882  35.349  1.00  0.00     0.064 A 
ATOM     63  C   UNL A   1      38.566  31.400  36.340  1.00  0.00     0.173 A 
ATOM     64  C   UNL A   1      39.849  33.220  35.432  1.00  0.00     0.173 A 
ATOM     65  F   UNL A   1      38.129  30.133  36.296  1.00  0.00    -0.203 F 
ATOM     66  C   UNL A   1      38.113  32.233  37.360  1.00  0.00     0.198 A 
ATOM     67  C   UNL A   1      39.414  34.043  36.466  1.00  0.00     0.198 A 
ATOM     68  F   UNL A   1      40.681  33.728  34.509  1.00  0.00    -0.203 F 
ATOM     69  F   UNL A   1      37.251  31.764  38.273  1.00  0.00    -0.200 F 
ATOM     70  C   UNL A   1      38.541  33.551  37.425  1.00  0.00     0.200 A 
ATOM     71  F   UNL A   1      39.835  35.313  36.533  1.00  0.00    -0.200 F 
ATOM     72  F   UNL A   1      38.107  34.351  38.410  1.00  0.00    -0.200 F 
ENDBRANCH  48  62
BRANCH  49  73
ATOM     73  C   UNL A   1      42.476  26.328  27.637  1.00  0.00     0.064 A 
ATOM     74  C   UNL A   1      41.964  25.038  27.440  1.00  0.00     0.173 A 
ATOM     75  C   UNL A   1      43.443  26.793  26.734  1.00  0.00     0.173 A 
ATOM     76  F   UNL A   1      41.056  24.541  28.293  1.00  0.00    -0.203 F 
ATOM     77  C   UNL A   1      42.413  24.239  26.391  1.00  0.00     0.198 A 
ATOM     78  C   UNL A   1      43.873  26.002  25.672  1.00  0.00     0.198 A 
ATOM     79  F   UNL A   1      43.967  28.018  26.884  1.00  0.00    -0.203 F 
ATOM     80  F   UNL A   1      41.937  22.994  26.249  1.00  0.00    -0.200 F 
ATOM     81  C   UNL A   1      43.363  24.724  25.504  1.00  0.00     0.200 A 
ATOM     82  F   UNL A   1      44.786  26.476  24.812  1.00  0.00    -0.200 F 
ATOM     83  F   UNL A   1      43.793  23.955  24.495  1.00  0.00    -0.200 F 
ENDBRANCH  49  73
BRANCH  61  84
ATOM     84  C   UNL A   1      44.927  27.390  34.065  1.00  0.00     0.064 A 
ATOM     85  C   UNL A   1      44.861  26.182  34.773  1.00  0.00     0.173 A 
ATOM     86  C   UNL A   1      46.155  28.068  34.028  1.00  0.00     0.173 A 
ATOM     87  F   UNL A   1      43.705  25.507  34.849  1.00  0.00    -0.203 F 
ATOM     88  C   UNL A   1      45.977  25.686  35.442  1.00  0.00     0.198 A 
ATOM     89  C   UNL A   1      47.275  27.554  34.676  1.00  0.00     0.198 A 
ATOM     90  F   UNL A   1      46.271  29.224  33.358  1.00  0.00    -0.203 F 
ATOM     91  F   UNL A   1      45.880  24.553  36.151  1.00  0.00    -0.200 F 
ATOM     92  C   UNL A   1      47.183  26.367  35.388  1.00  0.00     0.200 A 
ATOM     93  F   UNL A   1      48.443  28.209  34.615  1.00  0.00    -0.200 F 
ATOM     94  F   UNL A   1      48.256  25.886  36.030  1.00  0.00    -0.200 F 
ENDBRANCH  61  84
ENDBRANCH  35  36
ENDBRANCH  28  30
ENDBRANCH  27  28
ENDBRANCH  26  27
ENDBRANCH   1  26
TORSDOF 14
ENDMDL
MODEL 3
REMARK VINA RESULT:     -12.6      3.407      8.684
REMARK SMILES C[C@H](Oc1cc2oc(=O)cc(-c3ccccc3)c2cc1Cl)C(=O)OCCOC(=O)c1ccc(-c2c3nc(c(-c4c(F)c(F)c(F)c(F)c4F)c4ccc([nH]4)c(-c4c(F)c(F)c(F)c(F)c4F)c4nc(c(-c5c(F)c(F)c(F)c(F)c5F)c5ccc2[nH]5)C=C4)C=C3)cc1
REMARK SMILES IDX 25 1 24 2 22 3 23 4 2 5 1 6 3 7 4 8 5 9 20 10 6 11 19 12
REMARK SMILES IDX 21 13 7 14 18 15 8 16 11 17 9 18 10 19 12 20 13 21 17 22
REMARK SMILES IDX 14 23 16 24 15 25 26 26 27 27 28 28 29 29 30 30 31 31 92 32
REMARK SMILES IDX 32 33 91 34 33 35 34 36 35 37 85 38 36 39 90 40 84 41 86 42
REMARK SMILES IDX 37 43 89 44 83 45 82 46 38 48 70 49 50 50 69 51 51 52 54 53
REMARK SMILES IDX 68 54 87 55 52 56 53 57 67 59 88 60 55 61 39 62 40 63 48 64
REMARK SMILES IDX 41 65 42 66 46 67 49 68 43 69 44 70 47 71 45 72 71 73 72 74
REMARK SMILES IDX 80 75 73 76 74 77 78 78 81 79 75 80 76 81 79 82 77 83 56 84
REMARK SMILES IDX 57 85 65 86 58 87 59 88 63 89 66 90 60 91 61 92 64 93 62 94
REMARK H PARENT 86 47 54 58
REMARK Flexibility Score: inf
ROOT
ATOM      1  C   UNL A   1      31.611  29.698  25.375  1.00  0.00     0.274 C 
ENDROOT
BRANCH   1   2
ATOM      2  O   UNL A   1      32.587  28.707  25.745  1.00  0.00    -0.459 OA
BRANCH   2   3
ATOM      3  C   UNL A   1      32.112  27.522  26.224  1.00  0.00     0.347 C 
ATOM      4  O   UNL A   1      31.057  27.383  26.835  1.00  0.00    -0.248 OA
BRANCH   3   5
ATOM      5  C   UNL A   1      33.108  26.380  26.004  1.00  0.00     0.279 C 
ATOM      6  C   UNL A   1      33.424  26.388  24.506  1.00  0.00     0.066 C 
BRANCH   5   7
ATOM      7  O   UNL A   1      32.531  25.169  26.496  1.00  0.00    -0.477 OA
BRANCH   7   8
ATOM      8  C   UNL A   1      33.153  23.967  26.312  1.00  0.00     0.142 A 
ATOM      9  C   UNL A   1      34.511  23.747  26.503  1.00  0.00     0.096 A 
ATOM     10  C   UNL A   1      32.364  22.896  25.858  1.00  0.00     0.084 A 
ATOM     11  C   UNL A   1      35.083  22.547  26.070  1.00  0.00     0.142 A 
ATOM     12  C   UNL A   1      32.943  21.667  25.503  1.00  0.00     0.037 A 
ATOM     13  Cl  UNL A   1      30.652  23.058  25.671  1.00  0.00    -0.080 Cl
ATOM     14  O   UNL A   1      36.488  22.490  26.122  1.00  0.00    -0.423 OA
ATOM     15  C   UNL A   1      34.329  21.498  25.547  1.00  0.00     0.027 A 
ATOM     16  C   UNL A   1      37.169  21.466  25.494  1.00  0.00     0.336 A 
ATOM     17  C   UNL A   1      35.022  20.296  25.046  1.00  0.00    -0.000 A 
ATOM     18  O   UNL A   1      38.388  21.469  25.374  1.00  0.00    -0.246 OA
ATOM     19  C   UNL A   1      36.365  20.339  25.001  1.00  0.00     0.103 A 
BRANCH  17  20
ATOM     20  C   UNL A   1      34.404  19.054  24.526  1.00  0.00    -0.017 A 
ATOM     21  C   UNL A   1      35.088  17.832  24.626  1.00  0.00     0.009 A 
ATOM     22  C   UNL A   1      33.148  19.075  23.905  1.00  0.00     0.009 A 
ATOM     23  C   UNL A   1      34.531  16.659  24.112  1.00  0.00     0.001 A 
ATOM     24  C   UNL A   1      32.586  17.898  23.406  1.00  0.00     0.001 A 
ATOM     25  C   UNL A   1      33.278  16.693  23.505  1.00  0.00     0.000 A 
ENDBRANCH  17  20
ENDBRANCH   7   8
ENDBRANCH   5   7
ENDBRANCH   3   5
ENDBRANCH   2   3
ENDBRANCH   1   2
BRANCH   1  26
ATOM     26  C   UNL A   1      31.772  30.996  26.170  1.00  0.00     0.275 C 
BRANCH  26  27
ATOM     27  O   UNL A   1      32.667  30.819  27.282  1.00  0.00    -0.458 OA
BRANCH  27  28
ATOM     28  C   UNL A   1      33.443  31.890  27.556  1.00  0.00     0.338 C 
ATOM     29  O   UNL A   1      33.100  33.065  27.568  1.00  0.00    -0.246 OA
BRANCH  28  30
ATOM     30  C   UNL A   1      34.781  31.457  27.986  1.00  0.00     0.060 A 
ATOM     31  C   UNL A   1      34.974  30.091  28.221  1.00  0.00     0.016 A 
ATOM     32  C   UNL A   1      35.808  32.373  28.233  1.00  0.00     0.016 A 
ATOM     33  C   UNL A   1      36.186  29.638  28.734  1.00  0.00     0.010 A 
ATOM     34  C   UNL A   1      37.021  31.918  28.755  1.00  0.00     0.010 A 
ATOM     35  C   UNL A   1      37.204  30.552  29.034  1.00  0.00    -0.014 A 
BRANCH  35  36
ATOM     36  C   UNL A   1      38.408  30.077  29.755  1.00  0.00     0.031 A 
ATOM     37  C   UNL A   1      38.646  30.534  31.166  1.00  0.00     0.074 A 
ATOM     38  C   UNL A   1      39.247  29.203  29.173  1.00  0.00     0.049 A 
ATOM     39  N   UNL A   1      39.613  30.217  31.989  1.00  0.00    -0.248 NA
ATOM     40  C   UNL A   1      37.661  31.473  31.725  1.00  0.00     0.031 C 
ATOM     41  C   UNL A   1      39.101  28.665  27.822  1.00  0.00     0.029 A 
ATOM     42  N   UNL A   1      40.386  28.609  29.653  1.00  0.00    -0.354 N 
ATOM     43  C   UNL A   1      39.358  30.922  33.158  1.00  0.00     0.074 A 
ATOM     44  C   UNL A   1      38.159  31.701  32.931  1.00  0.00     0.031 C 
ATOM     45  C   UNL A   1      40.109  27.808  27.584  1.00  0.00     0.029 A 
ATOM     46  C   UNL A   1      40.981  27.758  28.756  1.00  0.00     0.049 A 
ATOM     47  H   UNL A   1      40.743  28.777  30.556  1.00  0.00     0.167 HD
ATOM     48  C   UNL A   1      40.057  30.913  34.318  1.00  0.00     0.037 A 
ATOM     49  C   UNL A   1      42.104  27.025  28.871  1.00  0.00     0.037 A 
ATOM     50  C   UNL A   1      41.240  30.128  34.547  1.00  0.00     0.049 A 
ATOM     51  C   UNL A   1      42.884  27.065  30.158  1.00  0.00     0.074 A 
ATOM     52  C   UNL A   1      42.006  30.033  35.697  1.00  0.00     0.029 A 
ATOM     53  N   UNL A   1      41.832  29.304  33.603  1.00  0.00    -0.354 N 
ATOM     54  N   UNL A   1      42.622  27.713  31.267  1.00  0.00    -0.248 NA
ATOM     55  C   UNL A   1      44.118  26.268  30.207  1.00  0.00     0.031 C 
ATOM     56  C   UNL A   1      43.084  29.180  35.435  1.00  0.00     0.029 A 
ATOM     57  C   UNL A   1      42.967  28.712  34.136  1.00  0.00     0.049 A 
ATOM     58  H   UNL A   1      41.497  29.160  32.689  1.00  0.00     0.167 HD
ATOM     59  C   UNL A   1      43.637  27.380  32.154  1.00  0.00     0.074 A 
ATOM     60  C   UNL A   1      44.517  26.465  31.457  1.00  0.00     0.031 C 
ATOM     61  C   UNL A   1      43.824  27.795  33.431  1.00  0.00     0.037 A 
BRANCH  48  62
ATOM     62  C   UNL A   1      39.569  31.803  35.421  1.00  0.00     0.064 A 
ATOM     63  C   UNL A   1      40.022  33.123  35.558  1.00  0.00     0.173 A 
ATOM     64  C   UNL A   1      38.616  31.335  36.338  1.00  0.00     0.173 A 
ATOM     65  F   UNL A   1      40.944  33.611  34.715  1.00  0.00    -0.203 F 
ATOM     66  C   UNL A   1      39.558  33.935  36.590  1.00  0.00     0.198 A 
ATOM     67  C   UNL A   1      38.136  32.157  37.354  1.00  0.00     0.198 A 
ATOM     68  F   UNL A   1      38.149  30.080  36.247  1.00  0.00    -0.203 F 
ATOM     69  F   UNL A   1      40.036  35.179  36.730  1.00  0.00    -0.200 F 
ATOM     70  C   UNL A   1      38.612  33.453  37.484  1.00  0.00     0.200 A 
ATOM     71  F   UNL A   1      37.216  31.693  38.211  1.00  0.00    -0.200 F 
ATOM     72  F   UNL A   1      38.163  34.236  38.475  1.00  0.00    -0.200 F 
ENDBRANCH  48  62
BRANCH  49  73
ATOM     73  C   UNL A   1      42.554  26.177  27.739  1.00  0.00     0.064 A 
ATOM     74  C   UNL A   1      43.517  26.640  26.831  1.00  0.00     0.173 A 
ATOM     75  C   UNL A   1      42.022  24.896  27.532  1.00  0.00     0.173 A 
ATOM     76  F   UNL A   1      44.035  27.868  26.974  1.00  0.00    -0.203 F 
ATOM     77  C   UNL A   1      43.921  25.859  25.751  1.00  0.00     0.198 A 
ATOM     78  C   UNL A   1      42.444  24.107  26.466  1.00  0.00     0.198 A 
ATOM     79  F   UNL A   1      41.095  24.411  28.369  1.00  0.00    -0.203 F 
ATOM     80  F   UNL A   1      44.813  26.340  24.874  1.00  0.00    -0.200 F 
ATOM     81  C   UNL A   1      43.388  24.590  25.572  1.00  0.00     0.200 A 
ATOM     82  F   UNL A   1      41.933  22.879  26.299  1.00  0.00    -0.200 F 
ATOM     83  F   UNL A   1      43.778  23.839  24.533  1.00  0.00    -0.200 F 
ENDBRANCH  49  73
BRANCH  61  84
ATOM     84  C   UNL A   1      45.004  27.233  34.167  1.00  0.00     0.064 A 
ATOM     85  C   UNL A   1      44.918  26.035  34.891  1.00  0.00     0.173 A 
ATOM     86  C   UNL A   1      46.245  27.887  34.121  1.00  0.00     0.173 A 
ATOM     87  F   UNL A   1      43.749  25.382  34.977  1.00  0.00    -0.203 F 
ATOM     88  C   UNL A   1      46.025  25.526  35.563  1.00  0.00     0.198 A 
ATOM     89  C   UNL A   1      47.356  27.361  34.773  1.00  0.00     0.198 A 
ATOM     90  F   UNL A   1      46.381  29.033  33.436  1.00  0.00    -0.203 F 
ATOM     91  F   UNL A   1      45.909  24.404  36.287  1.00  0.00    -0.200 F 
ATOM     92  C   UNL A   1      47.244  26.185  35.500  1.00  0.00     0.200 A 
ATOM     93  F   UNL A   1      48.536  27.994  34.703  1.00  0.00    -0.200 F 
ATOM     94  F   UNL A   1      48.309  25.692  36.146  1.00  0.00    -0.200 F 
ENDBRANCH  61  84
ENDBRANCH  35  36
ENDBRANCH  28  30
ENDBRANCH  27  28
ENDBRANCH  26  27
ENDBRANCH   1  26
TORSDOF 14
ENDMDL
