MODEL 1
REMARK VINA RESULT:     -12.6      0.000      0.000
REMARK SMILES O=C(OCCOC(=O)c1ccc(-n2cnc3ccccc32)nc1)c1ccc(-c2c3nc(c(-c4c(F)c(F)c(F)c(F)c4F)c4ccc([nH]4)c(-c4c(F)c(F)c(F)c(F)c4F)c4nc(c(-c5c(F)c(F)c(F)c(F)c5F)c5ccc2[nH]5)C=C4)C=C3)cc1
REMARK SMILES IDX 4 1 3 2 2 3 1 4 24 5 25 6 86 7 26 8 85 9 27 10 28 11 29 12
REMARK SMILES IDX 79 13 30 14 84 15 78 16 80 17 31 18 83 19 77 20 76 21 32 23
REMARK SMILES IDX 64 24 44 25 63 26 45 27 48 28 62 29 81 30 46 31 47 32 61 34
REMARK SMILES IDX 82 35 49 36 33 37 34 38 42 39 35 40 36 41 40 42 43 43 37 44
REMARK SMILES IDX 38 45 41 46 39 47 65 48 66 49 74 50 67 51 68 52 72 53 75 54
REMARK SMILES IDX 69 55 70 56 73 57 71 58 50 59 51 60 59 61 52 62 53 63 57 64
REMARK SMILES IDX 60 65 54 66 55 67 58 68 56 69 5 70 6 71 7 72 8 73 9 74 10 75
REMARK SMILES IDX 23 76 11 77 22 78 12 79 13 80 14 81 21 82 15 83 16 84 20 85
REMARK SMILES IDX 17 86 19 87 18 88
REMARK H PARENT 80 22 48 33
REMARK Flexibility Score: inf
ROOT
ATOM      1  C   UNL A   1      43.676  18.433  25.426  1.00  0.00     0.275 C 
ENDROOT
BRANCH   1   2
ATOM      2  O   UNL A   1      43.874  19.553  24.518  1.00  0.00    -0.458 OA
BRANCH   2   3
ATOM      3  C   UNL A   1      45.055  20.149  24.185  1.00  0.00     0.338 C 
ATOM      4  O   UNL A   1      46.028  19.506  23.816  1.00  0.00    -0.246 OA
BRANCH   3   5
ATOM      5  C   UNL A   1      45.190  21.582  24.499  1.00  0.00     0.060 A 
ATOM      6  C   UNL A   1      46.007  21.880  25.580  1.00  0.00     0.016 A 
ATOM      7  C   UNL A   1      44.313  22.538  23.978  1.00  0.00     0.016 A 
ATOM      8  C   UNL A   1      45.660  22.968  26.354  1.00  0.00     0.010 A 
ATOM      9  C   UNL A   1      43.991  23.655  24.745  1.00  0.00     0.010 A 
ATOM     10  C   UNL A   1      44.581  23.804  25.997  1.00  0.00    -0.014 A 
BRANCH  10  11
ATOM     11  C   UNL A   1      44.301  24.923  26.912  1.00  0.00     0.031 A 
ATOM     12  C   UNL A   1      45.413  25.913  26.872  1.00  0.00     0.074 A 
ATOM     13  C   UNL A   1      43.202  25.108  27.678  1.00  0.00     0.049 A 
ATOM     14  N   UNL A   1      46.180  26.285  27.847  1.00  0.00    -0.248 NA
ATOM     15  C   UNL A   1      45.884  26.332  25.534  1.00  0.00     0.031 C 
ATOM     16  C   UNL A   1      41.969  24.320  27.686  1.00  0.00     0.029 A 
ATOM     17  N   UNL A   1      42.915  26.116  28.566  1.00  0.00    -0.354 N 
ATOM     18  C   UNL A   1      47.124  27.121  27.260  1.00  0.00     0.074 A 
ATOM     19  C   UNL A   1      47.022  26.951  25.836  1.00  0.00     0.031 C 
ATOM     20  C   UNL A   1      40.997  25.011  28.325  1.00  0.00     0.029 A 
ATOM     21  C   UNL A   1      41.557  26.240  28.858  1.00  0.00     0.049 A 
ATOM     22  H   UNL A   1      43.605  26.698  28.960  1.00  0.00     0.167 HD
ATOM     23  C   UNL A   1      47.701  28.128  27.959  1.00  0.00     0.037 A 
ATOM     24  C   UNL A   1      40.933  27.313  29.411  1.00  0.00     0.037 A 
ATOM     25  C   UNL A   1      47.642  27.899  29.373  1.00  0.00     0.049 A 
ATOM     26  C   UNL A   1      41.954  28.113  30.121  1.00  0.00     0.074 A 
ATOM     27  C   UNL A   1      48.279  27.075  30.274  1.00  0.00     0.029 A 
ATOM     28  N   UNL A   1      46.511  28.372  29.977  1.00  0.00    -0.354 N 
ATOM     29  N   UNL A   1      42.544  27.735  31.219  1.00  0.00    -0.248 NA
ATOM     30  C   UNL A   1      42.573  29.239  29.433  1.00  0.00     0.031 C 
ATOM     31  C   UNL A   1      47.368  26.900  31.358  1.00  0.00     0.029 A 
ATOM     32  C   UNL A   1      46.218  27.644  31.096  1.00  0.00     0.049 A 
ATOM     33  H   UNL A   1      45.979  29.133  29.650  1.00  0.00     0.167 HD
ATOM     34  C   UNL A   1      43.814  28.267  31.123  1.00  0.00     0.074 A 
ATOM     35  C   UNL A   1      43.719  29.312  30.112  1.00  0.00     0.031 C 
ATOM     36  C   UNL A   1      44.879  27.594  31.639  1.00  0.00     0.037 A 
BRANCH  23  37
ATOM     37  C   UNL A   1      47.825  29.513  27.369  1.00  0.00     0.064 A 
ATOM     38  C   UNL A   1      49.046  30.202  27.449  1.00  0.00     0.173 A 
ATOM     39  C   UNL A   1      46.708  30.296  26.987  1.00  0.00     0.173 A 
ATOM     40  F   UNL A   1      50.152  29.576  27.879  1.00  0.00    -0.203 F 
ATOM     41  C   UNL A   1      49.136  31.570  27.174  1.00  0.00     0.198 A 
ATOM     42  C   UNL A   1      46.813  31.640  26.649  1.00  0.00     0.198 A 
ATOM     43  F   UNL A   1      45.455  29.828  27.048  1.00  0.00    -0.203 F 
ATOM     44  F   UNL A   1      50.295  32.213  27.365  1.00  0.00    -0.200 F 
ATOM     45  C   UNL A   1      48.022  32.285  26.763  1.00  0.00     0.200 A 
ATOM     46  F   UNL A   1      45.709  32.315  26.296  1.00  0.00    -0.200 F 
ATOM     47  F   UNL A   1      48.098  33.602  26.536  1.00  0.00    -0.200 F 
ENDBRANCH  23  37
BRANCH  24  48
ATOM     48  C   UNL A   1      39.581  27.875  29.129  1.00  0.00     0.064 A 
ATOM     49  C   UNL A   1      38.625  28.014  30.155  1.00  0.00     0.173 A 
ATOM     50  C   UNL A   1      39.308  28.572  27.937  1.00  0.00     0.173 A 
ATOM     51  F   UNL A   1      38.811  27.412  31.339  1.00  0.00    -0.203 F 
ATOM     52  C   UNL A   1      37.506  28.845  30.018  1.00  0.00     0.198 A 
ATOM     53  C   UNL A   1      38.186  29.392  27.797  1.00  0.00     0.198 A 
ATOM     54  F   UNL A   1      40.175  28.557  26.915  1.00  0.00    -0.203 F 
ATOM     55  F   UNL A   1      36.668  29.017  31.051  1.00  0.00    -0.200 F 
ATOM     56  C   UNL A   1      37.297  29.547  28.844  1.00  0.00     0.200 A 
ATOM     57  F   UNL A   1      38.014  30.090  26.666  1.00  0.00    -0.200 F 
ATOM     58  F   UNL A   1      36.271  30.402  28.736  1.00  0.00    -0.200 F 
ENDBRANCH  24  48
BRANCH  36  59
ATOM     59  C   UNL A   1      44.605  26.607  32.730  1.00  0.00     0.064 A 
ATOM     60  C   UNL A   1      44.338  25.244  32.523  1.00  0.00     0.173 A 
ATOM     61  C   UNL A   1      44.715  27.057  34.052  1.00  0.00     0.173 A 
ATOM     62  F   UNL A   1      44.297  24.726  31.286  1.00  0.00    -0.203 F 
ATOM     63  C   UNL A   1      44.160  24.380  33.604  1.00  0.00     0.198 A 
ATOM     64  C   UNL A   1      44.578  26.186  35.126  1.00  0.00     0.198 A 
ATOM     65  F   UNL A   1      45.006  28.344  34.301  1.00  0.00    -0.203 F 
ATOM     66  F   UNL A   1      43.892  23.083  33.389  1.00  0.00    -0.200 F 
ATOM     67  C   UNL A   1      44.292  24.850  34.901  1.00  0.00     0.200 A 
ATOM     68  F   UNL A   1      44.752  26.637  36.375  1.00  0.00    -0.200 F 
ATOM     69  F   UNL A   1      44.168  24.009  35.937  1.00  0.00    -0.200 F 
ENDBRANCH  36  59
ENDBRANCH  10  11
ENDBRANCH   3   5
ENDBRANCH   2   3
ENDBRANCH   1   2
BRANCH   1  70
ATOM     70  C   UNL A   1      42.471  18.520  26.379  1.00  0.00     0.275 C 
BRANCH  70  71
ATOM     71  O   UNL A   1      41.464  19.403  25.887  1.00  0.00    -0.458 OA
BRANCH  71  72
ATOM     72  C   UNL A   1      40.998  20.376  26.689  1.00  0.00     0.339 C 
ATOM     73  O   UNL A   1      41.490  20.808  27.716  1.00  0.00    -0.246 OA
BRANCH  72  74
ATOM     74  C   UNL A   1      39.759  20.863  26.075  1.00  0.00     0.078 A 
ATOM     75  C   UNL A   1      39.295  22.158  26.296  1.00  0.00     0.021 A 
ATOM     76  C   UNL A   1      38.965  19.983  25.359  1.00  0.00     0.129 A 
ATOM     77  C   UNL A   1      38.068  22.538  25.748  1.00  0.00     0.048 A 
ATOM     78  N   UNL A   1      37.757  20.324  24.840  1.00  0.00    -0.238 NA
ATOM     79  C   UNL A   1      37.352  21.612  24.990  1.00  0.00     0.138 A 
BRANCH  79  80
ATOM     80  N   UNL A   1      36.183  22.011  24.286  1.00  0.00    -0.283 N 
ATOM     81  C   UNL A   1      36.118  23.067  23.405  1.00  0.00     0.206 A 
ATOM     82  C   UNL A   1      34.885  21.544  24.447  1.00  0.00     0.074 A 
ATOM     83  N   UNL A   1      34.901  23.274  22.952  1.00  0.00    -0.236 NA
ATOM     84  C   UNL A   1      34.119  22.376  23.628  1.00  0.00     0.089 A 
ATOM     85  C   UNL A   1      34.291  20.586  25.287  1.00  0.00     0.029 A 
ATOM     86  C   UNL A   1      32.720  22.244  23.622  1.00  0.00     0.030 A 
ATOM     87  C   UNL A   1      32.897  20.477  25.274  1.00  0.00     0.002 A 
ATOM     88  C   UNL A   1      32.121  21.295  24.457  1.00  0.00     0.002 A 
ENDBRANCH  79  80
ENDBRANCH  72  74
ENDBRANCH  71  72
ENDBRANCH  70  71
ENDBRANCH   1  70
TORSDOF 12
ENDMDL
MODEL 2
REMARK VINA RESULT:     -12.4      5.215     11.419
REMARK SMILES O=C(OCCOC(=O)c1ccc(-n2cnc3ccccc32)nc1)c1ccc(-c2c3nc(c(-c4c(F)c(F)c(F)c(F)c4F)c4ccc([nH]4)c(-c4c(F)c(F)c(F)c(F)c4F)c4nc(c(-c5c(F)c(F)c(F)c(F)c5F)c5ccc2[nH]5)C=C4)C=C3)cc1
REMARK SMILES IDX 4 1 3 2 2 3 1 4 24 5 25 6 86 7 26 8 85 9 27 10 28 11 29 12
REMARK SMILES IDX 79 13 30 14 84 15 78 16 80 17 31 18 83 19 77 20 76 21 32 23
REMARK SMILES IDX 64 24 44 25 63 26 45 27 48 28 62 29 81 30 46 31 47 32 61 34
REMARK SMILES IDX 82 35 49 36 33 37 34 38 42 39 35 40 36 41 40 42 43 43 37 44
REMARK SMILES IDX 38 45 41 46 39 47 65 48 66 49 74 50 67 51 68 52 72 53 75 54
REMARK SMILES IDX 69 55 70 56 73 57 71 58 50 59 51 60 59 61 52 62 53 63 57 64
REMARK SMILES IDX 60 65 54 66 55 67 58 68 56 69 5 70 6 71 7 72 8 73 9 74 10 75
REMARK SMILES IDX 23 76 11 77 22 78 12 79 13 80 14 81 21 82 15 83 16 84 20 85
REMARK SMILES IDX 17 86 19 87 18 88
REMARK H PARENT 80 22 48 33
REMARK Flexibility Score: inf
ROOT
ATOM      1  C   UNL A   1      33.904  34.078  27.980  1.00  0.00     0.275 C 
ENDROOT
BRANCH   1   2
ATOM      2  O   UNL A   1      34.866  33.179  28.599  1.00  0.00    -0.458 OA
BRANCH   2   3
ATOM      3  C   UNL A   1      35.082  31.865  28.303  1.00  0.00     0.338 C 
ATOM      4  O   UNL A   1      34.309  31.219  27.609  1.00  0.00    -0.246 OA
BRANCH   3   5
ATOM      5  C   UNL A   1      36.166  31.187  29.035  1.00  0.00     0.060 A 
ATOM      6  C   UNL A   1      37.275  31.971  29.317  1.00  0.00     0.016 A 
ATOM      7  C   UNL A   1      36.227  29.794  29.138  1.00  0.00     0.016 A 
ATOM      8  C   UNL A   1      38.506  31.350  29.316  1.00  0.00     0.010 A 
ATOM      9  C   UNL A   1      37.471  29.169  29.173  1.00  0.00     0.010 A 
ATOM     10  C   UNL A   1      38.620  29.954  29.138  1.00  0.00    -0.014 A 
BRANCH  10  11
ATOM     11  C   UNL A   1      39.989  29.413  29.141  1.00  0.00     0.031 A 
ATOM     12  C   UNL A   1      40.511  29.335  30.534  1.00  0.00     0.074 A 
ATOM     13  C   UNL A   1      40.713  28.994  28.078  1.00  0.00     0.049 A 
ATOM     14  N   UNL A   1      41.546  29.936  31.027  1.00  0.00    -0.248 NA
ATOM     15  C   UNL A   1      39.621  28.727  31.545  1.00  0.00     0.031 C 
ATOM     16  C   UNL A   1      40.271  28.848  26.690  1.00  0.00     0.029 A 
ATOM     17  N   UNL A   1      41.999  28.514  28.031  1.00  0.00    -0.354 N 
ATOM     18  C   UNL A   1      41.522  29.633  32.384  1.00  0.00     0.074 A 
ATOM     19  C   UNL A   1      40.230  29.072  32.676  1.00  0.00     0.031 C 
ATOM     20  C   UNL A   1      41.163  28.091  26.011  1.00  0.00     0.029 A 
ATOM     21  C   UNL A   1      42.287  27.784  26.878  1.00  0.00     0.049 A 
ATOM     22  H   UNL A   1      42.658  28.672  28.745  1.00  0.00     0.167 HD
ATOM     23  C   UNL A   1      42.666  29.561  33.108  1.00  0.00     0.037 A 
ATOM     24  C   UNL A   1      43.320  26.921  26.691  1.00  0.00     0.037 A 
ATOM     25  C   UNL A   1      43.730  30.305  32.500  1.00  0.00     0.049 A 
ATOM     26  C   UNL A   1      44.369  27.253  27.680  1.00  0.00     0.074 A 
ATOM     27  C   UNL A   1      44.055  31.634  32.349  1.00  0.00     0.029 A 
ATOM     28  N   UNL A   1      44.472  29.595  31.598  1.00  0.00    -0.354 N 
ATOM     29  N   UNL A   1      45.099  28.330  27.636  1.00  0.00    -0.248 NA
ATOM     30  C   UNL A   1      44.410  26.517  28.939  1.00  0.00     0.031 C 
ATOM     31  C   UNL A   1      44.855  31.712  31.171  1.00  0.00     0.029 A 
ATOM     32  C   UNL A   1      45.015  30.426  30.657  1.00  0.00     0.049 A 
ATOM     33  H   UNL A   1      44.599  28.619  31.622  1.00  0.00     0.167 HD
ATOM     34  C   UNL A   1      45.329  28.637  28.962  1.00  0.00     0.074 A 
ATOM     35  C   UNL A   1      45.042  27.413  29.698  1.00  0.00     0.031 C 
ATOM     36  C   UNL A   1      45.420  29.937  29.358  1.00  0.00     0.037 A 
BRANCH  23  37
ATOM     37  C   UNL A   1      42.919  28.408  34.049  1.00  0.00     0.064 A 
ATOM     38  C   UNL A   1      43.212  28.657  35.400  1.00  0.00     0.173 A 
ATOM     39  C   UNL A   1      43.171  27.086  33.605  1.00  0.00     0.173 A 
ATOM     40  F   UNL A   1      43.087  29.893  35.905  1.00  0.00    -0.203 F 
ATOM     41  C   UNL A   1      43.722  27.658  36.237  1.00  0.00     0.198 A 
ATOM     42  C   UNL A   1      43.614  26.080  34.455  1.00  0.00     0.198 A 
ATOM     43  F   UNL A   1      43.121  26.748  32.311  1.00  0.00    -0.203 F 
ATOM     44  F   UNL A   1      44.088  27.962  37.489  1.00  0.00    -0.200 F 
ATOM     45  C   UNL A   1      43.912  26.369  35.767  1.00  0.00     0.200 A 
ATOM     46  F   UNL A   1      43.829  24.851  33.961  1.00  0.00    -0.200 F 
ATOM     47  F   UNL A   1      44.434  25.422  36.555  1.00  0.00    -0.200 F 
ENDBRANCH  23  37
BRANCH  24  48
ATOM     48  C   UNL A   1      43.361  25.638  25.933  1.00  0.00     0.064 A 
ATOM     49  C   UNL A   1      44.490  25.285  25.166  1.00  0.00     0.173 A 
ATOM     50  C   UNL A   1      42.445  24.601  26.192  1.00  0.00     0.173 A 
ATOM     51  F   UNL A   1      45.434  26.198  24.892  1.00  0.00    -0.203 F 
ATOM     52  C   UNL A   1      44.716  23.970  24.742  1.00  0.00     0.198 A 
ATOM     53  C   UNL A   1      42.666  23.291  25.760  1.00  0.00     0.198 A 
ATOM     54  F   UNL A   1      41.365  24.809  26.956  1.00  0.00    -0.203 F 
ATOM     55  F   UNL A   1      45.846  23.660  24.091  1.00  0.00    -0.200 F 
ATOM     56  C   UNL A   1      43.811  22.970  25.055  1.00  0.00     0.200 A 
ATOM     57  F   UNL A   1      41.798  22.328  26.097  1.00  0.00    -0.200 F 
ATOM     58  F   UNL A   1      44.062  21.697  24.719  1.00  0.00    -0.200 F 
ENDBRANCH  24  48
BRANCH  36  59
ATOM     59  C   UNL A   1      45.798  30.946  28.321  1.00  0.00     0.064 A 
ATOM     60  C   UNL A   1      44.892  31.582  27.457  1.00  0.00     0.173 A 
ATOM     61  C   UNL A   1      47.139  31.351  28.272  1.00  0.00     0.173 A 
ATOM     62  F   UNL A   1      43.581  31.302  27.503  1.00  0.00    -0.203 F 
ATOM     63  C   UNL A   1      45.324  32.561  26.564  1.00  0.00     0.198 A 
ATOM     64  C   UNL A   1      47.559  32.357  27.409  1.00  0.00     0.198 A 
ATOM     65  F   UNL A   1      48.038  30.800  29.102  1.00  0.00    -0.203 F 
ATOM     66  F   UNL A   1      44.447  33.149  25.737  1.00  0.00    -0.200 F 
ATOM     67  C   UNL A   1      46.653  32.955  26.550  1.00  0.00     0.200 A 
ATOM     68  F   UNL A   1      48.835  32.765  27.434  1.00  0.00    -0.200 F 
ATOM     69  F   UNL A   1      47.057  33.931  25.725  1.00  0.00    -0.200 F 
ENDBRANCH  36  59
ENDBRANCH  10  11
ENDBRANCH   3   5
ENDBRANCH   2   3
ENDBRANCH   1   2
BRANCH   1  70
ATOM     70  C   UNL A   1      33.489  35.316  28.794  1.00  0.00     0.275 C 
BRANCH  70  71
ATOM     71  O   UNL A   1      32.745  34.964  29.960  1.00  0.00    -0.458 OA
BRANCH  71  72
ATOM     72  C   UNL A   1      32.853  35.727  31.061  1.00  0.00     0.339 C 
ATOM     73  O   UNL A   1      32.204  36.713  31.362  1.00  0.00    -0.246 OA
BRANCH  72  74
ATOM     74  C   UNL A   1      33.912  35.129  31.879  1.00  0.00     0.078 A 
ATOM     75  C   UNL A   1      34.185  33.763  31.833  1.00  0.00     0.021 A 
ATOM     76  C   UNL A   1      34.575  35.911  32.810  1.00  0.00     0.129 A 
ATOM     77  C   UNL A   1      35.151  33.239  32.694  1.00  0.00     0.048 A 
ATOM     78  N   UNL A   1      35.500  35.417  33.673  1.00  0.00    -0.238 NA
ATOM     79  C   UNL A   1      35.818  34.101  33.564  1.00  0.00     0.138 A 
BRANCH  79  80
ATOM     80  N   UNL A   1      36.916  33.633  34.337  1.00  0.00    -0.283 N 
ATOM     81  C   UNL A   1      36.940  33.574  35.713  1.00  0.00     0.206 A 
ATOM     82  C   UNL A   1      38.192  33.302  33.900  1.00  0.00     0.074 A 
ATOM     83  N   UNL A   1      38.104  33.180  36.182  1.00  0.00    -0.236 NA
ATOM     84  C   UNL A   1      38.904  33.060  35.077  1.00  0.00     0.089 A 
ATOM     85  C   UNL A   1      38.822  33.299  32.643  1.00  0.00     0.029 A 
ATOM     86  C   UNL A   1      40.280  32.787  35.010  1.00  0.00     0.030 A 
ATOM     87  C   UNL A   1      40.193  33.035  32.599  1.00  0.00     0.002 A 
ATOM     88  C   UNL A   1      40.915  32.786  33.764  1.00  0.00     0.002 A 
ENDBRANCH  79  80
ENDBRANCH  72  74
ENDBRANCH  71  72
ENDBRANCH  70  71
ENDBRANCH   1  70
TORSDOF 12
ENDMDL
MODEL 3
REMARK VINA RESULT:     -12.3      5.260     11.493
REMARK SMILES O=C(OCCOC(=O)c1ccc(-n2cnc3ccccc32)nc1)c1ccc(-c2c3nc(c(-c4c(F)c(F)c(F)c(F)c4F)c4ccc([nH]4)c(-c4c(F)c(F)c(F)c(F)c4F)c4nc(c(-c5c(F)c(F)c(F)c(F)c5F)c5ccc2[nH]5)C=C4)C=C3)cc1
REMARK SMILES IDX 4 1 3 2 2 3 1 4 24 5 25 6 86 7 26 8 85 9 27 10 28 11 29 12
REMARK SMILES IDX 79 13 30 14 84 15 78 16 80 17 31 18 83 19 77 20 76 21 32 23
REMARK SMILES IDX 64 24 44 25 63 26 45 27 48 28 62 29 81 30 46 31 47 32 61 34
REMARK SMILES IDX 82 35 49 36 33 37 34 38 42 39 35 40 36 41 40 42 43 43 37 44
REMARK SMILES IDX 38 45 41 46 39 47 65 48 66 49 74 50 67 51 68 52 72 53 75 54
REMARK SMILES IDX 69 55 70 56 73 57 71 58 50 59 51 60 59 61 52 62 53 63 57 64
REMARK SMILES IDX 60 65 54 66 55 67 58 68 56 69 5 70 6 71 7 72 8 73 9 74 10 75
REMARK SMILES IDX 23 76 11 77 22 78 12 79 13 80 14 81 21 82 15 83 16 84 20 85
REMARK SMILES IDX 17 86 19 87 18 88
REMARK H PARENT 80 22 48 33
REMARK Flexibility Score: inf
ROOT
ATOM      1  C   UNL A   1      34.470  34.559  28.174  1.00  0.00     0.275 C 
ENDROOT
BRANCH   1   2
ATOM      2  O   UNL A   1      34.967  33.413  28.920  1.00  0.00    -0.458 OA
BRANCH   2   3
ATOM      3  C   UNL A   1      35.145  32.141  28.462  1.00  0.00     0.338 C 
ATOM      4  O   UNL A   1      34.405  31.639  27.627  1.00  0.00    -0.246 OA
BRANCH   3   5
ATOM      5  C   UNL A   1      36.131  31.308  29.174  1.00  0.00     0.060 A 
ATOM      6  C   UNL A   1      37.242  31.984  29.658  1.00  0.00     0.016 A 
ATOM      7  C   UNL A   1      36.125  29.913  29.079  1.00  0.00     0.016 A 
ATOM      8  C   UNL A   1      38.442  31.303  29.667  1.00  0.00     0.010 A 
ATOM      9  C   UNL A   1      37.334  29.223  29.124  1.00  0.00     0.010 A 
ATOM     10  C   UNL A   1      38.512  29.943  29.298  1.00  0.00    -0.014 A 
BRANCH  10  11
ATOM     11  C   UNL A   1      39.852  29.333  29.335  1.00  0.00     0.031 A 
ATOM     12  C   UNL A   1      40.300  29.152  30.744  1.00  0.00     0.074 A 
ATOM     13  C   UNL A   1      40.608  28.938  28.285  1.00  0.00     0.049 A 
ATOM     14  N   UNL A   1      41.336  29.672  31.320  1.00  0.00    -0.248 NA
ATOM     15  C   UNL A   1      39.331  28.534  31.675  1.00  0.00     0.031 C 
ATOM     16  C   UNL A   1      40.230  28.892  26.871  1.00  0.00     0.029 A 
ATOM     17  N   UNL A   1      41.871  28.397  28.271  1.00  0.00    -0.354 N 
ATOM     18  C   UNL A   1      41.229  29.295  32.654  1.00  0.00     0.074 A 
ATOM     19  C   UNL A   1      39.899  28.786  32.851  1.00  0.00     0.031 C 
ATOM     20  C   UNL A   1      41.118  28.130  26.192  1.00  0.00     0.029 A 
ATOM     21  C   UNL A   1      42.181  27.719  27.093  1.00  0.00     0.049 A 
ATOM     22  H   UNL A   1      42.500  28.481  29.024  1.00  0.00     0.167 HD
ATOM     23  C   UNL A   1      42.330  29.126  33.426  1.00  0.00     0.037 A 
ATOM     24  C   UNL A   1      43.180  26.816  26.906  1.00  0.00     0.037 A 
ATOM     25  C   UNL A   1      43.458  29.847  32.914  1.00  0.00     0.049 A 
ATOM     26  C   UNL A   1      44.192  27.039  27.961  1.00  0.00     0.074 A 
ATOM     27  C   UNL A   1      43.854  31.165  32.855  1.00  0.00     0.029 A 
ATOM     28  N   UNL A   1      44.210  29.152  32.008  1.00  0.00    -0.354 N 
ATOM     29  N   UNL A   1      44.974  28.078  28.014  1.00  0.00    -0.248 NA
ATOM     30  C   UNL A   1      44.134  26.233  29.175  1.00  0.00     0.031 C 
ATOM     31  C   UNL A   1      44.714  31.267  31.724  1.00  0.00     0.029 A 
ATOM     32  C   UNL A   1      44.838  30.005  31.144  1.00  0.00     0.049 A 
ATOM     33  H   UNL A   1      44.288  28.171  31.981  1.00  0.00     0.167 HD
ATOM     34  C   UNL A   1      45.152  28.299  29.365  1.00  0.00     0.074 A 
ATOM     35  C   UNL A   1      44.770  27.052  30.014  1.00  0.00     0.031 C 
ATOM     36  C   UNL A   1      45.285  29.569  29.840  1.00  0.00     0.037 A 
BRANCH  23  37
ATOM     37  C   UNL A   1      42.481  27.910  34.310  1.00  0.00     0.064 A 
ATOM     38  C   UNL A   1      42.959  26.706  33.769  1.00  0.00     0.173 A 
ATOM     39  C   UNL A   1      41.898  27.811  35.597  1.00  0.00     0.173 A 
ATOM     40  F   UNL A   1      43.457  26.671  32.525  1.00  0.00    -0.203 F 
ATOM     41  C   UNL A   1      42.854  25.496  34.465  1.00  0.00     0.198 A 
ATOM     42  C   UNL A   1      41.856  26.621  36.313  1.00  0.00     0.198 A 
ATOM     43  F   UNL A   1      41.234  28.829  36.159  1.00  0.00    -0.203 F 
ATOM     44  F   UNL A   1      43.224  24.354  33.872  1.00  0.00    -0.200 F 
ATOM     45  C   UNL A   1      42.313  25.457  35.740  1.00  0.00     0.200 A 
ATOM     46  F   UNL A   1      41.288  26.606  37.529  1.00  0.00    -0.200 F 
ATOM     47  F   UNL A   1      42.178  24.296  36.391  1.00  0.00    -0.200 F 
ENDBRANCH  23  37
BRANCH  24  48
ATOM     48  C   UNL A   1      43.197  25.577  26.077  1.00  0.00     0.064 A 
ATOM     49  C   UNL A   1      44.314  25.254  25.279  1.00  0.00     0.173 A 
ATOM     50  C   UNL A   1      42.272  24.538  26.288  1.00  0.00     0.173 A 
ATOM     51  F   UNL A   1      45.266  26.170  25.045  1.00  0.00    -0.203 F 
ATOM     52  C   UNL A   1      44.519  23.962  24.781  1.00  0.00     0.198 A 
ATOM     53  C   UNL A   1      42.473  23.251  25.782  1.00  0.00     0.198 A 
ATOM     54  F   UNL A   1      41.202  24.715  27.075  1.00  0.00    -0.203 F 
ATOM     55  F   UNL A   1      45.639  23.676  24.101  1.00  0.00    -0.200 F 
ATOM     56  C   UNL A   1      43.606  22.957  25.048  1.00  0.00     0.200 A 
ATOM     57  F   UNL A   1      41.596  22.281  26.075  1.00  0.00    -0.200 F 
ATOM     58  F   UNL A   1      43.838  21.701  24.639  1.00  0.00    -0.200 F 
ENDBRANCH  24  48
BRANCH  36  59
ATOM     59  C   UNL A   1      45.763  30.614  28.881  1.00  0.00     0.064 A 
ATOM     60  C   UNL A   1      47.112  30.888  28.607  1.00  0.00     0.173 A 
ATOM     61  C   UNL A   1      44.793  31.303  28.140  1.00  0.00     0.173 A 
ATOM     62  F   UNL A   1      48.094  30.212  29.221  1.00  0.00    -0.203 F 
ATOM     63  C   UNL A   1      47.467  31.837  27.648  1.00  0.00     0.198 A 
ATOM     64  C   UNL A   1      45.150  32.217  27.156  1.00  0.00     0.198 A 
ATOM     65  F   UNL A   1      43.490  31.050  28.339  1.00  0.00    -0.203 F 
ATOM     66  F   UNL A   1      48.761  32.096  27.407  1.00  0.00    -0.200 F 
ATOM     67  C   UNL A   1      46.487  32.489  26.917  1.00  0.00     0.200 A 
ATOM     68  F   UNL A   1      44.200  32.809  26.421  1.00  0.00    -0.200 F 
ATOM     69  F   UNL A   1      46.830  33.365  25.961  1.00  0.00    -0.200 F 
ENDBRANCH  36  59
ENDBRANCH  10  11
ENDBRANCH   3   5
ENDBRANCH   2   3
ENDBRANCH   1   2
BRANCH   1  70
ATOM     70  C   UNL A   1      33.169  35.204  28.680  1.00  0.00     0.275 C 
BRANCH  70  71
ATOM     71  O   UNL A   1      32.861  34.809  30.016  1.00  0.00    -0.458 OA
BRANCH  71  72
ATOM     72  C   UNL A   1      33.059  35.682  31.020  1.00  0.00     0.339 C 
ATOM     73  O   UNL A   1      32.556  36.779  31.174  1.00  0.00    -0.246 OA
BRANCH  72  74
ATOM     74  C   UNL A   1      34.004  35.046  31.942  1.00  0.00     0.078 A 
ATOM     75  C   UNL A   1      34.090  33.660  32.060  1.00  0.00     0.021 A 
ATOM     76  C   UNL A   1      34.744  35.836  32.807  1.00  0.00     0.129 A 
ATOM     77  C   UNL A   1      34.952  33.116  33.014  1.00  0.00     0.048 A 
ATOM     78  N   UNL A   1      35.569  35.327  33.758  1.00  0.00    -0.238 NA
ATOM     79  C   UNL A   1      35.708  33.976  33.809  1.00  0.00     0.138 A 
BRANCH  79  80
ATOM     80  N   UNL A   1      36.710  33.460  34.674  1.00  0.00    -0.283 N 
ATOM     81  C   UNL A   1      36.633  33.449  36.049  1.00  0.00     0.206 A 
ATOM     82  C   UNL A   1      37.986  33.022  34.342  1.00  0.00     0.074 A 
ATOM     83  N   UNL A   1      37.728  32.990  36.614  1.00  0.00    -0.236 NA
ATOM     84  C   UNL A   1      38.594  32.773  35.575  1.00  0.00     0.089 A 
ATOM     85  C   UNL A   1      38.701  32.929  33.135  1.00  0.00     0.029 A 
ATOM     86  C   UNL A   1      39.948  32.400  35.617  1.00  0.00     0.030 A 
ATOM     87  C   UNL A   1      40.050  32.566  33.199  1.00  0.00     0.002 A 
ATOM     88  C   UNL A   1      40.667  32.309  34.421  1.00  0.00     0.002 A 
ENDBRANCH  79  80
ENDBRANCH  72  74
ENDBRANCH  71  72
ENDBRANCH  70  71
ENDBRANCH   1  70
TORSDOF 12
ENDMDL
