MODEL 1
REMARK VINA RESULT:     -11.9      0.000      0.000
REMARK SMILES CO[C@@H]1C[C@@H](C(=O)OCCOC(=O)c2ccc(-c3c4nc(c(-c5c(F)c(F)c(F)c(F)c5F)c5ccc([nH]5)c(-c5c(F)c(F)c(F)c(F)c5F)c5nc(c(-c6c(F)c(F)c(F)c(F)c6F)c6ccc3[nH]6)C=C5)C=C4)cc2)N(S(=O)(=O)/C=C/c2ccccc2)C1
REMARK SMILES IDX 9 1 8 2 6 3 7 4 5 5 3 6 4 7 89 8 77 9 2 10 1 11 78 12 79 13
REMARK SMILES IDX 80 14 81 15 82 16 83 17 84 18 88 19 85 20 87 21 86 22 10 23
REMARK SMILES IDX 11 24 12 25 13 26 14 27 15 28 76 29 16 30 75 31 17 32 18 33
REMARK SMILES IDX 19 34 69 35 20 36 74 37 68 38 70 39 21 40 73 41 67 42 66 43
REMARK SMILES IDX 22 45 54 46 34 47 53 48 35 49 38 50 52 51 71 52 36 53 37 54
REMARK SMILES IDX 51 56 72 57 39 58 23 59 24 60 32 61 25 62 26 63 30 64 33 65
REMARK SMILES IDX 27 66 28 67 31 68 29 69 55 70 56 71 64 72 57 73 58 74 62 75
REMARK SMILES IDX 65 76 59 77 60 78 63 79 61 80 40 81 41 82 49 83 42 84 43 85
REMARK SMILES IDX 47 86 50 87 44 88 45 89 48 90 46 91
REMARK H PARENT 70 44 38 55
REMARK Flexibility Score: inf
ROOT
ATOM      1  C   UNL A   1      36.178  20.645  25.017  1.00  0.00     0.274 C 
ENDROOT
BRANCH   1   2
ATOM      2  O   UNL A   1      35.984  21.817  24.202  1.00  0.00    -0.461 OA
BRANCH   2   3
ATOM      3  C   UNL A   1      35.422  22.883  24.807  1.00  0.00     0.324 C 
ATOM      4  O   UNL A   1      35.854  23.366  25.854  1.00  0.00    -0.250 OA
BRANCH   3   5
ATOM      5  C   UNL A   1      34.300  23.533  24.038  1.00  0.00     0.185 C 
ATOM      6  C   UNL A   1      33.315  25.612  23.397  1.00  0.00     0.135 C 
ATOM      7  C   UNL A   1      34.477  25.049  24.179  1.00  0.00     0.065 C 
ATOM      8  C   UNL A   1      32.183  24.628  23.711  1.00  0.00     0.135 C 
ATOM      9  N   UNL A   1      32.826  23.313  24.089  1.00  0.00    -0.181 NA
BRANCH   6  10
ATOM     10  O   UNL A   1      33.674  25.624  22.010  1.00  0.00    -0.380 OA
ATOM     11  C   UNL A   1      32.536  25.573  21.157  1.00  0.00     0.195 C 
ENDBRANCH   6  10
BRANCH   9  12
ATOM     12  S   UNL A   1      32.072  22.565  25.404  1.00  0.00     0.237 S 
ATOM     13  O   UNL A   1      32.701  23.141  26.578  1.00  0.00    -0.207 OA
ATOM     14  O   UNL A   1      30.649  22.770  25.203  1.00  0.00    -0.207 OA
BRANCH  12  15
ATOM     15  C   UNL A   1      32.338  20.860  25.423  1.00  0.00     0.123 C 
ATOM     16  C   UNL A   1      32.518  20.126  24.313  1.00  0.00     0.021 C 
BRANCH  16  17
ATOM     17  C   UNL A   1      32.772  18.676  24.420  1.00  0.00    -0.025 A 
ATOM     18  C   UNL A   1      33.344  17.983  23.345  1.00  0.00     0.008 A 
ATOM     19  C   UNL A   1      32.528  17.976  25.610  1.00  0.00     0.008 A 
ATOM     20  C   UNL A   1      33.763  16.655  23.491  1.00  0.00     0.001 A 
ATOM     21  C   UNL A   1      32.925  16.644  25.750  1.00  0.00     0.001 A 
ATOM     22  C   UNL A   1      33.565  15.990  24.700  1.00  0.00     0.000 A 
ENDBRANCH  16  17
ENDBRANCH  12  15
ENDBRANCH   9  12
ENDBRANCH   3   5
ENDBRANCH   2   3
ENDBRANCH   1   2
BRANCH   1  23
ATOM     23  C   UNL A   1      37.665  20.293  25.112  1.00  0.00     0.275 C 
BRANCH  23  24
ATOM     24  O   UNL A   1      38.511  21.439  25.326  1.00  0.00    -0.458 OA
BRANCH  24  25
ATOM     25  C   UNL A   1      39.444  21.317  26.297  1.00  0.00     0.338 C 
ATOM     26  O   UNL A   1      39.908  20.299  26.773  1.00  0.00    -0.246 OA
BRANCH  25  27
ATOM     27  C   UNL A   1      39.953  22.635  26.667  1.00  0.00     0.060 A 
ATOM     28  C   UNL A   1      40.975  22.705  27.615  1.00  0.00     0.016 A 
ATOM     29  C   UNL A   1      39.382  23.789  26.130  1.00  0.00     0.016 A 
ATOM     30  C   UNL A   1      41.458  23.941  28.014  1.00  0.00     0.010 A 
ATOM     31  C   UNL A   1      39.887  25.031  26.509  1.00  0.00     0.010 A 
ATOM     32  C   UNL A   1      40.938  25.106  27.438  1.00  0.00    -0.014 A 
BRANCH  32  33
ATOM     33  C   UNL A   1      41.584  26.395  27.746  1.00  0.00     0.031 A 
ATOM     34  C   UNL A   1      42.976  26.678  27.289  1.00  0.00     0.074 A 
ATOM     35  C   UNL A   1      40.865  27.305  28.429  1.00  0.00     0.049 A 
ATOM     36  N   UNL A   1      43.693  27.758  27.456  1.00  0.00    -0.248 NA
ATOM     37  C   UNL A   1      43.661  25.604  26.555  1.00  0.00     0.031 C 
ATOM     38  C   UNL A   1      39.496  27.101  28.909  1.00  0.00     0.029 A 
ATOM     39  N   UNL A   1      41.175  28.575  28.830  1.00  0.00    -0.354 N 
ATOM     40  C   UNL A   1      44.913  27.498  26.852  1.00  0.00     0.074 A 
ATOM     41  C   UNL A   1      44.853  26.144  26.342  1.00  0.00     0.031 C 
ATOM     42  C   UNL A   1      39.073  28.219  29.518  1.00  0.00     0.029 A 
ATOM     43  C   UNL A   1      40.155  29.197  29.505  1.00  0.00     0.049 A 
ATOM     44  H   UNL A   1      42.044  29.002  28.651  1.00  0.00     0.167 HD
ATOM     45  C   UNL A   1      45.979  28.324  26.735  1.00  0.00     0.037 A 
ATOM     46  C   UNL A   1      40.108  30.422  30.059  1.00  0.00     0.037 A 
ATOM     47  C   UNL A   1      46.012  29.666  27.260  1.00  0.00     0.049 A 
ATOM     48  C   UNL A   1      41.313  31.307  29.929  1.00  0.00     0.074 A 
ATOM     49  C   UNL A   1      47.032  30.597  27.194  1.00  0.00     0.029 A 
ATOM     50  N   UNL A   1      44.969  30.264  27.957  1.00  0.00    -0.354 N 
ATOM     51  N   UNL A   1      42.455  31.065  29.331  1.00  0.00    -0.248 NA
ATOM     52  C   UNL A   1      41.225  32.635  30.546  1.00  0.00     0.031 C 
ATOM     53  C   UNL A   1      46.622  31.743  27.888  1.00  0.00     0.029 A 
ATOM     54  C   UNL A   1      45.328  31.545  28.345  1.00  0.00     0.049 A 
ATOM     55  H   UNL A   1      44.100  29.840  28.146  1.00  0.00     0.167 HD
ATOM     56  C   UNL A   1      43.218  32.211  29.487  1.00  0.00     0.074 A 
ATOM     57  C   UNL A   1      42.395  33.160  30.212  1.00  0.00     0.031 C 
ATOM     58  C   UNL A   1      44.487  32.459  29.076  1.00  0.00     0.037 A 
BRANCH  45  59
ATOM     59  C   UNL A   1      47.196  27.788  26.040  1.00  0.00     0.064 A 
ATOM     60  C   UNL A   1      48.268  27.229  26.754  1.00  0.00     0.173 A 
ATOM     61  C   UNL A   1      47.289  27.820  24.641  1.00  0.00     0.173 A 
ATOM     62  F   UNL A   1      48.237  27.188  28.095  1.00  0.00    -0.203 F 
ATOM     63  C   UNL A   1      49.398  26.751  26.096  1.00  0.00     0.198 A 
ATOM     64  C   UNL A   1      48.409  27.317  23.984  1.00  0.00     0.198 A 
ATOM     65  F   UNL A   1      46.294  28.342  23.908  1.00  0.00    -0.203 F 
ATOM     66  F   UNL A   1      50.430  26.269  26.802  1.00  0.00    -0.200 F 
ATOM     67  C   UNL A   1      49.466  26.791  24.711  1.00  0.00     0.200 A 
ATOM     68  F   UNL A   1      48.470  27.349  22.646  1.00  0.00    -0.200 F 
ATOM     69  F   UNL A   1      50.554  26.331  24.079  1.00  0.00    -0.200 F 
ENDBRANCH  45  59
BRANCH  46  70
ATOM     70  C   UNL A   1      38.879  30.869  30.764  1.00  0.00     0.064 A 
ATOM     71  C   UNL A   1      37.834  31.492  30.069  1.00  0.00     0.173 A 
ATOM     72  C   UNL A   1      38.718  30.667  32.143  1.00  0.00     0.173 A 
ATOM     73  F   UNL A   1      37.947  31.721  28.753  1.00  0.00    -0.203 F 
ATOM     74  C   UNL A   1      36.681  31.910  30.731  1.00  0.00     0.198 A 
ATOM     75  C   UNL A   1      37.553  31.060  32.797  1.00  0.00     0.198 A 
ATOM     76  F   UNL A   1      39.686  30.069  32.852  1.00  0.00    -0.203 F 
ATOM     77  F   UNL A   1      35.713  32.540  30.050  1.00  0.00    -0.200 F 
ATOM     78  C   UNL A   1      36.538  31.688  32.092  1.00  0.00     0.200 A 
ATOM     79  F   UNL A   1      37.413  30.828  34.109  1.00  0.00    -0.200 F 
ATOM     80  F   UNL A   1      35.426  32.086  32.724  1.00  0.00    -0.200 F 
ENDBRANCH  46  70
BRANCH  58  81
ATOM     81  C   UNL A   1      45.043  33.813  29.402  1.00  0.00     0.064 A 
ATOM     82  C   UNL A   1      45.738  34.051  30.597  1.00  0.00     0.173 A 
ATOM     83  C   UNL A   1      44.888  34.880  28.505  1.00  0.00     0.173 A 
ATOM     84  F   UNL A   1      45.895  33.065  31.494  1.00  0.00    -0.203 F 
ATOM     85  C   UNL A   1      46.229  35.318  30.898  1.00  0.00     0.198 A 
ATOM     86  C   UNL A   1      45.406  36.138  28.795  1.00  0.00     0.198 A 
ATOM     87  F   UNL A   1      44.235  34.701  27.347  1.00  0.00    -0.203 F 
ATOM     88  F   UNL A   1      46.839  35.536  32.071  1.00  0.00    -0.200 F 
ATOM     89  C   UNL A   1      46.067  36.358  29.996  1.00  0.00     0.200 A 
ATOM     90  F   UNL A   1      45.260  37.140  27.918  1.00  0.00    -0.200 F 
ATOM     91  F   UNL A   1      46.539  37.578  30.286  1.00  0.00    -0.200 F 
ENDBRANCH  58  81
ENDBRANCH  32  33
ENDBRANCH  25  27
ENDBRANCH  24  25
ENDBRANCH  23  24
ENDBRANCH   1  23
TORSDOF 15
ENDMDL
MODEL 2
REMARK VINA RESULT:     -11.7      0.195      2.023
REMARK SMILES CO[C@@H]1C[C@@H](C(=O)OCCOC(=O)c2ccc(-c3c4nc(c(-c5c(F)c(F)c(F)c(F)c5F)c5ccc([nH]5)c(-c5c(F)c(F)c(F)c(F)c5F)c5nc(c(-c6c(F)c(F)c(F)c(F)c6F)c6ccc3[nH]6)C=C5)C=C4)cc2)N(S(=O)(=O)/C=C/c2ccccc2)C1
REMARK SMILES IDX 9 1 8 2 6 3 7 4 5 5 3 6 4 7 89 8 77 9 2 10 1 11 78 12 79 13
REMARK SMILES IDX 80 14 81 15 82 16 83 17 84 18 88 19 85 20 87 21 86 22 10 23
REMARK SMILES IDX 11 24 12 25 13 26 14 27 15 28 76 29 16 30 75 31 17 32 18 33
REMARK SMILES IDX 19 34 69 35 20 36 74 37 68 38 70 39 21 40 73 41 67 42 66 43
REMARK SMILES IDX 22 45 54 46 34 47 53 48 35 49 38 50 52 51 71 52 36 53 37 54
REMARK SMILES IDX 51 56 72 57 39 58 23 59 24 60 32 61 25 62 26 63 30 64 33 65
REMARK SMILES IDX 27 66 28 67 31 68 29 69 55 70 56 71 64 72 57 73 58 74 62 75
REMARK SMILES IDX 65 76 59 77 60 78 63 79 61 80 40 81 41 82 49 83 42 84 43 85
REMARK SMILES IDX 47 86 50 87 44 88 45 89 48 90 46 91
REMARK H PARENT 70 44 38 55
REMARK Flexibility Score: inf
ROOT
ATOM      1  C   UNL A   1      36.160  20.678  24.963  1.00  0.00     0.274 C 
ENDROOT
BRANCH   1   2
ATOM      2  O   UNL A   1      36.188  21.984  24.357  1.00  0.00    -0.461 OA
BRANCH   2   3
ATOM      3  C   UNL A   1      35.478  22.950  24.976  1.00  0.00     0.324 C 
ATOM      4  O   UNL A   1      35.787  23.410  26.075  1.00  0.00    -0.250 OA
BRANCH   3   5
ATOM      5  C   UNL A   1      34.347  23.526  24.165  1.00  0.00     0.185 C 
ATOM      6  C   UNL A   1      33.257  25.539  23.481  1.00  0.00     0.135 C 
ATOM      7  C   UNL A   1      34.423  25.051  24.306  1.00  0.00     0.065 C 
ATOM      8  C   UNL A   1      32.178  24.485  23.757  1.00  0.00     0.135 C 
ATOM      9  N   UNL A   1      32.888  23.214  24.162  1.00  0.00    -0.181 NA
BRANCH   6  10
ATOM     10  O   UNL A   1      33.665  25.572  22.108  1.00  0.00    -0.380 OA
ATOM     11  C   UNL A   1      32.600  25.937  21.237  1.00  0.00     0.195 C 
ENDBRANCH   6  10
BRANCH   9  12
ATOM     12  S   UNL A   1      32.135  22.421  25.452  1.00  0.00     0.237 S 
ATOM     13  O   UNL A   1      32.648  23.069  26.645  1.00  0.00    -0.207 OA
ATOM     14  O   UNL A   1      30.712  22.495  25.174  1.00  0.00    -0.207 OA
BRANCH  12  15
ATOM     15  C   UNL A   1      32.550  20.748  25.518  1.00  0.00     0.123 C 
ATOM     16  C   UNL A   1      32.607  19.956  24.435  1.00  0.00     0.021 C 
BRANCH  16  17
ATOM     17  C   UNL A   1      33.002  18.540  24.576  1.00  0.00    -0.025 A 
ATOM     18  C   UNL A   1      32.523  17.781  25.651  1.00  0.00     0.008 A 
ATOM     19  C   UNL A   1      33.791  17.902  23.607  1.00  0.00     0.008 A 
ATOM     20  C   UNL A   1      32.733  16.398  25.700  1.00  0.00     0.001 A 
ATOM     21  C   UNL A   1      34.020  16.524  23.668  1.00  0.00     0.001 A 
ATOM     22  C   UNL A   1      33.471  15.768  24.700  1.00  0.00     0.000 A 
ENDBRANCH  16  17
ENDBRANCH  12  15
ENDBRANCH   9  12
ENDBRANCH   3   5
ENDBRANCH   2   3
ENDBRANCH   1   2
BRANCH   1  23
ATOM     23  C   UNL A   1      37.578  20.200  25.284  1.00  0.00     0.275 C 
BRANCH  23  24
ATOM     24  O   UNL A   1      38.540  21.271  25.351  1.00  0.00    -0.458 OA
BRANCH  24  25
ATOM     25  C   UNL A   1      39.471  21.175  26.327  1.00  0.00     0.338 C 
ATOM     26  O   UNL A   1      39.949  20.170  26.818  1.00  0.00    -0.246 OA
BRANCH  25  27
ATOM     27  C   UNL A   1      39.956  22.506  26.685  1.00  0.00     0.060 A 
ATOM     28  C   UNL A   1      40.979  22.603  27.631  1.00  0.00     0.016 A 
ATOM     29  C   UNL A   1      39.364  23.644  26.138  1.00  0.00     0.016 A 
ATOM     30  C   UNL A   1      41.440  23.851  28.017  1.00  0.00     0.010 A 
ATOM     31  C   UNL A   1      39.848  24.898  26.504  1.00  0.00     0.010 A 
ATOM     32  C   UNL A   1      40.898  25.001  27.430  1.00  0.00    -0.014 A 
BRANCH  32  33
ATOM     33  C   UNL A   1      41.521  26.304  27.725  1.00  0.00     0.031 A 
ATOM     34  C   UNL A   1      42.902  26.614  27.250  1.00  0.00     0.074 A 
ATOM     35  C   UNL A   1      40.793  27.202  28.414  1.00  0.00     0.049 A 
ATOM     36  N   UNL A   1      43.598  27.709  27.403  1.00  0.00    -0.248 NA
ATOM     37  C   UNL A   1      43.599  25.550  26.511  1.00  0.00     0.031 C 
ATOM     38  C   UNL A   1      39.434  26.972  28.912  1.00  0.00     0.029 A 
ATOM     39  N   UNL A   1      41.081  28.480  28.807  1.00  0.00    -0.354 N 
ATOM     40  C   UNL A   1      44.816  27.471  26.785  1.00  0.00     0.074 A 
ATOM     41  C   UNL A   1      44.777  26.114  26.281  1.00  0.00     0.031 C 
ATOM     42  C   UNL A   1      38.997  28.084  29.522  1.00  0.00     0.029 A 
ATOM     43  C   UNL A   1      40.058  29.084  29.492  1.00  0.00     0.049 A 
ATOM     44  H   UNL A   1      41.939  28.923  28.615  1.00  0.00     0.167 HD
ATOM     45  C   UNL A   1      45.863  28.318  26.652  1.00  0.00     0.037 A 
ATOM     46  C   UNL A   1      39.992  30.309  30.042  1.00  0.00     0.037 A 
ATOM     47  C   UNL A   1      45.875  29.663  27.171  1.00  0.00     0.049 A 
ATOM     48  C   UNL A   1      41.177  31.219  29.893  1.00  0.00     0.074 A 
ATOM     49  C   UNL A   1      46.876  30.614  27.089  1.00  0.00     0.029 A 
ATOM     50  N   UNL A   1      44.829  30.242  27.879  1.00  0.00    -0.354 N 
ATOM     51  N   UNL A   1      42.317  30.997  29.282  1.00  0.00    -0.248 NA
ATOM     52  C   UNL A   1      41.070  32.547  30.506  1.00  0.00     0.031 C 
ATOM     53  C   UNL A   1      46.451  31.754  27.784  1.00  0.00     0.029 A 
ATOM     54  C   UNL A   1      45.166  31.531  28.257  1.00  0.00     0.049 A 
ATOM     55  H   UNL A   1      43.972  29.801  28.081  1.00  0.00     0.167 HD
ATOM     56  C   UNL A   1      43.058  32.160  29.424  1.00  0.00     0.074 A 
ATOM     57  C   UNL A   1      42.225  33.095  30.155  1.00  0.00     0.031 C 
ATOM     58  C   UNL A   1      44.316  32.431  28.996  1.00  0.00     0.037 A 
BRANCH  45  59
ATOM     59  C   UNL A   1      47.082  27.804  25.944  1.00  0.00     0.064 A 
ATOM     60  C   UNL A   1      47.167  27.780  24.543  1.00  0.00     0.173 A 
ATOM     61  C   UNL A   1      48.187  27.340  26.674  1.00  0.00     0.173 A 
ATOM     62  F   UNL A   1      46.132  28.197  23.797  1.00  0.00    -0.203 F 
ATOM     63  C   UNL A   1      48.298  27.284  23.900  1.00  0.00     0.198 A 
ATOM     64  C   UNL A   1      49.328  26.870  26.029  1.00  0.00     0.198 A 
ATOM     65  F   UNL A   1      48.161  27.342  28.015  1.00  0.00    -0.203 F 
ATOM     66  F   UNL A   1      48.336  27.224  22.562  1.00  0.00    -0.200 F 
ATOM     67  C   UNL A   1      49.380  26.833  24.643  1.00  0.00     0.200 A 
ATOM     68  F   UNL A   1      50.375  26.442  26.747  1.00  0.00    -0.200 F 
ATOM     69  F   UNL A   1      50.468  26.357  24.024  1.00  0.00    -0.200 F 
ENDBRANCH  45  59
BRANCH  46  70
ATOM     70  C   UNL A   1      38.764  30.735  30.760  1.00  0.00     0.064 A 
ATOM     71  C   UNL A   1      38.652  30.589  32.149  1.00  0.00     0.173 A 
ATOM     72  C   UNL A   1      37.684  31.313  30.075  1.00  0.00     0.173 A 
ATOM     73  F   UNL A   1      39.651  30.028  32.846  1.00  0.00    -0.203 F 
ATOM     74  C   UNL A   1      37.500  30.990  32.823  1.00  0.00     0.198 A 
ATOM     75  C   UNL A   1      36.545  31.739  30.754  1.00  0.00     0.198 A 
ATOM     76  F   UNL A   1      37.744  31.481  28.746  1.00  0.00    -0.203 F 
ATOM     77  F   UNL A   1      37.402  30.801  34.147  1.00  0.00    -0.200 F 
ATOM     78  C   UNL A   1      36.450  31.570  32.127  1.00  0.00     0.200 A 
ATOM     79  F   UNL A   1      35.541  32.314  30.079  1.00  0.00    -0.200 F 
ATOM     80  F   UNL A   1      35.347  31.960  32.778  1.00  0.00    -0.200 F 
ENDBRANCH  46  70
BRANCH  58  81
ATOM     81  C   UNL A   1      44.848  33.798  29.309  1.00  0.00     0.064 A 
ATOM     82  C   UNL A   1      44.645  34.880  28.440  1.00  0.00     0.173 A 
ATOM     83  C   UNL A   1      45.559  34.030  30.496  1.00  0.00     0.173 A 
ATOM     84  F   UNL A   1      43.986  34.702  27.284  1.00  0.00    -0.203 F 
ATOM     85  C   UNL A   1      45.163  36.138  28.732  1.00  0.00     0.198 A 
ATOM     86  C   UNL A   1      46.050  35.295  30.798  1.00  0.00     0.198 A 
ATOM     87  F   UNL A   1      45.775  33.028  31.361  1.00  0.00    -0.203 F 
ATOM     88  F   UNL A   1      45.007  37.143  27.859  1.00  0.00    -0.200 F 
ATOM     89  C   UNL A   1      45.861  36.346  29.911  1.00  0.00     0.200 A 
ATOM     90  F   UNL A   1      46.714  35.499  31.944  1.00  0.00    -0.200 F 
ATOM     91  F   UNL A   1      46.361  37.557  30.191  1.00  0.00    -0.200 F 
ENDBRANCH  58  81
ENDBRANCH  32  33
ENDBRANCH  25  27
ENDBRANCH  24  25
ENDBRANCH  23  24
ENDBRANCH   1  23
TORSDOF 15
ENDMDL
MODEL 3
REMARK VINA RESULT:     -11.5      4.457      9.994
REMARK SMILES CO[C@@H]1C[C@@H](C(=O)OCCOC(=O)c2ccc(-c3c4nc(c(-c5c(F)c(F)c(F)c(F)c5F)c5ccc([nH]5)c(-c5c(F)c(F)c(F)c(F)c5F)c5nc(c(-c6c(F)c(F)c(F)c(F)c6F)c6ccc3[nH]6)C=C5)C=C4)cc2)N(S(=O)(=O)/C=C/c2ccccc2)C1
REMARK SMILES IDX 9 1 8 2 6 3 7 4 5 5 3 6 4 7 89 8 77 9 2 10 1 11 78 12 79 13
REMARK SMILES IDX 80 14 81 15 82 16 83 17 84 18 88 19 85 20 87 21 86 22 10 23
REMARK SMILES IDX 11 24 12 25 13 26 14 27 15 28 76 29 16 30 75 31 17 32 18 33
REMARK SMILES IDX 19 34 69 35 20 36 74 37 68 38 70 39 21 40 73 41 67 42 66 43
REMARK SMILES IDX 22 45 54 46 34 47 53 48 35 49 38 50 52 51 71 52 36 53 37 54
REMARK SMILES IDX 51 56 72 57 39 58 23 59 24 60 32 61 25 62 26 63 30 64 33 65
REMARK SMILES IDX 27 66 28 67 31 68 29 69 55 70 56 71 64 72 57 73 58 74 62 75
REMARK SMILES IDX 65 76 59 77 60 78 63 79 61 80 40 81 41 82 49 83 42 84 43 85
REMARK SMILES IDX 47 86 50 87 44 88 45 89 48 90 46 91
REMARK H PARENT 70 44 38 55
REMARK Flexibility Score: inf
ROOT
ATOM      1  C   UNL A   1      32.674  29.479  25.016  1.00  0.00     0.274 C 
ENDROOT
BRANCH   1   2
ATOM      2  O   UNL A   1      32.634  28.127  25.510  1.00  0.00    -0.461 OA
BRANCH   2   3
ATOM      3  C   UNL A   1      33.383  27.222  24.846  1.00  0.00     0.324 C 
ATOM      4  O   UNL A   1      34.277  27.538  24.061  1.00  0.00    -0.250 OA
BRANCH   3   5
ATOM      5  C   UNL A   1      33.138  25.787  25.233  1.00  0.00     0.185 C 
ATOM      6  C   UNL A   1      34.132  23.627  25.466  1.00  0.00     0.135 C 
ATOM      7  C   UNL A   1      34.470  25.045  25.074  1.00  0.00     0.065 C 
ATOM      8  C   UNL A   1      32.721  23.442  24.895  1.00  0.00     0.135 C 
ATOM      9  N   UNL A   1      32.102  24.815  24.779  1.00  0.00    -0.181 NA
BRANCH   6  10
ATOM     10  O   UNL A   1      34.169  23.539  26.896  1.00  0.00    -0.380 OA
ATOM     11  C   UNL A   1      34.083  22.195  27.357  1.00  0.00     0.195 C 
ENDBRANCH   6  10
BRANCH   9  12
ATOM     12  S   UNL A   1      31.235  25.029  23.343  1.00  0.00     0.237 S 
ATOM     13  O   UNL A   1      32.245  25.182  22.312  1.00  0.00    -0.207 OA
ATOM     14  O   UNL A   1      30.326  23.900  23.267  1.00  0.00    -0.207 OA
BRANCH  12  15
ATOM     15  C   UNL A   1      30.266  26.456  23.374  1.00  0.00     0.123 C 
ATOM     16  C   UNL A   1      30.439  27.487  22.533  1.00  0.00     0.021 C 
BRANCH  16  17
ATOM     17  C   UNL A   1      29.544  28.659  22.606  1.00  0.00    -0.025 A 
ATOM     18  C   UNL A   1      29.973  29.902  22.124  1.00  0.00     0.008 A 
ATOM     19  C   UNL A   1      28.228  28.545  23.078  1.00  0.00     0.008 A 
ATOM     20  C   UNL A   1      29.079  30.974  22.013  1.00  0.00     0.001 A 
ATOM     21  C   UNL A   1      27.341  29.621  22.989  1.00  0.00     0.001 A 
ATOM     22  C   UNL A   1      27.759  30.828  22.433  1.00  0.00     0.000 A 
ENDBRANCH  16  17
ENDBRANCH  12  15
ENDBRANCH   9  12
ENDBRANCH   3   5
ENDBRANCH   2   3
ENDBRANCH   1   2
BRANCH   1  23
ATOM     23  C   UNL A   1      31.881  30.413  25.934  1.00  0.00     0.275 C 
BRANCH  23  24
ATOM     24  O   UNL A   1      32.498  30.608  27.221  1.00  0.00    -0.458 OA
BRANCH  24  25
ATOM     25  C   UNL A   1      33.369  31.638  27.314  1.00  0.00     0.338 C 
ATOM     26  O   UNL A   1      33.187  32.808  27.035  1.00  0.00    -0.246 OA
BRANCH  25  27
ATOM     27  C   UNL A   1      34.614  31.184  27.930  1.00  0.00     0.060 A 
ATOM     28  C   UNL A   1      35.629  32.121  28.133  1.00  0.00     0.016 A 
ATOM     29  C   UNL A   1      34.796  29.837  28.244  1.00  0.00     0.016 A 
ATOM     30  C   UNL A   1      36.834  31.718  28.685  1.00  0.00     0.010 A 
ATOM     31  C   UNL A   1      35.997  29.437  28.825  1.00  0.00     0.010 A 
ATOM     32  C   UNL A   1      37.010  30.381  29.063  1.00  0.00    -0.014 A 
BRANCH  32  33
ATOM     33  C   UNL A   1      38.229  30.011  29.804  1.00  0.00     0.031 A 
ATOM     34  C   UNL A   1      38.474  30.538  31.179  1.00  0.00     0.074 A 
ATOM     35  C   UNL A   1      39.092  29.170  29.206  1.00  0.00     0.049 A 
ATOM     36  N   UNL A   1      39.479  30.307  31.982  1.00  0.00    -0.248 NA
ATOM     37  C   UNL A   1      37.460  31.453  31.725  1.00  0.00     0.031 C 
ATOM     38  C   UNL A   1      38.921  28.610  27.862  1.00  0.00     0.029 A 
ATOM     39  N   UNL A   1      40.271  28.632  29.644  1.00  0.00    -0.354 N 
ATOM     40  C   UNL A   1      39.225  31.048  33.126  1.00  0.00     0.074 A 
ATOM     41  C   UNL A   1      37.985  31.762  32.902  1.00  0.00     0.031 C 
ATOM     42  C   UNL A   1      39.945  27.787  27.596  1.00  0.00     0.029 A 
ATOM     43  C   UNL A   1      40.860  27.795  28.732  1.00  0.00     0.049 A 
ATOM     44  H   UNL A   1      40.657  28.826  30.529  1.00  0.00     0.167 HD
ATOM     45  C   UNL A   1      39.965  31.113  34.258  1.00  0.00     0.037 A 
ATOM     46  C   UNL A   1      42.019  27.117  28.805  1.00  0.00     0.037 A 
ATOM     47  C   UNL A   1      41.200  30.395  34.449  1.00  0.00     0.049 A 
ATOM     48  C   UNL A   1      42.827  27.226  30.066  1.00  0.00     0.074 A 
ATOM     49  C   UNL A   1      42.030  30.377  35.555  1.00  0.00     0.029 A 
ATOM     50  N   UNL A   1      41.784  29.567  33.497  1.00  0.00    -0.354 N 
ATOM     51  N   UNL A   1      42.567  27.906  31.157  1.00  0.00    -0.248 NA
ATOM     52  C   UNL A   1      44.085  26.473  30.110  1.00  0.00     0.031 C 
ATOM     53  C   UNL A   1      43.137  29.573  35.257  1.00  0.00     0.029 A 
ATOM     54  C   UNL A   1      42.974  29.050  33.983  1.00  0.00     0.049 A 
ATOM     55  H   UNL A   1      41.406  29.375  32.608  1.00  0.00     0.167 HD
ATOM     56  C   UNL A   1      43.620  27.655  32.024  1.00  0.00     0.074 A 
ATOM     57  C   UNL A   1      44.508  26.736  31.339  1.00  0.00     0.031 C 
ATOM     58  C   UNL A   1      43.840  28.144  33.269  1.00  0.00     0.037 A 
BRANCH  45  59
ATOM     59  C   UNL A   1      39.471  32.010  35.355  1.00  0.00     0.064 A 
ATOM     60  C   UNL A   1      39.865  33.354  35.444  1.00  0.00     0.173 A 
ATOM     61  C   UNL A   1      38.581  31.523  36.325  1.00  0.00     0.173 A 
ATOM     62  F   UNL A   1      40.726  33.865  34.551  1.00  0.00    -0.203 F 
ATOM     63  C   UNL A   1      39.411  34.169  36.479  1.00  0.00     0.198 A 
ATOM     64  C   UNL A   1      38.108  32.347  37.343  1.00  0.00     0.198 A 
ATOM     65  F   UNL A   1      38.171  30.247  36.288  1.00  0.00    -0.203 F 
ATOM     66  F   UNL A   1      39.840  35.434  36.572  1.00  0.00    -0.200 F 
ATOM     67  C   UNL A   1      38.529  33.666  37.425  1.00  0.00     0.200 A 
ATOM     68  F   UNL A   1      37.251  31.863  38.252  1.00  0.00    -0.200 F 
ATOM     69  F   UNL A   1      38.093  34.451  38.419  1.00  0.00    -0.200 F 
ENDBRANCH  45  59
BRANCH  46  70
ATOM     70  C   UNL A   1      42.462  26.278  27.662  1.00  0.00     0.064 A 
ATOM     71  C   UNL A   1      43.410  26.749  26.744  1.00  0.00     0.173 A 
ATOM     72  C   UNL A   1      41.959  24.981  27.474  1.00  0.00     0.173 A 
ATOM     73  F   UNL A   1      43.908  27.988  26.872  1.00  0.00    -0.203 F 
ATOM     74  C   UNL A   1      43.826  25.961  25.673  1.00  0.00     0.198 A 
ATOM     75  C   UNL A   1      42.397  24.185  26.419  1.00  0.00     0.198 A 
ATOM     76  F   UNL A   1      41.055  24.481  28.329  1.00  0.00    -0.203 F 
ATOM     77  F   UNL A   1      44.703  26.451  24.786  1.00  0.00    -0.200 F 
ATOM     78  C   UNL A   1      43.325  24.678  25.514  1.00  0.00     0.200 A 
ATOM     79  F   UNL A   1      41.922  22.940  26.281  1.00  0.00    -0.200 F 
ATOM     80  F   UNL A   1      43.731  23.920  24.487  1.00  0.00    -0.200 F 
ENDBRANCH  46  70
BRANCH  58  81
ATOM     81  C   UNL A   1      45.087  27.679  33.959  1.00  0.00     0.064 A 
ATOM     82  C   UNL A   1      46.309  28.348  33.792  1.00  0.00     0.173 A 
ATOM     83  C   UNL A   1      45.057  26.560  34.804  1.00  0.00     0.173 A 
ATOM     84  F   UNL A   1      46.390  29.413  32.979  1.00  0.00    -0.203 F 
ATOM     85  C   UNL A   1      47.464  27.892  34.420  1.00  0.00     0.198 A 
ATOM     86  C   UNL A   1      46.208  26.125  35.454  1.00  0.00     0.198 A 
ATOM     87  F   UNL A   1      43.911  25.891  34.999  1.00  0.00    -0.203 F 
ATOM     88  F   UNL A   1      48.632  28.511  34.201  1.00  0.00    -0.200 F 
ATOM     89  C   UNL A   1      47.412  26.785  35.253  1.00  0.00     0.200 A 
ATOM     90  F   UNL A   1      46.154  25.063  36.268  1.00  0.00    -0.200 F 
ATOM     91  F   UNL A   1      48.525  26.346  35.857  1.00  0.00    -0.200 F 
ENDBRANCH  58  81
ENDBRANCH  32  33
ENDBRANCH  25  27
ENDBRANCH  24  25
ENDBRANCH  23  24
ENDBRANCH   1  23
TORSDOF 15
ENDMDL
