MODEL 1
REMARK VINA RESULT:     -11.2      0.000      0.000
REMARK SMILES Cc1oc2c(C)c3oc(=O)c(CCC(=O)N[C@H](Cc4ccc(Cl)cc4)C(=O)OCCOC(=O)c4ccc(-c5c6nc(c(-c7c(F)c(F)c(F)c(F)c7F)c7ccc([nH]7)c(-c7c(F)c(F)c(F)c(F)c7F)c7nc(c(-c8c(F)c(F)c(F)c(F)c8F)c8ccc5[nH]8)C=C7)C=C6)cc4)c(C)c3cc2c1C
REMARK SMILES IDX 29 1 28 2 26 3 27 4 17 5 16 6 14 7 15 8 13 10 12 11 11 12
REMARK SMILES IDX 1 13 2 14 3 15 102 16 4 17 101 18 103 19 5 20 100 21 6 22
REMARK SMILES IDX 7 23 99 24 8 25 97 26 9 27 98 28 10 29 18 30 19 31 20 32
REMARK SMILES IDX 25 33 21 34 24 35 22 36 23 37 30 38 31 39 32 40 33 41 34 42
REMARK SMILES IDX 35 43 96 44 36 45 95 46 37 47 38 48 39 49 89 50 40 51 94 52
REMARK SMILES IDX 88 53 90 54 41 55 93 56 87 57 86 58 42 60 74 61 54 62 73 63
REMARK SMILES IDX 55 64 58 65 72 66 91 67 56 68 57 69 71 71 92 72 59 73 43 74
REMARK SMILES IDX 44 75 52 76 45 77 46 78 50 79 53 80 47 81 48 82 51 83 49 84
REMARK SMILES IDX 75 85 76 86 84 87 77 88 78 89 82 90 85 91 79 92 80 93 83 94
REMARK SMILES IDX 81 95 60 96 61 97 69 98 62 99 63 100 67 101 70 102 64 103
REMARK SMILES IDX 65 104 68 105 66 106
REMARK H PARENT 16 9 90 59 58 70
REMARK Flexibility Score: inf
ROOT
ATOM      1  C   UNL A   1      47.792  30.333  26.743  1.00  0.00     0.274 C 
ENDROOT
BRANCH   1   2
ATOM      2  O   UNL A   1      47.072  29.553  25.762  1.00  0.00    -0.461 OA
BRANCH   2   3
ATOM      3  C   UNL A   1      47.358  28.228  25.730  1.00  0.00     0.329 C 
ATOM      4  O   UNL A   1      48.282  27.775  25.048  1.00  0.00    -0.250 OA
BRANCH   3   5
ATOM      5  C   UNL A   1      46.160  27.173  26.317  1.00  0.00     0.196 C 
BRANCH   5   6
ATOM      6  N   UNL A   1      46.890  27.219  27.796  1.00  0.00    -0.342 N 
ATOM      7  C   UNL A   1      46.545  27.582  29.063  1.00  0.00     0.221 C 
ATOM      8  O   UNL A   1      47.345  27.383  29.975  1.00  0.00    -0.275 OA
ATOM      9  H   UNL A   1      47.819  26.898  27.751  1.00  0.00     0.164 HD
BRANCH   7  10
ATOM     10  C   UNL A   1      45.209  28.238  29.308  1.00  0.00     0.105 C 
BRANCH  10  11
ATOM     11  C   UNL A   1      44.334  27.398  30.224  1.00  0.00     0.053 C 
BRANCH  11  12
ATOM     12  C   UNL A   1      43.536  26.516  29.332  1.00  0.00     0.042 A 
ATOM     13  C   UNL A   1      39.585  19.282  25.701  1.00  0.00     0.088 C 
ATOM     14  C   UNL A   1      40.199  20.367  26.495  1.00  0.00     0.105 A 
ATOM     15  O   UNL A   1      39.563  21.564  26.459  1.00  0.00    -0.461 OA
ATOM     16  C   UNL A   1      41.344  20.451  27.258  1.00  0.00    -0.002 A 
ATOM     17  C   UNL A   1      40.307  22.481  27.149  1.00  0.00     0.141 A 
ATOM     18  C   UNL A   1      41.480  21.836  27.630  1.00  0.00     0.025 A 
ATOM     19  C   UNL A   1      42.303  19.363  27.577  1.00  0.00     0.049 C 
ATOM     20  C   UNL A   1      39.898  23.836  27.261  1.00  0.00     0.036 A 
ATOM     21  C   UNL A   1      42.574  22.507  28.277  1.00  0.00     0.024 A 
ATOM     22  C   UNL A   1      38.782  24.503  26.563  1.00  0.00     0.052 C 
ATOM     23  C   UNL A   1      40.903  24.492  27.908  1.00  0.00     0.145 A 
ATOM     24  C   UNL A   1      42.452  23.866  28.390  1.00  0.00     0.022 A 
ATOM     25  O   UNL A   1      40.693  26.283  28.201  1.00  0.00    -0.422 OA
ATOM     26  C   UNL A   1      43.775  24.981  29.085  1.00  0.00    -0.030 A 
ATOM     27  C   UNL A   1      41.898  27.436  28.898  1.00  0.00     0.339 A 
ATOM     28  C   UNL A   1      45.014  24.236  29.470  1.00  0.00     0.046 C 
ATOM     29  O   UNL A   1      41.709  28.638  28.945  1.00  0.00    -0.246 OA
ENDBRANCH  11  12
ENDBRANCH  10  11
ENDBRANCH   7  10
ENDBRANCH   5   6
BRANCH   5  30
ATOM     30  C   UNL A   1      44.834  25.687  25.387  1.00  0.00     0.072 C 
BRANCH  30  31
ATOM     31  C   UNL A   1      44.596  23.991  25.388  1.00  0.00    -0.045 A 
ATOM     32  C   UNL A   1      43.432  23.409  24.854  1.00  0.00     0.005 A 
ATOM     33  C   UNL A   1      45.583  23.141  25.931  1.00  0.00     0.005 A 
ATOM     34  C   UNL A   1      43.376  22.030  24.635  1.00  0.00     0.021 A 
ATOM     35  C   UNL A   1      45.499  21.757  25.747  1.00  0.00     0.021 A 
ATOM     36  C   UNL A   1      44.425  21.215  25.049  1.00  0.00     0.041 A 
ATOM     37  Cl  UNL A   1      44.404  19.537  24.676  1.00  0.00    -0.084 Cl
ENDBRANCH  30  31
ENDBRANCH   5  30
ENDBRANCH   3   5
ENDBRANCH   2   3
ENDBRANCH   1   2
BRANCH   1  38
ATOM     38  C   UNL A   1      46.901  31.158  27.676  1.00  0.00     0.275 C 
BRANCH  38  39
ATOM     39  O   UNL A   1      46.211  32.219  26.987  1.00  0.00    -0.458 OA
BRANCH  39  40
ATOM     40  C   UNL A   1      44.865  32.101  27.013  1.00  0.00     0.338 C 
ATOM     41  O   UNL A   1      44.161  31.663  26.115  1.00  0.00    -0.246 OA
BRANCH  40  42
ATOM     42  C   UNL A   1      44.269  32.595  28.272  1.00  0.00     0.060 A 
ATOM     43  C   UNL A   1      44.636  33.807  28.869  1.00  0.00     0.016 A 
ATOM     44  C   UNL A   1      43.502  31.676  28.986  1.00  0.00     0.016 A 
ATOM     45  C   UNL A   1      44.306  34.066  30.212  1.00  0.00     0.010 A 
ATOM     46  C   UNL A   1      43.162  31.941  30.311  1.00  0.00     0.010 A 
ATOM     47  C   UNL A   1      43.590  33.120  30.956  1.00  0.00    -0.014 A 
BRANCH  47  48
ATOM     48  C   UNL A   1      43.203  33.380  32.373  1.00  0.00     0.031 A 
ATOM     49  C   UNL A   1      41.721  33.421  32.496  1.00  0.00     0.074 A 
ATOM     50  C   UNL A   1      43.754  32.800  33.471  1.00  0.00     0.049 A 
ATOM     51  N   UNL A   1      41.075  32.307  32.676  1.00  0.00    -0.248 NA
ATOM     52  C   UNL A   1      40.901  34.525  32.012  1.00  0.00     0.031 C 
ATOM     53  C   UNL A   1      44.548  31.571  33.440  1.00  0.00     0.029 A 
ATOM     54  N   UNL A   1      43.470  32.976  34.822  1.00  0.00    -0.354 N 
ATOM     55  C   UNL A   1      39.863  32.477  32.060  1.00  0.00     0.074 A 
ATOM     56  C   UNL A   1      39.737  33.896  31.792  1.00  0.00     0.031 C 
ATOM     57  C   UNL A   1      44.564  31.017  34.663  1.00  0.00     0.029 A 
ATOM     58  C   UNL A   1      43.882  31.898  35.594  1.00  0.00     0.049 A 
ATOM     59  H   UNL A   1      43.026  33.774  35.188  1.00  0.00     0.167 HD
ATOM     60  C   UNL A   1      39.108  31.424  31.654  1.00  0.00     0.037 A 
ATOM     61  C   UNL A   1      43.427  31.512  36.812  1.00  0.00     0.037 A 
ATOM     62  C   UNL A   1      39.580  30.071  31.847  1.00  0.00     0.049 A 
ATOM     63  C   UNL A   1      42.327  30.545  36.486  1.00  0.00     0.074 A 
ATOM     64  C   UNL A   1      39.385  28.834  31.265  1.00  0.00     0.029 A 
ATOM     65  N   UNL A   1      40.507  29.829  32.824  1.00  0.00    -0.354 N 
ATOM     66  N   UNL A   1      42.464  29.285  36.156  1.00  0.00    -0.248 NA
ATOM     67  C   UNL A   1      40.983  31.099  36.248  1.00  0.00     0.031 C 
ATOM     68  C   UNL A   1      40.031  27.850  32.078  1.00  0.00     0.029 A 
ATOM     69  C   UNL A   1      40.589  28.501  33.159  1.00  0.00     0.049 A 
ATOM     70  H   UNL A   1      41.055  30.531  33.241  1.00  0.00     0.167 HD
ATOM     71  C   UNL A   1      41.329  29.011  35.404  1.00  0.00     0.074 A 
ATOM     72  C   UNL A   1      40.389  30.082  35.638  1.00  0.00     0.031 C 
ATOM     73  C   UNL A   1      41.329  28.158  34.345  1.00  0.00     0.037 A 
BRANCH  60  74
ATOM     74  C   UNL A   1      37.751  31.673  31.143  1.00  0.00     0.064 A 
ATOM     75  C   UNL A   1      37.582  31.715  29.754  1.00  0.00     0.173 A 
ATOM     76  C   UNL A   1      36.646  31.899  31.961  1.00  0.00     0.173 A 
ATOM     77  F   UNL A   1      38.626  31.485  28.943  1.00  0.00    -0.203 F 
ATOM     78  C   UNL A   1      36.342  31.983  29.195  1.00  0.00     0.198 A 
ATOM     79  C   UNL A   1      35.400  32.165  31.398  1.00  0.00     0.198 A 
ATOM     80  F   UNL A   1      36.767  31.856  33.295  1.00  0.00    -0.203 F 
ATOM     81  F   UNL A   1      36.204  32.013  27.863  1.00  0.00    -0.200 F 
ATOM     82  C   UNL A   1      35.252  32.209  30.017  1.00  0.00     0.200 A 
ATOM     83  F   UNL A   1      34.339  32.373  32.188  1.00  0.00    -0.200 F 
ATOM     84  F   UNL A   1      34.052  32.462  29.479  1.00  0.00    -0.200 F 
ENDBRANCH  60  74
BRANCH  61  85
ATOM     85  C   UNL A   1      43.398  32.503  37.919  1.00  0.00     0.064 A 
ATOM     86  C   UNL A   1      44.169  32.225  39.070  1.00  0.00     0.173 A 
ATOM     87  C   UNL A   1      42.605  33.654  37.978  1.00  0.00     0.173 A 
ATOM     88  F   UNL A   1      44.873  31.086  39.151  1.00  0.00    -0.203 F 
ATOM     89  C   UNL A   1      44.212  33.087  40.163  1.00  0.00     0.198 A 
ATOM     90  C   UNL A   1      42.668  34.533  39.062  1.00  0.00     0.198 A 
ATOM     91  F   UNL A   1      41.745  33.958  36.999  1.00  0.00    -0.203 F 
ATOM     92  F   UNL A   1      44.967  32.784  41.228  1.00  0.00    -0.200 F 
ATOM     93  C   UNL A   1      43.477  34.256  40.149  1.00  0.00     0.200 A 
ATOM     94  F   UNL A   1      41.937  35.656  39.045  1.00  0.00    -0.200 F 
ATOM     95  F   UNL A   1      43.536  35.104  41.183  1.00  0.00    -0.200 F 
ENDBRANCH  61  85
BRANCH  73  96
ATOM     96  C   UNL A   1      42.234  26.990  34.435  1.00  0.00     0.064 A 
ATOM     97  C   UNL A   1      41.796  25.829  35.093  1.00  0.00     0.173 A 
ATOM     98  C   UNL A   1      43.506  26.980  33.857  1.00  0.00     0.173 A 
ATOM     99  F   UNL A   1      40.568  25.777  35.631  1.00  0.00    -0.203 F 
ATOM    100  C   UNL A   1      42.604  24.701  35.173  1.00  0.00     0.198 A 
ATOM    101  C   UNL A   1      44.311  25.846  33.934  1.00  0.00     0.198 A 
ATOM    102  F   UNL A   1      43.973  28.064  33.219  1.00  0.00    -0.203 F 
ATOM    103  F   UNL A   1      42.159  23.600  35.797  1.00  0.00    -0.200 F 
ATOM    104  C   UNL A   1      43.861  24.709  34.590  1.00  0.00     0.200 A 
ATOM    105  F   UNL A   1      45.522  25.846  33.360  1.00  0.00    -0.200 F 
ATOM    106  F   UNL A   1      44.633  23.615  34.651  1.00  0.00    -0.200 F 
ENDBRANCH  73  96
ENDBRANCH  47  48
ENDBRANCH  40  42
ENDBRANCH  39  40
ENDBRANCH  38  39
ENDBRANCH   1  38
TORSDOF 17
ENDMDL
MODEL 2
REMARK VINA RESULT:     -10.9      2.612      7.709
REMARK SMILES Cc1oc2c(C)c3oc(=O)c(CCC(=O)N[C@H](Cc4ccc(Cl)cc4)C(=O)OCCOC(=O)c4ccc(-c5c6nc(c(-c7c(F)c(F)c(F)c(F)c7F)c7ccc([nH]7)c(-c7c(F)c(F)c(F)c(F)c7F)c7nc(c(-c8c(F)c(F)c(F)c(F)c8F)c8ccc5[nH]8)C=C7)C=C6)cc4)c(C)c3cc2c1C
REMARK SMILES IDX 29 1 28 2 26 3 27 4 17 5 16 6 14 7 15 8 13 10 12 11 11 12
REMARK SMILES IDX 1 13 2 14 3 15 102 16 4 17 101 18 103 19 5 20 100 21 6 22
REMARK SMILES IDX 7 23 99 24 8 25 97 26 9 27 98 28 10 29 18 30 19 31 20 32
REMARK SMILES IDX 25 33 21 34 24 35 22 36 23 37 30 38 31 39 32 40 33 41 34 42
REMARK SMILES IDX 35 43 96 44 36 45 95 46 37 47 38 48 39 49 89 50 40 51 94 52
REMARK SMILES IDX 88 53 90 54 41 55 93 56 87 57 86 58 42 60 74 61 54 62 73 63
REMARK SMILES IDX 55 64 58 65 72 66 91 67 56 68 57 69 71 71 92 72 59 73 43 74
REMARK SMILES IDX 44 75 52 76 45 77 46 78 50 79 53 80 47 81 48 82 51 83 49 84
REMARK SMILES IDX 75 85 76 86 84 87 77 88 78 89 82 90 85 91 79 92 80 93 83 94
REMARK SMILES IDX 81 95 60 96 61 97 69 98 62 99 63 100 67 101 70 102 64 103
REMARK SMILES IDX 65 104 68 105 66 106
REMARK H PARENT 16 9 90 59 58 70
REMARK Flexibility Score: inf
ROOT
ATOM      1  C   UNL A   1      49.504  31.017  30.964  1.00  0.00     0.274 C 
ENDROOT
BRANCH   1   2
ATOM      2  O   UNL A   1      48.513  30.031  31.332  1.00  0.00    -0.461 OA
BRANCH   2   3
ATOM      3  C   UNL A   1      47.690  29.616  30.337  1.00  0.00     0.329 C 
ATOM      4  O   UNL A   1      46.509  29.968  30.277  1.00  0.00    -0.250 OA
BRANCH   3   5
ATOM      5  C   UNL A   1      48.211  28.279  29.423  1.00  0.00     0.196 C 
BRANCH   5   6
ATOM      6  N   UNL A   1      48.893  29.323  28.343  1.00  0.00    -0.342 N 
ATOM      7  C   UNL A   1      49.209  29.315  27.018  1.00  0.00     0.221 C 
ATOM      8  O   UNL A   1      49.635  30.346  26.503  1.00  0.00    -0.275 OA
ATOM      9  H   UNL A   1      49.133  30.178  28.768  1.00  0.00     0.164 HD
BRANCH   7  10
ATOM     10  C   UNL A   1      49.051  28.039  26.227  1.00  0.00     0.105 C 
BRANCH  10  11
ATOM     11  C   UNL A   1      48.036  28.198  25.108  1.00  0.00     0.053 C 
BRANCH  11  12
ATOM     12  C   UNL A   1      46.872  27.355  25.489  1.00  0.00     0.042 A 
ATOM     13  C   UNL A   1      38.537  24.663  27.589  1.00  0.00     0.088 C 
ATOM     14  C   UNL A   1      39.804  25.253  27.107  1.00  0.00     0.105 A 
ATOM     15  O   UNL A   1      40.616  24.424  26.405  1.00  0.00    -0.461 OA
ATOM     16  C   UNL A   1      40.390  26.491  27.256  1.00  0.00    -0.002 A 
ATOM     17  C   UNL A   1      41.783  25.081  26.126  1.00  0.00     0.141 A 
ATOM     18  C   UNL A   1      41.712  26.383  26.695  1.00  0.00     0.025 A 
ATOM     19  C   UNL A   1      39.821  27.688  27.928  1.00  0.00     0.049 C 
ATOM     20  C   UNL A   1      42.840  24.450  25.417  1.00  0.00     0.036 A 
ATOM     21  C   UNL A   1      42.803  27.318  26.736  1.00  0.00     0.024 A 
ATOM     22  C   UNL A   1      42.948  23.030  25.035  1.00  0.00     0.052 C 
ATOM     23  C   UNL A   1      43.879  25.332  25.405  1.00  0.00     0.145 A 
ATOM     24  C   UNL A   1      43.985  26.872  26.207  1.00  0.00     0.022 A 
ATOM     25  O   UNL A   1      45.420  24.813  24.572  1.00  0.00    -0.422 OA
ATOM     26  C   UNL A   1      45.577  27.842  26.237  1.00  0.00    -0.030 A 
ATOM     27  C   UNL A   1      46.996  25.696  24.517  1.00  0.00     0.339 A 
ATOM     28  C   UNL A   1      45.440  29.154  26.945  1.00  0.00     0.046 C 
ATOM     29  O   UNL A   1      48.005  25.212  24.035  1.00  0.00    -0.246 OA
ENDBRANCH  11  12
ENDBRANCH  10  11
ENDBRANCH   7  10
ENDBRANCH   5   6
BRANCH   5  30
ATOM     30  C   UNL A   1      47.521  26.203  29.213  1.00  0.00     0.072 C 
BRANCH  30  31
ATOM     31  C   UNL A   1      46.058  25.349  28.960  1.00  0.00    -0.045 A 
ATOM     32  C   UNL A   1      46.012  24.178  28.182  1.00  0.00     0.005 A 
ATOM     33  C   UNL A   1      44.860  25.815  29.543  1.00  0.00     0.005 A 
ATOM     34  C   UNL A   1      44.873  23.368  28.202  1.00  0.00     0.021 A 
ATOM     35  C   UNL A   1      43.711  25.018  29.523  1.00  0.00     0.021 A 
ATOM     36  C   UNL A   1      43.742  23.773  28.902  1.00  0.00     0.041 A 
ATOM     37  Cl  UNL A   1      42.385  22.724  29.020  1.00  0.00    -0.084 Cl
ENDBRANCH  30  31
ENDBRANCH   5  30
ENDBRANCH   3   5
ENDBRANCH   2   3
ENDBRANCH   1   2
BRANCH   1  38
ATOM     38  C   UNL A   1      49.479  32.291  31.813  1.00  0.00     0.275 C 
BRANCH  38  39
ATOM     39  O   UNL A   1      48.145  32.799  32.009  1.00  0.00    -0.458 OA
BRANCH  39  40
ATOM     40  C   UNL A   1      47.624  33.398  30.917  1.00  0.00     0.338 C 
ATOM     41  O   UNL A   1      48.245  34.030  30.073  1.00  0.00    -0.246 OA
BRANCH  40  42
ATOM     42  C   UNL A   1      46.157  33.247  30.823  1.00  0.00     0.060 A 
ATOM     43  C   UNL A   1      45.353  32.897  31.915  1.00  0.00     0.016 A 
ATOM     44  C   UNL A   1      45.627  33.216  29.534  1.00  0.00     0.016 A 
ATOM     45  C   UNL A   1      44.040  32.435  31.710  1.00  0.00     0.010 A 
ATOM     46  C   UNL A   1      44.321  32.774  29.335  1.00  0.00     0.010 A 
ATOM     47  C   UNL A   1      43.521  32.341  30.412  1.00  0.00    -0.014 A 
BRANCH  47  48
ATOM     48  C   UNL A   1      42.123  31.880  30.168  1.00  0.00     0.031 A 
ATOM     49  C   UNL A   1      41.968  30.468  30.609  1.00  0.00     0.074 A 
ATOM     50  C   UNL A   1      40.992  32.586  30.430  1.00  0.00     0.049 A 
ATOM     51  N   UNL A   1      41.675  30.228  31.853  1.00  0.00    -0.248 NA
ATOM     52  C   UNL A   1      42.527  29.331  29.889  1.00  0.00     0.031 C 
ATOM     53  C   UNL A   1      40.934  33.744  31.323  1.00  0.00     0.029 A 
ATOM     54  N   UNL A   1      39.656  32.250  30.237  1.00  0.00    -0.354 N 
ATOM     55  C   UNL A   1      42.275  29.033  32.152  1.00  0.00     0.074 A 
ATOM     56  C   UNL A   1      42.663  28.444  30.886  1.00  0.00     0.031 C 
ATOM     57  C   UNL A   1      39.668  33.935  31.727  1.00  0.00     0.029 A 
ATOM     58  C   UNL A   1      38.802  32.993  31.041  1.00  0.00     0.049 A 
ATOM     59  H   UNL A   1      39.350  31.564  29.601  1.00  0.00     0.167 HD
ATOM     60  C   UNL A   1      42.569  28.673  33.428  1.00  0.00     0.037 A 
ATOM     61  C   UNL A   1      37.544  32.684  31.444  1.00  0.00     0.037 A 
ATOM     62  C   UNL A   1      42.269  29.568  34.525  1.00  0.00     0.049 A 
ATOM     63  C   UNL A   1      37.757  31.971  32.747  1.00  0.00     0.074 A 
ATOM     64  C   UNL A   1      42.736  29.799  35.803  1.00  0.00     0.029 A 
ATOM     65  N   UNL A   1      41.297  30.516  34.356  1.00  0.00    -0.354 N 
ATOM     66  N   UNL A   1      37.979  32.521  33.914  1.00  0.00    -0.248 NA
ATOM     67  C   UNL A   1      38.010  30.520  32.695  1.00  0.00     0.031 C 
ATOM     68  C   UNL A   1      41.855  30.731  36.439  1.00  0.00     0.029 A 
ATOM     69  C   UNL A   1      40.849  31.033  35.545  1.00  0.00     0.049 A 
ATOM     70  H   UNL A   1      40.957  30.797  33.477  1.00  0.00     0.167 HD
ATOM     71  C   UNL A   1      38.676  31.546  34.616  1.00  0.00     0.074 A 
ATOM     72  C   UNL A   1      38.514  30.302  33.902  1.00  0.00     0.031 C 
ATOM     73  C   UNL A   1      39.656  31.837  35.514  1.00  0.00     0.037 A 
BRANCH  60  74
ATOM     74  C   UNL A   1      43.066  27.315  33.691  1.00  0.00     0.064 A 
ATOM     75  C   UNL A   1      44.358  27.004  33.249  1.00  0.00     0.173 A 
ATOM     76  C   UNL A   1      42.316  26.324  34.320  1.00  0.00     0.173 A 
ATOM     77  F   UNL A   1      45.109  27.943  32.655  1.00  0.00    -0.203 F 
ATOM     78  C   UNL A   1      44.884  25.734  33.424  1.00  0.00     0.198 A 
ATOM     79  C   UNL A   1      42.847  25.049  34.498  1.00  0.00     0.198 A 
ATOM     80  F   UNL A   1      41.079  26.588  34.766  1.00  0.00    -0.203 F 
ATOM     81  F   UNL A   1      46.124  25.461  32.998  1.00  0.00    -0.200 F 
ATOM     82  C   UNL A   1      44.128  24.756  34.048  1.00  0.00     0.200 A 
ATOM     83  F   UNL A   1      42.124  24.102  35.110  1.00  0.00    -0.200 F 
ATOM     84  F   UNL A   1      44.638  23.530  34.223  1.00  0.00    -0.200 F 
ENDBRANCH  60  74
BRANCH  61  85
ATOM     85  C   UNL A   1      36.528  32.320  30.423  1.00  0.00     0.064 A 
ATOM     86  C   UNL A   1      35.455  33.215  30.216  1.00  0.00     0.173 A 
ATOM     87  C   UNL A   1      36.474  31.123  29.700  1.00  0.00     0.173 A 
ATOM     88  F   UNL A   1      35.361  34.337  30.947  1.00  0.00    -0.203 F 
ATOM     89  C   UNL A   1      34.450  32.969  29.283  1.00  0.00     0.198 A 
ATOM     90  C   UNL A   1      35.481  30.888  28.745  1.00  0.00     0.198 A 
ATOM     91  F   UNL A   1      37.369  30.148  29.899  1.00  0.00    -0.203 F 
ATOM     92  F   UNL A   1      33.458  33.855  29.116  1.00  0.00    -0.200 F 
ATOM     93  C   UNL A   1      34.477  31.813  28.530  1.00  0.00     0.200 A 
ATOM     94  F   UNL A   1      35.508  29.754  28.032  1.00  0.00    -0.200 F 
ATOM     95  F   UNL A   1      33.531  31.583  27.610  1.00  0.00    -0.200 F 
ENDBRANCH  61  85
BRANCH  73  96
ATOM     96  C   UNL A   1      39.485  33.078  36.302  1.00  0.00     0.064 A 
ATOM     97  C   UNL A   1      38.752  33.039  37.499  1.00  0.00     0.173 A 
ATOM     98  C   UNL A   1      40.060  34.294  35.920  1.00  0.00     0.173 A 
ATOM     99  F   UNL A   1      38.213  31.886  37.926  1.00  0.00    -0.203 F 
ATOM    100  C   UNL A   1      38.594  34.176  38.283  1.00  0.00     0.198 A 
ATOM    101  C   UNL A   1      39.905  35.431  36.711  1.00  0.00     0.198 A 
ATOM    102  F   UNL A   1      40.768  34.387  34.785  1.00  0.00    -0.203 F 
ATOM    103  F   UNL A   1      37.899  34.110  39.428  1.00  0.00    -0.200 F 
ATOM    104  C   UNL A   1      39.174  35.371  37.890  1.00  0.00     0.200 A 
ATOM    105  F   UNL A   1      40.475  36.585  36.341  1.00  0.00    -0.200 F 
ATOM    106  F   UNL A   1      39.038  36.464  38.655  1.00  0.00    -0.200 F 
ENDBRANCH  73  96
ENDBRANCH  47  48
ENDBRANCH  40  42
ENDBRANCH  39  40
ENDBRANCH  38  39
ENDBRANCH   1  38
TORSDOF 17
ENDMDL
MODEL 3
REMARK VINA RESULT:     -10.8      4.167      9.143
REMARK SMILES Cc1oc2c(C)c3oc(=O)c(CCC(=O)N[C@H](Cc4ccc(Cl)cc4)C(=O)OCCOC(=O)c4ccc(-c5c6nc(c(-c7c(F)c(F)c(F)c(F)c7F)c7ccc([nH]7)c(-c7c(F)c(F)c(F)c(F)c7F)c7nc(c(-c8c(F)c(F)c(F)c(F)c8F)c8ccc5[nH]8)C=C7)C=C6)cc4)c(C)c3cc2c1C
REMARK SMILES IDX 29 1 28 2 26 3 27 4 17 5 16 6 14 7 15 8 13 10 12 11 11 12
REMARK SMILES IDX 1 13 2 14 3 15 102 16 4 17 101 18 103 19 5 20 100 21 6 22
REMARK SMILES IDX 7 23 99 24 8 25 97 26 9 27 98 28 10 29 18 30 19 31 20 32
REMARK SMILES IDX 25 33 21 34 24 35 22 36 23 37 30 38 31 39 32 40 33 41 34 42
REMARK SMILES IDX 35 43 96 44 36 45 95 46 37 47 38 48 39 49 89 50 40 51 94 52
REMARK SMILES IDX 88 53 90 54 41 55 93 56 87 57 86 58 42 60 74 61 54 62 73 63
REMARK SMILES IDX 55 64 58 65 72 66 91 67 56 68 57 69 71 71 92 72 59 73 43 74
REMARK SMILES IDX 44 75 52 76 45 77 46 78 50 79 53 80 47 81 48 82 51 83 49 84
REMARK SMILES IDX 75 85 76 86 84 87 77 88 78 89 82 90 85 91 79 92 80 93 83 94
REMARK SMILES IDX 81 95 60 96 61 97 69 98 62 99 63 100 67 101 70 102 64 103
REMARK SMILES IDX 65 104 68 105 66 106
REMARK H PARENT 16 9 90 59 58 70
REMARK Flexibility Score: inf
ROOT
ATOM      1  C   UNL A   1      46.491  23.287  24.588  1.00  0.00     0.274 C 
ENDROOT
BRANCH   1   2
ATOM      2  O   UNL A   1      45.771  22.643  25.663  1.00  0.00    -0.461 OA
BRANCH   2   3
ATOM      3  C   UNL A   1      44.495  22.275  25.387  1.00  0.00     0.329 C 
ATOM      4  O   UNL A   1      44.199  21.663  24.357  1.00  0.00    -0.250 OA
BRANCH   3   5
ATOM      5  C   UNL A   1      43.269  23.041  26.284  1.00  0.00     0.196 C 
BRANCH   5   6
ATOM      6  N   UNL A   1      42.916  21.588  26.981  1.00  0.00    -0.342 N 
ATOM      7  C   UNL A   1      41.793  20.903  27.336  1.00  0.00     0.221 C 
ATOM      8  O   UNL A   1      41.907  19.756  27.762  1.00  0.00    -0.275 OA
ATOM      9  H   UNL A   1      43.732  21.082  27.197  1.00  0.00     0.164 HD
BRANCH   7  10
ATOM     10  C   UNL A   1      40.447  21.576  27.220  1.00  0.00     0.105 C 
BRANCH  10  11
ATOM     11  C   UNL A   1      39.993  21.671  25.773  1.00  0.00     0.053 C 
BRANCH  11  12
ATOM     12  C   UNL A   1      38.517  21.840  25.818  1.00  0.00     0.042 A 
ATOM     13  C   UNL A   1      30.256  25.392  25.293  1.00  0.00     0.088 C 
ATOM     14  C   UNL A   1      31.662  24.944  25.206  1.00  0.00     0.105 A 
ATOM     15  O   UNL A   1      31.852  23.644  24.870  1.00  0.00    -0.461 OA
ATOM     16  C   UNL A   1      32.870  25.564  25.442  1.00  0.00    -0.002 A 
ATOM     17  C   UNL A   1      33.189  23.362  24.937  1.00  0.00     0.141 A 
ATOM     18  C   UNL A   1      33.876  24.536  25.352  1.00  0.00     0.025 A 
ATOM     19  C   UNL A   1      33.105  26.986  25.800  1.00  0.00     0.049 C 
ATOM     20  C   UNL A   1      33.688  22.061  24.660  1.00  0.00     0.036 A 
ATOM     21  C   UNL A   1      35.275  24.594  25.674  1.00  0.00     0.024 A 
ATOM     22  C   UNL A   1      32.914  20.824  24.443  1.00  0.00     0.052 C 
ATOM     23  C   UNL A   1      35.026  22.095  24.920  1.00  0.00     0.145 A 
ATOM     24  C   UNL A   1      35.951  23.406  25.593  1.00  0.00     0.022 A 
ATOM     25  O   UNL A   1      35.976  20.555  24.675  1.00  0.00    -0.422 OA
ATOM     26  C   UNL A   1      37.741  23.186  26.066  1.00  0.00    -0.030 A 
ATOM     27  C   UNL A   1      37.715  20.256  25.068  1.00  0.00     0.339 A 
ATOM     28  C   UNL A   1      38.359  24.445  26.589  1.00  0.00     0.046 C 
ATOM     29  O   UNL A   1      38.230  19.156  24.978  1.00  0.00    -0.246 OA
ENDBRANCH  11  12
ENDBRANCH  10  11
ENDBRANCH   7  10
ENDBRANCH   5   6
BRANCH   5  30
ATOM     30  C   UNL A   1      42.061  24.854  25.994  1.00  0.00     0.072 C 
BRANCH  30  31
ATOM     31  C   UNL A   1      41.314  26.071  26.940  1.00  0.00    -0.045 A 
ATOM     32  C   UNL A   1      41.036  27.347  26.415  1.00  0.00     0.005 A 
ATOM     33  C   UNL A   1      40.960  25.805  28.280  1.00  0.00     0.005 A 
ATOM     34  C   UNL A   1      40.205  28.226  27.115  1.00  0.00     0.021 A 
ATOM     35  C   UNL A   1      40.164  26.710  28.991  1.00  0.00     0.021 A 
ATOM     36  C   UNL A   1      39.744  27.889  28.383  1.00  0.00     0.041 A 
ATOM     37  Cl  UNL A   1      38.632  28.920  29.193  1.00  0.00    -0.084 Cl
ENDBRANCH  30  31
ENDBRANCH   5  30
ENDBRANCH   3   5
ENDBRANCH   2   3
ENDBRANCH   1   2
BRANCH   1  38
ATOM     38  C   UNL A   1      46.720  24.788  24.787  1.00  0.00     0.275 C 
BRANCH  38  39
ATOM     39  O   UNL A   1      45.496  25.546  24.744  1.00  0.00    -0.458 OA
BRANCH  39  40
ATOM     40  C   UNL A   1      45.660  26.862  25.000  1.00  0.00     0.338 C 
ATOM     41  O   UNL A   1      46.019  27.714  24.200  1.00  0.00    -0.246 OA
BRANCH  40  42
ATOM     42  C   UNL A   1      45.382  27.212  26.408  1.00  0.00     0.060 A 
ATOM     43  C   UNL A   1      45.059  26.261  27.384  1.00  0.00     0.016 A 
ATOM     44  C   UNL A   1      45.200  28.568  26.677  1.00  0.00     0.016 A 
ATOM     45  C   UNL A   1      44.476  26.662  28.600  1.00  0.00     0.010 A 
ATOM     46  C   UNL A   1      44.638  28.963  27.888  1.00  0.00     0.010 A 
ATOM     47  C   UNL A   1      44.232  28.018  28.852  1.00  0.00    -0.014 A 
BRANCH  47  48
ATOM     48  C   UNL A   1      43.639  28.473  30.143  1.00  0.00     0.031 A 
ATOM     49  C   UNL A   1      44.720  28.814  31.106  1.00  0.00     0.074 A 
ATOM     50  C   UNL A   1      42.591  29.325  30.285  1.00  0.00     0.049 A 
ATOM     51  N   UNL A   1      45.226  30.012  31.083  1.00  0.00    -0.248 NA
ATOM     52  C   UNL A   1      45.551  27.820  31.774  1.00  0.00     0.031 C 
ATOM     53  C   UNL A   1      42.109  30.217  29.231  1.00  0.00     0.029 A 
ATOM     54  N   UNL A   1      41.968  29.802  31.434  1.00  0.00    -0.354 N 
ATOM     55  C   UNL A   1      46.537  29.869  31.455  1.00  0.00     0.074 A 
ATOM     56  C   UNL A   1      46.660  28.537  32.011  1.00  0.00     0.031 C 
ATOM     57  C   UNL A   1      41.400  31.217  29.780  1.00  0.00     0.029 A 
ATOM     58  C   UNL A   1      41.276  30.985  31.208  1.00  0.00     0.049 A 
ATOM     59  H   UNL A   1      42.012  29.353  32.308  1.00  0.00     0.167 HD
ATOM     60  C   UNL A   1      47.481  30.790  31.133  1.00  0.00     0.037 A 
ATOM     61  C   UNL A   1      40.923  31.939  32.105  1.00  0.00     0.037 A 
ATOM     62  C   UNL A   1      47.126  31.958  30.357  1.00  0.00     0.049 A 
ATOM     63  C   UNL A   1      42.080  32.894  32.076  1.00  0.00     0.074 A 
ATOM     64  C   UNL A   1      47.758  32.842  29.506  1.00  0.00     0.029 A 
ATOM     65  N   UNL A   1      45.824  32.379  30.358  1.00  0.00    -0.354 N 
ATOM     66  N   UNL A   1      42.299  33.832  31.190  1.00  0.00    -0.248 NA
ATOM     67  C   UNL A   1      43.225  32.603  32.957  1.00  0.00     0.031 C 
ATOM     68  C   UNL A   1      46.849  33.909  29.215  1.00  0.00     0.029 A 
ATOM     69  C   UNL A   1      45.685  33.671  29.915  1.00  0.00     0.049 A 
ATOM     70  H   UNL A   1      45.070  31.817  30.644  1.00  0.00     0.167 HD
ATOM     71  C   UNL A   1      43.677  34.006  31.221  1.00  0.00     0.074 A 
ATOM     72  C   UNL A   1      44.165  33.370  32.422  1.00  0.00     0.031 C 
ATOM     73  C   UNL A   1      44.411  34.310  30.117  1.00  0.00     0.037 A 
BRANCH  60  74
ATOM     74  C   UNL A   1      48.833  30.654  31.697  1.00  0.00     0.064 A 
ATOM     75  C   UNL A   1      49.790  29.988  30.924  1.00  0.00     0.173 A 
ATOM     76  C   UNL A   1      49.196  31.121  32.959  1.00  0.00     0.173 A 
ATOM     77  F   UNL A   1      49.473  29.542  29.699  1.00  0.00    -0.203 F 
ATOM     78  C   UNL A   1      51.076  29.785  31.401  1.00  0.00     0.198 A 
ATOM     79  C   UNL A   1      50.488  30.919  33.435  1.00  0.00     0.198 A 
ATOM     80  F   UNL A   1      48.308  31.773  33.723  1.00  0.00    -0.203 F 
ATOM     81  F   UNL A   1      51.977  29.148  30.641  1.00  0.00    -0.200 F 
ATOM     82  C   UNL A   1      51.424  30.250  32.657  1.00  0.00     0.200 A 
ATOM     83  F   UNL A   1      50.834  31.376  34.646  1.00  0.00    -0.200 F 
ATOM     84  F   UNL A   1      52.668  30.060  33.118  1.00  0.00    -0.200 F 
ENDBRANCH  60  74
BRANCH  61  85
ATOM     85  C   UNL A   1      40.169  31.541  33.322  1.00  0.00     0.064 A 
ATOM     86  C   UNL A   1      38.892  32.111  33.518  1.00  0.00     0.173 A 
ATOM     87  C   UNL A   1      40.637  30.719  34.353  1.00  0.00     0.173 A 
ATOM     88  F   UNL A   1      38.407  33.000  32.638  1.00  0.00    -0.203 F 
ATOM     89  C   UNL A   1      38.102  31.806  34.625  1.00  0.00     0.198 A 
ATOM     90  C   UNL A   1      39.836  30.391  35.450  1.00  0.00     0.198 A 
ATOM     91  F   UNL A   1      41.878  30.218  34.336  1.00  0.00    -0.203 F 
ATOM     92  F   UNL A   1      36.892  32.365  34.761  1.00  0.00    -0.200 F 
ATOM     93  C   UNL A   1      38.568  30.925  35.582  1.00  0.00     0.200 A 
ATOM     94  F   UNL A   1      40.304  29.549  36.380  1.00  0.00    -0.200 F 
ATOM     95  F   UNL A   1      37.803  30.603  36.633  1.00  0.00    -0.200 F 
ENDBRANCH  61  85
BRANCH  73  96
ATOM     96  C   UNL A   1      43.762  35.175  29.107  1.00  0.00     0.064 A 
ATOM     97  C   UNL A   1      43.525  36.526  29.408  1.00  0.00     0.173 A 
ATOM     98  C   UNL A   1      43.403  34.710  27.839  1.00  0.00     0.173 A 
ATOM     99  F   UNL A   1      43.886  37.029  30.600  1.00  0.00    -0.203 F 
ATOM    100  C   UNL A   1      42.945  37.380  28.477  1.00  0.00     0.198 A 
ATOM    101  C   UNL A   1      42.827  35.569  26.905  1.00  0.00     0.198 A 
ATOM    102  F   UNL A   1      43.606  33.428  27.500  1.00  0.00    -0.203 F 
ATOM    103  F   UNL A   1      42.738  38.668  28.785  1.00  0.00    -0.200 F 
ATOM    104  C   UNL A   1      42.599  36.901  27.224  1.00  0.00     0.200 A 
ATOM    105  F   UNL A   1      42.504  35.112  25.688  1.00  0.00    -0.200 F 
ATOM    106  F   UNL A   1      42.057  37.727  26.318  1.00  0.00    -0.200 F 
ENDBRANCH  73  96
ENDBRANCH  47  48
ENDBRANCH  40  42
ENDBRANCH  39  40
ENDBRANCH  38  39
ENDBRANCH   1  38
TORSDOF 17
ENDMDL
