MODEL 1
REMARK VINA RESULT:      -9.9      0.000      0.000
REMARK SMILES CC[NH+](CC)CCS[C@H](F)C(=O)OCCOC(=O)c1ccc(-c2c3nc(c(-c4c(F)c(F)c(F)c(F)c4F)c4ccc([nH]4)c(-c4c(F)c(F)c(F)c(F)c4F)c4nc(c(-c5c(F)c(F)c(F)c(F)c5F)c5ccc2[nH]5)C=C4)C=C3)cc1
REMARK SMILES IDX 13 1 11 2 12 3 9 4 10 5 8 6 7 7 6 8 3 9 2 11 1 12 4 13 5 14
REMARK SMILES IDX 14 15 15 16 16 17 17 18 18 19 19 20 20 21 81 22 21 23 80 24
REMARK SMILES IDX 22 25 23 26 24 27 74 28 25 29 79 30 73 31 75 32 26 33 78 34
REMARK SMILES IDX 72 35 71 36 27 38 59 39 39 40 58 41 40 42 43 43 57 44 76 45
REMARK SMILES IDX 41 46 42 47 56 49 77 50 44 51 28 52 29 53 37 54 30 55 31 56
REMARK SMILES IDX 35 57 38 58 32 59 33 60 36 61 34 62 60 63 61 64 69 65 62 66
REMARK SMILES IDX 63 67 67 68 70 69 64 70 65 71 68 72 66 73 45 74 46 75 54 76
REMARK SMILES IDX 47 77 48 78 52 79 55 80 49 81 50 82 53 83 51 84
REMARK H PARENT 3 10 75 37 43 48
REMARK Flexibility Score: inf
ROOT
ATOM      1  O   UNL A   1      33.036  28.080  25.645  1.00  0.00    -0.459 OA
ENDROOT
BRANCH   1   2
ATOM      2  C   UNL A   1      32.737  27.026  24.830  1.00  0.00     0.351 C 
ATOM      3  O   UNL A   1      32.470  25.897  25.228  1.00  0.00    -0.248 OA
BRANCH   2   4
ATOM      4  C   UNL A   1      32.796  27.420  23.363  1.00  0.00     0.333 C 
ATOM      5  F   UNL A   1      33.836  26.853  22.685  1.00  0.00    -0.223 F 
BRANCH   4   6
ATOM      6  S   UNL A   1      31.242  26.981  22.510  1.00  0.00    -0.108 SA
BRANCH   6   7
ATOM      7  C   UNL A   1      30.238  28.446  22.935  1.00  0.00     0.134 C 
BRANCH   7   8
ATOM      8  C   UNL A   1      30.108  29.566  21.878  1.00  0.00     0.273 C 
BRANCH   8   9
ATOM      9  N   UNL A   1      29.199  30.701  22.055  1.00  0.00    -0.335 N 
ATOM     10  H   UNL A   1      29.804  31.452  21.721  1.00  0.00     0.348 HD
BRANCH   9  11
ATOM     11  C   UNL A   1      28.066  30.805  21.140  1.00  0.00     0.258 C 
ATOM     12  C   UNL A   1      28.056  32.133  20.390  1.00  0.00     0.071 C 
ENDBRANCH   9  11
BRANCH   9  13
ATOM     13  C   UNL A   1      28.909  31.089  23.433  1.00  0.00     0.258 C 
ATOM     14  C   UNL A   1      27.462  31.418  23.776  1.00  0.00     0.071 C 
ENDBRANCH   9  13
ENDBRANCH   8   9
ENDBRANCH   7   8
ENDBRANCH   6   7
ENDBRANCH   4   6
ENDBRANCH   2   4
ENDBRANCH   1   2
BRANCH   1  15
ATOM     15  C   UNL A   1      32.998  29.393  25.055  1.00  0.00     0.274 C 
BRANCH  15  16
ATOM     16  C   UNL A   1      32.210  30.396  25.902  1.00  0.00     0.275 C 
BRANCH  16  17
ATOM     17  O   UNL A   1      32.706  30.463  27.252  1.00  0.00    -0.458 OA
BRANCH  17  18
ATOM     18  C   UNL A   1      33.427  31.570  27.532  1.00  0.00     0.338 C 
ATOM     19  O   UNL A   1      33.003  32.710  27.672  1.00  0.00    -0.246 OA
BRANCH  18  20
ATOM     20  C   UNL A   1      34.830  31.223  27.809  1.00  0.00     0.060 A 
ATOM     21  C   UNL A   1      35.125  29.869  28.003  1.00  0.00     0.016 A 
ATOM     22  C   UNL A   1      35.814  32.199  27.988  1.00  0.00     0.016 A 
ATOM     23  C   UNL A   1      36.385  29.486  28.438  1.00  0.00     0.010 A 
ATOM     24  C   UNL A   1      37.082  31.814  28.436  1.00  0.00     0.010 A 
ATOM     25  C   UNL A   1      37.353  30.461  28.705  1.00  0.00    -0.014 A 
BRANCH  25  26
ATOM     26  C   UNL A   1      38.562  30.053  29.450  1.00  0.00     0.031 A 
ATOM     27  C   UNL A   1      38.740  30.555  30.854  1.00  0.00     0.074 A 
ATOM     28  C   UNL A   1      39.423  29.169  28.920  1.00  0.00     0.049 A 
ATOM     29  N   UNL A   1      39.692  30.298  31.715  1.00  0.00    -0.248 NA
ATOM     30  C   UNL A   1      37.698  31.464  31.362  1.00  0.00     0.031 C 
ATOM     31  C   UNL A   1      39.308  28.573  27.591  1.00  0.00     0.029 A 
ATOM     32  N   UNL A   1      40.557  28.610  29.447  1.00  0.00    -0.354 N 
ATOM     33  C   UNL A   1      39.365  31.014  32.859  1.00  0.00     0.074 A 
ATOM     34  C   UNL A   1      38.143  31.735  32.579  1.00  0.00     0.031 C 
ATOM     35  C   UNL A   1      40.332  27.722  27.407  1.00  0.00     0.029 A 
ATOM     36  C   UNL A   1      41.183  27.735  28.595  1.00  0.00     0.049 A 
ATOM     37  H   UNL A   1      40.891  28.814  30.351  1.00  0.00     0.167 HD
ATOM     38  C   UNL A   1      40.022  31.057  34.042  1.00  0.00     0.037 A 
ATOM     39  C   UNL A   1      42.321  27.036  28.760  1.00  0.00     0.037 A 
ATOM     40  C   UNL A   1      41.236  30.336  34.315  1.00  0.00     0.049 A 
ATOM     41  C   UNL A   1      43.064  27.146  30.065  1.00  0.00     0.074 A 
ATOM     42  C   UNL A   1      41.995  30.323  35.471  1.00  0.00     0.029 A 
ATOM     43  N   UNL A   1      41.869  29.495  33.409  1.00  0.00    -0.354 N 
ATOM     44  N   UNL A   1      42.755  27.831  31.139  1.00  0.00    -0.248 NA
ATOM     45  C   UNL A   1      44.314  26.381  30.181  1.00  0.00     0.031 C 
ATOM     46  C   UNL A   1      43.106  29.500  35.254  1.00  0.00     0.029 A 
ATOM     47  C   UNL A   1      43.017  28.969  33.977  1.00  0.00     0.049 A 
ATOM     48  H   UNL A   1      41.548  29.301  32.500  1.00  0.00     0.167 HD
ATOM     49  C   UNL A   1      43.759  27.568  32.062  1.00  0.00     0.074 A 
ATOM     50  C   UNL A   1      44.676  26.644  31.428  1.00  0.00     0.031 C 
ATOM     51  C   UNL A   1      43.912  28.051  33.320  1.00  0.00     0.037 A 
BRANCH  38  52
ATOM     52  C   UNL A   1      39.453  31.941  35.110  1.00  0.00     0.064 A 
ATOM     53  C   UNL A   1      39.736  33.314  35.158  1.00  0.00     0.173 A 
ATOM     54  C   UNL A   1      38.612  31.407  36.098  1.00  0.00     0.173 A 
ATOM     55  F   UNL A   1      40.552  33.867  34.249  1.00  0.00    -0.203 F 
ATOM     56  C   UNL A   1      39.216  34.116  36.172  1.00  0.00     0.198 A 
ATOM     57  C   UNL A   1      38.075  32.216  37.095  1.00  0.00     0.198 A 
ATOM     58  F   UNL A   1      38.314  30.099  36.098  1.00  0.00    -0.203 F 
ATOM     59  F   UNL A   1      39.538  35.416  36.225  1.00  0.00    -0.200 F 
ATOM     60  C   UNL A   1      38.383  33.568  37.135  1.00  0.00     0.200 A 
ATOM     61  F   UNL A   1      37.267  31.687  38.024  1.00  0.00    -0.200 F 
ATOM     62  F   UNL A   1      37.885  34.341  38.111  1.00  0.00    -0.200 F 
ENDBRANCH  38  52
BRANCH  39  63
ATOM     63  C   UNL A   1      42.830  26.177  27.660  1.00  0.00     0.064 A 
ATOM     64  C   UNL A   1      43.731  26.673  26.709  1.00  0.00     0.173 A 
ATOM     65  C   UNL A   1      42.413  24.844  27.532  1.00  0.00     0.173 A 
ATOM     66  F   UNL A   1      44.138  27.949  26.774  1.00  0.00    -0.203 F 
ATOM     67  C   UNL A   1      44.184  25.873  25.662  1.00  0.00     0.198 A 
ATOM     68  C   UNL A   1      42.886  24.037  26.501  1.00  0.00     0.198 A 
ATOM     69  F   UNL A   1      41.548  24.323  28.416  1.00  0.00    -0.203 F 
ATOM     70  F   UNL A   1      45.011  26.384  24.740  1.00  0.00    -0.200 F 
ATOM     71  C   UNL A   1      43.765  24.554  25.562  1.00  0.00     0.200 A 
ATOM     72  F   UNL A   1      42.485  22.762  26.413  1.00  0.00    -0.200 F 
ATOM     73  F   UNL A   1      44.201  23.784  24.555  1.00  0.00    -0.200 F 
ENDBRANCH  39  63
BRANCH  51  74
ATOM     74  C   UNL A   1      45.105  27.570  34.092  1.00  0.00     0.064 A 
ATOM     75  C   UNL A   1      46.322  28.265  34.063  1.00  0.00     0.173 A 
ATOM     76  C   UNL A   1      45.020  26.418  34.888  1.00  0.00     0.173 A 
ATOM     77  F   UNL A   1      46.455  29.363  33.305  1.00  0.00    -0.203 F 
ATOM     78  C   UNL A   1      47.422  27.807  34.784  1.00  0.00     0.198 A 
ATOM     79  C   UNL A   1      46.114  25.978  35.627  1.00  0.00     0.198 A 
ATOM     80  F   UNL A   1      43.874  25.724  34.953  1.00  0.00    -0.203 F 
ATOM     81  F   UNL A   1      48.591  28.459  34.705  1.00  0.00    -0.200 F 
ATOM     82  C   UNL A   1      47.316  26.668  35.568  1.00  0.00     0.200 A 
ATOM     83  F   UNL A   1      46.008  24.883  36.393  1.00  0.00    -0.200 F 
ATOM     84  F   UNL A   1      48.375  26.229  36.261  1.00  0.00    -0.200 F 
ENDBRANCH  51  74
ENDBRANCH  25  26
ENDBRANCH  18  20
ENDBRANCH  17  18
ENDBRANCH  16  17
ENDBRANCH  15  16
ENDBRANCH   1  15
TORSDOF 17
ENDMDL
MODEL 2
REMARK VINA RESULT:      -9.7      5.614     10.614
REMARK SMILES CC[NH+](CC)CCS[C@H](F)C(=O)OCCOC(=O)c1ccc(-c2c3nc(c(-c4c(F)c(F)c(F)c(F)c4F)c4ccc([nH]4)c(-c4c(F)c(F)c(F)c(F)c4F)c4nc(c(-c5c(F)c(F)c(F)c(F)c5F)c5ccc2[nH]5)C=C4)C=C3)cc1
REMARK SMILES IDX 13 1 11 2 12 3 9 4 10 5 8 6 7 7 6 8 3 9 2 11 1 12 4 13 5 14
REMARK SMILES IDX 14 15 15 16 16 17 17 18 18 19 19 20 20 21 81 22 21 23 80 24
REMARK SMILES IDX 22 25 23 26 24 27 74 28 25 29 79 30 73 31 75 32 26 33 78 34
REMARK SMILES IDX 72 35 71 36 27 38 59 39 39 40 58 41 40 42 43 43 57 44 76 45
REMARK SMILES IDX 41 46 42 47 56 49 77 50 44 51 28 52 29 53 37 54 30 55 31 56
REMARK SMILES IDX 35 57 38 58 32 59 33 60 36 61 34 62 60 63 61 64 69 65 62 66
REMARK SMILES IDX 63 67 67 68 70 69 64 70 65 71 68 72 66 73 45 74 46 75 54 76
REMARK SMILES IDX 47 77 48 78 52 79 55 80 49 81 50 82 53 83 51 84
REMARK H PARENT 3 10 75 37 43 48
REMARK Flexibility Score: inf
ROOT
ATOM      1  O   UNL A   1      36.018  21.690  25.457  1.00  0.00    -0.459 OA
ENDROOT
BRANCH   1   2
ATOM      2  C   UNL A   1      34.789  21.859  26.027  1.00  0.00     0.351 C 
ATOM      3  O   UNL A   1      34.553  21.703  27.222  1.00  0.00    -0.248 OA
BRANCH   2   4
ATOM      4  C   UNL A   1      33.741  22.242  24.995  1.00  0.00     0.333 C 
ATOM      5  F   UNL A   1      34.043  21.834  23.729  1.00  0.00    -0.223 F 
BRANCH   4   6
ATOM      6  S   UNL A   1      32.107  21.563  25.447  1.00  0.00    -0.108 SA
BRANCH   6   7
ATOM      7  C   UNL A   1      32.187  19.967  24.564  1.00  0.00     0.134 C 
BRANCH   7   8
ATOM      8  C   UNL A   1      32.932  18.798  25.247  1.00  0.00     0.273 C 
BRANCH   8   9
ATOM      9  N   UNL A   1      32.942  17.445  24.683  1.00  0.00    -0.335 N 
ATOM     10  H   UNL A   1      31.937  17.300  24.585  1.00  0.00     0.348 HD
BRANCH   9  11
ATOM     11  C   UNL A   1      33.397  17.296  23.303  1.00  0.00     0.258 C 
ATOM     12  C   UNL A   1      32.522  18.073  22.325  1.00  0.00     0.071 C 
ENDBRANCH   9  11
BRANCH   9  13
ATOM     13  C   UNL A   1      33.354  16.372  25.582  1.00  0.00     0.258 C 
ATOM     14  C   UNL A   1      32.520  15.098  25.578  1.00  0.00     0.071 C 
ENDBRANCH   9  13
ENDBRANCH   8   9
ENDBRANCH   7   8
ENDBRANCH   6   7
ENDBRANCH   4   6
ENDBRANCH   2   4
ENDBRANCH   1   2
BRANCH   1  15
ATOM     15  C   UNL A   1      36.349  20.365  24.999  1.00  0.00     0.274 C 
BRANCH  15  16
ATOM     16  C   UNL A   1      37.841  20.051  25.134  1.00  0.00     0.275 C 
BRANCH  16  17
ATOM     17  O   UNL A   1      38.618  21.238  25.380  1.00  0.00    -0.458 OA
BRANCH  17  18
ATOM     18  C   UNL A   1      39.685  21.055  26.187  1.00  0.00     0.338 C 
ATOM     19  O   UNL A   1      40.387  20.055  26.265  1.00  0.00    -0.246 OA
BRANCH  18  20
ATOM     20  C   UNL A   1      40.023  22.299  26.897  1.00  0.00     0.060 A 
ATOM     21  C   UNL A   1      39.362  23.464  26.490  1.00  0.00     0.016 A 
ATOM     22  C   UNL A   1      41.037  22.353  27.856  1.00  0.00     0.016 A 
ATOM     23  C   UNL A   1      39.753  24.697  26.991  1.00  0.00     0.010 A 
ATOM     24  C   UNL A   1      41.438  23.597  28.354  1.00  0.00     0.010 A 
ATOM     25  C   UNL A   1      40.825  24.773  27.886  1.00  0.00    -0.014 A 
BRANCH  25  26
ATOM     26  C   UNL A   1      41.410  26.103  28.158  1.00  0.00     0.031 A 
ATOM     27  C   UNL A   1      42.785  26.401  27.634  1.00  0.00     0.074 A 
ATOM     28  C   UNL A   1      40.682  27.056  28.765  1.00  0.00     0.049 A 
ATOM     29  N   UNL A   1      43.482  27.506  27.708  1.00  0.00    -0.248 NA
ATOM     30  C   UNL A   1      43.465  25.307  26.921  1.00  0.00     0.031 C 
ATOM     31  C   UNL A   1      39.315  26.889  29.254  1.00  0.00     0.029 A 
ATOM     32  N   UNL A   1      40.992  28.358  29.056  1.00  0.00    -0.354 N 
ATOM     33  C   UNL A   1      44.679  27.238  27.056  1.00  0.00     0.074 A 
ATOM     34  C   UNL A   1      44.627  25.862  26.614  1.00  0.00     0.031 C 
ATOM     35  C   UNL A   1      38.899  28.053  29.783  1.00  0.00     0.029 A 
ATOM     36  C   UNL A   1      39.980  29.033  29.690  1.00  0.00     0.049 A 
ATOM     37  H   UNL A   1      41.858  28.771  28.832  1.00  0.00     0.167 HD
ATOM     38  C   UNL A   1      45.723  28.071  26.838  1.00  0.00     0.037 A 
ATOM     39  C   UNL A   1      39.941  30.298  30.149  1.00  0.00     0.037 A 
ATOM     40  C   UNL A   1      45.768  29.439  27.278  1.00  0.00     0.049 A 
ATOM     41  C   UNL A   1      41.140  31.187  29.943  1.00  0.00     0.074 A 
ATOM     42  C   UNL A   1      46.784  30.365  27.128  1.00  0.00     0.029 A 
ATOM     43  N   UNL A   1      44.741  30.076  27.961  1.00  0.00    -0.354 N 
ATOM     44  N   UNL A   1      42.271  30.925  29.335  1.00  0.00    -0.248 NA
ATOM     45  C   UNL A   1      41.052  32.549  30.487  1.00  0.00     0.031 C 
ATOM     46  C   UNL A   1      46.385  31.554  27.750  1.00  0.00     0.029 A 
ATOM     47  C   UNL A   1      45.105  31.380  28.251  1.00  0.00     0.049 A 
ATOM     48  H   UNL A   1      43.881  29.663  28.202  1.00  0.00     0.167 HD
ATOM     49  C   UNL A   1      43.022  32.091  29.406  1.00  0.00     0.074 A 
ATOM     50  C   UNL A   1      42.209  33.068  30.101  1.00  0.00     0.031 C 
ATOM     51  C   UNL A   1      44.274  32.331  28.944  1.00  0.00     0.037 A 
BRANCH  38  52
ATOM     52  C   UNL A   1      46.911  27.506  26.120  1.00  0.00     0.064 A 
ATOM     53  C   UNL A   1      47.957  26.874  26.809  1.00  0.00     0.173 A 
ATOM     54  C   UNL A   1      47.005  27.597  24.723  1.00  0.00     0.173 A 
ATOM     55  F   UNL A   1      47.925  26.782  28.147  1.00  0.00    -0.203 F 
ATOM     56  C   UNL A   1      49.064  26.375  26.127  1.00  0.00     0.198 A 
ATOM     57  C   UNL A   1      48.101  27.076  24.042  1.00  0.00     0.198 A 
ATOM     58  F   UNL A   1      46.032  28.195  24.018  1.00  0.00    -0.203 F 
ATOM     59  F   UNL A   1      50.073  25.817  26.810  1.00  0.00    -0.200 F 
ATOM     60  C   UNL A   1      49.133  26.472  24.746  1.00  0.00     0.200 A 
ATOM     61  F   UNL A   1      48.165  27.166  22.707  1.00  0.00    -0.200 F 
ATOM     62  F   UNL A   1      50.200  25.992  24.091  1.00  0.00    -0.200 F 
ENDBRANCH  38  52
BRANCH  39  63
ATOM     63  C   UNL A   1      38.732  30.795  30.851  1.00  0.00     0.064 A 
ATOM     64  C   UNL A   1      38.637  30.759  32.248  1.00  0.00     0.173 A 
ATOM     65  C   UNL A   1      37.638  31.306  30.135  1.00  0.00     0.173 A 
ATOM     66  F   UNL A   1      39.645  30.255  32.975  1.00  0.00    -0.203 F 
ATOM     67  C   UNL A   1      37.488  31.200  32.903  1.00  0.00     0.198 A 
ATOM     68  C   UNL A   1      36.502  31.770  30.791  1.00  0.00     0.198 A 
ATOM     69  F   UNL A   1      37.678  31.358  28.796  1.00  0.00    -0.203 F 
ATOM     70  F   UNL A   1      37.405  31.114  34.237  1.00  0.00    -0.200 F 
ATOM     71  C   UNL A   1      36.424  31.711  32.174  1.00  0.00     0.200 A 
ATOM     72  F   UNL A   1      35.480  32.270  30.084  1.00  0.00    -0.200 F 
ATOM     73  F   UNL A   1      35.320  32.135  32.804  1.00  0.00    -0.200 F 
ENDBRANCH  39  63
BRANCH  51  74
ATOM     74  C   UNL A   1      44.825  33.709  29.161  1.00  0.00     0.064 A 
ATOM     75  C   UNL A   1      45.577  34.024  30.302  1.00  0.00     0.173 A 
ATOM     76  C   UNL A   1      44.622  34.715  28.205  1.00  0.00     0.173 A 
ATOM     77  F   UNL A   1      45.785  33.099  31.250  1.00  0.00    -0.203 F 
ATOM     78  C   UNL A   1      46.082  35.308  30.492  1.00  0.00     0.198 A 
ATOM     79  C   UNL A   1      45.150  35.990  28.386  1.00  0.00     0.198 A 
ATOM     80  F   UNL A   1      43.915  34.460  27.095  1.00  0.00    -0.203 F 
ATOM     81  F   UNL A   1      46.757  35.601  31.612  1.00  0.00    -0.200 F 
ATOM     82  C   UNL A   1      45.872  36.287  29.533  1.00  0.00     0.200 A 
ATOM     83  F   UNL A   1      44.956  36.933  27.454  1.00  0.00    -0.200 F 
ATOM     84  F   UNL A   1      46.360  37.521  29.716  1.00  0.00    -0.200 F 
ENDBRANCH  51  74
ENDBRANCH  25  26
ENDBRANCH  18  20
ENDBRANCH  17  18
ENDBRANCH  16  17
ENDBRANCH  15  16
ENDBRANCH   1  15
TORSDOF 17
ENDMDL
MODEL 3
REMARK VINA RESULT:      -9.6      4.893      9.926
REMARK SMILES CC[NH+](CC)CCS[C@H](F)C(=O)OCCOC(=O)c1ccc(-c2c3nc(c(-c4c(F)c(F)c(F)c(F)c4F)c4ccc([nH]4)c(-c4c(F)c(F)c(F)c(F)c4F)c4nc(c(-c5c(F)c(F)c(F)c(F)c5F)c5ccc2[nH]5)C=C4)C=C3)cc1
REMARK SMILES IDX 13 1 11 2 12 3 9 4 10 5 8 6 7 7 6 8 3 9 2 11 1 12 4 13 5 14
REMARK SMILES IDX 14 15 15 16 16 17 17 18 18 19 19 20 20 21 81 22 21 23 80 24
REMARK SMILES IDX 22 25 23 26 24 27 74 28 25 29 79 30 73 31 75 32 26 33 78 34
REMARK SMILES IDX 72 35 71 36 27 38 59 39 39 40 58 41 40 42 43 43 57 44 76 45
REMARK SMILES IDX 41 46 42 47 56 49 77 50 44 51 28 52 29 53 37 54 30 55 31 56
REMARK SMILES IDX 35 57 38 58 32 59 33 60 36 61 34 62 60 63 61 64 69 65 62 66
REMARK SMILES IDX 63 67 67 68 70 69 64 70 65 71 68 72 66 73 45 74 46 75 54 76
REMARK SMILES IDX 47 77 48 78 52 79 55 80 49 81 50 82 53 83 51 84
REMARK H PARENT 3 10 75 37 43 48
REMARK Flexibility Score: inf
ROOT
ATOM      1  O   UNL A   1      35.487  21.467  24.248  1.00  0.00    -0.459 OA
ENDROOT
BRANCH   1   2
ATOM      2  C   UNL A   1      35.683  22.718  23.736  1.00  0.00     0.351 C 
ATOM      3  O   UNL A   1      36.411  22.968  22.780  1.00  0.00    -0.248 OA
BRANCH   2   4
ATOM      4  C   UNL A   1      34.903  23.768  24.510  1.00  0.00     0.333 C 
ATOM      5  F   UNL A   1      35.678  24.525  25.340  1.00  0.00    -0.223 F 
BRANCH   4   6
ATOM      6  S   UNL A   1      34.013  24.885  23.373  1.00  0.00    -0.108 SA
BRANCH   6   7
ATOM      7  C   UNL A   1      32.449  23.958  23.199  1.00  0.00     0.134 C 
BRANCH   7   8
ATOM      8  C   UNL A   1      32.036  23.012  24.349  1.00  0.00     0.273 C 
BRANCH   8   9
ATOM      9  N   UNL A   1      31.404  23.507  25.575  1.00  0.00    -0.335 N 
ATOM     10  H   UNL A   1      32.240  23.764  26.100  1.00  0.00     0.348 HD
BRANCH   9  11
ATOM     11  C   UNL A   1      30.699  24.784  25.499  1.00  0.00     0.258 C 
ATOM     12  C   UNL A   1      31.497  25.917  26.135  1.00  0.00     0.071 C 
ENDBRANCH   9  11
BRANCH   9  13
ATOM     13  C   UNL A   1      30.766  22.505  26.424  1.00  0.00     0.258 C 
ATOM     14  C   UNL A   1      29.482  22.910  27.136  1.00  0.00     0.071 C 
ENDBRANCH   9  13
ENDBRANCH   8   9
ENDBRANCH   7   8
ENDBRANCH   6   7
ENDBRANCH   4   6
ENDBRANCH   2   4
ENDBRANCH   1   2
BRANCH   1  15
ATOM     15  C   UNL A   1      36.226  21.126  25.436  1.00  0.00     0.274 C 
BRANCH  15  16
ATOM     16  C   UNL A   1      37.583  20.490  25.122  1.00  0.00     0.275 C 
BRANCH  16  17
ATOM     17  O   UNL A   1      38.655  21.448  25.202  1.00  0.00    -0.458 OA
BRANCH  17  18
ATOM     18  C   UNL A   1      39.576  21.184  26.154  1.00  0.00     0.338 C 
ATOM     19  O   UNL A   1      40.162  20.125  26.339  1.00  0.00    -0.246 OA
BRANCH  18  20
ATOM     20  C   UNL A   1      39.928  22.406  26.894  1.00  0.00     0.060 A 
ATOM     21  C   UNL A   1      39.257  23.581  26.538  1.00  0.00     0.016 A 
ATOM     22  C   UNL A   1      40.964  22.432  27.832  1.00  0.00     0.016 A 
ATOM     23  C   UNL A   1      39.657  24.799  27.068  1.00  0.00     0.010 A 
ATOM     24  C   UNL A   1      41.374  23.662  28.359  1.00  0.00     0.010 A 
ATOM     25  C   UNL A   1      40.749  24.850  27.941  1.00  0.00    -0.014 A 
BRANCH  25  26
ATOM     26  C   UNL A   1      41.337  26.173  28.241  1.00  0.00     0.031 A 
ATOM     27  C   UNL A   1      42.721  26.471  27.737  1.00  0.00     0.074 A 
ATOM     28  C   UNL A   1      40.609  27.120  28.854  1.00  0.00     0.049 A 
ATOM     29  N   UNL A   1      43.423  27.571  27.837  1.00  0.00    -0.248 NA
ATOM     30  C   UNL A   1      43.403  25.384  27.015  1.00  0.00     0.031 C 
ATOM     31  C   UNL A   1      39.235  26.953  29.324  1.00  0.00     0.029 A 
ATOM     32  N   UNL A   1      40.922  28.415  29.170  1.00  0.00    -0.354 N 
ATOM     33  C   UNL A   1      44.626  27.306  27.195  1.00  0.00     0.074 A 
ATOM     34  C   UNL A   1      44.572  25.937  26.730  1.00  0.00     0.031 C 
ATOM     35  C   UNL A   1      38.819  28.110  29.867  1.00  0.00     0.029 A 
ATOM     36  C   UNL A   1      39.906  29.086  29.802  1.00  0.00     0.049 A 
ATOM     37  H   UNL A   1      41.793  28.827  28.962  1.00  0.00     0.167 HD
ATOM     38  C   UNL A   1      45.677  28.137  27.002  1.00  0.00     0.037 A 
ATOM     39  C   UNL A   1      39.869  30.343  30.280  1.00  0.00     0.037 A 
ATOM     40  C   UNL A   1      45.724  29.497  27.464  1.00  0.00     0.049 A 
ATOM     41  C   UNL A   1      41.075  31.229  30.103  1.00  0.00     0.074 A 
ATOM     42  C   UNL A   1      46.748  30.419  27.341  1.00  0.00     0.029 A 
ATOM     43  N   UNL A   1      44.693  30.129  28.145  1.00  0.00    -0.354 N 
ATOM     44  N   UNL A   1      42.211  30.970  29.504  1.00  0.00    -0.248 NA
ATOM     45  C   UNL A   1      40.989  32.583  30.667  1.00  0.00     0.031 C 
ATOM     46  C   UNL A   1      46.348  31.601  27.977  1.00  0.00     0.029 A 
ATOM     47  C   UNL A   1      45.061  31.426  28.460  1.00  0.00     0.049 A 
ATOM     48  H   UNL A   1      43.828  29.717  28.369  1.00  0.00     0.167 HD
ATOM     49  C   UNL A   1      42.969  32.130  29.602  1.00  0.00     0.074 A 
ATOM     50  C   UNL A   1      42.153  33.101  30.303  1.00  0.00     0.031 C 
ATOM     51  C   UNL A   1      44.227  32.371  29.159  1.00  0.00     0.037 A 
BRANCH  38  52
ATOM     52  C   UNL A   1      46.870  27.576  26.289  1.00  0.00     0.064 A 
ATOM     53  C   UNL A   1      47.001  27.657  24.895  1.00  0.00     0.173 A 
ATOM     54  C   UNL A   1      47.898  26.950  27.011  1.00  0.00     0.173 A 
ATOM     55  F   UNL A   1      46.035  28.225  24.159  1.00  0.00    -0.203 F 
ATOM     56  C   UNL A   1      48.106  27.110  24.247  1.00  0.00     0.198 A 
ATOM     57  C   UNL A   1      49.013  26.426  26.362  1.00  0.00     0.198 A 
ATOM     58  F   UNL A   1      47.820  26.845  28.346  1.00  0.00    -0.203 F 
ATOM     59  F   UNL A   1      48.187  27.156  22.910  1.00  0.00    -0.200 F 
ATOM     60  C   UNL A   1      49.112  26.500  24.981  1.00  0.00     0.200 A 
ATOM     61  F   UNL A   1      49.987  25.841  27.072  1.00  0.00    -0.200 F 
ATOM     62  F   UNL A   1      50.174  25.973  24.355  1.00  0.00    -0.200 F 
ENDBRANCH  38  52
BRANCH  39  63
ATOM     63  C   UNL A   1      38.654  30.837  30.977  1.00  0.00     0.064 A 
ATOM     64  C   UNL A   1      38.558  30.811  32.374  1.00  0.00     0.173 A 
ATOM     65  C   UNL A   1      37.558  31.332  30.255  1.00  0.00     0.173 A 
ATOM     66  F   UNL A   1      39.569  30.322  33.107  1.00  0.00    -0.203 F 
ATOM     67  C   UNL A   1      37.404  31.248  33.023  1.00  0.00     0.198 A 
ATOM     68  C   UNL A   1      36.416  31.793  30.905  1.00  0.00     0.198 A 
ATOM     69  F   UNL A   1      37.600  31.374  28.914  1.00  0.00    -0.203 F 
ATOM     70  F   UNL A   1      37.319  31.173  34.358  1.00  0.00    -0.200 F 
ATOM     71  C   UNL A   1      36.337  31.744  32.287  1.00  0.00     0.200 A 
ATOM     72  F   UNL A   1      35.391  32.277  30.191  1.00  0.00    -0.200 F 
ATOM     73  F   UNL A   1      35.228  32.165  32.912  1.00  0.00    -0.200 F 
ENDBRANCH  39  63
BRANCH  51  74
ATOM     74  C   UNL A   1      44.783  33.742  29.404  1.00  0.00     0.064 A 
ATOM     75  C   UNL A   1      45.532  34.032  30.553  1.00  0.00     0.173 A 
ATOM     76  C   UNL A   1      44.588  34.767  28.467  1.00  0.00     0.173 A 
ATOM     77  F   UNL A   1      45.734  33.087  31.484  1.00  0.00    -0.203 F 
ATOM     78  C   UNL A   1      46.042  35.309  30.769  1.00  0.00     0.198 A 
ATOM     79  C   UNL A   1      45.120  36.035  28.674  1.00  0.00     0.198 A 
ATOM     80  F   UNL A   1      43.884  34.536  27.349  1.00  0.00    -0.203 F 
ATOM     81  F   UNL A   1      46.714  35.578  31.897  1.00  0.00    -0.200 F 
ATOM     82  C   UNL A   1      45.840  36.308  29.828  1.00  0.00     0.200 A 
ATOM     83  F   UNL A   1      44.934  36.997  27.759  1.00  0.00    -0.200 F 
ATOM     84  F   UNL A   1      46.332  37.536  30.037  1.00  0.00    -0.200 F 
ENDBRANCH  51  74
ENDBRANCH  25  26
ENDBRANCH  18  20
ENDBRANCH  17  18
ENDBRANCH  16  17
ENDBRANCH  15  16
ENDBRANCH   1  15
TORSDOF 17
ENDMDL
