MODEL 1
REMARK VINA RESULT:     -14.6      0.000      0.000
REMARK SMILES Cc1cccc(O[C@H](C)C(=O)NNC(=O)[C@H]2[C@@H]3CC[C@@H](C3)[C@@H]2C(=O)OCCOC(=O)c2ccc(-c3c4nc(c(-c5c(F)c(F)c(F)c(F)c5F)c5ccc([nH]5)c(-c5c(F)c(F)c(F)c(F)c5F)c5nc(c(-c6c(F)c(F)c(F)c(F)c6F)c6ccc3[nH]6)C=C5)C=C4)cc2)c1
REMARK SMILES IDX 25 1 23 2 24 3 22 4 16 5 17 6 18 7 21 8 20 9 19 10 14 11
REMARK SMILES IDX 13 12 15 14 12 15 10 16 11 17 8 19 9 20 7 21 6 22 1 23 2 24
REMARK SMILES IDX 3 25 94 26 4 27 5 28 26 29 27 30 28 31 29 32 30 33 31 34
REMARK SMILES IDX 32 35 93 36 33 37 92 38 34 39 35 40 36 41 86 42 37 43 91 44
REMARK SMILES IDX 85 45 87 46 38 47 90 48 84 49 83 50 39 52 71 53 51 54 70 55
REMARK SMILES IDX 52 56 55 57 69 58 88 59 53 60 54 61 68 63 89 64 56 65 40 66
REMARK SMILES IDX 41 67 49 68 42 69 43 70 47 71 50 72 44 73 45 74 48 75 46 76
REMARK SMILES IDX 72 77 73 78 81 79 74 80 75 81 79 82 82 83 76 84 77 85 80 86
REMARK SMILES IDX 78 87 57 88 58 89 66 90 59 91 60 92 64 93 67 94 61 95 62 96
REMARK SMILES IDX 65 97 63 98
REMARK H PARENT 13 13 12 18 87 51 55 62
REMARK Flexibility Score: inf
ROOT
ATOM      1  O   UNL A   1      32.812  28.043  26.354  1.00  0.00    -0.462 OA
ENDROOT
BRANCH   1   2
ATOM      2  C   UNL A   1      31.593  27.587  26.781  1.00  0.00     0.310 C 
ATOM      3  O   UNL A   1      31.174  27.748  27.922  1.00  0.00    -0.252 OA
BRANCH   2   4
ATOM      4  C   UNL A   1      30.905  26.646  25.823  1.00  0.00     0.115 C 
ATOM      5  C   UNL A   1      31.527  25.305  25.461  1.00  0.00     0.098 C 
ATOM      6  C   UNL A   1      30.886  24.995  24.077  1.00  0.00     0.003 C 
ATOM      7  C   UNL A   1      31.777  25.670  23.025  1.00  0.00     0.005 C 
ATOM      8  C   UNL A   1      29.661  25.922  23.997  1.00  0.00     0.009 C 
ATOM      9  C   UNL A   1      30.454  27.164  24.431  1.00  0.00     0.004 C 
ATOM     10  C   UNL A   1      31.554  27.165  23.340  1.00  0.00     0.005 C 
BRANCH   5  11
ATOM     11  C   UNL A   1      31.476  24.155  26.442  1.00  0.00     0.242 C 
ATOM     12  N   UNL A   1      32.443  23.191  26.424  1.00  0.00    -0.267 N 
ATOM     13  H   UNL A   1      32.183  22.249  26.299  1.00  0.00     0.191 HD
ATOM     14  O   UNL A   1      30.517  24.037  27.206  1.00  0.00    -0.273 OA
BRANCH  12  15
ATOM     15  N   UNL A   1      33.810  23.518  26.582  1.00  0.00    -0.264 N 
ATOM     16  C   UNL A   1      34.598  23.576  25.457  1.00  0.00     0.279 C 
ATOM     17  O   UNL A   1      34.980  24.675  25.046  1.00  0.00    -0.269 OA
ATOM     18  H   UNL A   1      34.187  23.699  27.473  1.00  0.00     0.191 HD
BRANCH  16  19
ATOM     19  C   UNL A   1      35.221  22.256  24.940  1.00  0.00     0.260 C 
ATOM     20  C   UNL A   1      36.739  22.424  24.811  1.00  0.00     0.064 C 
BRANCH  19  21
ATOM     21  O   UNL A   1      34.828  20.959  25.340  1.00  0.00    -0.481 OA
BRANCH  21  22
ATOM     22  C   UNL A   1      33.994  20.165  24.621  1.00  0.00     0.120 A 
ATOM     23  C   UNL A   1      34.046  16.422  23.862  1.00  0.00     0.044 C 
ATOM     24  C   UNL A   1      33.648  17.868  23.866  1.00  0.00    -0.047 A 
ATOM     25  C   UNL A   1      32.548  18.291  23.117  1.00  0.00     0.003 A 
ATOM     26  C   UNL A   1      34.358  18.812  24.617  1.00  0.00     0.049 A 
ATOM     27  C   UNL A   1      32.157  19.628  23.138  1.00  0.00     0.004 A 
ATOM     28  C   UNL A   1      32.866  20.559  23.905  1.00  0.00     0.046 A 
ENDBRANCH  21  22
ENDBRANCH  19  21
ENDBRANCH  16  19
ENDBRANCH  12  15
ENDBRANCH   5  11
ENDBRANCH   2   4
ENDBRANCH   1   2
BRANCH   1  29
ATOM     29  C   UNL A   1      32.794  29.448  26.038  1.00  0.00     0.274 C 
BRANCH  29  30
ATOM     30  C   UNL A   1      33.621  30.383  26.944  1.00  0.00     0.275 C 
BRANCH  30  31
ATOM     31  O   UNL A   1      34.832  29.861  27.536  1.00  0.00    -0.458 OA
BRANCH  31  32
ATOM     32  C   UNL A   1      35.623  30.544  28.409  1.00  0.00     0.338 C 
ATOM     33  O   UNL A   1      35.235  31.489  29.079  1.00  0.00    -0.246 OA
BRANCH  32  34
ATOM     34  C   UNL A   1      36.945  29.955  28.627  1.00  0.00     0.060 A 
ATOM     35  C   UNL A   1      37.106  29.106  29.724  1.00  0.00     0.016 A 
ATOM     36  C   UNL A   1      37.930  30.082  27.653  1.00  0.00     0.016 A 
ATOM     37  C   UNL A   1      38.198  28.244  29.755  1.00  0.00     0.010 A 
ATOM     38  C   UNL A   1      38.964  29.168  27.644  1.00  0.00     0.010 A 
ATOM     39  C   UNL A   1      39.089  28.226  28.679  1.00  0.00    -0.014 A 
BRANCH  39  40
ATOM     40  C   UNL A   1      40.355  27.501  28.706  1.00  0.00     0.031 A 
ATOM     41  C   UNL A   1      40.552  26.076  28.365  1.00  0.00     0.074 A 
ATOM     42  C   UNL A   1      41.392  28.296  29.031  1.00  0.00     0.049 A 
ATOM     43  N   UNL A   1      41.524  25.352  28.814  1.00  0.00    -0.248 NA
ATOM     44  C   UNL A   1      39.657  25.327  27.496  1.00  0.00     0.031 C 
ATOM     45  C   UNL A   1      42.816  28.040  28.978  1.00  0.00     0.029 A 
ATOM     46  N   UNL A   1      41.272  29.507  29.731  1.00  0.00    -0.354 N 
ATOM     47  C   UNL A   1      41.531  24.166  28.103  1.00  0.00     0.074 A 
ATOM     48  C   UNL A   1      40.275  24.143  27.398  1.00  0.00     0.031 C 
ATOM     49  C   UNL A   1      43.412  28.862  29.863  1.00  0.00     0.029 A 
ATOM     50  C   UNL A   1      42.352  29.519  30.621  1.00  0.00     0.049 A 
ATOM     51  H   UNL A   1      40.579  30.197  29.620  1.00  0.00     0.167 HD
ATOM     52  C   UNL A   1      42.671  23.416  28.044  1.00  0.00     0.037 A 
ATOM     53  C   UNL A   1      42.097  29.354  31.954  1.00  0.00     0.037 A 
ATOM     54  C   UNL A   1      43.728  24.020  28.839  1.00  0.00     0.049 A 
ATOM     55  C   UNL A   1      42.773  28.135  32.544  1.00  0.00     0.074 A 
ATOM     56  C   UNL A   1      44.765  24.889  28.538  1.00  0.00     0.029 A 
ATOM     57  N   UNL A   1      43.594  24.039  30.213  1.00  0.00    -0.354 N 
ATOM     58  N   UNL A   1      43.222  27.133  31.842  1.00  0.00    -0.248 NA
ATOM     59  C   UNL A   1      42.920  27.921  33.982  1.00  0.00     0.031 C 
ATOM     60  C   UNL A   1      45.232  25.457  29.756  1.00  0.00     0.029 A 
ATOM     61  C   UNL A   1      44.488  24.918  30.789  1.00  0.00     0.049 A 
ATOM     62  H   UNL A   1      42.944  23.497  30.715  1.00  0.00     0.167 HD
ATOM     63  C   UNL A   1      43.781  26.208  32.681  1.00  0.00     0.074 A 
ATOM     64  C   UNL A   1      43.503  26.713  34.012  1.00  0.00     0.031 C 
ATOM     65  C   UNL A   1      44.444  25.108  32.225  1.00  0.00     0.037 A 
BRANCH  52  66
ATOM     66  C   UNL A   1      42.917  22.302  27.050  1.00  0.00     0.064 A 
ATOM     67  C   UNL A   1      42.203  21.085  27.140  1.00  0.00     0.173 A 
ATOM     68  C   UNL A   1      43.856  22.362  26.004  1.00  0.00     0.173 A 
ATOM     69  F   UNL A   1      41.220  20.913  28.032  1.00  0.00    -0.203 F 
ATOM     70  C   UNL A   1      42.481  19.985  26.324  1.00  0.00     0.198 A 
ATOM     71  C   UNL A   1      44.161  21.247  25.209  1.00  0.00     0.198 A 
ATOM     72  F   UNL A   1      44.478  23.510  25.703  1.00  0.00    -0.203 F 
ATOM     73  F   UNL A   1      41.781  18.852  26.474  1.00  0.00    -0.200 F 
ATOM     74  C   UNL A   1      43.483  20.055  25.379  1.00  0.00     0.200 A 
ATOM     75  F   UNL A   1      45.119  21.333  24.276  1.00  0.00    -0.200 F 
ATOM     76  F   UNL A   1      43.781  18.985  24.629  1.00  0.00    -0.200 F 
ENDBRANCH  52  66
BRANCH  53  77
ATOM     77  C   UNL A   1      40.776  29.894  32.422  1.00  0.00     0.064 A 
ATOM     78  C   UNL A   1      40.519  31.283  32.343  1.00  0.00     0.173 A 
ATOM     79  C   UNL A   1      39.681  29.073  32.721  1.00  0.00     0.173 A 
ATOM     80  F   UNL A   1      41.518  32.138  32.070  1.00  0.00    -0.203 F 
ATOM     81  C   UNL A   1      39.228  31.802  32.452  1.00  0.00     0.198 A 
ATOM     82  C   UNL A   1      38.393  29.601  32.866  1.00  0.00     0.198 A 
ATOM     83  F   UNL A   1      39.824  27.743  32.801  1.00  0.00    -0.203 F 
ATOM     84  F   UNL A   1      39.017  33.112  32.260  1.00  0.00    -0.200 F 
ATOM     85  C   UNL A   1      38.164  30.958  32.704  1.00  0.00     0.200 A 
ATOM     86  F   UNL A   1      37.361  28.778  33.095  1.00  0.00    -0.200 F 
ATOM     87  F   UNL A   1      36.915  31.441  32.755  1.00  0.00    -0.200 F 
ENDBRANCH  53  77
BRANCH  65  88
ATOM     88  C   UNL A   1      45.136  24.117  33.112  1.00  0.00     0.064 A 
ATOM     89  C   UNL A   1      44.512  22.946  33.565  1.00  0.00     0.173 A 
ATOM     90  C   UNL A   1      46.425  24.374  33.629  1.00  0.00     0.173 A 
ATOM     91  F   UNL A   1      43.244  22.666  33.230  1.00  0.00    -0.203 F 
ATOM     92  C   UNL A   1      45.168  22.044  34.402  1.00  0.00     0.198 A 
ATOM     93  C   UNL A   1      47.054  23.501  34.512  1.00  0.00     0.198 A 
ATOM     94  F   UNL A   1      47.119  25.466  33.280  1.00  0.00    -0.203 F 
ATOM     95  F   UNL A   1      44.562  20.901  34.750  1.00  0.00    -0.200 F 
ATOM     96  C   UNL A   1      46.436  22.324  34.878  1.00  0.00     0.200 A 
ATOM     97  F   UNL A   1      48.266  23.807  34.996  1.00  0.00    -0.200 F 
ATOM     98  F   UNL A   1      47.060  21.462  35.692  1.00  0.00    -0.200 F 
ENDBRANCH  65  88
ENDBRANCH  39  40
ENDBRANCH  32  34
ENDBRANCH  31  32
ENDBRANCH  30  31
ENDBRANCH  29  30
ENDBRANCH   1  29
TORSDOF 16
ENDMDL
MODEL 2
REMARK VINA RESULT:     -14.3      1.621      2.190
REMARK SMILES Cc1cccc(O[C@H](C)C(=O)NNC(=O)[C@H]2[C@@H]3CC[C@@H](C3)[C@@H]2C(=O)OCCOC(=O)c2ccc(-c3c4nc(c(-c5c(F)c(F)c(F)c(F)c5F)c5ccc([nH]5)c(-c5c(F)c(F)c(F)c(F)c5F)c5nc(c(-c6c(F)c(F)c(F)c(F)c6F)c6ccc3[nH]6)C=C5)C=C4)cc2)c1
REMARK SMILES IDX 25 1 23 2 24 3 22 4 16 5 17 6 18 7 21 8 20 9 19 10 14 11
REMARK SMILES IDX 13 12 15 14 12 15 10 16 11 17 8 19 9 20 7 21 6 22 1 23 2 24
REMARK SMILES IDX 3 25 94 26 4 27 5 28 26 29 27 30 28 31 29 32 30 33 31 34
REMARK SMILES IDX 32 35 93 36 33 37 92 38 34 39 35 40 36 41 86 42 37 43 91 44
REMARK SMILES IDX 85 45 87 46 38 47 90 48 84 49 83 50 39 52 71 53 51 54 70 55
REMARK SMILES IDX 52 56 55 57 69 58 88 59 53 60 54 61 68 63 89 64 56 65 40 66
REMARK SMILES IDX 41 67 49 68 42 69 43 70 47 71 50 72 44 73 45 74 48 75 46 76
REMARK SMILES IDX 72 77 73 78 81 79 74 80 75 81 79 82 82 83 76 84 77 85 80 86
REMARK SMILES IDX 78 87 57 88 58 89 66 90 59 91 60 92 64 93 67 94 61 95 62 96
REMARK SMILES IDX 65 97 63 98
REMARK H PARENT 13 13 12 18 87 51 55 62
REMARK Flexibility Score: inf
ROOT
ATOM      1  O   UNL A   1      32.297  30.413  25.872  1.00  0.00    -0.462 OA
ENDROOT
BRANCH   1   2
ATOM      2  C   UNL A   1      32.565  29.329  25.077  1.00  0.00     0.310 C 
ATOM      3  O   UNL A   1      33.675  29.090  24.614  1.00  0.00    -0.252 OA
BRANCH   2   4
ATOM      4  C   UNL A   1      31.343  28.586  24.597  1.00  0.00     0.115 C 
ATOM      5  C   UNL A   1      31.145  27.112  24.921  1.00  0.00     0.098 C 
ATOM      6  C   UNL A   1      30.198  26.637  23.781  1.00  0.00     0.003 C 
ATOM      7  C   UNL A   1      31.099  26.238  22.604  1.00  0.00     0.005 C 
ATOM      8  C   UNL A   1      29.598  27.932  23.207  1.00  0.00     0.009 C 
ATOM      9  C   UNL A   1      30.963  28.626  23.092  1.00  0.00     0.004 C 
ATOM     10  C   UNL A   1      31.704  27.599  22.198  1.00  0.00     0.005 C 
BRANCH   5  11
ATOM     11  C   UNL A   1      30.712  26.690  26.307  1.00  0.00     0.242 C 
ATOM     12  N   UNL A   1      29.926  25.587  26.478  1.00  0.00    -0.267 N 
ATOM     13  H   UNL A   1      29.059  25.679  26.936  1.00  0.00     0.191 HD
ATOM     14  O   UNL A   1      30.996  27.389  27.282  1.00  0.00    -0.273 OA
BRANCH  12  15
ATOM     15  N   UNL A   1      30.332  24.316  26.009  1.00  0.00    -0.264 N 
ATOM     16  C   UNL A   1      30.903  23.445  26.905  1.00  0.00     0.279 C 
ATOM     17  O   UNL A   1      30.261  22.460  27.279  1.00  0.00    -0.269 OA
ATOM     18  H   UNL A   1      30.209  24.063  25.065  1.00  0.00     0.191 HD
BRANCH  16  19
ATOM     19  C   UNL A   1      32.424  23.568  27.167  1.00  0.00     0.260 C 
ATOM     20  C   UNL A   1      33.018  22.172  27.390  1.00  0.00     0.064 C 
BRANCH  19  21
ATOM     21  O   UNL A   1      33.297  24.452  26.495  1.00  0.00    -0.481 OA
BRANCH  21  22
ATOM     22  C   UNL A   1      34.095  24.088  25.459  1.00  0.00     0.120 A 
ATOM     23  C   UNL A   1      33.327  23.207  21.824  1.00  0.00     0.044 C 
ATOM     24  C   UNL A   1      34.070  23.431  23.108  1.00  0.00    -0.047 A 
ATOM     25  C   UNL A   1      35.445  23.199  23.168  1.00  0.00     0.003 A 
ATOM     26  C   UNL A   1      33.408  23.881  24.256  1.00  0.00     0.049 A 
ATOM     27  C   UNL A   1      36.144  23.433  24.350  1.00  0.00     0.004 A 
ATOM     28  C   UNL A   1      35.474  23.896  25.487  1.00  0.00     0.046 A 
ENDBRANCH  21  22
ENDBRANCH  19  21
ENDBRANCH  16  19
ENDBRANCH  12  15
ENDBRANCH   5  11
ENDBRANCH   2   4
ENDBRANCH   1   2
BRANCH   1  29
ATOM     29  C   UNL A   1      32.858  30.279  27.192  1.00  0.00     0.274 C 
BRANCH  29  30
ATOM     30  C   UNL A   1      33.928  31.308  27.609  1.00  0.00     0.275 C 
BRANCH  30  31
ATOM     31  O   UNL A   1      35.308  30.882  27.638  1.00  0.00    -0.458 OA
BRANCH  31  32
ATOM     32  C   UNL A   1      36.035  30.690  28.773  1.00  0.00     0.338 C 
ATOM     33  O   UNL A   1      35.722  31.145  29.864  1.00  0.00    -0.246 OA
BRANCH  32  34
ATOM     34  C   UNL A   1      37.142  29.742  28.640  1.00  0.00     0.060 A 
ATOM     35  C   UNL A   1      37.984  29.877  27.534  1.00  0.00     0.016 A 
ATOM     36  C   UNL A   1      37.449  28.882  29.689  1.00  0.00     0.016 A 
ATOM     37  C   UNL A   1      39.235  29.269  27.561  1.00  0.00     0.010 A 
ATOM     38  C   UNL A   1      38.722  28.353  29.750  1.00  0.00     0.010 A 
ATOM     39  C   UNL A   1      39.632  28.565  28.702  1.00  0.00    -0.014 A 
BRANCH  39  40
ATOM     40  C   UNL A   1      40.836  27.743  28.751  1.00  0.00     0.031 A 
ATOM     41  C   UNL A   1      40.925  26.305  28.419  1.00  0.00     0.074 A 
ATOM     42  C   UNL A   1      41.927  28.454  29.089  1.00  0.00     0.049 A 
ATOM     43  N   UNL A   1      41.830  25.508  28.886  1.00  0.00    -0.248 NA
ATOM     44  C   UNL A   1      39.986  25.625  27.540  1.00  0.00     0.031 C 
ATOM     45  C   UNL A   1      43.328  28.087  29.058  1.00  0.00     0.029 A 
ATOM     46  N   UNL A   1      41.893  29.675  29.782  1.00  0.00    -0.354 N 
ATOM     47  C   UNL A   1      41.753  24.322  28.180  1.00  0.00     0.074 A 
ATOM     48  C   UNL A   1      40.510  24.395  27.455  1.00  0.00     0.031 C 
ATOM     49  C   UNL A   1      43.974  28.863  29.949  1.00  0.00     0.029 A 
ATOM     50  C   UNL A   1      42.958  29.607  30.688  1.00  0.00     0.049 A 
ATOM     51  H   UNL A   1      41.259  30.417  29.657  1.00  0.00     0.167 HD
ATOM     52  C   UNL A   1      42.831  23.484  28.140  1.00  0.00     0.037 A 
ATOM     53  C   UNL A   1      42.671  29.469  32.017  1.00  0.00     0.037 A 
ATOM     54  C   UNL A   1      43.921  24.007  28.949  1.00  0.00     0.049 A 
ATOM     55  C   UNL A   1      43.240  28.204  32.623  1.00  0.00     0.074 A 
ATOM     56  C   UNL A   1      45.027  24.789  28.661  1.00  0.00     0.029 A 
ATOM     57  N   UNL A   1      43.768  24.043  30.321  1.00  0.00    -0.354 N 
ATOM     58  N   UNL A   1      43.619  27.165  31.932  1.00  0.00    -0.248 NA
ATOM     59  C   UNL A   1      43.348  27.986  34.063  1.00  0.00     0.031 C 
ATOM     60  C   UNL A   1      45.520  25.325  29.883  1.00  0.00     0.029 A 
ATOM     61  C   UNL A   1      44.720  24.852  30.907  1.00  0.00     0.049 A 
ATOM     62  H   UNL A   1      43.070  23.557  30.815  1.00  0.00     0.167 HD
ATOM     63  C   UNL A   1      44.090  26.204  32.783  1.00  0.00     0.074 A 
ATOM     64  C   UNL A   1      43.833  26.736  34.107  1.00  0.00     0.031 C 
ATOM     65  C   UNL A   1      44.671  25.052  32.341  1.00  0.00     0.037 A 
BRANCH  52  66
ATOM     66  C   UNL A   1      43.003  22.348  27.155  1.00  0.00     0.064 A 
ATOM     67  C   UNL A   1      42.217  21.178  27.259  1.00  0.00     0.173 A 
ATOM     68  C   UNL A   1      43.937  22.343  26.104  1.00  0.00     0.173 A 
ATOM     69  F   UNL A   1      41.230  21.074  28.158  1.00  0.00    -0.203 F 
ATOM     70  C   UNL A   1      42.423  20.057  26.452  1.00  0.00     0.198 A 
ATOM     71  C   UNL A   1      44.169  21.205  25.316  1.00  0.00     0.198 A 
ATOM     72  F   UNL A   1      44.627  23.448  25.789  1.00  0.00    -0.203 F 
ATOM     73  F   UNL A   1      41.656  18.970  26.615  1.00  0.00    -0.200 F 
ATOM     74  C   UNL A   1      43.421  20.058  25.501  1.00  0.00     0.200 A 
ATOM     75  F   UNL A   1      45.126  21.225  24.377  1.00  0.00    -0.200 F 
ATOM     76  F   UNL A   1      43.649  18.966  24.758  1.00  0.00    -0.200 F 
ENDBRANCH  52  66
BRANCH  53  77
ATOM     77  C   UNL A   1      41.390  30.114  32.464  1.00  0.00     0.064 A 
ATOM     78  C   UNL A   1      41.259  31.522  32.411  1.00  0.00     0.173 A 
ATOM     79  C   UNL A   1      40.218  29.387  32.714  1.00  0.00     0.173 A 
ATOM     80  F   UNL A   1      42.337  32.291  32.185  1.00  0.00    -0.203 F 
ATOM     81  C   UNL A   1      40.017  32.152  32.497  1.00  0.00     0.198 A 
ATOM     82  C   UNL A   1      38.979  30.025  32.837  1.00  0.00     0.198 A 
ATOM     83  F   UNL A   1      40.241  28.049  32.765  1.00  0.00    -0.203 F 
ATOM     84  F   UNL A   1      39.927  33.479  32.332  1.00  0.00    -0.200 F 
ATOM     85  C   UNL A   1      38.875  31.400  32.701  1.00  0.00     0.200 A 
ATOM     86  F   UNL A   1      37.872  29.292  33.018  1.00  0.00    -0.200 F 
ATOM     87  F   UNL A   1      37.672  31.991  32.731  1.00  0.00    -0.200 F 
ENDBRANCH  53  77
BRANCH  65  88
ATOM     88  C   UNL A   1      45.268  24.014  33.242  1.00  0.00     0.064 A 
ATOM     89  C   UNL A   1      44.557  22.881  33.664  1.00  0.00     0.173 A 
ATOM     90  C   UNL A   1      46.552  24.187  33.806  1.00  0.00     0.173 A 
ATOM     91  F   UNL A   1      43.287  22.683  33.283  1.00  0.00    -0.203 F 
ATOM     92  C   UNL A   1      45.127  21.935  34.515  1.00  0.00     0.198 A 
ATOM     93  C   UNL A   1      47.095  23.272  34.702  1.00  0.00     0.198 A 
ATOM     94  F   UNL A   1      47.324  25.237  33.490  1.00  0.00    -0.203 F 
ATOM     95  F   UNL A   1      44.440  20.830  34.831  1.00  0.00    -0.200 F 
ATOM     96  C   UNL A   1      46.393  22.132  35.036  1.00  0.00     0.200 A 
ATOM     97  F   UNL A   1      48.306  23.498  35.230  1.00  0.00    -0.200 F 
ATOM     98  F   UNL A   1      46.934  21.228  35.863  1.00  0.00    -0.200 F 
ENDBRANCH  65  88
ENDBRANCH  39  40
ENDBRANCH  32  34
ENDBRANCH  31  32
ENDBRANCH  30  31
ENDBRANCH  29  30
ENDBRANCH   1  29
TORSDOF 16
ENDMDL
MODEL 3
REMARK VINA RESULT:     -14.2      3.865     10.417
REMARK SMILES Cc1cccc(O[C@H](C)C(=O)NNC(=O)[C@H]2[C@@H]3CC[C@@H](C3)[C@@H]2C(=O)OCCOC(=O)c2ccc(-c3c4nc(c(-c5c(F)c(F)c(F)c(F)c5F)c5ccc([nH]5)c(-c5c(F)c(F)c(F)c(F)c5F)c5nc(c(-c6c(F)c(F)c(F)c(F)c6F)c6ccc3[nH]6)C=C5)C=C4)cc2)c1
REMARK SMILES IDX 25 1 23 2 24 3 22 4 16 5 17 6 18 7 21 8 20 9 19 10 14 11
REMARK SMILES IDX 13 12 15 14 12 15 10 16 11 17 8 19 9 20 7 21 6 22 1 23 2 24
REMARK SMILES IDX 3 25 94 26 4 27 5 28 26 29 27 30 28 31 29 32 30 33 31 34
REMARK SMILES IDX 32 35 93 36 33 37 92 38 34 39 35 40 36 41 86 42 37 43 91 44
REMARK SMILES IDX 85 45 87 46 38 47 90 48 84 49 83 50 39 52 71 53 51 54 70 55
REMARK SMILES IDX 52 56 55 57 69 58 88 59 53 60 54 61 68 63 89 64 56 65 40 66
REMARK SMILES IDX 41 67 49 68 42 69 43 70 47 71 50 72 44 73 45 74 48 75 46 76
REMARK SMILES IDX 72 77 73 78 81 79 74 80 75 81 79 82 82 83 76 84 77 85 80 86
REMARK SMILES IDX 78 87 57 88 58 89 66 90 59 91 60 92 64 93 67 94 61 95 62 96
REMARK SMILES IDX 65 97 63 98
REMARK H PARENT 13 13 12 18 87 51 55 62
REMARK Flexibility Score: inf
ROOT
ATOM      1  O   UNL A   1      35.927  23.630  24.595  1.00  0.00    -0.462 OA
ENDROOT
BRANCH   1   2
ATOM      2  C   UNL A   1      35.511  22.975  23.466  1.00  0.00     0.310 C 
ATOM      3  O   UNL A   1      36.139  22.981  22.413  1.00  0.00    -0.252 OA
BRANCH   2   4
ATOM      4  C   UNL A   1      34.096  22.455  23.528  1.00  0.00     0.115 C 
ATOM      5  C   UNL A   1      32.943  23.368  23.921  1.00  0.00     0.098 C 
ATOM      6  C   UNL A   1      31.881  22.364  24.455  1.00  0.00     0.003 C 
ATOM      7  C   UNL A   1      32.194  22.151  25.943  1.00  0.00     0.005 C 
ATOM      8  C   UNL A   1      32.326  20.996  23.909  1.00  0.00     0.009 C 
ATOM      9  C   UNL A   1      33.782  21.184  24.362  1.00  0.00     0.004 C 
ATOM     10  C   UNL A   1      33.556  21.427  25.875  1.00  0.00     0.005 C 
BRANCH   5  11
ATOM     11  C   UNL A   1      32.404  24.379  22.933  1.00  0.00     0.242 C 
ATOM     12  N   UNL A   1      31.064  24.449  22.682  1.00  0.00    -0.267 N 
ATOM     13  H   UNL A   1      30.739  24.336  21.759  1.00  0.00     0.191 HD
ATOM     14  O   UNL A   1      33.179  25.085  22.287  1.00  0.00    -0.273 OA
BRANCH  12  15
ATOM     15  N   UNL A   1      30.132  24.680  23.721  1.00  0.00    -0.264 N 
ATOM     16  C   UNL A   1      29.869  25.980  24.079  1.00  0.00     0.279 C 
ATOM     17  O   UNL A   1      28.781  26.479  23.779  1.00  0.00    -0.269 OA
ATOM     18  H   UNL A   1      29.685  23.930  24.175  1.00  0.00     0.191 HD
BRANCH  16  19
ATOM     19  C   UNL A   1      30.815  26.657  25.102  1.00  0.00     0.260 C 
ATOM     20  C   UNL A   1      31.162  25.659  26.213  1.00  0.00     0.064 C 
BRANCH  19  21
ATOM     21  O   UNL A   1      31.876  27.531  24.775  1.00  0.00    -0.481 OA
BRANCH  21  22
ATOM     22  C   UNL A   1      32.410  28.430  25.640  1.00  0.00     0.120 A 
ATOM     23  C   UNL A   1      31.379  31.979  26.604  1.00  0.00     0.044 C 
ATOM     24  C   UNL A   1      32.148  30.694  26.518  1.00  0.00    -0.047 A 
ATOM     25  C   UNL A   1      33.333  30.540  27.240  1.00  0.00     0.003 A 
ATOM     26  C   UNL A   1      31.694  29.631  25.727  1.00  0.00     0.049 A 
ATOM     27  C   UNL A   1      34.036  29.339  27.186  1.00  0.00     0.004 A 
ATOM     28  C   UNL A   1      33.565  28.279  26.404  1.00  0.00     0.046 A 
ENDBRANCH  21  22
ENDBRANCH  19  21
ENDBRANCH  16  19
ENDBRANCH  12  15
ENDBRANCH   5  11
ENDBRANCH   2   4
ENDBRANCH   1   2
BRANCH   1  29
ATOM     29  C   UNL A   1      37.345  23.510  24.810  1.00  0.00     0.274 C 
BRANCH  29  30
ATOM     30  C   UNL A   1      37.870  23.814  26.229  1.00  0.00     0.275 C 
BRANCH  30  31
ATOM     31  O   UNL A   1      39.196  23.359  26.576  1.00  0.00    -0.458 OA
BRANCH  31  32
ATOM     32  C   UNL A   1      40.258  24.177  26.812  1.00  0.00     0.338 C 
ATOM     33  O   UNL A   1      41.396  23.939  26.433  1.00  0.00    -0.246 OA
BRANCH  32  34
ATOM     34  C   UNL A   1      39.916  25.469  27.410  1.00  0.00     0.060 A 
ATOM     35  C   UNL A   1      39.433  25.471  28.720  1.00  0.00     0.016 A 
ATOM     36  C   UNL A   1      40.262  26.648  26.758  1.00  0.00     0.016 A 
ATOM     37  C   UNL A   1      39.458  26.658  29.445  1.00  0.00     0.010 A 
ATOM     38  C   UNL A   1      40.367  27.803  27.506  1.00  0.00     0.010 A 
ATOM     39  C   UNL A   1      39.992  27.809  28.860  1.00  0.00    -0.014 A 
BRANCH  39  40
ATOM     40  C   UNL A   1      39.890  29.132  29.467  1.00  0.00     0.031 A 
ATOM     41  C   UNL A   1      38.821  30.124  29.222  1.00  0.00     0.074 A 
ATOM     42  C   UNL A   1      40.873  29.363  30.357  1.00  0.00     0.049 A 
ATOM     43  N   UNL A   1      38.967  31.399  29.381  1.00  0.00    -0.248 NA
ATOM     44  C   UNL A   1      37.489  29.771  28.757  1.00  0.00     0.031 C 
ATOM     45  C   UNL A   1      41.032  30.439  31.314  1.00  0.00     0.029 A 
ATOM     46  N   UNL A   1      42.104  28.688  30.370  1.00  0.00    -0.354 N 
ATOM     47  C   UNL A   1      37.715  31.980  29.303  1.00  0.00     0.074 A 
ATOM     48  C   UNL A   1      36.854  30.950  28.779  1.00  0.00     0.031 C 
ATOM     49  C   UNL A   1      42.346  30.555  31.583  1.00  0.00     0.029 A 
ATOM     50  C   UNL A   1      43.054  29.675  30.659  1.00  0.00     0.049 A 
ATOM     51  H   UNL A   1      42.263  27.730  30.210  1.00  0.00     0.167 HD
ATOM     52  C   UNL A   1      37.500  33.210  29.857  1.00  0.00     0.037 A 
ATOM     53  C   UNL A   1      43.902  30.071  29.662  1.00  0.00     0.037 A 
ATOM     54  C   UNL A   1      38.730  33.743  30.422  1.00  0.00     0.049 A 
ATOM     55  C   UNL A   1      43.783  31.542  29.328  1.00  0.00     0.074 A 
ATOM     56  C   UNL A   1      39.282  33.713  31.692  1.00  0.00     0.029 A 
ATOM     57  N   UNL A   1      39.749  34.104  29.564  1.00  0.00    -0.354 N 
ATOM     58  N   UNL A   1      42.758  32.285  29.639  1.00  0.00    -0.248 NA
ATOM     59  C   UNL A   1      44.780  32.266  28.544  1.00  0.00     0.031 C 
ATOM     60  C   UNL A   1      40.664  34.031  31.580  1.00  0.00     0.029 A 
ATOM     61  C   UNL A   1      40.938  34.269  30.246  1.00  0.00     0.049 A 
ATOM     62  H   UNL A   1      39.642  34.226  28.594  1.00  0.00     0.167 HD
ATOM     63  C   UNL A   1      42.975  33.562  29.200  1.00  0.00     0.074 A 
ATOM     64  C   UNL A   1      44.219  33.483  28.459  1.00  0.00     0.031 C 
ATOM     65  C   UNL A   1      42.130  34.592  29.489  1.00  0.00     0.037 A 
BRANCH  52  66
ATOM     66  C   UNL A   1      36.135  33.800  30.139  1.00  0.00     0.064 A 
ATOM     67  C   UNL A   1      35.280  34.177  29.079  1.00  0.00     0.173 A 
ATOM     68  C   UNL A   1      35.624  34.041  31.427  1.00  0.00     0.173 A 
ATOM     69  F   UNL A   1      35.597  33.932  27.801  1.00  0.00    -0.203 F 
ATOM     70  C   UNL A   1      34.066  34.838  29.287  1.00  0.00     0.198 A 
ATOM     71  C   UNL A   1      34.424  34.736  31.636  1.00  0.00     0.198 A 
ATOM     72  F   UNL A   1      36.256  33.582  32.516  1.00  0.00    -0.203 F 
ATOM     73  F   UNL A   1      33.311  35.187  28.237  1.00  0.00    -0.200 F 
ATOM     74  C   UNL A   1      33.652  35.147  30.565  1.00  0.00     0.200 A 
ATOM     75  F   UNL A   1      34.018  35.010  32.884  1.00  0.00    -0.200 F 
ATOM     76  F   UNL A   1      32.512  35.821  30.762  1.00  0.00    -0.200 F 
ENDBRANCH  52  66
BRANCH  53  77
ATOM     77  C   UNL A   1      44.255  29.006  28.664  1.00  0.00     0.064 A 
ATOM     78  C   UNL A   1      45.030  27.894  29.070  1.00  0.00     0.173 A 
ATOM     79  C   UNL A   1      43.664  28.926  27.396  1.00  0.00     0.173 A 
ATOM     80  F   UNL A   1      45.638  27.898  30.268  1.00  0.00    -0.203 F 
ATOM     81  C   UNL A   1      45.118  26.735  28.298  1.00  0.00     0.198 A 
ATOM     82  C   UNL A   1      43.784  27.775  26.609  1.00  0.00     0.198 A 
ATOM     83  F   UNL A   1      42.898  29.923  26.933  1.00  0.00    -0.203 F 
ATOM     84  F   UNL A   1      45.773  25.665  28.772  1.00  0.00    -0.200 F 
ATOM     85  C   UNL A   1      44.486  26.673  27.071  1.00  0.00     0.200 A 
ATOM     86  F   UNL A   1      43.157  27.712  25.427  1.00  0.00    -0.200 F 
ATOM     87  F   UNL A   1      44.520  25.544  26.349  1.00  0.00    -0.200 F 
ENDBRANCH  53  77
BRANCH  65  88
ATOM     88  C   UNL A   1      42.377  36.017  29.091  1.00  0.00     0.064 A 
ATOM     89  C   UNL A   1      41.852  36.574  27.917  1.00  0.00     0.173 A 
ATOM     90  C   UNL A   1      43.252  36.842  29.834  1.00  0.00     0.173 A 
ATOM     91  F   UNL A   1      41.107  35.840  27.078  1.00  0.00    -0.203 F 
ATOM     92  C   UNL A   1      42.106  37.897  27.558  1.00  0.00     0.198 A 
ATOM     93  C   UNL A   1      43.552  38.143  29.441  1.00  0.00     0.198 A 
ATOM     94  F   UNL A   1      43.826  36.418  30.968  1.00  0.00    -0.203 F 
ATOM     95  F   UNL A   1      41.523  38.412  26.467  1.00  0.00    -0.200 F 
ATOM     96  C   UNL A   1      42.958  38.679  28.317  1.00  0.00     0.200 A 
ATOM     97  F   UNL A   1      44.410  38.873  30.165  1.00  0.00    -0.200 F 
ATOM     98  F   UNL A   1      43.210  39.946  27.964  1.00  0.00    -0.200 F 
ENDBRANCH  65  88
ENDBRANCH  39  40
ENDBRANCH  32  34
ENDBRANCH  31  32
ENDBRANCH  30  31
ENDBRANCH  29  30
ENDBRANCH   1  29
TORSDOF 16
ENDMDL
