MODEL 1
REMARK VINA RESULT:     -12.9      0.000      0.000
REMARK SMILES NC(=O)CC[C@H](C(=O)OCCOC(=O)c1ccc(-c2c3nc(c(-c4c(F)c(F)c(F)c(F)c4F)c4ccc([nH]4)c(-c4c(F)c(F)c(F)c(F)c4F)c4nc(c(-c5c(F)c(F)c(F)c(F)c5F)c5ccc2[nH]5)C=C4)C=C3)cc1)N1C(=O)/C(=C/c2ccc(O)c(O)c2)SC1=S
REMARK SMILES IDX 10 1 9 2 7 3 8 4 6 5 5 6 4 7 2 8 1 9 3 12 78 13 79 14 92 15
REMARK SMILES IDX 80 16 81 17 91 18 93 19 82 20 83 21 84 22 90 23 85 24 88 25
REMARK SMILES IDX 86 26 89 27 87 29 11 31 12 32 13 33 14 34 15 35 16 36 77 37
REMARK SMILES IDX 17 38 76 39 18 40 19 41 20 42 70 43 21 44 75 45 69 46 71 47
REMARK SMILES IDX 22 48 74 49 68 50 67 51 23 53 55 54 35 55 54 56 36 57 39 58
REMARK SMILES IDX 53 59 72 60 37 61 38 62 52 64 73 65 40 66 24 67 25 68 33 69
REMARK SMILES IDX 26 70 27 71 31 72 34 73 28 74 29 75 32 76 30 77 56 78 57 79
REMARK SMILES IDX 65 80 58 81 59 82 63 83 66 84 60 85 61 86 64 87 62 88 41 89
REMARK SMILES IDX 42 90 50 91 43 92 44 93 48 94 51 95 45 96 46 97 49 98 47 99
REMARK H PARENT 1 10 1 11 89 28 87 30 71 52 39 63
REMARK Flexibility Score: inf
ROOT
ATOM      1  C   UNL A   1      32.008  27.894  26.725  1.00  0.00     0.274 C 
ENDROOT
BRANCH   1   2
ATOM      2  O   UNL A   1      33.060  27.434  25.850  1.00  0.00    -0.461 OA
BRANCH   2   3
ATOM      3  C   UNL A   1      32.704  27.267  24.543  1.00  0.00     0.329 C 
ATOM      4  O   UNL A   1      33.245  27.854  23.615  1.00  0.00    -0.250 OA
BRANCH   3   5
ATOM      5  C   UNL A   1      31.456  26.384  24.356  1.00  0.00     0.202 C 
BRANCH   5   6
ATOM      6  C   UNL A   1      30.284  27.078  23.628  1.00  0.00     0.047 C 
BRANCH   6   7
ATOM      7  C   UNL A   1      30.324  28.614  23.670  1.00  0.00     0.102 C 
BRANCH   7   8
ATOM      8  C   UNL A   1      30.340  29.251  22.295  1.00  0.00     0.217 C 
ATOM      9  N   UNL A   1      31.551  29.705  21.875  1.00  0.00    -0.370 N 
ATOM     10  H   UNL A   1      31.638  30.131  20.992  1.00  0.00     0.159 HD
ATOM     11  H   UNL A   1      32.342  29.608  22.455  1.00  0.00     0.159 HD
ATOM     12  O   UNL A   1      29.337  29.373  21.600  1.00  0.00    -0.275 OA
ENDBRANCH   7   8
ENDBRANCH   6   7
ENDBRANCH   5   6
BRANCH   5  13
ATOM     13  N   UNL A   1      31.810  25.031  23.852  1.00  0.00    -0.278 N 
ATOM     14  C   UNL A   1      31.733  23.996  24.778  1.00  0.00     0.266 C 
ATOM     15  C   UNL A   1      32.337  24.690  22.621  1.00  0.00     0.149 C 
ATOM     16  O   UNL A   1      31.358  24.101  25.938  1.00  0.00    -0.268 OA
ATOM     17  C   UNL A   1      32.211  22.723  24.190  1.00  0.00     0.081 C 
ATOM     18  S   UNL A   1      32.708  22.971  22.573  1.00  0.00    -0.054 SA
ATOM     19  S   UNL A   1      32.622  25.625  21.274  1.00  0.00    -0.052 S 
ATOM     20  C   UNL A   1      32.232  21.578  24.885  1.00  0.00     0.029 C 
BRANCH  20  21
ATOM     21  C   UNL A   1      32.718  20.302  24.354  1.00  0.00    -0.020 A 
ATOM     22  C   UNL A   1      33.860  19.708  24.911  1.00  0.00     0.012 A 
ATOM     23  C   UNL A   1      32.030  19.661  23.312  1.00  0.00     0.058 A 
ATOM     24  C   UNL A   1      34.308  18.472  24.441  1.00  0.00     0.051 A 
ATOM     25  C   UNL A   1      32.481  18.428  22.858  1.00  0.00     0.157 A 
ATOM     26  C   UNL A   1      33.612  17.841  23.420  1.00  0.00     0.157 A 
BRANCH  25  27
ATOM     27  O   UNL A   1      31.838  17.745  21.862  1.00  0.00    -0.504 OA
ATOM     28  H   UNL A   1      31.168  18.167  21.361  1.00  0.00     0.293 HD
ENDBRANCH  25  27
BRANCH  26  29
ATOM     29  O   UNL A   1      34.043  16.626  22.971  1.00  0.00    -0.504 OA
ATOM     30  H   UNL A   1      34.209  16.497  22.058  1.00  0.00     0.293 HD
ENDBRANCH  26  29
ENDBRANCH  20  21
ENDBRANCH   5  13
ENDBRANCH   3   5
ENDBRANCH   2   3
ENDBRANCH   1   2
BRANCH   1  31
ATOM     31  C   UNL A   1      31.805  29.400  26.605  1.00  0.00     0.275 C 
BRANCH  31  32
ATOM     32  O   UNL A   1      33.047  30.028  26.252  1.00  0.00    -0.458 OA
BRANCH  32  33
ATOM     33  C   UNL A   1      33.443  31.024  27.079  1.00  0.00     0.338 C 
ATOM     34  O   UNL A   1      32.790  31.992  27.428  1.00  0.00    -0.246 OA
BRANCH  33  35
ATOM     35  C   UNL A   1      34.819  30.778  27.549  1.00  0.00     0.060 A 
ATOM     36  C   UNL A   1      35.260  29.482  27.807  1.00  0.00     0.016 A 
ATOM     37  C   UNL A   1      35.619  31.869  27.886  1.00  0.00     0.016 A 
ATOM     38  C   UNL A   1      36.445  29.278  28.517  1.00  0.00     0.010 A 
ATOM     39  C   UNL A   1      36.857  31.654  28.497  1.00  0.00     0.010 A 
ATOM     40  C   UNL A   1      37.265  30.358  28.866  1.00  0.00    -0.014 A 
BRANCH  40  41
ATOM     41  C   UNL A   1      38.516  30.176  29.656  1.00  0.00     0.031 A 
ATOM     42  C   UNL A   1      39.625  29.314  29.107  1.00  0.00     0.074 A 
ATOM     43  C   UNL A   1      38.669  30.740  30.871  1.00  0.00     0.049 A 
ATOM     44  N   UNL A   1      40.629  28.750  29.730  1.00  0.00    -0.248 NA
ATOM     45  C   UNL A   1      39.586  29.038  27.661  1.00  0.00     0.031 C 
ATOM     46  C   UNL A   1      37.737  31.668  31.507  1.00  0.00     0.029 A 
ATOM     47  N   UNL A   1      39.675  30.594  31.799  1.00  0.00    -0.354 N 
ATOM     48  C   UNL A   1      41.290  27.991  28.773  1.00  0.00     0.074 A 
ATOM     49  C   UNL A   1      40.589  28.181  27.521  1.00  0.00     0.031 C 
ATOM     50  C   UNL A   1      38.214  32.016  32.713  1.00  0.00     0.029 A 
ATOM     51  C   UNL A   1      39.433  31.261  32.974  1.00  0.00     0.049 A 
ATOM     52  H   UNL A   1      40.488  30.063  31.636  1.00  0.00     0.167 HD
ATOM     53  C   UNL A   1      42.378  27.199  28.933  1.00  0.00     0.037 A 
ATOM     54  C   UNL A   1      40.080  31.224  34.154  1.00  0.00     0.037 A 
ATOM     55  C   UNL A   1      43.121  27.078  30.159  1.00  0.00     0.049 A 
ATOM     56  C   UNL A   1      41.272  30.323  34.318  1.00  0.00     0.074 A 
ATOM     57  C   UNL A   1      44.240  26.305  30.420  1.00  0.00     0.029 A 
ATOM     58  N   UNL A   1      42.837  27.776  31.322  1.00  0.00    -0.354 N 
ATOM     59  N   UNL A   1      41.833  29.527  33.441  1.00  0.00    -0.248 NA
ATOM     60  C   UNL A   1      41.905  30.294  35.644  1.00  0.00     0.031 C 
ATOM     61  C   UNL A   1      44.620  26.519  31.749  1.00  0.00     0.029 A 
ATOM     62  C   UNL A   1      43.759  27.451  32.304  1.00  0.00     0.049 A 
ATOM     63  H   UNL A   1      42.091  28.408  31.435  1.00  0.00     0.167 HD
ATOM     64  C   UNL A   1      42.893  28.920  34.101  1.00  0.00     0.074 A 
ATOM     65  C   UNL A   1      42.905  29.446  35.449  1.00  0.00     0.031 C 
ATOM     66  C   UNL A   1      43.771  28.001  33.632  1.00  0.00     0.037 A 
BRANCH  53  67
ATOM     67  C   UNL A   1      42.817  26.366  27.766  1.00  0.00     0.064 A 
ATOM     68  C   UNL A   1      42.270  25.102  27.506  1.00  0.00     0.173 A 
ATOM     69  C   UNL A   1      43.758  26.877  26.857  1.00  0.00     0.173 A 
ATOM     70  F   UNL A   1      41.376  24.566  28.349  1.00  0.00    -0.203 F 
ATOM     71  C   UNL A   1      42.659  24.374  26.384  1.00  0.00     0.198 A 
ATOM     72  C   UNL A   1      44.126  26.156  25.725  1.00  0.00     0.198 A 
ATOM     73  F   UNL A   1      44.304  28.085  27.058  1.00  0.00    -0.203 F 
ATOM     74  F   UNL A   1      42.144  23.155  26.165  1.00  0.00    -0.200 F 
ATOM     75  C   UNL A   1      43.579  24.904  25.490  1.00  0.00     0.200 A 
ATOM     76  F   UNL A   1      45.004  26.677  24.856  1.00  0.00    -0.200 F 
ATOM     77  F   UNL A   1      43.940  24.208  24.403  1.00  0.00    -0.200 F 
ENDBRANCH  53  67
BRANCH  54  78
ATOM     78  C   UNL A   1      39.573  32.022  35.301  1.00  0.00     0.064 A 
ATOM     79  C   UNL A   1      39.990  33.345  35.500  1.00  0.00     0.173 A 
ATOM     80  C   UNL A   1      38.667  31.476  36.223  1.00  0.00     0.173 A 
ATOM     81  F   UNL A   1      40.879  33.899  34.663  1.00  0.00    -0.203 F 
ATOM     82  C   UNL A   1      39.530  34.087  36.585  1.00  0.00     0.198 A 
ATOM     83  C   UNL A   1      38.185  32.229  37.291  1.00  0.00     0.198 A 
ATOM     84  F   UNL A   1      38.242  30.212  36.080  1.00  0.00    -0.203 F 
ATOM     85  F   UNL A   1      39.980  35.334  36.780  1.00  0.00    -0.200 F 
ATOM     86  C   UNL A   1      38.623  33.531  37.475  1.00  0.00     0.200 A 
ATOM     87  F   UNL A   1      37.301  31.692  38.141  1.00  0.00    -0.200 F 
ATOM     88  F   UNL A   1      38.179  34.248  38.517  1.00  0.00    -0.200 F 
ENDBRANCH  54  78
BRANCH  66  89
ATOM     89  C   UNL A   1      44.849  27.544  34.566  1.00  0.00     0.064 A 
ATOM     90  C   UNL A   1      46.064  28.236  34.676  1.00  0.00     0.173 A 
ATOM     91  C   UNL A   1      44.644  26.430  35.393  1.00  0.00     0.173 A 
ATOM     92  F   UNL A   1      46.310  29.297  33.894  1.00  0.00    -0.203 F 
ATOM     93  C   UNL A   1      47.042  27.816  35.573  1.00  0.00     0.198 A 
ATOM     94  C   UNL A   1      45.616  26.027  36.303  1.00  0.00     0.198 A 
ATOM     95  F   UNL A   1      43.496  25.739  35.324  1.00  0.00    -0.203 F 
ATOM     96  F   UNL A   1      48.210  28.471  35.641  1.00  0.00    -0.200 F 
ATOM     97  C   UNL A   1      46.816  26.718  36.390  1.00  0.00     0.200 A 
ATOM     98  F   UNL A   1      45.394  24.970  37.096  1.00  0.00    -0.200 F 
ATOM     99  F   UNL A   1      47.757  26.320  37.257  1.00  0.00    -0.200 F 
ENDBRANCH  66  89
ENDBRANCH  40  41
ENDBRANCH  33  35
ENDBRANCH  32  33
ENDBRANCH  31  32
ENDBRANCH   1  31
TORSDOF 18
ENDMDL
MODEL 2
REMARK VINA RESULT:     -12.8      1.175      1.446
REMARK SMILES NC(=O)CC[C@H](C(=O)OCCOC(=O)c1ccc(-c2c3nc(c(-c4c(F)c(F)c(F)c(F)c4F)c4ccc([nH]4)c(-c4c(F)c(F)c(F)c(F)c4F)c4nc(c(-c5c(F)c(F)c(F)c(F)c5F)c5ccc2[nH]5)C=C4)C=C3)cc1)N1C(=O)/C(=C/c2ccc(O)c(O)c2)SC1=S
REMARK SMILES IDX 10 1 9 2 7 3 8 4 6 5 5 6 4 7 2 8 1 9 3 12 78 13 79 14 92 15
REMARK SMILES IDX 80 16 81 17 91 18 93 19 82 20 83 21 84 22 90 23 85 24 88 25
REMARK SMILES IDX 86 26 89 27 87 29 11 31 12 32 13 33 14 34 15 35 16 36 77 37
REMARK SMILES IDX 17 38 76 39 18 40 19 41 20 42 70 43 21 44 75 45 69 46 71 47
REMARK SMILES IDX 22 48 74 49 68 50 67 51 23 53 55 54 35 55 54 56 36 57 39 58
REMARK SMILES IDX 53 59 72 60 37 61 38 62 52 64 73 65 40 66 24 67 25 68 33 69
REMARK SMILES IDX 26 70 27 71 31 72 34 73 28 74 29 75 32 76 30 77 56 78 57 79
REMARK SMILES IDX 65 80 58 81 59 82 63 83 66 84 60 85 61 86 64 87 62 88 41 89
REMARK SMILES IDX 42 90 50 91 43 92 44 93 48 94 51 95 45 96 46 97 49 98 47 99
REMARK H PARENT 1 10 1 11 89 28 87 30 71 52 39 63
REMARK Flexibility Score: inf
ROOT
ATOM      1  C   UNL A   1      31.984  27.783  27.042  1.00  0.00     0.274 C 
ENDROOT
BRANCH   1   2
ATOM      2  O   UNL A   1      32.846  26.948  26.239  1.00  0.00    -0.461 OA
BRANCH   2   3
ATOM      3  C   UNL A   1      32.370  25.697  25.977  1.00  0.00     0.329 C 
ATOM      4  O   UNL A   1      31.778  25.013  26.801  1.00  0.00    -0.250 OA
BRANCH   3   5
ATOM      5  C   UNL A   1      32.781  25.163  24.592  1.00  0.00     0.202 C 
BRANCH   5   6
ATOM      6  C   UNL A   1      33.667  26.126  23.771  1.00  0.00     0.047 C 
BRANCH   6   7
ATOM      7  C   UNL A   1      32.928  26.887  22.660  1.00  0.00     0.102 C 
BRANCH   7   8
ATOM      8  C   UNL A   1      32.856  28.381  22.903  1.00  0.00     0.217 C 
ATOM      9  N   UNL A   1      33.997  28.954  23.371  1.00  0.00    -0.370 N 
ATOM     10  H   UNL A   1      34.024  29.921  23.553  1.00  0.00     0.159 HD
ATOM     11  H   UNL A   1      34.797  28.401  23.528  1.00  0.00     0.159 HD
ATOM     12  O   UNL A   1      31.841  29.043  22.715  1.00  0.00    -0.275 OA
ENDBRANCH   7   8
ENDBRANCH   6   7
ENDBRANCH   5   6
BRANCH   5  13
ATOM     13  N   UNL A   1      33.261  23.758  24.664  1.00  0.00    -0.278 N 
ATOM     14  C   UNL A   1      32.342  22.780  24.297  1.00  0.00     0.266 C 
ATOM     15  C   UNL A   1      34.455  23.289  25.178  1.00  0.00     0.149 C 
ATOM     16  O   UNL A   1      31.209  22.983  23.882  1.00  0.00    -0.268 OA
ATOM     17  C   UNL A   1      32.897  21.423  24.513  1.00  0.00     0.081 C 
ATOM     18  S   UNL A   1      34.479  21.530  25.155  1.00  0.00    -0.054 SA
ATOM     19  S   UNL A   1      35.780  24.117  25.751  1.00  0.00    -0.052 S 
ATOM     20  C   UNL A   1      32.203  20.314  24.232  1.00  0.00     0.029 C 
BRANCH  20  21
ATOM     21  C   UNL A   1      32.702  18.953  24.451  1.00  0.00    -0.020 A 
ATOM     22  C   UNL A   1      32.527  18.344  25.702  1.00  0.00     0.012 A 
ATOM     23  C   UNL A   1      33.325  18.251  23.409  1.00  0.00     0.058 A 
ATOM     24  C   UNL A   1      32.961  17.033  25.910  1.00  0.00     0.051 A 
ATOM     25  C   UNL A   1      33.746  16.945  23.626  1.00  0.00     0.157 A 
ATOM     26  C   UNL A   1      33.564  16.344  24.869  1.00  0.00     0.157 A 
BRANCH  25  27
ATOM     27  O   UNL A   1      34.338  16.203  22.641  1.00  0.00    -0.504 OA
ATOM     28  H   UNL A   1      35.089  15.677  22.837  1.00  0.00     0.293 HD
ENDBRANCH  25  27
BRANCH  26  29
ATOM     29  O   UNL A   1      33.974  15.058  25.069  1.00  0.00    -0.504 OA
ATOM     30  H   UNL A   1      33.341  14.370  25.142  1.00  0.00     0.293 HD
ENDBRANCH  26  29
ENDBRANCH  20  21
ENDBRANCH   5  13
ENDBRANCH   3   5
ENDBRANCH   2   3
ENDBRANCH   1   2
BRANCH   1  31
ATOM     31  C   UNL A   1      31.744  29.134  26.378  1.00  0.00     0.275 C 
BRANCH  31  32
ATOM     32  O   UNL A   1      33.003  29.764  26.094  1.00  0.00    -0.458 OA
BRANCH  32  33
ATOM     33  C   UNL A   1      33.335  30.782  26.923  1.00  0.00     0.338 C 
ATOM     34  O   UNL A   1      32.631  31.721  27.251  1.00  0.00    -0.246 OA
BRANCH  33  35
ATOM     35  C   UNL A   1      34.710  30.602  27.423  1.00  0.00     0.060 A 
ATOM     36  C   UNL A   1      35.253  29.326  27.565  1.00  0.00     0.016 A 
ATOM     37  C   UNL A   1      35.402  31.713  27.905  1.00  0.00     0.016 A 
ATOM     38  C   UNL A   1      36.427  29.147  28.301  1.00  0.00     0.010 A 
ATOM     39  C   UNL A   1      36.632  31.537  28.543  1.00  0.00     0.010 A 
ATOM     40  C   UNL A   1      37.138  30.248  28.793  1.00  0.00    -0.014 A 
BRANCH  40  41
ATOM     41  C   UNL A   1      38.373  30.087  29.613  1.00  0.00     0.031 A 
ATOM     42  C   UNL A   1      39.506  29.238  29.094  1.00  0.00     0.074 A 
ATOM     43  C   UNL A   1      38.490  30.659  30.828  1.00  0.00     0.049 A 
ATOM     44  N   UNL A   1      40.503  28.690  29.743  1.00  0.00    -0.248 NA
ATOM     45  C   UNL A   1      39.504  28.953  27.649  1.00  0.00     0.031 C 
ATOM     46  C   UNL A   1      37.531  31.578  31.437  1.00  0.00     0.029 A 
ATOM     47  N   UNL A   1      39.476  30.531  31.779  1.00  0.00    -0.354 N 
ATOM     48  C   UNL A   1      41.196  27.935  28.806  1.00  0.00     0.074 A 
ATOM     49  C   UNL A   1      40.521  28.109  27.536  1.00  0.00     0.031 C 
ATOM     50  C   UNL A   1      37.975  31.938  32.652  1.00  0.00     0.029 A 
ATOM     51  C   UNL A   1      39.198  31.201  32.945  1.00  0.00     0.049 A 
ATOM     52  H   UNL A   1      40.300  30.011  31.638  1.00  0.00     0.167 HD
ATOM     53  C   UNL A   1      42.290  27.159  28.995  1.00  0.00     0.037 A 
ATOM     54  C   UNL A   1      39.818  31.179  34.140  1.00  0.00     0.037 A 
ATOM     55  C   UNL A   1      43.007  27.054  30.239  1.00  0.00     0.049 A 
ATOM     56  C   UNL A   1      41.018  30.295  34.336  1.00  0.00     0.074 A 
ATOM     57  C   UNL A   1      44.129  26.298  30.529  1.00  0.00     0.029 A 
ATOM     58  N   UNL A   1      42.686  27.754  31.391  1.00  0.00    -0.354 N 
ATOM     59  N   UNL A   1      41.610  29.502  33.477  1.00  0.00    -0.248 NA
ATOM     60  C   UNL A   1      41.621  30.282  35.677  1.00  0.00     0.031 C 
ATOM     61  C   UNL A   1      44.476  26.523  31.866  1.00  0.00     0.029 A 
ATOM     62  C   UNL A   1      43.589  27.447  32.395  1.00  0.00     0.049 A 
ATOM     63  H   UNL A   1      41.930  28.377  31.483  1.00  0.00     0.167 HD
ATOM     64  C   UNL A   1      42.662  28.913  34.164  1.00  0.00     0.074 A 
ATOM     65  C   UNL A   1      42.636  29.446  35.509  1.00  0.00     0.031 C 
ATOM     66  C   UNL A   1      43.563  28.004  33.721  1.00  0.00     0.037 A 
BRANCH  53  67
ATOM     67  C   UNL A   1      42.767  26.326  27.843  1.00  0.00     0.064 A 
ATOM     68  C   UNL A   1      42.246  25.053  27.579  1.00  0.00     0.173 A 
ATOM     69  C   UNL A   1      43.720  26.846  26.951  1.00  0.00     0.173 A 
ATOM     70  F   UNL A   1      41.341  24.508  28.405  1.00  0.00    -0.203 F 
ATOM     71  C   UNL A   1      42.669  24.324  26.469  1.00  0.00     0.198 A 
ATOM     72  C   UNL A   1      44.123  26.124  25.832  1.00  0.00     0.198 A 
ATOM     73  F   UNL A   1      44.243  28.063  27.157  1.00  0.00    -0.203 F 
ATOM     74  F   UNL A   1      42.178  23.096  26.247  1.00  0.00    -0.200 F 
ATOM     75  C   UNL A   1      43.601  24.863  25.594  1.00  0.00     0.200 A 
ATOM     76  F   UNL A   1      45.012  26.654  24.980  1.00  0.00    -0.200 F 
ATOM     77  F   UNL A   1      43.996  24.167  24.519  1.00  0.00    -0.200 F 
ENDBRANCH  53  67
BRANCH  54  78
ATOM     78  C   UNL A   1      39.274  31.976  35.270  1.00  0.00     0.064 A 
ATOM     79  C   UNL A   1      39.556  33.343  35.391  1.00  0.00     0.173 A 
ATOM     80  C   UNL A   1      38.467  31.385  36.255  1.00  0.00     0.173 A 
ATOM     81  F   UNL A   1      40.347  33.945  34.491  1.00  0.00    -0.203 F 
ATOM     82  C   UNL A   1      39.062  34.086  36.461  1.00  0.00     0.198 A 
ATOM     83  C   UNL A   1      37.950  32.136  37.308  1.00  0.00     0.198 A 
ATOM     84  F   UNL A   1      38.173  30.078  36.188  1.00  0.00    -0.203 F 
ATOM     85  F   UNL A   1      39.384  35.382  36.578  1.00  0.00    -0.200 F 
ATOM     86  C   UNL A   1      38.254  33.484  37.413  1.00  0.00     0.200 A 
ATOM     87  F   UNL A   1      37.161  31.552  38.220  1.00  0.00    -0.200 F 
ATOM     88  F   UNL A   1      37.777  34.202  38.440  1.00  0.00    -0.200 F 
ENDBRANCH  54  78
BRANCH  66  89
ATOM     89  C   UNL A   1      44.625  27.566  34.681  1.00  0.00     0.064 A 
ATOM     90  C   UNL A   1      45.825  28.278  34.821  1.00  0.00     0.173 A 
ATOM     91  C   UNL A   1      44.419  26.450  35.505  1.00  0.00     0.173 A 
ATOM     92  F   UNL A   1      46.073  29.342  34.043  1.00  0.00    -0.203 F 
ATOM     93  C   UNL A   1      46.788  27.877  35.742  1.00  0.00     0.198 A 
ATOM     94  C   UNL A   1      45.375  26.065  36.439  1.00  0.00     0.198 A 
ATOM     95  F   UNL A   1      43.284  25.740  35.409  1.00  0.00    -0.203 F 
ATOM     96  F   UNL A   1      47.943  28.551  35.838  1.00  0.00    -0.200 F 
ATOM     97  C   UNL A   1      46.560  26.776  36.555  1.00  0.00     0.200 A 
ATOM     98  F   UNL A   1      45.151  25.005  37.228  1.00  0.00    -0.200 F 
ATOM     99  F   UNL A   1      47.486  26.395  37.446  1.00  0.00    -0.200 F 
ENDBRANCH  66  89
ENDBRANCH  40  41
ENDBRANCH  33  35
ENDBRANCH  32  33
ENDBRANCH  31  32
ENDBRANCH   1  31
TORSDOF 18
ENDMDL
MODEL 3
REMARK VINA RESULT:     -12.8      1.345      1.947
REMARK SMILES NC(=O)CC[C@H](C(=O)OCCOC(=O)c1ccc(-c2c3nc(c(-c4c(F)c(F)c(F)c(F)c4F)c4ccc([nH]4)c(-c4c(F)c(F)c(F)c(F)c4F)c4nc(c(-c5c(F)c(F)c(F)c(F)c5F)c5ccc2[nH]5)C=C4)C=C3)cc1)N1C(=O)/C(=C/c2ccc(O)c(O)c2)SC1=S
REMARK SMILES IDX 10 1 9 2 7 3 8 4 6 5 5 6 4 7 2 8 1 9 3 12 78 13 79 14 92 15
REMARK SMILES IDX 80 16 81 17 91 18 93 19 82 20 83 21 84 22 90 23 85 24 88 25
REMARK SMILES IDX 86 26 89 27 87 29 11 31 12 32 13 33 14 34 15 35 16 36 77 37
REMARK SMILES IDX 17 38 76 39 18 40 19 41 20 42 70 43 21 44 75 45 69 46 71 47
REMARK SMILES IDX 22 48 74 49 68 50 67 51 23 53 55 54 35 55 54 56 36 57 39 58
REMARK SMILES IDX 53 59 72 60 37 61 38 62 52 64 73 65 40 66 24 67 25 68 33 69
REMARK SMILES IDX 26 70 27 71 31 72 34 73 28 74 29 75 32 76 30 77 56 78 57 79
REMARK SMILES IDX 65 80 58 81 59 82 63 83 66 84 60 85 61 86 64 87 62 88 41 89
REMARK SMILES IDX 42 90 50 91 43 92 44 93 48 94 51 95 45 96 46 97 49 98 47 99
REMARK H PARENT 1 10 1 11 89 28 87 30 71 52 39 63
REMARK Flexibility Score: inf
ROOT
ATOM      1  C   UNL A   1      32.008  27.779  27.127  1.00  0.00     0.274 C 
ENDROOT
BRANCH   1   2
ATOM      2  O   UNL A   1      32.767  26.837  26.338  1.00  0.00    -0.461 OA
BRANCH   2   3
ATOM      3  C   UNL A   1      32.133  25.662  26.059  1.00  0.00     0.329 C 
ATOM      4  O   UNL A   1      31.463  25.044  26.877  1.00  0.00    -0.250 OA
BRANCH   3   5
ATOM      5  C   UNL A   1      32.462  25.105  24.661  1.00  0.00     0.202 C 
BRANCH   5   6
ATOM      6  C   UNL A   1      33.248  26.077  23.754  1.00  0.00     0.047 C 
BRANCH   6   7
ATOM      7  C   UNL A   1      33.653  25.495  22.390  1.00  0.00     0.102 C 
BRANCH   7   8
ATOM      8  C   UNL A   1      32.745  25.932  21.259  1.00  0.00     0.217 C 
ATOM      9  N   UNL A   1      31.711  26.740  21.617  1.00  0.00    -0.370 N 
ATOM     10  H   UNL A   1      31.079  27.063  20.935  1.00  0.00     0.159 HD
ATOM     11  H   UNL A   1      31.594  27.002  22.559  1.00  0.00     0.159 HD
ATOM     12  O   UNL A   1      32.903  25.578  20.096  1.00  0.00    -0.275 OA
ENDBRANCH   7   8
ENDBRANCH   6   7
ENDBRANCH   5   6
BRANCH   5  13
ATOM     13  N   UNL A   1      33.001  23.721  24.733  1.00  0.00    -0.278 N 
ATOM     14  C   UNL A   1      32.153  22.713  24.288  1.00  0.00     0.266 C 
ATOM     15  C   UNL A   1      34.181  23.294  25.312  1.00  0.00     0.149 C 
ATOM     16  O   UNL A   1      31.040  22.875  23.806  1.00  0.00    -0.268 OA
ATOM     17  C   UNL A   1      32.755  21.377  24.509  1.00  0.00     0.081 C 
ATOM     18  S   UNL A   1      34.287  21.538  25.252  1.00  0.00    -0.054 SA
ATOM     19  S   UNL A   1      35.428  24.166  25.986  1.00  0.00    -0.052 S 
ATOM     20  C   UNL A   1      32.131  20.245  24.160  1.00  0.00     0.029 C 
BRANCH  20  21
ATOM     21  C   UNL A   1      32.678  18.903  24.381  1.00  0.00    -0.020 A 
ATOM     22  C   UNL A   1      32.528  18.291  25.634  1.00  0.00     0.012 A 
ATOM     23  C   UNL A   1      33.322  18.221  23.338  1.00  0.00     0.058 A 
ATOM     24  C   UNL A   1      33.007  16.997  25.844  1.00  0.00     0.051 A 
ATOM     25  C   UNL A   1      33.788  16.930  23.557  1.00  0.00     0.157 A 
ATOM     26  C   UNL A   1      33.631  16.326  24.802  1.00  0.00     0.157 A 
BRANCH  25  27
ATOM     27  O   UNL A   1      34.403  16.207  22.572  1.00  0.00    -0.504 OA
ATOM     28  H   UNL A   1      33.900  15.861  21.860  1.00  0.00     0.293 HD
ENDBRANCH  25  27
BRANCH  26  29
ATOM     29  O   UNL A   1      34.086  15.055  25.004  1.00  0.00    -0.504 OA
ATOM     30  H   UNL A   1      34.958  14.915  25.317  1.00  0.00     0.293 HD
ENDBRANCH  26  29
ENDBRANCH  20  21
ENDBRANCH   5  13
ENDBRANCH   3   5
ENDBRANCH   2   3
ENDBRANCH   1   2
BRANCH   1  31
ATOM     31  C   UNL A   1      31.677  29.033  26.327  1.00  0.00     0.275 C 
BRANCH  31  32
ATOM     32  O   UNL A   1      32.886  29.745  26.021  1.00  0.00    -0.458 OA
BRANCH  32  33
ATOM     33  C   UNL A   1      33.197  30.744  26.880  1.00  0.00     0.338 C 
ATOM     34  O   UNL A   1      32.470  31.652  27.244  1.00  0.00    -0.246 OA
BRANCH  33  35
ATOM     35  C   UNL A   1      34.581  30.587  27.364  1.00  0.00     0.060 A 
ATOM     36  C   UNL A   1      35.165  29.324  27.445  1.00  0.00     0.016 A 
ATOM     37  C   UNL A   1      35.240  31.696  27.891  1.00  0.00     0.016 A 
ATOM     38  C   UNL A   1      36.349  29.150  28.165  1.00  0.00     0.010 A 
ATOM     39  C   UNL A   1      36.480  31.532  28.514  1.00  0.00     0.010 A 
ATOM     40  C   UNL A   1      37.028  30.250  28.702  1.00  0.00    -0.014 A 
BRANCH  40  41
ATOM     41  C   UNL A   1      38.274  30.092  29.507  1.00  0.00     0.031 A 
ATOM     42  C   UNL A   1      39.403  29.247  28.974  1.00  0.00     0.074 A 
ATOM     43  C   UNL A   1      38.404  30.664  30.721  1.00  0.00     0.049 A 
ATOM     44  N   UNL A   1      40.409  28.703  29.611  1.00  0.00    -0.248 NA
ATOM     45  C   UNL A   1      39.385  28.964  27.529  1.00  0.00     0.031 C 
ATOM     46  C   UNL A   1      37.449  31.580  31.343  1.00  0.00     0.029 A 
ATOM     47  N   UNL A   1      39.402  30.539  31.661  1.00  0.00    -0.354 N 
ATOM     48  C   UNL A   1      41.093  27.951  28.665  1.00  0.00     0.074 A 
ATOM     49  C   UNL A   1      40.403  28.123  27.404  1.00  0.00     0.031 C 
ATOM     50  C   UNL A   1      37.907  31.940  32.552  1.00  0.00     0.029 A 
ATOM     51  C   UNL A   1      39.135  31.207  32.830  1.00  0.00     0.049 A 
ATOM     52  H   UNL A   1      40.225  30.021  31.509  1.00  0.00     0.167 HD
ATOM     53  C   UNL A   1      42.192  27.178  28.840  1.00  0.00     0.037 A 
ATOM     54  C   UNL A   1      39.770  31.186  34.018  1.00  0.00     0.037 A 
ATOM     55  C   UNL A   1      42.925  27.074  30.075  1.00  0.00     0.049 A 
ATOM     56  C   UNL A   1      40.975  30.306  34.199  1.00  0.00     0.074 A 
ATOM     57  C   UNL A   1      44.053  26.322  30.351  1.00  0.00     0.029 A 
ATOM     58  N   UNL A   1      42.616  27.773  31.232  1.00  0.00    -0.354 N 
ATOM     59  N   UNL A   1      41.560  29.516  33.332  1.00  0.00    -0.248 NA
ATOM     60  C   UNL A   1      41.594  30.294  35.532  1.00  0.00     0.031 C 
ATOM     61  C   UNL A   1      44.415  26.548  31.684  1.00  0.00     0.029 A 
ATOM     62  C   UNL A   1      43.532  27.468  32.225  1.00  0.00     0.049 A 
ATOM     63  H   UNL A   1      41.858  28.393  31.333  1.00  0.00     0.167 HD
ATOM     64  C   UNL A   1      42.621  28.930  34.006  1.00  0.00     0.074 A 
ATOM     65  C   UNL A   1      42.610  29.462  35.351  1.00  0.00     0.031 C 
ATOM     66  C   UNL A   1      43.520  28.024  33.551  1.00  0.00     0.037 A 
BRANCH  53  67
ATOM     67  C   UNL A   1      42.658  26.347  27.682  1.00  0.00     0.064 A 
ATOM     68  C   UNL A   1      43.646  26.793  26.795  1.00  0.00     0.173 A 
ATOM     69  C   UNL A   1      42.147  25.051  27.501  1.00  0.00     0.173 A 
ATOM     70  F   UNL A   1      44.159  28.027  26.919  1.00  0.00    -0.203 F 
ATOM     71  C   UNL A   1      44.098  25.977  25.760  1.00  0.00     0.198 A 
ATOM     72  C   UNL A   1      42.618  24.231  26.481  1.00  0.00     0.198 A 
ATOM     73  F   UNL A   1      41.205  24.575  28.329  1.00  0.00    -0.203 F 
ATOM     74  F   UNL A   1      45.026  26.432  24.905  1.00  0.00    -0.200 F 
ATOM     75  C   UNL A   1      43.590  24.695  25.609  1.00  0.00     0.200 A 
ATOM     76  F   UNL A   1      42.136  22.987  26.346  1.00  0.00    -0.200 F 
ATOM     77  F   UNL A   1      44.037  23.906  24.622  1.00  0.00    -0.200 F 
ENDBRANCH  53  67
BRANCH  54  78
ATOM     78  C   UNL A   1      39.237  31.981  35.155  1.00  0.00     0.064 A 
ATOM     79  C   UNL A   1      39.514  33.350  35.271  1.00  0.00     0.173 A 
ATOM     80  C   UNL A   1      38.447  31.386  36.151  1.00  0.00     0.173 A 
ATOM     81  F   UNL A   1      40.289  33.955  34.360  1.00  0.00    -0.203 F 
ATOM     82  C   UNL A   1      39.030  34.091  36.347  1.00  0.00     0.198 A 
ATOM     83  C   UNL A   1      37.940  32.135  37.210  1.00  0.00     0.198 A 
ATOM     84  F   UNL A   1      38.159  30.078  36.088  1.00  0.00    -0.203 F 
ATOM     85  F   UNL A   1      39.348  35.388  36.460  1.00  0.00    -0.200 F 
ATOM     86  C   UNL A   1      38.238  33.485  37.311  1.00  0.00     0.200 A 
ATOM     87  F   UNL A   1      37.167  31.547  38.132  1.00  0.00    -0.200 F 
ATOM     88  F   UNL A   1      37.772  34.200  38.344  1.00  0.00    -0.200 F 
ENDBRANCH  54  78
BRANCH  66  89
ATOM     89  C   UNL A   1      44.595  27.589  34.498  1.00  0.00     0.064 A 
ATOM     90  C   UNL A   1      45.797  28.301  34.619  1.00  0.00     0.173 A 
ATOM     91  C   UNL A   1      44.400  26.475  35.328  1.00  0.00     0.173 A 
ATOM     92  F   UNL A   1      46.034  29.363  33.834  1.00  0.00    -0.203 F 
ATOM     93  C   UNL A   1      46.773  27.903  35.528  1.00  0.00     0.198 A 
ATOM     94  C   UNL A   1      45.368  26.093  36.251  1.00  0.00     0.198 A 
ATOM     95  F   UNL A   1      43.264  25.766  35.250  1.00  0.00    -0.203 F 
ATOM     96  F   UNL A   1      47.929  28.577  35.606  1.00  0.00    -0.200 F 
ATOM     97  C   UNL A   1      46.555  26.805  36.347  1.00  0.00     0.200 A 
ATOM     98  F   UNL A   1      45.155  25.036  37.046  1.00  0.00    -0.200 F 
ATOM     99  F   UNL A   1      47.494  26.426  37.227  1.00  0.00    -0.200 F 
ENDBRANCH  66  89
ENDBRANCH  40  41
ENDBRANCH  33  35
ENDBRANCH  32  33
ENDBRANCH  31  32
ENDBRANCH   1  31
TORSDOF 18
ENDMDL
