MODEL 1
REMARK VINA RESULT:     -10.8      0.000      0.000
REMARK SMILES CSCC[C@@H](CO)n1ccnc1-c1ccccc1C(=O)OCCOC(=O)c1ccc(-c2c3nc(c(-c4c(F)c(F)c(F)c(F)c4F)c4ccc([nH]4)c(-c4c(F)c(F)c(F)c(F)c4F)c4nc(c(-c5c(F)c(F)c(F)c(F)c5F)c5ccc2[nH]5)C=C4)C=C3)cc1
REMARK SMILES IDX 21 1 19 2 20 3 18 4 13 5 14 6 15 7 17 8 16 9 12 10 8 11 9 12
REMARK SMILES IDX 10 13 11 14 5 15 4 16 3 17 2 18 1 19 6 20 7 21 22 23 23 24
REMARK SMILES IDX 24 25 25 26 26 27 27 28 28 29 89 30 29 31 88 32 30 33 31 34
REMARK SMILES IDX 32 35 82 36 33 37 87 38 81 39 83 40 34 41 86 42 80 43 79 44
REMARK SMILES IDX 35 46 67 47 47 48 66 49 48 50 51 51 65 52 84 53 49 54 50 55
REMARK SMILES IDX 64 57 85 58 52 59 36 60 37 61 45 62 38 63 39 64 43 65 46 66
REMARK SMILES IDX 40 67 41 68 44 69 42 70 68 71 69 72 77 73 70 74 71 75 75 76
REMARK SMILES IDX 78 77 72 78 73 79 76 80 74 81 53 82 54 83 62 84 55 85 56 86
REMARK SMILES IDX 60 87 63 88 57 89 58 90 61 91 59 92
REMARK H PARENT 7 22 83 45 51 56
REMARK Flexibility Score: inf
ROOT
ATOM      1  O   UNL A   1      36.998  23.697  26.197  1.00  0.00    -0.458 OA
ENDROOT
BRANCH   1   2
ATOM      2  C   UNL A   1      35.952  23.736  25.343  1.00  0.00     0.338 C 
ATOM      3  O   UNL A   1      36.042  23.877  24.129  1.00  0.00    -0.246 OA
BRANCH   2   4
ATOM      4  C   UNL A   1      34.647  23.551  26.044  1.00  0.00     0.071 A 
ATOM      5  C   UNL A   1      33.516  24.377  25.889  1.00  0.00     0.032 A 
ATOM      6  C   UNL A   1      32.353  24.070  26.630  1.00  0.00     0.013 A 
ATOM      7  C   UNL A   1      32.288  22.956  27.466  1.00  0.00     0.001 A 
ATOM      8  C   UNL A   1      34.565  22.424  26.892  1.00  0.00     0.016 A 
ATOM      9  C   UNL A   1      33.395  22.128  27.594  1.00  0.00     0.001 A 
BRANCH   5  10
ATOM     10  C   UNL A   1      33.459  25.606  25.088  1.00  0.00     0.141 A 
ATOM     11  N   UNL A   1      33.311  25.763  23.709  1.00  0.00    -0.326 N 
ATOM     12  C   UNL A   1      33.561  27.103  23.463  1.00  0.00     0.108 A 
ATOM     13  C   UNL A   1      33.678  27.710  24.684  1.00  0.00     0.131 A 
ATOM     14  N   UNL A   1      33.558  26.790  25.673  1.00  0.00    -0.237 NA
BRANCH  11  15
ATOM     15  C   UNL A   1      33.180  24.754  22.638  1.00  0.00     0.115 C 
BRANCH  15  16
ATOM     16  C   UNL A   1      32.296  23.519  22.936  1.00  0.00     0.039 C 
BRANCH  16  17
ATOM     17  C   UNL A   1      33.049  22.198  23.182  1.00  0.00     0.071 C 
BRANCH  17  18
ATOM     18  S   UNL A   1      32.167  20.987  24.226  1.00  0.00    -0.165 SA
ATOM     19  C   UNL A   1      33.438  19.729  24.506  1.00  0.00     0.085 C 
ENDBRANCH  17  18
ENDBRANCH  16  17
ENDBRANCH  15  16
BRANCH  15  20
ATOM     20  C   UNL A   1      32.786  25.376  21.272  1.00  0.00     0.181 C 
BRANCH  20  21
ATOM     21  O   UNL A   1      32.903  24.474  20.181  1.00  0.00    -0.394 OA
ATOM     22  H   UNL A   1      33.766  24.032  20.217  1.00  0.00     0.210 HD
ENDBRANCH  20  21
ENDBRANCH  15  20
ENDBRANCH  11  15
ENDBRANCH   5  10
ENDBRANCH   2   4
ENDBRANCH   1   2
BRANCH   1  23
ATOM     23  C   UNL A   1      38.220  23.058  25.784  1.00  0.00     0.275 C 
BRANCH  23  24
ATOM     24  C   UNL A   1      38.069  21.554  25.785  1.00  0.00     0.275 C 
BRANCH  24  25
ATOM     25  O   UNL A   1      39.110  21.001  25.000  1.00  0.00    -0.458 OA
BRANCH  25  26
ATOM     26  C   UNL A   1      39.862  20.072  25.628  1.00  0.00     0.338 C 
ATOM     27  O   UNL A   1      39.640  18.881  25.750  1.00  0.00    -0.246 OA
BRANCH  26  28
ATOM     28  C   UNL A   1      40.942  20.759  26.327  1.00  0.00     0.060 A 
ATOM     29  C   UNL A   1      40.880  20.724  27.721  1.00  0.00     0.016 A 
ATOM     30  C   UNL A   1      41.688  21.710  25.617  1.00  0.00     0.016 A 
ATOM     31  C   UNL A   1      41.340  21.822  28.400  1.00  0.00     0.010 A 
ATOM     32  C   UNL A   1      42.112  22.818  26.290  1.00  0.00     0.010 A 
ATOM     33  C   UNL A   1      41.847  22.891  27.654  1.00  0.00    -0.014 A 
BRANCH  33  34
ATOM     34  C   UNL A   1      42.195  24.094  28.362  1.00  0.00     0.031 A 
ATOM     35  C   UNL A   1      41.197  25.163  28.176  1.00  0.00     0.074 A 
ATOM     36  C   UNL A   1      43.250  24.138  29.194  1.00  0.00     0.049 A 
ATOM     37  N   UNL A   1      41.374  26.328  27.654  1.00  0.00    -0.248 NA
ATOM     38  C   UNL A   1      39.791  24.830  28.461  1.00  0.00     0.031 C 
ATOM     39  C   UNL A   1      44.089  23.029  29.654  1.00  0.00     0.029 A 
ATOM     40  N   UNL A   1      43.711  25.192  29.911  1.00  0.00    -0.354 N 
ATOM     41  C   UNL A   1      40.131  26.945  27.709  1.00  0.00     0.074 A 
ATOM     42  C   UNL A   1      39.170  25.928  28.037  1.00  0.00     0.031 C 
ATOM     43  C   UNL A   1      44.788  23.430  30.741  1.00  0.00     0.029 A 
ATOM     44  C   UNL A   1      44.524  24.841  30.975  1.00  0.00     0.049 A 
ATOM     45  H   UNL A   1      43.488  26.125  29.693  1.00  0.00     0.167 HD
ATOM     46  C   UNL A   1      40.031  28.297  27.746  1.00  0.00     0.037 A 
ATOM     47  C   UNL A   1      44.845  25.646  32.018  1.00  0.00     0.037 A 
ATOM     48  C   UNL A   1      41.226  28.926  27.247  1.00  0.00     0.049 A 
ATOM     49  C   UNL A   1      44.549  27.047  31.606  1.00  0.00     0.074 A 
ATOM     50  C   UNL A   1      41.898  28.892  26.039  1.00  0.00     0.029 A 
ATOM     51  N   UNL A   1      42.121  29.432  28.158  1.00  0.00    -0.354 N 
ATOM     52  N   UNL A   1      45.222  27.704  30.704  1.00  0.00    -0.248 NA
ATOM     53  C   UNL A   1      43.219  27.571  31.888  1.00  0.00     0.031 C 
ATOM     54  C   UNL A   1      43.282  28.934  26.379  1.00  0.00     0.029 A 
ATOM     55  C   UNL A   1      43.376  29.041  27.767  1.00  0.00     0.049 A 
ATOM     56  H   UNL A   1      41.901  29.976  28.949  1.00  0.00     0.167 HD
ATOM     57  C   UNL A   1      44.267  28.431  30.008  1.00  0.00     0.074 A 
ATOM     58  C   UNL A   1      43.074  28.393  30.846  1.00  0.00     0.031 C 
ATOM     59  C   UNL A   1      44.447  28.745  28.690  1.00  0.00     0.037 A 
BRANCH  46  60
ATOM     60  C   UNL A   1      39.015  29.015  28.592  1.00  0.00     0.064 A 
ATOM     61  C   UNL A   1      38.962  28.743  29.970  1.00  0.00     0.173 A 
ATOM     62  C   UNL A   1      37.911  29.725  28.065  1.00  0.00     0.173 A 
ATOM     63  F   UNL A   1      39.944  28.051  30.566  1.00  0.00    -0.203 F 
ATOM     64  C   UNL A   1      37.854  29.091  30.745  1.00  0.00     0.198 A 
ATOM     65  C   UNL A   1      36.836  30.124  28.853  1.00  0.00     0.198 A 
ATOM     66  F   UNL A   1      37.767  29.960  26.756  1.00  0.00    -0.203 F 
ATOM     67  F   UNL A   1      37.788  28.696  32.022  1.00  0.00    -0.200 F 
ATOM     68  C   UNL A   1      36.791  29.778  30.185  1.00  0.00     0.200 A 
ATOM     69  F   UNL A   1      35.808  30.771  28.285  1.00  0.00    -0.200 F 
ATOM     70  F   UNL A   1      35.702  30.058  30.912  1.00  0.00    -0.200 F 
ENDBRANCH  46  60
BRANCH  47  71
ATOM     71  C   UNL A   1      45.057  25.269  33.436  1.00  0.00     0.064 A 
ATOM     72  C   UNL A   1      43.960  25.018  34.277  1.00  0.00     0.173 A 
ATOM     73  C   UNL A   1      46.320  24.882  33.927  1.00  0.00     0.173 A 
ATOM     74  F   UNL A   1      42.717  25.318  33.873  1.00  0.00    -0.203 F 
ATOM     75  C   UNL A   1      44.113  24.385  35.515  1.00  0.00     0.198 A 
ATOM     76  C   UNL A   1      46.473  24.264  35.168  1.00  0.00     0.198 A 
ATOM     77  F   UNL A   1      47.424  25.003  33.176  1.00  0.00    -0.203 F 
ATOM     78  F   UNL A   1      43.034  24.094  36.254  1.00  0.00    -0.200 F 
ATOM     79  C   UNL A   1      45.368  23.999  35.954  1.00  0.00     0.200 A 
ATOM     80  F   UNL A   1      47.690  23.868  35.567  1.00  0.00    -0.200 F 
ATOM     81  F   UNL A   1      45.509  23.334  37.109  1.00  0.00    -0.200 F 
ENDBRANCH  47  71
BRANCH  59  82
ATOM     82  C   UNL A   1      45.817  28.536  28.109  1.00  0.00     0.064 A 
ATOM     83  C   UNL A   1      46.271  27.318  27.572  1.00  0.00     0.173 A 
ATOM     84  C   UNL A   1      46.666  29.645  27.993  1.00  0.00     0.173 A 
ATOM     85  F   UNL A   1      45.479  26.240  27.539  1.00  0.00    -0.203 F 
ATOM     86  C   UNL A   1      47.541  27.202  27.011  1.00  0.00     0.198 A 
ATOM     87  C   UNL A   1      47.918  29.538  27.391  1.00  0.00     0.198 A 
ATOM     88  F   UNL A   1      46.264  30.848  28.430  1.00  0.00    -0.203 F 
ATOM     89  F   UNL A   1      47.963  26.020  26.536  1.00  0.00    -0.200 F 
ATOM     90  C   UNL A   1      48.361  28.313  26.917  1.00  0.00     0.200 A 
ATOM     91  F   UNL A   1      48.687  30.627  27.256  1.00  0.00    -0.200 F 
ATOM     92  F   UNL A   1      49.571  28.212  26.349  1.00  0.00    -0.200 F 
ENDBRANCH  59  82
ENDBRANCH  33  34
ENDBRANCH  26  28
ENDBRANCH  25  26
ENDBRANCH  24  25
ENDBRANCH  23  24
ENDBRANCH   1  23
TORSDOF 18
ENDMDL
MODEL 2
REMARK VINA RESULT:     -10.8      1.362      2.189
REMARK SMILES CSCC[C@@H](CO)n1ccnc1-c1ccccc1C(=O)OCCOC(=O)c1ccc(-c2c3nc(c(-c4c(F)c(F)c(F)c(F)c4F)c4ccc([nH]4)c(-c4c(F)c(F)c(F)c(F)c4F)c4nc(c(-c5c(F)c(F)c(F)c(F)c5F)c5ccc2[nH]5)C=C4)C=C3)cc1
REMARK SMILES IDX 21 1 19 2 20 3 18 4 13 5 14 6 15 7 17 8 16 9 12 10 8 11 9 12
REMARK SMILES IDX 10 13 11 14 5 15 4 16 3 17 2 18 1 19 6 20 7 21 22 23 23 24
REMARK SMILES IDX 24 25 25 26 26 27 27 28 28 29 89 30 29 31 88 32 30 33 31 34
REMARK SMILES IDX 32 35 82 36 33 37 87 38 81 39 83 40 34 41 86 42 80 43 79 44
REMARK SMILES IDX 35 46 67 47 47 48 66 49 48 50 51 51 65 52 84 53 49 54 50 55
REMARK SMILES IDX 64 57 85 58 52 59 36 60 37 61 45 62 38 63 39 64 43 65 46 66
REMARK SMILES IDX 40 67 41 68 44 69 42 70 68 71 69 72 77 73 70 74 71 75 75 76
REMARK SMILES IDX 78 77 72 78 73 79 76 80 74 81 53 82 54 83 62 84 55 85 56 86
REMARK SMILES IDX 60 87 63 88 57 89 58 90 61 91 59 92
REMARK H PARENT 7 22 83 45 51 56
REMARK Flexibility Score: inf
ROOT
ATOM      1  O   UNL A   1      36.482  23.252  25.237  1.00  0.00    -0.458 OA
ENDROOT
BRANCH   1   2
ATOM      2  C   UNL A   1      36.079  22.795  24.031  1.00  0.00     0.338 C 
ATOM      3  O   UNL A   1      36.684  22.963  22.979  1.00  0.00    -0.246 OA
BRANCH   2   4
ATOM      4  C   UNL A   1      34.808  22.016  24.121  1.00  0.00     0.071 A 
ATOM      5  C   UNL A   1      33.550  22.457  23.663  1.00  0.00     0.032 A 
ATOM      6  C   UNL A   1      32.439  21.601  23.825  1.00  0.00     0.013 A 
ATOM      7  C   UNL A   1      32.567  20.328  24.382  1.00  0.00     0.001 A 
ATOM      8  C   UNL A   1      34.924  20.724  24.679  1.00  0.00     0.016 A 
ATOM      9  C   UNL A   1      33.813  19.887  24.805  1.00  0.00     0.001 A 
BRANCH   5  10
ATOM     10  C   UNL A   1      33.260  23.785  23.108  1.00  0.00     0.141 A 
ATOM     11  N   UNL A   1      32.941  24.974  23.766  1.00  0.00    -0.326 N 
ATOM     12  C   UNL A   1      32.535  25.847  22.770  1.00  0.00     0.108 A 
ATOM     13  C   UNL A   1      32.780  25.222  21.578  1.00  0.00     0.131 A 
ATOM     14  N   UNL A   1      33.277  23.980  21.798  1.00  0.00    -0.237 NA
BRANCH  11  15
ATOM     15  C   UNL A   1      32.785  25.260  25.207  1.00  0.00     0.115 C 
BRANCH  15  16
ATOM     16  C   UNL A   1      33.712  26.338  25.817  1.00  0.00     0.039 C 
BRANCH  16  17
ATOM     17  C   UNL A   1      33.026  27.647  26.253  1.00  0.00     0.071 C 
BRANCH  17  18
ATOM     18  S   UNL A   1      33.107  29.005  25.035  1.00  0.00    -0.165 SA
ATOM     19  C   UNL A   1      31.357  29.303  24.682  1.00  0.00     0.085 C 
ENDBRANCH  17  18
ENDBRANCH  16  17
ENDBRANCH  15  16
BRANCH  15  20
ATOM     20  C   UNL A   1      31.311  25.533  25.609  1.00  0.00     0.181 C 
BRANCH  20  21
ATOM     21  O   UNL A   1      30.897  24.825  26.767  1.00  0.00    -0.394 OA
ATOM     22  H   UNL A   1      31.065  25.366  27.555  1.00  0.00     0.210 HD
ENDBRANCH  20  21
ENDBRANCH  15  20
ENDBRANCH  11  15
ENDBRANCH   5  10
ENDBRANCH   2   4
ENDBRANCH   1   2
BRANCH   1  23
ATOM     23  C   UNL A   1      37.855  23.082  25.632  1.00  0.00     0.275 C 
BRANCH  23  24
ATOM     24  C   UNL A   1      38.112  21.664  26.090  1.00  0.00     0.275 C 
BRANCH  24  25
ATOM     25  O   UNL A   1      38.934  21.028  25.127  1.00  0.00    -0.458 OA
BRANCH  25  26
ATOM     26  C   UNL A   1      39.787  20.109  25.629  1.00  0.00     0.338 C 
ATOM     27  O   UNL A   1      39.637  18.903  25.698  1.00  0.00    -0.246 OA
BRANCH  26  28
ATOM     28  C   UNL A   1      40.891  20.815  26.268  1.00  0.00     0.060 A 
ATOM     29  C   UNL A   1      40.926  20.750  27.662  1.00  0.00     0.016 A 
ATOM     30  C   UNL A   1      41.557  21.803  25.530  1.00  0.00     0.016 A 
ATOM     31  C   UNL A   1      41.398  21.848  28.332  1.00  0.00     0.010 A 
ATOM     32  C   UNL A   1      41.993  22.911  26.197  1.00  0.00     0.010 A 
ATOM     33  C   UNL A   1      41.820  22.947  27.578  1.00  0.00    -0.014 A 
BRANCH  33  34
ATOM     34  C   UNL A   1      42.180  24.146  28.287  1.00  0.00     0.031 A 
ATOM     35  C   UNL A   1      41.158  25.201  28.160  1.00  0.00     0.074 A 
ATOM     36  C   UNL A   1      43.269  24.196  29.072  1.00  0.00     0.049 A 
ATOM     37  N   UNL A   1      41.293  26.376  27.647  1.00  0.00    -0.248 NA
ATOM     38  C   UNL A   1      39.770  24.841  28.500  1.00  0.00     0.031 C 
ATOM     39  C   UNL A   1      44.145  23.096  29.480  1.00  0.00     0.029 A 
ATOM     40  N   UNL A   1      43.744  25.248  29.784  1.00  0.00    -0.354 N 
ATOM     41  C   UNL A   1      40.044  26.972  27.764  1.00  0.00     0.074 A 
ATOM     42  C   UNL A   1      39.114  25.935  28.119  1.00  0.00     0.031 C 
ATOM     43  C   UNL A   1      44.884  23.493  30.541  1.00  0.00     0.029 A 
ATOM     44  C   UNL A   1      44.608  24.896  30.806  1.00  0.00     0.049 A 
ATOM     45  H   UNL A   1      43.497  26.181  29.589  1.00  0.00     0.167 HD
ATOM     46  C   UNL A   1      39.924  28.321  27.825  1.00  0.00     0.037 A 
ATOM     47  C   UNL A   1      44.961  25.693  31.845  1.00  0.00     0.037 A 
ATOM     48  C   UNL A   1      41.086  28.977  27.284  1.00  0.00     0.049 A 
ATOM     49  C   UNL A   1      44.625  27.094  31.467  1.00  0.00     0.074 A 
ATOM     50  C   UNL A   1      41.705  28.970  26.048  1.00  0.00     0.029 A 
ATOM     51  N   UNL A   1      42.012  29.484  28.162  1.00  0.00    -0.354 N 
ATOM     52  N   UNL A   1      45.248  27.774  30.546  1.00  0.00    -0.248 NA
ATOM     53  C   UNL A   1      43.301  27.592  31.814  1.00  0.00     0.031 C 
ATOM     54  C   UNL A   1      43.101  29.031  26.328  1.00  0.00     0.029 A 
ATOM     55  C   UNL A   1      43.255  29.120  27.711  1.00  0.00     0.049 A 
ATOM     56  H   UNL A   1      41.818  30.014  28.969  1.00  0.00     0.167 HD
ATOM     57  C   UNL A   1      44.252  28.495  29.902  1.00  0.00     0.074 A 
ATOM     58  C   UNL A   1      43.097  28.425  30.791  1.00  0.00     0.031 C 
ATOM     59  C   UNL A   1      44.369  28.829  28.583  1.00  0.00     0.037 A 
BRANCH  46  60
ATOM     60  C   UNL A   1      38.934  29.010  28.724  1.00  0.00     0.064 A 
ATOM     61  C   UNL A   1      38.975  28.752  30.105  1.00  0.00     0.173 A 
ATOM     62  C   UNL A   1      37.775  29.674  28.259  1.00  0.00     0.173 A 
ATOM     63  F   UNL A   1      40.016  28.103  30.648  1.00  0.00    -0.203 F 
ATOM     64  C   UNL A   1      37.903  29.068  30.942  1.00  0.00     0.198 A 
ATOM     65  C   UNL A   1      36.735  30.042  29.107  1.00  0.00     0.198 A 
ATOM     66  F   UNL A   1      37.544  29.888  26.958  1.00  0.00    -0.203 F 
ATOM     67  F   UNL A   1      37.928  28.685  32.225  1.00  0.00    -0.200 F 
ATOM     68  C   UNL A   1      36.783  29.709  30.442  1.00  0.00     0.200 A 
ATOM     69  F   UNL A   1      35.652  30.644  28.596  1.00  0.00    -0.200 F 
ATOM     70  F   UNL A   1      35.730  29.957  31.231  1.00  0.00    -0.200 F 
ENDBRANCH  46  60
BRANCH  47  71
ATOM     71  C   UNL A   1      45.241  25.300  33.248  1.00  0.00     0.064 A 
ATOM     72  C   UNL A   1      44.259  24.650  34.014  1.00  0.00     0.173 A 
ATOM     73  C   UNL A   1      46.546  25.303  33.780  1.00  0.00     0.173 A 
ATOM     74  F   UNL A   1      42.999  24.565  33.564  1.00  0.00    -0.203 F 
ATOM     75  C   UNL A   1      44.572  24.009  35.217  1.00  0.00     0.198 A 
ATOM     76  C   UNL A   1      46.853  24.677  34.988  1.00  0.00     0.198 A 
ATOM     77  F   UNL A   1      47.574  25.826  33.096  1.00  0.00    -0.203 F 
ATOM     78  F   UNL A   1      43.622  23.335  35.881  1.00  0.00    -0.200 F 
ATOM     79  C   UNL A   1      45.870  24.014  35.697  1.00  0.00     0.200 A 
ATOM     80  F   UNL A   1      48.121  24.663  35.425  1.00  0.00    -0.200 F 
ATOM     81  F   UNL A   1      46.184  23.347  36.817  1.00  0.00    -0.200 F 
ENDBRANCH  47  71
BRANCH  59  82
ATOM     82  C   UNL A   1      45.716  28.651  27.940  1.00  0.00     0.064 A 
ATOM     83  C   UNL A   1      46.164  27.448  27.365  1.00  0.00     0.173 A 
ATOM     84  C   UNL A   1      46.542  29.775  27.804  1.00  0.00     0.173 A 
ATOM     85  F   UNL A   1      45.388  26.358  27.349  1.00  0.00    -0.203 F 
ATOM     86  C   UNL A   1      47.411  27.361  26.747  1.00  0.00     0.198 A 
ATOM     87  C   UNL A   1      47.768  29.696  27.148  1.00  0.00     0.198 A 
ATOM     88  F   UNL A   1      46.141  30.964  28.278  1.00  0.00    -0.203 F 
ATOM     89  F   UNL A   1      47.829  26.193  26.236  1.00  0.00    -0.200 F 
ATOM     90  C   UNL A   1      48.209  28.487  26.636  1.00  0.00     0.200 A 
ATOM     91  F   UNL A   1      48.514  30.799  26.997  1.00  0.00    -0.200 F 
ATOM     92  F   UNL A   1      49.394  28.413  26.014  1.00  0.00    -0.200 F 
ENDBRANCH  59  82
ENDBRANCH  33  34
ENDBRANCH  26  28
ENDBRANCH  25  26
ENDBRANCH  24  25
ENDBRANCH  23  24
ENDBRANCH   1  23
TORSDOF 18
ENDMDL
MODEL 3
REMARK VINA RESULT:     -10.7      2.911      7.580
REMARK SMILES CSCC[C@@H](CO)n1ccnc1-c1ccccc1C(=O)OCCOC(=O)c1ccc(-c2c3nc(c(-c4c(F)c(F)c(F)c(F)c4F)c4ccc([nH]4)c(-c4c(F)c(F)c(F)c(F)c4F)c4nc(c(-c5c(F)c(F)c(F)c(F)c5F)c5ccc2[nH]5)C=C4)C=C3)cc1
REMARK SMILES IDX 21 1 19 2 20 3 18 4 13 5 14 6 15 7 17 8 16 9 12 10 8 11 9 12
REMARK SMILES IDX 10 13 11 14 5 15 4 16 3 17 2 18 1 19 6 20 7 21 22 23 23 24
REMARK SMILES IDX 24 25 25 26 26 27 27 28 28 29 89 30 29 31 88 32 30 33 31 34
REMARK SMILES IDX 32 35 82 36 33 37 87 38 81 39 83 40 34 41 86 42 80 43 79 44
REMARK SMILES IDX 35 46 67 47 47 48 66 49 48 50 51 51 65 52 84 53 49 54 50 55
REMARK SMILES IDX 64 57 85 58 52 59 36 60 37 61 45 62 38 63 39 64 43 65 46 66
REMARK SMILES IDX 40 67 41 68 44 69 42 70 68 71 69 72 77 73 70 74 71 75 75 76
REMARK SMILES IDX 78 77 72 78 73 79 76 80 74 81 53 82 54 83 62 84 55 85 56 86
REMARK SMILES IDX 60 87 63 88 57 89 58 90 61 91 59 92
REMARK H PARENT 7 22 83 45 51 56
REMARK Flexibility Score: inf
ROOT
ATOM      1  O   UNL A   1      36.260  21.709  25.105  1.00  0.00    -0.458 OA
ENDROOT
BRANCH   1   2
ATOM      2  C   UNL A   1      35.164  21.392  25.828  1.00  0.00     0.338 C 
ATOM      3  O   UNL A   1      34.935  21.787  26.965  1.00  0.00    -0.246 OA
BRANCH   2   4
ATOM      4  C   UNL A   1      34.221  20.519  25.068  1.00  0.00     0.071 A 
ATOM      5  C   UNL A   1      32.937  20.898  24.629  1.00  0.00     0.032 A 
ATOM      6  C   UNL A   1      32.162  19.951  23.922  1.00  0.00     0.013 A 
ATOM      7  C   UNL A   1      32.653  18.682  23.616  1.00  0.00     0.001 A 
ATOM      8  C   UNL A   1      34.707  19.232  24.747  1.00  0.00     0.016 A 
ATOM      9  C   UNL A   1      33.930  18.323  24.026  1.00  0.00     0.001 A 
BRANCH   5  10
ATOM     10  C   UNL A   1      32.275  22.175  24.923  1.00  0.00     0.141 A 
ATOM     11  N   UNL A   1      32.313  23.380  24.218  1.00  0.00    -0.326 N 
ATOM     12  C   UNL A   1      31.717  24.311  25.052  1.00  0.00     0.108 A 
ATOM     13  C   UNL A   1      31.210  23.616  26.116  1.00  0.00     0.131 A 
ATOM     14  N   UNL A   1      31.511  22.300  25.997  1.00  0.00    -0.237 NA
BRANCH  11  15
ATOM     15  C   UNL A   1      33.031  23.743  22.979  1.00  0.00     0.115 C 
BRANCH  15  16
ATOM     16  C   UNL A   1      32.394  24.836  22.088  1.00  0.00     0.039 C 
BRANCH  16  17
ATOM     17  C   UNL A   1      33.215  26.128  21.918  1.00  0.00     0.071 C 
BRANCH  17  18
ATOM     18  S   UNL A   1      32.584  27.572  22.842  1.00  0.00    -0.165 SA
ATOM     19  C   UNL A   1      33.641  27.575  24.311  1.00  0.00     0.085 C 
ENDBRANCH  17  18
ENDBRANCH  16  17
ENDBRANCH  15  16
BRANCH  15  20
ATOM     20  C   UNL A   1      34.530  24.062  23.226  1.00  0.00     0.181 C 
BRANCH  20  21
ATOM     21  O   UNL A   1      35.414  23.086  22.695  1.00  0.00    -0.394 OA
ATOM     22  H   UNL A   1      36.316  23.442  22.674  1.00  0.00     0.210 HD
ENDBRANCH  20  21
ENDBRANCH  15  20
ENDBRANCH  11  15
ENDBRANCH   5  10
ENDBRANCH   2   4
ENDBRANCH   1   2
BRANCH   1  23
ATOM     23  C   UNL A   1      37.213  22.643  25.643  1.00  0.00     0.275 C 
BRANCH  23  24
ATOM     24  C   UNL A   1      38.539  21.969  25.910  1.00  0.00     0.275 C 
BRANCH  24  25
ATOM     25  O   UNL A   1      39.329  22.837  26.702  1.00  0.00    -0.458 OA
BRANCH  25  26
ATOM     26  C   UNL A   1      40.662  22.695  26.543  1.00  0.00     0.338 C 
ATOM     27  O   UNL A   1      41.306  21.663  26.480  1.00  0.00    -0.246 OA
BRANCH  26  28
ATOM     28  C   UNL A   1      41.275  24.014  26.641  1.00  0.00     0.060 A 
ATOM     29  C   UNL A   1      42.269  24.150  27.612  1.00  0.00     0.016 A 
ATOM     30  C   UNL A   1      40.585  25.105  26.095  1.00  0.00     0.016 A 
ATOM     31  C   UNL A   1      42.374  25.362  28.242  1.00  0.00     0.010 A 
ATOM     32  C   UNL A   1      40.663  26.300  26.748  1.00  0.00     0.010 A 
ATOM     33  C   UNL A   1      41.489  26.377  27.865  1.00  0.00    -0.014 A 
BRANCH  33  34
ATOM     34  C   UNL A   1      41.508  27.598  28.627  1.00  0.00     0.031 A 
ATOM     35  C   UNL A   1      42.652  28.459  28.276  1.00  0.00     0.074 A 
ATOM     36  C   UNL A   1      40.498  27.927  29.449  1.00  0.00     0.049 A 
ATOM     37  N   UNL A   1      43.605  28.860  29.046  1.00  0.00    -0.248 NA
ATOM     38  C   UNL A   1      42.844  28.779  26.851  1.00  0.00     0.031 C 
ATOM     39  C   UNL A   1      39.200  27.265  29.603  1.00  0.00     0.029 A 
ATOM     40  N   UNL A   1      40.380  29.023  30.239  1.00  0.00    -0.354 N 
ATOM     41  C   UNL A   1      44.425  29.636  28.238  1.00  0.00     0.074 A 
ATOM     42  C   UNL A   1      44.020  29.403  26.879  1.00  0.00     0.031 C 
ATOM     43  C   UNL A   1      38.354  28.104  30.243  1.00  0.00     0.029 A 
ATOM     44  C   UNL A   1      39.083  29.300  30.634  1.00  0.00     0.049 A 
ATOM     45  H   UNL A   1      41.150  29.573  30.508  1.00  0.00     0.167 HD
ATOM     46  C   UNL A   1      45.195  30.617  28.772  1.00  0.00     0.037 A 
ATOM     47  C   UNL A   1      38.650  30.482  31.138  1.00  0.00     0.037 A 
ATOM     48  C   UNL A   1      45.410  30.408  30.180  1.00  0.00     0.049 A 
ATOM     49  C   UNL A   1      39.852  31.240  31.588  1.00  0.00     0.074 A 
ATOM     50  C   UNL A   1      45.980  29.392  30.925  1.00  0.00     0.029 A 
ATOM     51  N   UNL A   1      44.667  31.148  31.066  1.00  0.00    -0.354 N 
ATOM     52  N   UNL A   1      40.588  30.907  32.611  1.00  0.00    -0.248 NA
ATOM     53  C   UNL A   1      40.492  32.129  30.628  1.00  0.00     0.031 C 
ATOM     54  C   UNL A   1      45.186  29.302  32.105  1.00  0.00     0.029 A 
ATOM     55  C   UNL A   1      44.209  30.295  32.038  1.00  0.00     0.049 A 
ATOM     56  H   UNL A   1      44.493  32.116  31.013  1.00  0.00     0.167 HD
ATOM     57  C   UNL A   1      41.890  31.176  32.214  1.00  0.00     0.074 A 
ATOM     58  C   UNL A   1      41.761  32.022  31.032  1.00  0.00     0.031 C 
ATOM     59  C   UNL A   1      42.937  30.449  32.704  1.00  0.00     0.037 A 
BRANCH  46  60
ATOM     60  C   UNL A   1      45.409  31.943  28.095  1.00  0.00     0.064 A 
ATOM     61  C   UNL A   1      44.302  32.779  27.872  1.00  0.00     0.173 A 
ATOM     62  C   UNL A   1      46.591  32.292  27.400  1.00  0.00     0.173 A 
ATOM     63  F   UNL A   1      43.124  32.523  28.460  1.00  0.00    -0.203 F 
ATOM     64  C   UNL A   1      44.355  33.840  26.964  1.00  0.00     0.198 A 
ATOM     65  C   UNL A   1      46.657  33.386  26.543  1.00  0.00     0.198 A 
ATOM     66  F   UNL A   1      47.690  31.529  27.426  1.00  0.00    -0.203 F 
ATOM     67  F   UNL A   1      43.241  34.528  26.683  1.00  0.00    -0.200 F 
ATOM     68  C   UNL A   1      45.530  34.139  26.299  1.00  0.00     0.200 A 
ATOM     69  F   UNL A   1      47.800  33.645  25.894  1.00  0.00    -0.200 F 
ATOM     70  F   UNL A   1      45.566  35.116  25.383  1.00  0.00    -0.200 F 
ENDBRANCH  46  60
BRANCH  47  71
ATOM     71  C   UNL A   1      37.333  31.135  30.945  1.00  0.00     0.064 A 
ATOM     72  C   UNL A   1      36.512  31.421  32.049  1.00  0.00     0.173 A 
ATOM     73  C   UNL A   1      36.967  31.736  29.725  1.00  0.00     0.173 A 
ATOM     74  F   UNL A   1      36.809  30.922  33.258  1.00  0.00    -0.203 F 
ATOM     75  C   UNL A   1      35.417  32.284  31.946  1.00  0.00     0.198 A 
ATOM     76  C   UNL A   1      35.865  32.585  29.619  1.00  0.00     0.198 A 
ATOM     77  F   UNL A   1      37.724  31.594  28.626  1.00  0.00    -0.203 F 
ATOM     78  F   UNL A   1      34.703  32.592  33.038  1.00  0.00    -0.200 F 
ATOM     79  C   UNL A   1      35.102  32.874  30.734  1.00  0.00     0.200 A 
ATOM     80  F   UNL A   1      35.590  33.174  28.447  1.00  0.00    -0.200 F 
ATOM     81  F   UNL A   1      34.092  33.751  30.647  1.00  0.00    -0.200 F 
ENDBRANCH  47  71
BRANCH  59  82
ATOM     82  C   UNL A   1      42.670  29.563  33.890  1.00  0.00     0.064 A 
ATOM     83  C   UNL A   1      42.136  28.265  33.801  1.00  0.00     0.173 A 
ATOM     84  C   UNL A   1      43.075  30.007  35.156  1.00  0.00     0.173 A 
ATOM     85  F   UNL A   1      41.831  27.723  32.617  1.00  0.00    -0.203 F 
ATOM     86  C   UNL A   1      41.951  27.480  34.937  1.00  0.00     0.198 A 
ATOM     87  C   UNL A   1      42.930  29.203  36.284  1.00  0.00     0.198 A 
ATOM     88  F   UNL A   1      43.649  31.211  35.294  1.00  0.00    -0.203 F 
ATOM     89  F   UNL A   1      41.408  26.257  34.830  1.00  0.00    -0.200 F 
ATOM     90  C   UNL A   1      42.352  27.948  36.177  1.00  0.00     0.200 A 
ATOM     91  F   UNL A   1      43.368  29.639  37.473  1.00  0.00    -0.200 F 
ATOM     92  F   UNL A   1      42.205  27.181  37.266  1.00  0.00    -0.200 F 
ENDBRANCH  59  82
ENDBRANCH  33  34
ENDBRANCH  26  28
ENDBRANCH  25  26
ENDBRANCH  24  25
ENDBRANCH  23  24
ENDBRANCH   1  23
TORSDOF 18
ENDMDL
