MODEL 1
REMARK VINA RESULT:     -12.1      0.000      0.000
REMARK SMILES CCc1cc(OC(F)(F)F)cc2c1O[C@@H](C(F)(F)F)C(C(=O)OCCOC(=O)c1ccc(-c3c4nc(c(-c5c(F)c(F)c(F)c(F)c5F)c5ccc([nH]5)c(-c5c(F)c(F)c(F)c(F)c5F)c5nc(c(-c6c(F)c(F)c(F)c(F)c6F)c6ccc3[nH]6)C=C5)C=C4)cc1)=C2
REMARK SMILES IDX 24 1 23 2 21 3 22 4 20 5 3 6 4 7 13 8 5 9 12 10 14 11 11 12
REMARK SMILES IDX 92 13 15 14 2 15 1 16 6 17 7 18 8 19 9 20 10 21 16 22 17 23
REMARK SMILES IDX 18 24 19 25 25 26 26 27 27 28 28 29 29 30 30 31 91 32 31 33
REMARK SMILES IDX 90 34 32 35 33 36 34 37 84 38 35 39 89 40 83 41 85 42 36 43
REMARK SMILES IDX 88 44 82 45 81 46 37 48 69 49 49 50 68 51 50 52 53 53 67 54
REMARK SMILES IDX 86 55 51 56 52 57 66 59 87 60 54 61 38 62 39 63 47 64 40 65
REMARK SMILES IDX 41 66 45 67 48 68 42 69 43 70 46 71 44 72 70 73 71 74 79 75
REMARK SMILES IDX 72 76 73 77 77 78 80 79 74 80 75 81 78 82 76 83 55 84 56 85
REMARK SMILES IDX 64 86 57 87 58 88 62 89 65 90 59 91 60 92 63 93 61 94
REMARK H PARENT 85 47 53 58
REMARK Flexibility Score: inf
ROOT
ATOM      1  C   UNL A   1      31.352  30.093  25.722  1.00  0.00     0.275 C 
ENDROOT
BRANCH   1   2
ATOM      2  O   UNL A   1      32.374  29.074  25.768  1.00  0.00    -0.459 OA
BRANCH   2   3
ATOM      3  C   UNL A   1      32.019  27.909  26.365  1.00  0.00     0.338 C 
ATOM      4  O   UNL A   1      31.317  27.810  27.357  1.00  0.00    -0.246 OA
BRANCH   3   5
ATOM      5  C   UNL A   1      32.533  26.732  25.628  1.00  0.00     0.087 C 
ATOM      6  C   UNL A   1      33.793  23.406  23.419  1.00  0.00    -0.002 A 
ATOM      7  C   UNL A   1      35.097  22.918  23.595  1.00  0.00     0.054 A 
ATOM      8  C   UNL A   1      33.346  24.449  24.243  1.00  0.00     0.131 A 
ATOM      9  C   UNL A   1      35.937  23.459  24.572  1.00  0.00     0.130 A 
ATOM     10  C   UNL A   1      34.199  25.052  25.175  1.00  0.00     0.021 A 
ATOM     11  O   UNL A   1      32.029  24.801  24.159  1.00  0.00    -0.475 OA
ATOM     12  C   UNL A   1      35.494  24.548  25.334  1.00  0.00     0.058 A 
ATOM     13  C   UNL A   1      33.713  26.180  25.968  1.00  0.00     0.027 C 
ATOM     14  C   UNL A   1      31.714  26.182  24.474  1.00  0.00     0.316 C 
BRANCH   6  15
ATOM     15  C   UNL A   1      32.922  22.826  22.328  1.00  0.00     0.036 C 
ATOM     16  C   UNL A   1      32.169  21.581  22.766  1.00  0.00     0.009 C 
ENDBRANCH   6  15
BRANCH   9  17
ATOM     17  O   UNL A   1      37.204  23.032  24.858  1.00  0.00    -0.406 OA
BRANCH  17  18
ATOM     18  C   UNL A   1      37.351  21.695  25.313  1.00  0.00     0.573 C 
ATOM     19  F   UNL A   1      38.483  21.538  26.032  1.00  0.00    -0.132 F 
ATOM     20  F   UNL A   1      36.289  21.321  26.059  1.00  0.00    -0.132 F 
ATOM     21  F   UNL A   1      37.418  20.876  24.241  1.00  0.00    -0.132 F 
ENDBRANCH  17  18
ENDBRANCH   9  17
BRANCH  14  22
ATOM     22  C   UNL A   1      30.178  26.288  24.546  1.00  0.00     0.430 C 
ATOM     23  F   UNL A   1      29.743  27.532  24.245  1.00  0.00    -0.167 F 
ATOM     24  F   UNL A   1      29.604  25.474  23.617  1.00  0.00    -0.167 F 
ATOM     25  F   UNL A   1      29.679  25.921  25.744  1.00  0.00    -0.167 F 
ENDBRANCH  14  22
ENDBRANCH   3   5
ENDBRANCH   2   3
ENDBRANCH   1   2
BRANCH   1  26
ATOM     26  C   UNL A   1      31.750  31.341  26.515  1.00  0.00     0.275 C 
BRANCH  26  27
ATOM     27  O   UNL A   1      33.181  31.489  26.582  1.00  0.00    -0.458 OA
BRANCH  27  28
ATOM     28  C   UNL A   1      33.610  32.448  27.436  1.00  0.00     0.338 C 
ATOM     29  O   UNL A   1      33.007  33.455  27.772  1.00  0.00    -0.246 OA
BRANCH  28  30
ATOM     30  C   UNL A   1      34.872  32.029  28.084  1.00  0.00     0.060 A 
ATOM     31  C   UNL A   1      34.883  30.760  28.668  1.00  0.00     0.016 A 
ATOM     32  C   UNL A   1      36.012  32.836  28.134  1.00  0.00     0.016 A 
ATOM     33  C   UNL A   1      36.048  30.263  29.249  1.00  0.00     0.010 A 
ATOM     34  C   UNL A   1      37.172  32.354  28.758  1.00  0.00     0.010 A 
ATOM     35  C   UNL A   1      37.198  31.061  29.308  1.00  0.00    -0.014 A 
BRANCH  35  36
ATOM     36  C   UNL A   1      38.389  30.532  30.015  1.00  0.00     0.031 A 
ATOM     37  C   UNL A   1      38.656  30.957  31.428  1.00  0.00     0.074 A 
ATOM     38  C   UNL A   1      39.174  29.611  29.429  1.00  0.00     0.049 A 
ATOM     39  N   UNL A   1      39.561  30.523  32.269  1.00  0.00    -0.248 NA
ATOM     40  C   UNL A   1      37.775  32.000  31.973  1.00  0.00     0.031 C 
ATOM     41  C   UNL A   1      38.995  29.084  28.078  1.00  0.00     0.029 A 
ATOM     42  N   UNL A   1      40.274  28.944  29.909  1.00  0.00    -0.354 N 
ATOM     43  C   UNL A   1      39.342  31.216  33.450  1.00  0.00     0.074 A 
ATOM     44  C   UNL A   1      38.240  32.126  33.207  1.00  0.00     0.031 C 
ATOM     45  C   UNL A   1      39.956  28.176  27.835  1.00  0.00     0.029 A 
ATOM     46  C   UNL A   1      40.823  28.069  29.007  1.00  0.00     0.049 A 
ATOM     47  H   UNL A   1      40.635  29.082  30.815  1.00  0.00     0.167 HD
ATOM     48  C   UNL A   1      39.994  31.099  34.631  1.00  0.00     0.037 A 
ATOM     49  C   UNL A   1      41.905  27.273  29.116  1.00  0.00     0.037 A 
ATOM     50  C   UNL A   1      41.117  30.229  34.863  1.00  0.00     0.049 A 
ATOM     51  C   UNL A   1      42.671  27.235  30.413  1.00  0.00     0.074 A 
ATOM     52  C   UNL A   1      41.847  30.052  36.025  1.00  0.00     0.029 A 
ATOM     53  N   UNL A   1      41.690  29.406  33.904  1.00  0.00    -0.354 N 
ATOM     54  N   UNL A   1      42.428  27.857  31.542  1.00  0.00    -0.248 NA
ATOM     55  C   UNL A   1      43.860  26.371  30.452  1.00  0.00     0.031 C 
ATOM     56  C   UNL A   1      42.894  29.161  35.756  1.00  0.00     0.029 A 
ATOM     57  C   UNL A   1      42.782  28.740  34.441  1.00  0.00     0.049 A 
ATOM     58  H   UNL A   1      41.367  29.308  32.979  1.00  0.00     0.167 HD
ATOM     59  C   UNL A   1      43.412  27.439  32.430  1.00  0.00     0.074 A 
ATOM     60  C   UNL A   1      44.244  26.494  31.715  1.00  0.00     0.031 C 
ATOM     61  C   UNL A   1      43.608  27.804  33.721  1.00  0.00     0.037 A 
BRANCH  48  62
ATOM     62  C   UNL A   1      39.517  31.962  35.761  1.00  0.00     0.064 A 
ATOM     63  C   UNL A   1      40.091  33.217  36.016  1.00  0.00     0.173 A 
ATOM     64  C   UNL A   1      38.461  31.541  36.582  1.00  0.00     0.173 A 
ATOM     65  F   UNL A   1      41.115  33.656  35.269  1.00  0.00    -0.203 F 
ATOM     66  C   UNL A   1      39.638  34.009  37.067  1.00  0.00     0.198 A 
ATOM     67  C   UNL A   1      37.994  32.347  37.616  1.00  0.00     0.198 A 
ATOM     68  F   UNL A   1      37.878  30.351  36.378  1.00  0.00    -0.203 F 
ATOM     69  F   UNL A   1      40.228  35.185  37.321  1.00  0.00    -0.200 F 
ATOM     70  C   UNL A   1      38.586  33.578  37.862  1.00  0.00     0.200 A 
ATOM     71  F   UNL A   1      36.972  31.932  38.378  1.00  0.00    -0.200 F 
ATOM     72  F   UNL A   1      38.149  34.342  38.873  1.00  0.00    -0.200 F 
ENDBRANCH  48  62
BRANCH  49  73
ATOM     73  C   UNL A   1      42.342  26.446  27.961  1.00  0.00     0.064 A 
ATOM     74  C   UNL A   1      43.287  26.924  27.042  1.00  0.00     0.173 A 
ATOM     75  C   UNL A   1      41.784  25.182  27.727  1.00  0.00     0.173 A 
ATOM     76  F   UNL A   1      43.824  28.142  27.204  1.00  0.00    -0.203 F 
ATOM     77  C   UNL A   1      43.638  26.177  25.918  1.00  0.00     0.198 A 
ATOM     78  C   UNL A   1      42.157  24.424  26.619  1.00  0.00     0.198 A 
ATOM     79  F   UNL A   1      40.868  24.685  28.571  1.00  0.00    -0.203 F 
ATOM     80  F   UNL A   1      44.498  26.682  25.023  1.00  0.00    -0.200 F 
ATOM     81  C   UNL A   1      43.076  24.926  25.711  1.00  0.00     0.200 A 
ATOM     82  F   UNL A   1      41.613  23.214  26.423  1.00  0.00    -0.200 F 
ATOM     83  F   UNL A   1      43.407  24.213  24.625  1.00  0.00    -0.200 F 
ENDBRANCH  49  73
BRANCH  61  84
ATOM     84  C   UNL A   1      44.752  27.157  34.452  1.00  0.00     0.064 A 
ATOM     85  C   UNL A   1      44.596  25.944  35.140  1.00  0.00     0.173 A 
ATOM     86  C   UNL A   1      46.022  27.753  34.456  1.00  0.00     0.173 A 
ATOM     87  F   UNL A   1      43.399  25.338  35.180  1.00  0.00    -0.203 F 
ATOM     88  C   UNL A   1      45.658  25.374  35.837  1.00  0.00     0.198 A 
ATOM     89  C   UNL A   1      47.090  27.162  35.126  1.00  0.00     0.198 A 
ATOM     90  F   UNL A   1      46.230  28.908  33.807  1.00  0.00    -0.203 F 
ATOM     91  F   UNL A   1      45.469  24.247  36.538  1.00  0.00    -0.200 F 
ATOM     92  C   UNL A   1      46.905  25.980  35.826  1.00  0.00     0.200 A 
ATOM     93  F   UNL A   1      48.298  27.742  35.102  1.00  0.00    -0.200 F 
ATOM     94  F   UNL A   1      47.926  25.430  36.498  1.00  0.00    -0.200 F 
ENDBRANCH  61  84
ENDBRANCH  35  36
ENDBRANCH  28  30
ENDBRANCH  27  28
ENDBRANCH  26  27
ENDBRANCH   1  26
TORSDOF 15
ENDMDL
MODEL 2
REMARK VINA RESULT:     -12.0      0.279      1.978
REMARK SMILES CCc1cc(OC(F)(F)F)cc2c1O[C@@H](C(F)(F)F)C(C(=O)OCCOC(=O)c1ccc(-c3c4nc(c(-c5c(F)c(F)c(F)c(F)c5F)c5ccc([nH]5)c(-c5c(F)c(F)c(F)c(F)c5F)c5nc(c(-c6c(F)c(F)c(F)c(F)c6F)c6ccc3[nH]6)C=C5)C=C4)cc1)=C2
REMARK SMILES IDX 24 1 23 2 21 3 22 4 20 5 3 6 4 7 13 8 5 9 12 10 14 11 11 12
REMARK SMILES IDX 92 13 15 14 2 15 1 16 6 17 7 18 8 19 9 20 10 21 16 22 17 23
REMARK SMILES IDX 18 24 19 25 25 26 26 27 27 28 28 29 29 30 30 31 91 32 31 33
REMARK SMILES IDX 90 34 32 35 33 36 34 37 84 38 35 39 89 40 83 41 85 42 36 43
REMARK SMILES IDX 88 44 82 45 81 46 37 48 69 49 49 50 68 51 50 52 53 53 67 54
REMARK SMILES IDX 86 55 51 56 52 57 66 59 87 60 54 61 38 62 39 63 47 64 40 65
REMARK SMILES IDX 41 66 45 67 48 68 42 69 43 70 46 71 44 72 70 73 71 74 79 75
REMARK SMILES IDX 72 76 73 77 77 78 80 79 74 80 75 81 78 82 76 83 55 84 56 85
REMARK SMILES IDX 64 86 57 87 58 88 62 89 65 90 59 91 60 92 63 93 61 94
REMARK H PARENT 85 47 53 58
REMARK Flexibility Score: inf
ROOT
ATOM      1  C   UNL A   1      31.403  30.075  25.381  1.00  0.00     0.275 C 
ENDROOT
BRANCH   1   2
ATOM      2  O   UNL A   1      32.418  29.049  25.449  1.00  0.00    -0.459 OA
BRANCH   2   3
ATOM      3  C   UNL A   1      32.070  27.918  26.114  1.00  0.00     0.338 C 
ATOM      4  O   UNL A   1      31.403  27.878  27.133  1.00  0.00    -0.246 OA
BRANCH   3   5
ATOM      5  C   UNL A   1      32.546  26.701  25.419  1.00  0.00     0.087 C 
ATOM      6  C   UNL A   1      33.691  23.256  23.332  1.00  0.00    -0.002 A 
ATOM      7  C   UNL A   1      34.991  22.754  23.496  1.00  0.00     0.054 A 
ATOM      8  C   UNL A   1      33.283  24.343  24.118  1.00  0.00     0.131 A 
ATOM      9  C   UNL A   1      35.865  23.324  24.424  1.00  0.00     0.130 A 
ATOM     10  C   UNL A   1      34.171  24.973  24.999  1.00  0.00     0.021 A 
ATOM     11  O   UNL A   1      31.970  24.715  24.053  1.00  0.00    -0.475 OA
ATOM     12  C   UNL A   1      35.461  24.454  25.148  1.00  0.00     0.058 A 
ATOM     13  C   UNL A   1      33.724  26.144  25.752  1.00  0.00     0.027 C 
ATOM     14  C   UNL A   1      31.687  26.114  24.313  1.00  0.00     0.316 C 
BRANCH   6  15
ATOM     15  C   UNL A   1      32.781  22.643  22.291  1.00  0.00     0.036 C 
ATOM     16  C   UNL A   1      32.153  21.336  22.745  1.00  0.00     0.009 C 
ENDBRANCH   6  15
BRANCH   9  17
ATOM     17  O   UNL A   1      37.132  22.888  24.697  1.00  0.00    -0.406 OA
BRANCH  17  18
ATOM     18  C   UNL A   1      37.261  21.629  25.343  1.00  0.00     0.573 C 
ATOM     19  F   UNL A   1      36.194  21.363  26.126  1.00  0.00    -0.132 F 
ATOM     20  F   UNL A   1      37.413  20.638  24.438  1.00  0.00    -0.132 F 
ATOM     21  F   UNL A   1      38.361  21.653  26.126  1.00  0.00    -0.132 F 
ENDBRANCH  17  18
ENDBRANCH   9  17
BRANCH  14  22
ATOM     22  C   UNL A   1      30.155  26.250  24.420  1.00  0.00     0.430 C 
ATOM     23  F   UNL A   1      29.738  27.504  24.131  1.00  0.00    -0.167 F 
ATOM     24  F   UNL A   1      29.544  25.450  23.502  1.00  0.00    -0.167 F 
ATOM     25  F   UNL A   1      29.676  25.891  25.628  1.00  0.00    -0.167 F 
ENDBRANCH  14  22
ENDBRANCH   3   5
ENDBRANCH   2   3
ENDBRANCH   1   2
BRANCH   1  26
ATOM     26  C   UNL A   1      31.692  31.231  26.343  1.00  0.00     0.275 C 
BRANCH  26  27
ATOM     27  O   UNL A   1      32.867  30.977  27.135  1.00  0.00    -0.458 OA
BRANCH  27  28
ATOM     28  C   UNL A   1      33.536  32.088  27.526  1.00  0.00     0.338 C 
ATOM     29  O   UNL A   1      33.115  33.233  27.531  1.00  0.00    -0.246 OA
BRANCH  28  30
ATOM     30  C   UNL A   1      34.828  31.717  28.142  1.00  0.00     0.060 A 
ATOM     31  C   UNL A   1      34.898  30.455  28.738  1.00  0.00     0.016 A 
ATOM     32  C   UNL A   1      35.941  32.562  28.155  1.00  0.00     0.016 A 
ATOM     33  C   UNL A   1      36.094  30.003  29.291  1.00  0.00     0.010 A 
ATOM     34  C   UNL A   1      37.134  32.125  28.751  1.00  0.00     0.010 A 
ATOM     35  C   UNL A   1      37.218  30.839  29.311  1.00  0.00    -0.014 A 
BRANCH  35  36
ATOM     36  C   UNL A   1      38.444  30.357  29.990  1.00  0.00     0.031 A 
ATOM     37  C   UNL A   1      38.741  30.815  31.386  1.00  0.00     0.074 A 
ATOM     38  C   UNL A   1      39.237  29.448  29.396  1.00  0.00     0.049 A 
ATOM     39  N   UNL A   1      39.684  30.422  32.206  1.00  0.00    -0.248 NA
ATOM     40  C   UNL A   1      37.848  31.843  31.940  1.00  0.00     0.031 C 
ATOM     41  C   UNL A   1      39.032  28.892  28.061  1.00  0.00     0.029 A 
ATOM     42  N   UNL A   1      40.370  28.822  29.854  1.00  0.00    -0.354 N 
ATOM     43  C   UNL A   1      39.481  31.131  33.381  1.00  0.00     0.074 A 
ATOM     44  C   UNL A   1      38.347  32.005  33.157  1.00  0.00     0.031 C 
ATOM     45  C   UNL A   1      40.011  28.007  27.804  1.00  0.00     0.029 A 
ATOM     46  C   UNL A   1      40.917  27.946  28.950  1.00  0.00     0.049 A 
ATOM     47  H   UNL A   1      40.754  28.986  30.746  1.00  0.00     0.167 HD
ATOM     48  C   UNL A   1      40.172  31.053  34.544  1.00  0.00     0.037 A 
ATOM     49  C   UNL A   1      42.024  27.184  29.039  1.00  0.00     0.037 A 
ATOM     50  C   UNL A   1      41.326  30.220  34.755  1.00  0.00     0.049 A 
ATOM     51  C   UNL A   1      42.830  27.191  30.313  1.00  0.00     0.074 A 
ATOM     52  C   UNL A   1      42.096  30.085  35.898  1.00  0.00     0.029 A 
ATOM     53  N   UNL A   1      41.893  29.397  33.794  1.00  0.00    -0.354 N 
ATOM     54  N   UNL A   1      42.603  27.826  31.438  1.00  0.00    -0.248 NA
ATOM     55  C   UNL A   1      44.044  26.362  30.330  1.00  0.00     0.031 C 
ATOM     56  C   UNL A   1      43.160  29.220  35.612  1.00  0.00     0.029 A 
ATOM     57  C   UNL A   1      43.020  28.772  34.308  1.00  0.00     0.049 A 
ATOM     58  H   UNL A   1      41.545  29.272  32.881  1.00  0.00     0.167 HD
ATOM     59  C   UNL A   1      43.626  27.452  32.302  1.00  0.00     0.074 A 
ATOM     60  C   UNL A   1      44.462  26.518  31.578  1.00  0.00     0.031 C 
ATOM     61  C   UNL A   1      43.850  27.847  33.580  1.00  0.00     0.037 A 
BRANCH  48  62
ATOM     62  C   UNL A   1      39.705  31.923  35.673  1.00  0.00     0.064 A 
ATOM     63  C   UNL A   1      38.677  31.513  36.537  1.00  0.00     0.173 A 
ATOM     64  C   UNL A   1      40.308  33.167  35.910  1.00  0.00     0.173 A 
ATOM     65  F   UNL A   1      38.059  30.339  36.342  1.00  0.00    -0.203 F 
ATOM     66  C   UNL A   1      38.255  32.330  37.582  1.00  0.00     0.198 A 
ATOM     67  C   UNL A   1      39.900  33.969  36.971  1.00  0.00     0.198 A 
ATOM     68  F   UNL A   1      41.296  33.602  35.114  1.00  0.00    -0.203 F 
ATOM     69  F   UNL A   1      37.243  31.939  38.369  1.00  0.00    -0.200 F 
ATOM     70  C   UNL A   1      38.870  33.553  37.803  1.00  0.00     0.200 A 
ATOM     71  F   UNL A   1      40.501  35.148  37.188  1.00  0.00    -0.200 F 
ATOM     72  F   UNL A   1      38.464  34.338  38.811  1.00  0.00    -0.200 F 
ENDBRANCH  48  62
BRANCH  49  73
ATOM     73  C   UNL A   1      42.449  26.349  27.886  1.00  0.00     0.064 A 
ATOM     74  C   UNL A   1      41.982  25.036  27.728  1.00  0.00     0.173 A 
ATOM     75  C   UNL A   1      43.370  26.832  26.946  1.00  0.00     0.173 A 
ATOM     76  F   UNL A   1      41.126  24.517  28.620  1.00  0.00    -0.203 F 
ATOM     77  C   UNL A   1      42.441  24.230  26.687  1.00  0.00     0.198 A 
ATOM     78  C   UNL A   1      43.807  26.035  25.890  1.00  0.00     0.198 A 
ATOM     79  F   UNL A   1      43.855  28.078  27.058  1.00  0.00    -0.203 F 
ATOM     80  F   UNL A   1      42.026  22.959  26.594  1.00  0.00    -0.200 F 
ATOM     81  C   UNL A   1      43.349  24.732  25.767  1.00  0.00     0.200 A 
ATOM     82  F   UNL A   1      44.683  26.525  25.001  1.00  0.00    -0.200 F 
ATOM     83  F   UNL A   1      43.798  23.953  24.773  1.00  0.00    -0.200 F 
ENDBRANCH  49  73
BRANCH  61  84
ATOM     84  C   UNL A   1      45.034  27.246  34.286  1.00  0.00     0.064 A 
ATOM     85  C   UNL A   1      46.296  27.860  34.266  1.00  0.00     0.173 A 
ATOM     86  C   UNL A   1      44.902  26.045  35.000  1.00  0.00     0.173 A 
ATOM     87  F   UNL A   1      46.480  29.002  33.586  1.00  0.00    -0.203 F 
ATOM     88  C   UNL A   1      47.388  27.274  34.901  1.00  0.00     0.198 A 
ATOM     89  C   UNL A   1      45.989  25.480  35.662  1.00  0.00     0.198 A 
ATOM     90  F   UNL A   1      43.717  25.420  35.061  1.00  0.00    -0.203 F 
ATOM     91  F   UNL A   1      48.596  27.848  34.815  1.00  0.00    -0.200 F 
ATOM     92  C   UNL A   1      47.234  26.088  35.602  1.00  0.00     0.200 A 
ATOM     93  F   UNL A   1      45.835  24.342  36.352  1.00  0.00    -0.200 F 
ATOM     94  F   UNL A   1      48.287  25.526  36.211  1.00  0.00    -0.200 F 
ENDBRANCH  61  84
ENDBRANCH  35  36
ENDBRANCH  28  30
ENDBRANCH  27  28
ENDBRANCH  26  27
ENDBRANCH   1  26
TORSDOF 15
ENDMDL
MODEL 3
REMARK VINA RESULT:     -11.9      4.165      9.772
REMARK SMILES CCc1cc(OC(F)(F)F)cc2c1O[C@@H](C(F)(F)F)C(C(=O)OCCOC(=O)c1ccc(-c3c4nc(c(-c5c(F)c(F)c(F)c(F)c5F)c5ccc([nH]5)c(-c5c(F)c(F)c(F)c(F)c5F)c5nc(c(-c6c(F)c(F)c(F)c(F)c6F)c6ccc3[nH]6)C=C5)C=C4)cc1)=C2
REMARK SMILES IDX 24 1 23 2 21 3 22 4 20 5 3 6 4 7 13 8 5 9 12 10 14 11 11 12
REMARK SMILES IDX 92 13 15 14 2 15 1 16 6 17 7 18 8 19 9 20 10 21 16 22 17 23
REMARK SMILES IDX 18 24 19 25 25 26 26 27 27 28 28 29 29 30 30 31 91 32 31 33
REMARK SMILES IDX 90 34 32 35 33 36 34 37 84 38 35 39 89 40 83 41 85 42 36 43
REMARK SMILES IDX 88 44 82 45 81 46 37 48 69 49 49 50 68 51 50 52 53 53 67 54
REMARK SMILES IDX 86 55 51 56 52 57 66 59 87 60 54 61 38 62 39 63 47 64 40 65
REMARK SMILES IDX 41 66 45 67 48 68 42 69 43 70 46 71 44 72 70 73 71 74 79 75
REMARK SMILES IDX 72 76 73 77 77 78 80 79 74 80 75 81 78 82 76 83 55 84 56 85
REMARK SMILES IDX 64 86 57 87 58 88 62 89 65 90 59 91 60 92 63 93 61 94
REMARK H PARENT 85 47 53 58
REMARK Flexibility Score: inf
ROOT
ATOM      1  C   UNL A   1      35.652  20.990  24.733  1.00  0.00     0.275 C 
ENDROOT
BRANCH   1   2
ATOM      2  O   UNL A   1      35.372  22.391  24.943  1.00  0.00    -0.459 OA
BRANCH   2   3
ATOM      3  C   UNL A   1      34.303  22.667  25.733  1.00  0.00     0.338 C 
ATOM      4  O   UNL A   1      33.971  22.029  26.717  1.00  0.00    -0.246 OA
BRANCH   3   5
ATOM      5  C   UNL A   1      33.600  23.896  25.301  1.00  0.00     0.087 C 
ATOM      6  C   UNL A   1      31.462  27.237  23.959  1.00  0.00    -0.002 A 
ATOM      7  C   UNL A   1      31.769  28.504  24.479  1.00  0.00     0.054 A 
ATOM      8  C   UNL A   1      32.257  26.144  24.332  1.00  0.00     0.131 A 
ATOM      9  C   UNL A   1      32.845  28.675  25.354  1.00  0.00     0.130 A 
ATOM     10  C   UNL A   1      33.292  26.285  25.264  1.00  0.00     0.021 A 
ATOM     11  O   UNL A   1      32.037  24.955  23.696  1.00  0.00    -0.475 OA
ATOM     12  C   UNL A   1      33.581  27.557  25.768  1.00  0.00     0.058 A 
ATOM     13  C   UNL A   1      34.054  25.106  25.675  1.00  0.00     0.027 C 
ATOM     14  C   UNL A   1      32.349  23.756  24.452  1.00  0.00     0.316 C 
BRANCH   6  15
ATOM     15  C   UNL A   1      30.267  27.076  23.046  1.00  0.00     0.036 C 
ATOM     16  C   UNL A   1      29.292  28.239  23.132  1.00  0.00     0.009 C 
ENDBRANCH   6  15
BRANCH   9  17
ATOM     17  O   UNL A   1      33.259  29.866  25.882  1.00  0.00    -0.406 OA
BRANCH  17  18
ATOM     18  C   UNL A   1      32.399  30.493  26.824  1.00  0.00     0.573 C 
ATOM     19  F   UNL A   1      31.468  31.256  26.212  1.00  0.00    -0.132 F 
ATOM     20  F   UNL A   1      31.787  29.574  27.602  1.00  0.00    -0.132 F 
ATOM     21  F   UNL A   1      33.139  31.292  27.623  1.00  0.00    -0.132 F 
ENDBRANCH  17  18
ENDBRANCH   9  17
BRANCH  14  22
ATOM     22  C   UNL A   1      32.253  22.570  23.473  1.00  0.00     0.430 C 
ATOM     23  F   UNL A   1      32.192  21.384  24.121  1.00  0.00    -0.167 F 
ATOM     24  F   UNL A   1      31.100  22.643  22.752  1.00  0.00    -0.167 F 
ATOM     25  F   UNL A   1      33.266  22.536  22.582  1.00  0.00    -0.167 F 
ENDBRANCH  14  22
ENDBRANCH   3   5
ENDBRANCH   2   3
ENDBRANCH   1   2
BRANCH   1  26
ATOM     26  C   UNL A   1      37.122  20.654  24.999  1.00  0.00     0.275 C 
BRANCH  26  27
ATOM     27  O   UNL A   1      37.765  21.680  25.778  1.00  0.00    -0.458 OA
BRANCH  27  28
ATOM     28  C   UNL A   1      39.039  21.397  26.142  1.00  0.00     0.338 C 
ATOM     29  O   UNL A   1      39.634  20.346  25.971  1.00  0.00    -0.246 OA
BRANCH  28  30
ATOM     30  C   UNL A   1      39.715  22.619  26.630  1.00  0.00     0.060 A 
ATOM     31  C   UNL A   1      39.309  23.828  26.059  1.00  0.00     0.016 A 
ATOM     32  C   UNL A   1      40.716  22.603  27.605  1.00  0.00     0.016 A 
ATOM     33  C   UNL A   1      39.853  25.033  26.501  1.00  0.00     0.010 A 
ATOM     34  C   UNL A   1      41.296  23.812  28.019  1.00  0.00     0.010 A 
ATOM     35  C   UNL A   1      40.858  25.031  27.477  1.00  0.00    -0.014 A 
BRANCH  35  36
ATOM     36  C   UNL A   1      41.476  26.325  27.854  1.00  0.00     0.031 A 
ATOM     37  C   UNL A   1      42.881  26.623  27.426  1.00  0.00     0.074 A 
ATOM     38  C   UNL A   1      40.755  27.261  28.498  1.00  0.00     0.049 A 
ATOM     39  N   UNL A   1      43.566  27.734  27.539  1.00  0.00    -0.248 NA
ATOM     40  C   UNL A   1      43.610  25.528  26.769  1.00  0.00     0.031 C 
ATOM     41  C   UNL A   1      39.368  27.109  28.929  1.00  0.00     0.029 A 
ATOM     42  N   UNL A   1      41.094  28.534  28.886  1.00  0.00    -0.354 N 
ATOM     43  C   UNL A   1      44.792  27.483  26.941  1.00  0.00     0.074 A 
ATOM     44  C   UNL A   1      44.772  26.103  26.499  1.00  0.00     0.031 C 
ATOM     45  C   UNL A   1      38.972  28.247  29.527  1.00  0.00     0.029 A 
ATOM     46  C   UNL A   1      40.082  29.198  29.531  1.00  0.00     0.049 A 
ATOM     47  H   UNL A   1      41.979  28.931  28.717  1.00  0.00     0.167 HD
ATOM     48  C   UNL A   1      45.837  28.329  26.769  1.00  0.00     0.037 A 
ATOM     49  C   UNL A   1      40.057  30.434  30.067  1.00  0.00     0.037 A 
ATOM     50  C   UNL A   1      45.878  29.686  27.248  1.00  0.00     0.049 A 
ATOM     51  C   UNL A   1      41.271  31.320  29.946  1.00  0.00     0.074 A 
ATOM     52  C   UNL A   1      46.899  30.613  27.129  1.00  0.00     0.029 A 
ATOM     53  N   UNL A   1      44.860  30.304  27.959  1.00  0.00    -0.354 N 
ATOM     54  N   UNL A   1      42.409  31.093  29.335  1.00  0.00    -0.248 NA
ATOM     55  C   UNL A   1      41.188  32.644  30.581  1.00  0.00     0.031 C 
ATOM     56  C   UNL A   1      46.519  31.775  27.813  1.00  0.00     0.029 A 
ATOM     57  C   UNL A   1      45.240  31.591  28.310  1.00  0.00     0.049 A 
ATOM     58  H   UNL A   1      43.994  29.890  28.180  1.00  0.00     0.167 HD
ATOM     59  C   UNL A   1      43.164  32.251  29.489  1.00  0.00     0.074 A 
ATOM     60  C   UNL A   1      42.345  33.186  30.231  1.00  0.00     0.031 C 
ATOM     61  C   UNL A   1      44.420  32.514  29.053  1.00  0.00     0.037 A 
BRANCH  48  62
ATOM     62  C   UNL A   1      47.039  27.790  26.053  1.00  0.00     0.064 A 
ATOM     63  C   UNL A   1      47.108  27.771  24.651  1.00  0.00     0.173 A 
ATOM     64  C   UNL A   1      48.143  27.312  26.774  1.00  0.00     0.173 A 
ATOM     65  F   UNL A   1      46.071  28.203  23.917  1.00  0.00    -0.203 F 
ATOM     66  C   UNL A   1      48.231  27.270  23.998  1.00  0.00     0.198 A 
ATOM     67  C   UNL A   1      49.274  26.835  26.117  1.00  0.00     0.198 A 
ATOM     68  F   UNL A   1      48.126  27.311  28.114  1.00  0.00    -0.203 F 
ATOM     69  F   UNL A   1      48.259  27.220  22.659  1.00  0.00    -0.200 F 
ATOM     70  C   UNL A   1      49.315  26.808  24.730  1.00  0.00     0.200 A 
ATOM     71  F   UNL A   1      50.323  26.397  26.826  1.00  0.00    -0.200 F 
ATOM     72  F   UNL A   1      50.396  26.328  24.101  1.00  0.00    -0.200 F 
ENDBRANCH  48  62
BRANCH  49  73
ATOM     73  C   UNL A   1      38.844  30.915  30.778  1.00  0.00     0.064 A 
ATOM     74  C   UNL A   1      38.705  30.760  32.164  1.00  0.00     0.173 A 
ATOM     75  C   UNL A   1      37.778  31.494  30.075  1.00  0.00     0.173 A 
ATOM     76  F   UNL A   1      39.684  30.181  32.875  1.00  0.00    -0.203 F 
ATOM     77  C   UNL A   1      37.534  31.144  32.817  1.00  0.00     0.198 A 
ATOM     78  C   UNL A   1      36.620  31.902  30.732  1.00  0.00     0.198 A 
ATOM     79  F   UNL A   1      37.857  31.654  28.746  1.00  0.00    -0.203 F 
ATOM     80  F   UNL A   1      37.403  30.929  34.133  1.00  0.00    -0.200 F 
ATOM     81  C   UNL A   1      36.495  31.718  32.101  1.00  0.00     0.200 A 
ATOM     82  F   UNL A   1      35.618  32.460  30.037  1.00  0.00    -0.200 F 
ATOM     83  F   UNL A   1      35.366  32.077  32.727  1.00  0.00    -0.200 F 
ENDBRANCH  49  73
BRANCH  61  84
ATOM     84  C   UNL A   1      44.976  33.881  29.344  1.00  0.00     0.064 A 
ATOM     85  C   UNL A   1      45.722  34.143  30.504  1.00  0.00     0.173 A 
ATOM     86  C   UNL A   1      44.767  34.940  28.447  1.00  0.00     0.173 A 
ATOM     87  F   UNL A   1      45.940  33.169  31.401  1.00  0.00    -0.203 F 
ATOM     88  C   UNL A   1      46.204  35.422  30.772  1.00  0.00     0.198 A 
ATOM     89  C   UNL A   1      45.279  36.210  28.704  1.00  0.00     0.198 A 
ATOM     90  F   UNL A   1      44.068  34.745  27.319  1.00  0.00    -0.203 F 
ATOM     91  F   UNL A   1      46.861  35.661  31.916  1.00  0.00    -0.200 F 
ATOM     92  C   UNL A   1      45.986  36.453  29.871  1.00  0.00     0.200 A 
ATOM     93  F   UNL A   1      45.080  37.201  27.824  1.00  0.00    -0.200 F 
ATOM     94  F   UNL A   1      46.449  37.683  30.132  1.00  0.00    -0.200 F 
ENDBRANCH  61  84
ENDBRANCH  35  36
ENDBRANCH  28  30
ENDBRANCH  27  28
ENDBRANCH  26  27
ENDBRANCH   1  26
TORSDOF 15
ENDMDL
