MODEL 1
REMARK VINA RESULT:     -12.3      0.000      0.000
REMARK SMILES COc1ccc(/C=C(/SCC(=O)OCCOC(=O)c2ccc(-c3c4nc(c(-c5c(F)c(F)c(F)c(F)c5F)c5ccc([nH]5)c(-c5c(F)c(F)c(F)c(F)c5F)c5nc(c(-c6c(F)c(F)c(F)c(F)c6F)c6ccc3[nH]6)C=C5)C=C4)cc2)c2nc3ccccc3s2)cc1O
REMARK SMILES IDX 14 1 13 2 11 3 12 4 10 5 9 6 8 7 7 8 6 9 3 10 4 11 92 12
REMARK SMILES IDX 5 13 91 14 2 15 1 16 93 17 82 19 83 20 90 21 84 22 89 23
REMARK SMILES IDX 85 24 88 25 86 26 87 27 15 28 16 29 17 30 18 31 19 32 20 33
REMARK SMILES IDX 81 34 21 35 80 36 22 37 23 38 24 39 74 40 25 41 79 42 73 43
REMARK SMILES IDX 75 44 26 45 78 46 72 47 71 48 27 50 59 51 39 52 58 53 40 54
REMARK SMILES IDX 43 55 57 56 76 57 41 58 42 59 56 61 77 62 44 63 28 64 29 65
REMARK SMILES IDX 37 66 30 67 31 68 35 69 38 70 32 71 33 72 36 73 34 74 60 75
REMARK SMILES IDX 61 76 69 77 62 78 63 79 67 80 70 81 64 82 65 83 68 84 66 85
REMARK SMILES IDX 45 86 46 87 54 88 47 89 48 90 52 91 55 92 49 93 50 94 53 95
REMARK SMILES IDX 51 96
REMARK H PARENT 93 18 75 49 43 60
REMARK Flexibility Score: inf
ROOT
ATOM      1  C   UNL A   1      31.805  28.161  25.511  1.00  0.00     0.274 C 
ENDROOT
BRANCH   1   2
ATOM      2  O   UNL A   1      30.689  27.670  24.742  1.00  0.00    -0.461 OA
BRANCH   2   3
ATOM      3  C   UNL A   1      30.980  26.834  23.711  1.00  0.00     0.316 C 
ATOM      4  O   UNL A   1      30.939  27.162  22.528  1.00  0.00    -0.251 OA
BRANCH   3   5
ATOM      5  C   UNL A   1      31.429  25.445  24.126  1.00  0.00     0.197 C 
BRANCH   5   6
ATOM      6  S   UNL A   1      32.841  24.803  23.209  1.00  0.00    -0.111 SA
BRANCH   6   7
ATOM      7  C   UNL A   1      33.151  23.186  23.820  1.00  0.00     0.044 C 
ATOM      8  C   UNL A   1      32.284  22.157  23.724  1.00  0.00     0.026 C 
BRANCH   8   9
ATOM      9  C   UNL A   1      32.413  20.701  24.021  1.00  0.00    -0.020 A 
ATOM     10  C   UNL A   1      32.866  17.885  24.227  1.00  0.00     0.160 A 
ATOM     11  C   UNL A   1      33.048  18.737  25.320  1.00  0.00     0.051 A 
ATOM     12  C   UNL A   1      32.391  18.444  23.050  1.00  0.00     0.158 A 
ATOM     13  C   UNL A   1      32.808  20.121  25.227  1.00  0.00     0.012 A 
ATOM     14  C   UNL A   1      32.157  19.820  22.961  1.00  0.00     0.058 A 
BRANCH  10  15
ATOM     15  O   UNL A   1      33.204  16.582  24.465  1.00  0.00    -0.493 OA
ATOM     16  C   UNL A   1      32.900  16.042  25.747  1.00  0.00     0.278 C 
ENDBRANCH  10  15
BRANCH  12  17
ATOM     17  O   UNL A   1      32.155  17.704  21.925  1.00  0.00    -0.504 OA
ATOM     18  H   UNL A   1      32.084  16.771  21.984  1.00  0.00     0.293 HD
ENDBRANCH  12  17
ENDBRANCH   8   9
BRANCH   7  19
ATOM     19  C   UNL A   1      34.472  23.029  24.341  1.00  0.00     0.131 A 
ATOM     20  N   UNL A   1      35.209  21.940  24.242  1.00  0.00    -0.235 NA
ATOM     21  S   UNL A   1      35.195  24.308  25.261  1.00  0.00    -0.113 S 
ATOM     22  C   UNL A   1      36.416  22.109  24.892  1.00  0.00     0.082 A 
ATOM     23  C   UNL A   1      36.612  23.360  25.475  1.00  0.00     0.055 A 
ATOM     24  C   UNL A   1      37.437  21.143  24.997  1.00  0.00     0.030 A 
ATOM     25  C   UNL A   1      37.808  23.696  26.126  1.00  0.00     0.021 A 
ATOM     26  C   UNL A   1      38.628  21.462  25.655  1.00  0.00     0.002 A 
ATOM     27  C   UNL A   1      38.813  22.728  26.202  1.00  0.00     0.002 A 
ENDBRANCH   7  19
ENDBRANCH   6   7
ENDBRANCH   5   6
ENDBRANCH   3   5
ENDBRANCH   2   3
ENDBRANCH   1   2
BRANCH   1  28
ATOM     28  C   UNL A   1      31.893  29.681  25.427  1.00  0.00     0.275 C 
BRANCH  28  29
ATOM     29  O   UNL A   1      33.218  30.114  25.789  1.00  0.00    -0.458 OA
BRANCH  29  30
ATOM     30  C   UNL A   1      33.261  31.074  26.734  1.00  0.00     0.338 C 
ATOM     31  O   UNL A   1      32.482  31.999  26.895  1.00  0.00    -0.246 OA
BRANCH  30  32
ATOM     32  C   UNL A   1      34.415  30.890  27.628  1.00  0.00     0.060 A 
ATOM     33  C   UNL A   1      35.356  31.909  27.801  1.00  0.00     0.016 A 
ATOM     34  C   UNL A   1      34.668  29.603  28.108  1.00  0.00     0.016 A 
ATOM     35  C   UNL A   1      36.575  31.627  28.419  1.00  0.00     0.010 A 
ATOM     36  C   UNL A   1      35.871  29.331  28.760  1.00  0.00     0.010 A 
ATOM     37  C   UNL A   1      36.839  30.336  28.905  1.00  0.00    -0.014 A 
BRANCH  37  38
ATOM     38  C   UNL A   1      38.091  30.043  29.639  1.00  0.00     0.031 A 
ATOM     39  C   UNL A   1      39.115  29.095  29.086  1.00  0.00     0.074 A 
ATOM     40  C   UNL A   1      38.274  30.613  30.844  1.00  0.00     0.049 A 
ATOM     41  N   UNL A   1      40.193  28.624  29.662  1.00  0.00    -0.248 NA
ATOM     42  C   UNL A   1      38.909  28.623  27.710  1.00  0.00     0.031 C 
ATOM     43  C   UNL A   1      37.364  31.574  31.466  1.00  0.00     0.029 A 
ATOM     44  N   UNL A   1      39.275  30.451  31.767  1.00  0.00    -0.354 N 
ATOM     45  C   UNL A   1      40.800  27.808  28.717  1.00  0.00     0.074 A 
ATOM     46  C   UNL A   1      39.962  27.832  27.537  1.00  0.00     0.031 C 
ATOM     47  C   UNL A   1      37.839  31.906  32.676  1.00  0.00     0.029 A 
ATOM     48  C   UNL A   1      39.057  31.143  32.930  1.00  0.00     0.049 A 
ATOM     49  H   UNL A   1      40.071  29.893  31.609  1.00  0.00     0.167 HD
ATOM     50  C   UNL A   1      41.955  27.109  28.830  1.00  0.00     0.037 A 
ATOM     51  C   UNL A   1      39.736  31.132  34.091  1.00  0.00     0.037 A 
ATOM     52  C   UNL A   1      42.777  27.070  30.013  1.00  0.00     0.049 A 
ATOM     53  C   UNL A   1      40.954  30.268  34.224  1.00  0.00     0.074 A 
ATOM     54  C   UNL A   1      43.958  26.377  30.225  1.00  0.00     0.029 A 
ATOM     55  N   UNL A   1      42.501  27.752  31.188  1.00  0.00    -0.354 N 
ATOM     56  N   UNL A   1      41.507  29.480  33.336  1.00  0.00    -0.248 NA
ATOM     57  C   UNL A   1      41.638  30.283  35.525  1.00  0.00     0.031 C 
ATOM     58  C   UNL A   1      44.380  26.618  31.538  1.00  0.00     0.029 A 
ATOM     59  C   UNL A   1      43.479  27.485  32.133  1.00  0.00     0.049 A 
ATOM     60  H   UNL A   1      41.724  28.340  31.331  1.00  0.00     0.167 HD
ATOM     61  C   UNL A   1      42.607  28.915  33.961  1.00  0.00     0.074 A 
ATOM     62  C   UNL A   1      42.651  29.459  35.304  1.00  0.00     0.031 C 
ATOM     63  C   UNL A   1      43.503  28.028  33.465  1.00  0.00     0.037 A 
BRANCH  50  64
ATOM     64  C   UNL A   1      42.409  26.315  27.643  1.00  0.00     0.064 A 
ATOM     65  C   UNL A   1      43.358  26.828  26.749  1.00  0.00     0.173 A 
ATOM     66  C   UNL A   1      41.960  25.000  27.450  1.00  0.00     0.173 A 
ATOM     67  F   UNL A   1      43.815  28.080  26.894  1.00  0.00    -0.203 F 
ATOM     68  C   UNL A   1      43.843  26.050  25.700  1.00  0.00     0.198 A 
ATOM     69  C   UNL A   1      42.457  24.222  26.408  1.00  0.00     0.198 A 
ATOM     70  F   UNL A   1      41.060  24.463  28.287  1.00  0.00    -0.203 F 
ATOM     71  F   UNL A   1      44.748  26.559  24.852  1.00  0.00    -0.200 F 
ATOM     72  C   UNL A   1      43.399  24.747  25.535  1.00  0.00     0.200 A 
ATOM     73  F   UNL A   1      42.038  22.957  26.258  1.00  0.00    -0.200 F 
ATOM     74  F   UNL A   1      43.883  23.993  24.538  1.00  0.00    -0.200 F 
ENDBRANCH  50  64
BRANCH  51  75
ATOM     75  C   UNL A   1      39.247  31.949  35.227  1.00  0.00     0.064 A 
ATOM     76  C   UNL A   1      38.482  31.375  36.249  1.00  0.00     0.173 A 
ATOM     77  C   UNL A   1      39.560  33.312  35.324  1.00  0.00     0.173 A 
ATOM     78  F   UNL A   1      38.141  30.080  36.183  1.00  0.00    -0.203 F 
ATOM     79  C   UNL A   1      38.045  32.138  37.329  1.00  0.00     0.198 A 
ATOM     80  C   UNL A   1      39.143  34.068  36.415  1.00  0.00     0.198 A 
ATOM     81  F   UNL A   1      40.293  33.903  34.367  1.00  0.00    -0.203 F 
ATOM     82  F   UNL A   1      37.294  31.573  38.284  1.00  0.00    -0.200 F 
ATOM     83  C   UNL A   1      38.383  33.481  37.416  1.00  0.00     0.200 A 
ATOM     84  F   UNL A   1      39.482  35.362  36.500  1.00  0.00    -0.200 F 
ATOM     85  F   UNL A   1      37.973  34.211  38.462  1.00  0.00    -0.200 F 
ENDBRANCH  51  75
BRANCH  63  86
ATOM     86  C   UNL A   1      44.612  27.607  34.379  1.00  0.00     0.064 A 
ATOM     87  C   UNL A   1      45.816  28.320  34.442  1.00  0.00     0.173 A 
ATOM     88  C   UNL A   1      44.464  26.483  35.204  1.00  0.00     0.173 A 
ATOM     89  F   UNL A   1      46.008  29.391  33.656  1.00  0.00    -0.203 F 
ATOM     90  C   UNL A   1      46.845  27.911  35.285  1.00  0.00     0.198 A 
ATOM     91  C   UNL A   1      45.488  26.086  36.059  1.00  0.00     0.198 A 
ATOM     92  F   UNL A   1      43.330  25.768  35.177  1.00  0.00    -0.203 F 
ATOM     93  F   UNL A   1      48.004  28.583  35.301  1.00  0.00    -0.200 F 
ATOM     94  C   UNL A   1      46.679  26.796  36.095  1.00  0.00     0.200 A 
ATOM     95  F   UNL A   1      45.327  25.010  36.842  1.00  0.00    -0.200 F 
ATOM     96  F   UNL A   1      47.673  26.399  36.901  1.00  0.00    -0.200 F 
ENDBRANCH  63  86
ENDBRANCH  37  38
ENDBRANCH  30  32
ENDBRANCH  29  30
ENDBRANCH  28  29
ENDBRANCH   1  28
TORSDOF 17
ENDMDL
MODEL 2
REMARK VINA RESULT:     -12.2      4.107      9.911
REMARK SMILES COc1ccc(/C=C(/SCC(=O)OCCOC(=O)c2ccc(-c3c4nc(c(-c5c(F)c(F)c(F)c(F)c5F)c5ccc([nH]5)c(-c5c(F)c(F)c(F)c(F)c5F)c5nc(c(-c6c(F)c(F)c(F)c(F)c6F)c6ccc3[nH]6)C=C5)C=C4)cc2)c2nc3ccccc3s2)cc1O
REMARK SMILES IDX 14 1 13 2 11 3 12 4 10 5 9 6 8 7 7 8 6 9 3 10 4 11 92 12
REMARK SMILES IDX 5 13 91 14 2 15 1 16 93 17 82 19 83 20 90 21 84 22 89 23
REMARK SMILES IDX 85 24 88 25 86 26 87 27 15 28 16 29 17 30 18 31 19 32 20 33
REMARK SMILES IDX 81 34 21 35 80 36 22 37 23 38 24 39 74 40 25 41 79 42 73 43
REMARK SMILES IDX 75 44 26 45 78 46 72 47 71 48 27 50 59 51 39 52 58 53 40 54
REMARK SMILES IDX 43 55 57 56 76 57 41 58 42 59 56 61 77 62 44 63 28 64 29 65
REMARK SMILES IDX 37 66 30 67 31 68 35 69 38 70 32 71 33 72 36 73 34 74 60 75
REMARK SMILES IDX 61 76 69 77 62 78 63 79 67 80 70 81 64 82 65 83 68 84 66 85
REMARK SMILES IDX 45 86 46 87 54 88 47 89 48 90 52 91 55 92 49 93 50 94 53 95
REMARK SMILES IDX 51 96
REMARK H PARENT 93 18 75 49 43 60
REMARK Flexibility Score: inf
ROOT
ATOM      1  C   UNL A   1      34.879  21.190  24.623  1.00  0.00     0.274 C 
ENDROOT
BRANCH   1   2
ATOM      2  O   UNL A   1      34.105  22.134  25.388  1.00  0.00    -0.461 OA
BRANCH   2   3
ATOM      3  C   UNL A   1      32.764  22.144  25.168  1.00  0.00     0.316 C 
ATOM      4  O   UNL A   1      32.019  21.202  25.425  1.00  0.00    -0.251 OA
BRANCH   3   5
ATOM      5  C   UNL A   1      32.219  23.451  24.623  1.00  0.00     0.197 C 
BRANCH   5   6
ATOM      6  S   UNL A   1      31.200  24.385  25.780  1.00  0.00    -0.111 SA
BRANCH   6   7
ATOM      7  C   UNL A   1      30.926  25.962  25.058  1.00  0.00     0.044 C 
ATOM      8  C   UNL A   1      29.985  26.219  24.126  1.00  0.00     0.026 C 
BRANCH   8   9
ATOM      9  C   UNL A   1      29.490  27.488  23.520  1.00  0.00    -0.020 A 
ATOM     10  C   UNL A   1      28.755  29.808  22.017  1.00  0.00     0.160 A 
ATOM     11  C   UNL A   1      27.818  29.102  22.777  1.00  0.00     0.051 A 
ATOM     12  C   UNL A   1      30.074  29.383  22.068  1.00  0.00     0.158 A 
ATOM     13  C   UNL A   1      28.180  27.971  23.533  1.00  0.00     0.012 A 
ATOM     14  C   UNL A   1      30.429  28.256  22.818  1.00  0.00     0.058 A 
BRANCH  10  15
ATOM     15  O   UNL A   1      28.230  30.841  21.292  1.00  0.00    -0.493 OA
ATOM     16  C   UNL A   1      28.506  32.167  21.731  1.00  0.00     0.278 C 
ENDBRANCH  10  15
BRANCH  12  17
ATOM     17  O   UNL A   1      31.078  30.009  21.384  1.00  0.00    -0.504 OA
ATOM     18  H   UNL A   1      31.872  30.241  21.824  1.00  0.00     0.293 HD
ENDBRANCH  12  17
ENDBRANCH   8   9
BRANCH   7  19
ATOM     19  C   UNL A   1      31.732  26.989  25.637  1.00  0.00     0.131 A 
ATOM     20  N   UNL A   1      31.290  28.149  26.083  1.00  0.00    -0.235 NA
ATOM     21  S   UNL A   1      33.453  26.795  25.717  1.00  0.00    -0.113 S 
ATOM     22  C   UNL A   1      32.337  28.927  26.538  1.00  0.00     0.082 A 
ATOM     23  C   UNL A   1      33.598  28.337  26.462  1.00  0.00     0.055 A 
ATOM     24  C   UNL A   1      32.226  30.228  27.068  1.00  0.00     0.030 A 
ATOM     25  C   UNL A   1      34.750  28.984  26.933  1.00  0.00     0.021 A 
ATOM     26  C   UNL A   1      33.369  30.888  27.528  1.00  0.00     0.002 A 
ATOM     27  C   UNL A   1      34.612  30.267  27.470  1.00  0.00     0.002 A 
ENDBRANCH   7  19
ENDBRANCH   6   7
ENDBRANCH   5   6
ENDBRANCH   3   5
ENDBRANCH   2   3
ENDBRANCH   1   2
BRANCH   1  28
ATOM     28  C   UNL A   1      36.150  20.801  25.370  1.00  0.00     0.275 C 
BRANCH  28  29
ATOM     29  O   UNL A   1      37.172  21.790  25.143  1.00  0.00    -0.458 OA
BRANCH  29  30
ATOM     30  C   UNL A   1      38.368  21.504  25.693  1.00  0.00     0.338 C 
ATOM     31  O   UNL A   1      38.954  20.435  25.695  1.00  0.00    -0.246 OA
BRANCH  30  32
ATOM     32  C   UNL A   1      38.955  22.691  26.336  1.00  0.00     0.060 A 
ATOM     33  C   UNL A   1      38.471  23.972  26.054  1.00  0.00     0.016 A 
ATOM     34  C   UNL A   1      40.148  22.525  27.043  1.00  0.00     0.016 A 
ATOM     35  C   UNL A   1      39.207  25.091  26.445  1.00  0.00     0.010 A 
ATOM     36  C   UNL A   1      40.864  23.645  27.468  1.00  0.00     0.010 A 
ATOM     37  C   UNL A   1      40.407  24.934  27.157  1.00  0.00    -0.014 A 
BRANCH  37  38
ATOM     38  C   UNL A   1      41.155  26.112  27.653  1.00  0.00     0.031 A 
ATOM     39  C   UNL A   1      40.471  27.200  28.429  1.00  0.00     0.074 A 
ATOM     40  C   UNL A   1      42.463  26.212  27.354  1.00  0.00     0.049 A 
ATOM     41  N   UNL A   1      40.947  28.359  28.812  1.00  0.00    -0.248 NA
ATOM     42  C   UNL A   1      39.080  26.954  28.833  1.00  0.00     0.031 C 
ATOM     43  C   UNL A   1      43.239  25.202  26.635  1.00  0.00     0.029 A 
ATOM     44  N   UNL A   1      43.362  27.217  27.598  1.00  0.00    -0.354 N 
ATOM     45  C   UNL A   1      39.919  28.976  29.512  1.00  0.00     0.074 A 
ATOM     46  C   UNL A   1      38.787  28.074  29.484  1.00  0.00     0.031 C 
ATOM     47  C   UNL A   1      44.497  25.644  26.482  1.00  0.00     0.029 A 
ATOM     48  C   UNL A   1      44.597  26.986  27.047  1.00  0.00     0.049 A 
ATOM     49  H   UNL A   1      43.144  28.024  28.117  1.00  0.00     0.167 HD
ATOM     50  C   UNL A   1      39.929  30.186  30.123  1.00  0.00     0.037 A 
ATOM     51  C   UNL A   1      45.677  27.783  26.965  1.00  0.00     0.037 A 
ATOM     52  C   UNL A   1      41.050  31.091  30.132  1.00  0.00     0.049 A 
ATOM     53  C   UNL A   1      45.626  29.158  27.559  1.00  0.00     0.074 A 
ATOM     54  C   UNL A   1      41.147  32.344  30.713  1.00  0.00     0.029 A 
ATOM     55  N   UNL A   1      42.272  30.839  29.525  1.00  0.00    -0.354 N 
ATOM     56  N   UNL A   1      44.643  29.745  28.195  1.00  0.00    -0.248 NA
ATOM     57  C   UNL A   1      46.830  29.987  27.416  1.00  0.00     0.031 C 
ATOM     58  C   UNL A   1      42.418  32.862  30.434  1.00  0.00     0.029 A 
ATOM     59  C   UNL A   1      43.122  31.918  29.706  1.00  0.00     0.049 A 
ATOM     60  H   UNL A   1      42.502  30.014  29.039  1.00  0.00     0.167 HD
ATOM     61  C   UNL A   1      45.110  31.003  28.540  1.00  0.00     0.074 A 
ATOM     62  C   UNL A   1      46.471  31.094  28.050  1.00  0.00     0.031 C 
ATOM     63  C   UNL A   1      44.469  31.994  29.205  1.00  0.00     0.037 A 
BRANCH  50  64
ATOM     64  C   UNL A   1      38.684  30.616  30.836  1.00  0.00     0.064 A 
ATOM     65  C   UNL A   1      38.584  30.534  32.232  1.00  0.00     0.173 A 
ATOM     66  C   UNL A   1      37.621  31.198  30.130  1.00  0.00     0.173 A 
ATOM     67  F   UNL A   1      39.576  29.984  32.949  1.00  0.00    -0.203 F 
ATOM     68  C   UNL A   1      37.460  31.020  32.897  1.00  0.00     0.198 A 
ATOM     69  C   UNL A   1      36.506  31.695  30.800  1.00  0.00     0.198 A 
ATOM     70  F   UNL A   1      37.677  31.308  28.795  1.00  0.00    -0.203 F 
ATOM     71  F   UNL A   1      37.381  30.929  34.232  1.00  0.00    -0.200 F 
ATOM     72  C   UNL A   1      36.427  31.606  32.181  1.00  0.00     0.200 A 
ATOM     73  F   UNL A   1      35.514  32.275  30.109  1.00  0.00    -0.200 F 
ATOM     74  F   UNL A   1      35.356  32.093  32.825  1.00  0.00    -0.200 F 
ENDBRANCH  50  64
BRANCH  51  75
ATOM     75  C   UNL A   1      46.885  27.297  26.257  1.00  0.00     0.064 A 
ATOM     76  C   UNL A   1      47.035  27.481  24.878  1.00  0.00     0.173 A 
ATOM     77  C   UNL A   1      47.925  26.665  26.954  1.00  0.00     0.173 A 
ATOM     78  F   UNL A   1      46.054  28.061  24.170  1.00  0.00    -0.203 F 
ATOM     79  C   UNL A   1      48.183  27.049  24.219  1.00  0.00     0.198 A 
ATOM     80  C   UNL A   1      49.081  26.254  26.299  1.00  0.00     0.198 A 
ATOM     81  F   UNL A   1      47.824  26.469  28.278  1.00  0.00    -0.203 F 
ATOM     82  F   UNL A   1      48.294  27.215  22.894  1.00  0.00    -0.200 F 
ATOM     83  C   UNL A   1      49.209  26.443  24.931  1.00  0.00     0.200 A 
ATOM     84  F   UNL A   1      50.074  25.680  26.993  1.00  0.00    -0.200 F 
ATOM     85  F   UNL A   1      50.318  26.038  24.298  1.00  0.00    -0.200 F 
ENDBRANCH  51  75
BRANCH  63  86
ATOM     86  C   UNL A   1      45.244  33.251  29.451  1.00  0.00     0.064 A 
ATOM     87  C   UNL A   1      45.204  34.322  28.548  1.00  0.00     0.173 A 
ATOM     88  C   UNL A   1      46.030  33.387  30.605  1.00  0.00     0.173 A 
ATOM     89  F   UNL A   1      44.482  34.227  27.421  1.00  0.00    -0.203 F 
ATOM     90  C   UNL A   1      45.941  35.479  28.781  1.00  0.00     0.198 A 
ATOM     91  C   UNL A   1      46.751  34.553  30.843  1.00  0.00     0.198 A 
ATOM     92  F   UNL A   1      46.100  32.388  31.497  1.00  0.00    -0.203 F 
ATOM     93  F   UNL A   1      45.921  36.476  27.885  1.00  0.00    -0.200 F 
ATOM     94  C   UNL A   1      46.711  35.596  29.929  1.00  0.00     0.200 A 
ATOM     95  F   UNL A   1      47.493  34.665  31.954  1.00  0.00    -0.200 F 
ATOM     96  F   UNL A   1      47.424  36.708  30.149  1.00  0.00    -0.200 F 
ENDBRANCH  63  86
ENDBRANCH  37  38
ENDBRANCH  30  32
ENDBRANCH  29  30
ENDBRANCH  28  29
ENDBRANCH   1  28
TORSDOF 17
ENDMDL
MODEL 3
REMARK VINA RESULT:     -12.1      4.327     10.009
REMARK SMILES COc1ccc(/C=C(/SCC(=O)OCCOC(=O)c2ccc(-c3c4nc(c(-c5c(F)c(F)c(F)c(F)c5F)c5ccc([nH]5)c(-c5c(F)c(F)c(F)c(F)c5F)c5nc(c(-c6c(F)c(F)c(F)c(F)c6F)c6ccc3[nH]6)C=C5)C=C4)cc2)c2nc3ccccc3s2)cc1O
REMARK SMILES IDX 14 1 13 2 11 3 12 4 10 5 9 6 8 7 7 8 6 9 3 10 4 11 92 12
REMARK SMILES IDX 5 13 91 14 2 15 1 16 93 17 82 19 83 20 90 21 84 22 89 23
REMARK SMILES IDX 85 24 88 25 86 26 87 27 15 28 16 29 17 30 18 31 19 32 20 33
REMARK SMILES IDX 81 34 21 35 80 36 22 37 23 38 24 39 74 40 25 41 79 42 73 43
REMARK SMILES IDX 75 44 26 45 78 46 72 47 71 48 27 50 59 51 39 52 58 53 40 54
REMARK SMILES IDX 43 55 57 56 76 57 41 58 42 59 56 61 77 62 44 63 28 64 29 65
REMARK SMILES IDX 37 66 30 67 31 68 35 69 38 70 32 71 33 72 36 73 34 74 60 75
REMARK SMILES IDX 61 76 69 77 62 78 63 79 67 80 70 81 64 82 65 83 68 84 66 85
REMARK SMILES IDX 45 86 46 87 54 88 47 89 48 90 52 91 55 92 49 93 50 94 53 95
REMARK SMILES IDX 51 96
REMARK H PARENT 93 18 75 49 43 60
REMARK Flexibility Score: inf
ROOT
ATOM      1  C   UNL A   1      35.466  21.852  24.630  1.00  0.00     0.274 C 
ENDROOT
BRANCH   1   2
ATOM      2  O   UNL A   1      34.464  22.686  25.245  1.00  0.00    -0.461 OA
BRANCH   2   3
ATOM      3  C   UNL A   1      33.169  22.323  25.057  1.00  0.00     0.316 C 
ATOM      4  O   UNL A   1      32.700  21.244  25.411  1.00  0.00    -0.251 OA
BRANCH   3   5
ATOM      5  C   UNL A   1      32.296  23.386  24.415  1.00  0.00     0.197 C 
BRANCH   5   6
ATOM      6  S   UNL A   1      31.368  24.404  25.577  1.00  0.00    -0.111 SA
BRANCH   6   7
ATOM      7  C   UNL A   1      31.158  25.975  24.822  1.00  0.00     0.044 C 
ATOM      8  C   UNL A   1      30.304  26.224  23.807  1.00  0.00     0.026 C 
BRANCH   8   9
ATOM      9  C   UNL A   1      29.863  27.487  23.150  1.00  0.00    -0.020 A 
ATOM     10  C   UNL A   1      28.811  29.988  22.244  1.00  0.00     0.160 A 
ATOM     11  C   UNL A   1      30.146  29.635  22.028  1.00  0.00     0.051 A 
ATOM     12  C   UNL A   1      27.991  29.052  22.858  1.00  0.00     0.158 A 
ATOM     13  C   UNL A   1      30.663  28.397  22.455  1.00  0.00     0.012 A 
ATOM     14  C   UNL A   1      28.509  27.825  23.284  1.00  0.00     0.058 A 
BRANCH  10  15
ATOM     15  O   UNL A   1      28.485  31.248  21.826  1.00  0.00    -0.493 OA
ATOM     16  C   UNL A   1      28.693  32.323  22.736  1.00  0.00     0.278 C 
ENDBRANCH  10  15
BRANCH  12  17
ATOM     17  O   UNL A   1      26.665  29.280  23.100  1.00  0.00    -0.504 OA
ATOM     18  H   UNL A   1      26.371  30.140  23.328  1.00  0.00     0.293 HD
ENDBRANCH  12  17
ENDBRANCH   8   9
BRANCH   7  19
ATOM     19  C   UNL A   1      31.908  27.008  25.463  1.00  0.00     0.131 A 
ATOM     20  N   UNL A   1      31.431  28.178  25.840  1.00  0.00    -0.235 NA
ATOM     21  S   UNL A   1      33.610  26.804  25.724  1.00  0.00    -0.113 S 
ATOM     22  C   UNL A   1      32.432  28.958  26.387  1.00  0.00     0.082 A 
ATOM     23  C   UNL A   1      33.689  28.359  26.452  1.00  0.00     0.055 A 
ATOM     24  C   UNL A   1      32.278  30.269  26.880  1.00  0.00     0.030 A 
ATOM     25  C   UNL A   1      34.791  29.008  27.028  1.00  0.00     0.021 A 
ATOM     26  C   UNL A   1      33.372  30.931  27.443  1.00  0.00     0.002 A 
ATOM     27  C   UNL A   1      34.610  30.301  27.526  1.00  0.00     0.002 A 
ENDBRANCH   7  19
ENDBRANCH   6   7
ENDBRANCH   5   6
ENDBRANCH   3   5
ENDBRANCH   2   3
ENDBRANCH   1   2
BRANCH   1  28
ATOM     28  C   UNL A   1      36.517  21.427  25.650  1.00  0.00     0.275 C 
BRANCH  28  29
ATOM     29  O   UNL A   1      37.823  21.836  25.204  1.00  0.00    -0.458 OA
BRANCH  29  30
ATOM     30  C   UNL A   1      38.821  21.590  26.076  1.00  0.00     0.338 C 
ATOM     31  O   UNL A   1      39.272  20.506  26.407  1.00  0.00    -0.246 OA
BRANCH  30  32
ATOM     32  C   UNL A   1      39.366  22.840  26.629  1.00  0.00     0.060 A 
ATOM     33  C   UNL A   1      38.962  24.081  26.128  1.00  0.00     0.016 A 
ATOM     34  C   UNL A   1      40.460  22.746  27.493  1.00  0.00     0.016 A 
ATOM     35  C   UNL A   1      39.683  25.228  26.461  1.00  0.00     0.010 A 
ATOM     36  C   UNL A   1      41.156  23.900  27.856  1.00  0.00     0.010 A 
ATOM     37  C   UNL A   1      40.783  25.145  27.329  1.00  0.00    -0.014 A 
BRANCH  37  38
ATOM     38  C   UNL A   1      41.505  26.364  27.759  1.00  0.00     0.031 A 
ATOM     39  C   UNL A   1      40.808  27.458  28.513  1.00  0.00     0.074 A 
ATOM     40  C   UNL A   1      42.800  26.494  27.419  1.00  0.00     0.049 A 
ATOM     41  N   UNL A   1      41.255  28.646  28.840  1.00  0.00    -0.248 NA
ATOM     42  C   UNL A   1      39.438  27.184  28.967  1.00  0.00     0.031 C 
ATOM     43  C   UNL A   1      43.590  25.483  26.716  1.00  0.00     0.029 A 
ATOM     44  N   UNL A   1      43.672  27.537  27.599  1.00  0.00    -0.354 N 
ATOM     45  C   UNL A   1      40.228  29.256  29.545  1.00  0.00     0.074 A 
ATOM     46  C   UNL A   1      39.125  28.318  29.583  1.00  0.00     0.031 C 
ATOM     47  C   UNL A   1      44.827  25.959  26.511  1.00  0.00     0.029 A 
ATOM     48  C   UNL A   1      44.898  27.324  27.022  1.00  0.00     0.049 A 
ATOM     49  H   UNL A   1      43.442  28.356  28.094  1.00  0.00     0.167 HD
ATOM     50  C   UNL A   1      40.214  30.488  30.110  1.00  0.00     0.037 A 
ATOM     51  C   UNL A   1      45.949  28.151  26.879  1.00  0.00     0.037 A 
ATOM     52  C   UNL A   1      41.305  31.428  30.052  1.00  0.00     0.049 A 
ATOM     53  C   UNL A   1      45.868  29.546  27.423  1.00  0.00     0.074 A 
ATOM     54  C   UNL A   1      41.376  32.705  30.583  1.00  0.00     0.029 A 
ATOM     55  N   UNL A   1      42.516  31.193  29.420  1.00  0.00    -0.354 N 
ATOM     56  N   UNL A   1      44.884  30.125  28.065  1.00  0.00    -0.248 NA
ATOM     57  C   UNL A   1      47.040  30.407  27.214  1.00  0.00     0.031 C 
ATOM     58  C   UNL A   1      42.620  33.253  30.249  1.00  0.00     0.029 A 
ATOM     59  C   UNL A   1      43.335  32.305  29.536  1.00  0.00     0.049 A 
ATOM     60  H   UNL A   1      42.760  30.358  28.959  1.00  0.00     0.167 HD
ATOM     61  C   UNL A   1      45.319  31.410  28.348  1.00  0.00     0.074 A 
ATOM     62  C   UNL A   1      46.662  31.525  27.816  1.00  0.00     0.031 C 
ATOM     63  C   UNL A   1      44.664  32.405  28.994  1.00  0.00     0.037 A 
BRANCH  50  64
ATOM     64  C   UNL A   1      38.975  30.905  30.842  1.00  0.00     0.064 A 
ATOM     65  C   UNL A   1      37.874  31.436  30.158  1.00  0.00     0.173 A 
ATOM     66  C   UNL A   1      38.855  30.688  32.223  1.00  0.00     0.173 A 
ATOM     67  F   UNL A   1      37.943  31.662  28.837  1.00  0.00    -0.203 F 
ATOM     68  C   UNL A   1      36.692  31.737  30.832  1.00  0.00     0.198 A 
ATOM     69  C   UNL A   1      37.668  30.978  32.890  1.00  0.00     0.198 A 
ATOM     70  F   UNL A   1      39.879  30.172  32.917  1.00  0.00    -0.203 F 
ATOM     71  F   UNL A   1      35.651  32.249  30.161  1.00  0.00    -0.200 F 
ATOM     72  C   UNL A   1      36.588  31.501  32.195  1.00  0.00     0.200 A 
ATOM     73  F   UNL A   1      37.563  30.735  34.205  1.00  0.00    -0.200 F 
ATOM     74  F   UNL A   1      35.443  31.771  32.838  1.00  0.00    -0.200 F 
ENDBRANCH  50  64
BRANCH  51  75
ATOM     75  C   UNL A   1      47.152  27.678  26.155  1.00  0.00     0.064 A 
ATOM     76  C   UNL A   1      48.248  27.151  26.848  1.00  0.00     0.173 A 
ATOM     77  C   UNL A   1      47.215  27.718  24.755  1.00  0.00     0.173 A 
ATOM     78  F   UNL A   1      48.238  27.115  28.188  1.00  0.00    -0.203 F 
ATOM     79  C   UNL A   1      49.367  26.681  26.165  1.00  0.00     0.198 A 
ATOM     80  C   UNL A   1      48.324  27.228  24.072  1.00  0.00     0.198 A 
ATOM     81  F   UNL A   1      46.186  28.214  24.050  1.00  0.00    -0.203 F 
ATOM     82  F   UNL A   1      50.414  26.202  26.850  1.00  0.00    -0.200 F 
ATOM     83  C   UNL A   1      49.401  26.712  24.778  1.00  0.00     0.200 A 
ATOM     84  F   UNL A   1      48.347  27.249  22.732  1.00  0.00    -0.200 F 
ATOM     85  F   UNL A   1      50.473  26.249  24.122  1.00  0.00    -0.200 F 
ENDBRANCH  51  75
BRANCH  63  86
ATOM     86  C   UNL A   1      45.404  33.694  29.171  1.00  0.00     0.064 A 
ATOM     87  C   UNL A   1      46.222  33.919  30.287  1.00  0.00     0.173 A 
ATOM     88  C   UNL A   1      45.297  34.712  28.213  1.00  0.00     0.173 A 
ATOM     89  F   UNL A   1      46.338  32.980  31.238  1.00  0.00    -0.203 F 
ATOM     90  C   UNL A   1      46.893  35.128  30.447  1.00  0.00     0.198 A 
ATOM     91  C   UNL A   1      45.983  35.913  28.368  1.00  0.00     0.198 A 
ATOM     92  F   UNL A   1      44.523  34.543  27.130  1.00  0.00    -0.203 F 
ATOM     93  F   UNL A   1      47.639  35.338  31.541  1.00  0.00    -0.200 F 
ATOM     94  C   UNL A   1      46.776  36.122  29.487  1.00  0.00     0.200 A 
ATOM     95  F   UNL A   1      45.870  36.873  27.439  1.00  0.00    -0.200 F 
ATOM     96  F   UNL A   1      47.417  37.287  29.646  1.00  0.00    -0.200 F 
ENDBRANCH  63  86
ENDBRANCH  37  38
ENDBRANCH  30  32
ENDBRANCH  29  30
ENDBRANCH  28  29
ENDBRANCH   1  28
TORSDOF 17
ENDMDL
