MODEL 1
REMARK VINA RESULT:     -11.4      0.000      0.000
REMARK SMILES O=C(OCCOC(=O)c1ccc(S(=O)(=O)NCCCn2cccn2)cc1)c1ccc(-c2c3nc(c(-c4c(F)c(F)c(F)c(F)c4F)c4ccc([nH]4)c(-c4c(F)c(F)c(F)c(F)c4F)c4nc(c(-c5c(F)c(F)c(F)c(F)c5F)c5ccc2[nH]5)C=C4)C=C3)cc1
REMARK SMILES IDX 7 1 8 2 6 3 5 4 4 5 3 6 2 7 1 8 27 9 28 10 89 11 29 12 88 13
REMARK SMILES IDX 30 14 31 15 32 16 82 17 33 18 87 19 81 20 83 21 34 22 86 23
REMARK SMILES IDX 80 24 79 25 35 27 67 28 47 29 66 30 48 31 51 32 65 33 84 34
REMARK SMILES IDX 49 35 50 36 64 38 85 39 52 40 36 41 37 42 45 43 38 44 39 45
REMARK SMILES IDX 43 46 46 47 40 48 41 49 44 50 42 51 68 52 69 53 77 54 70 55
REMARK SMILES IDX 71 56 75 57 78 58 72 59 73 60 76 61 74 62 53 63 54 64 62 65
REMARK SMILES IDX 55 66 56 67 60 68 63 69 57 70 58 71 61 72 59 73 9 74 10 75
REMARK SMILES IDX 26 76 11 77 25 78 12 79 13 80 14 81 15 82 16 83 17 85 18 86
REMARK SMILES IDX 19 87 20 88 21 89 24 90 22 91 23 92
REMARK H PARENT 83 26 51 37 16 84
REMARK Flexibility Score: inf
ROOT
ATOM      1  C   UNL A   1      40.414  21.085  26.956  1.00  0.00     0.338 C 
ATOM      2  O   UNL A   1      40.737  21.472  28.066  1.00  0.00    -0.246 OA
ENDROOT
BRANCH   1   3
ATOM      3  O   UNL A   1      40.985  20.097  26.224  1.00  0.00    -0.458 OA
BRANCH   3   4
ATOM      4  C   UNL A   1      41.985  19.323  26.916  1.00  0.00     0.275 C 
BRANCH   4   5
ATOM      5  C   UNL A   1      42.987  18.716  25.930  1.00  0.00     0.275 C 
BRANCH   5   6
ATOM      6  O   UNL A   1      43.212  19.420  24.690  1.00  0.00    -0.458 OA
BRANCH   6   7
ATOM      7  C   UNL A   1      44.411  20.000  24.470  1.00  0.00     0.338 C 
ATOM      8  O   UNL A   1      45.270  19.537  23.738  1.00  0.00    -0.246 OA
BRANCH   7   9
ATOM      9  C   UNL A   1      44.494  21.363  25.050  1.00  0.00     0.060 A 
ATOM     10  C   UNL A   1      45.578  21.778  25.835  1.00  0.00     0.016 A 
ATOM     11  C   UNL A   1      43.436  22.245  24.800  1.00  0.00     0.016 A 
ATOM     12  C   UNL A   1      45.574  23.031  26.427  1.00  0.00     0.010 A 
ATOM     13  C   UNL A   1      43.438  23.508  25.377  1.00  0.00     0.010 A 
ATOM     14  C   UNL A   1      44.478  23.871  26.240  1.00  0.00    -0.014 A 
BRANCH  14  15
ATOM     15  C   UNL A   1      44.410  25.083  27.050  1.00  0.00     0.031 A 
ATOM     16  C   UNL A   1      45.486  26.105  26.898  1.00  0.00     0.074 A 
ATOM     17  C   UNL A   1      43.333  25.316  27.827  1.00  0.00     0.049 A 
ATOM     18  N   UNL A   1      46.187  26.691  27.822  1.00  0.00    -0.248 NA
ATOM     19  C   UNL A   1      45.830  26.526  25.533  1.00  0.00     0.031 C 
ATOM     20  C   UNL A   1      42.087  24.543  27.891  1.00  0.00     0.029 A 
ATOM     21  N   UNL A   1      43.079  26.381  28.637  1.00  0.00    -0.354 N 
ATOM     22  C   UNL A   1      46.951  27.662  27.173  1.00  0.00     0.074 A 
ATOM     23  C   UNL A   1      46.748  27.467  25.760  1.00  0.00     0.031 C 
ATOM     24  C   UNL A   1      41.136  25.287  28.493  1.00  0.00     0.029 A 
ATOM     25  C   UNL A   1      41.744  26.515  28.972  1.00  0.00     0.049 A 
ATOM     26  H   UNL A   1      43.779  26.997  28.953  1.00  0.00     0.167 HD
ATOM     27  C   UNL A   1      47.572  28.679  27.832  1.00  0.00     0.037 A 
ATOM     28  C   UNL A   1      41.154  27.600  29.522  1.00  0.00     0.037 A 
ATOM     29  C   UNL A   1      47.771  28.400  29.225  1.00  0.00     0.049 A 
ATOM     30  C   UNL A   1      42.208  28.416  30.169  1.00  0.00     0.074 A 
ATOM     31  C   UNL A   1      48.475  27.450  29.940  1.00  0.00     0.029 A 
ATOM     32  N   UNL A   1      46.969  29.019  30.148  1.00  0.00    -0.354 N 
ATOM     33  N   UNL A   1      42.879  28.042  31.224  1.00  0.00    -0.248 NA
ATOM     34  C   UNL A   1      42.803  29.499  29.402  1.00  0.00     0.031 C 
ATOM     35  C   UNL A   1      47.700  27.217  31.113  1.00  0.00     0.029 A 
ATOM     36  C   UNL A   1      46.583  28.050  31.037  1.00  0.00     0.049 A 
ATOM     37  H   UNL A   1      46.721  29.972  30.169  1.00  0.00     0.167 HD
ATOM     38  C   UNL A   1      44.154  28.551  31.032  1.00  0.00     0.074 A 
ATOM     39  C   UNL A   1      44.016  29.528  29.957  1.00  0.00     0.031 C 
ATOM     40  C   UNL A   1      45.248  27.937  31.570  1.00  0.00     0.037 A 
BRANCH  27  41
ATOM     41  C   UNL A   1      47.758  30.059  27.258  1.00  0.00     0.064 A 
ATOM     42  C   UNL A   1      49.022  30.678  27.285  1.00  0.00     0.173 A 
ATOM     43  C   UNL A   1      46.668  30.902  26.948  1.00  0.00     0.173 A 
ATOM     44  F   UNL A   1      50.118  29.978  27.616  1.00  0.00    -0.203 F 
ATOM     45  C   UNL A   1      49.177  32.048  27.056  1.00  0.00     0.198 A 
ATOM     46  C   UNL A   1      46.832  32.257  26.668  1.00  0.00     0.198 A 
ATOM     47  F   UNL A   1      45.404  30.466  27.021  1.00  0.00    -0.203 F 
ATOM     48  F   UNL A   1      50.383  32.616  27.199  1.00  0.00    -0.200 F 
ATOM     49  C   UNL A   1      48.083  32.836  26.746  1.00  0.00     0.200 A 
ATOM     50  F   UNL A   1      45.758  33.012  26.401  1.00  0.00    -0.200 F 
ATOM     51  F   UNL A   1      48.223  34.158  26.580  1.00  0.00    -0.200 F 
ENDBRANCH  27  41
BRANCH  28  52
ATOM     52  C   UNL A   1      39.797  28.101  29.217  1.00  0.00     0.064 A 
ATOM     53  C   UNL A   1      38.807  28.180  30.206  1.00  0.00     0.173 A 
ATOM     54  C   UNL A   1      39.511  28.728  27.986  1.00  0.00     0.173 A 
ATOM     55  F   UNL A   1      39.026  27.658  31.421  1.00  0.00    -0.203 F 
ATOM     56  C   UNL A   1      37.600  28.846  29.974  1.00  0.00     0.198 A 
ATOM     57  C   UNL A   1      38.302  29.379  27.751  1.00  0.00     0.198 A 
ATOM     58  F   UNL A   1      40.435  28.795  27.016  1.00  0.00    -0.203 F 
ATOM     59  F   UNL A   1      36.692  28.945  30.956  1.00  0.00    -0.200 F 
ATOM     60  C   UNL A   1      37.349  29.446  28.749  1.00  0.00     0.200 A 
ATOM     61  F   UNL A   1      38.090  29.984  26.574  1.00  0.00    -0.200 F 
ATOM     62  F   UNL A   1      36.209  30.120  28.543  1.00  0.00    -0.200 F 
ENDBRANCH  28  52
BRANCH  40  63
ATOM     63  C   UNL A   1      45.010  26.842  32.569  1.00  0.00     0.064 A 
ATOM     64  C   UNL A   1      44.812  27.086  33.939  1.00  0.00     0.173 A 
ATOM     65  C   UNL A   1      44.819  25.532  32.115  1.00  0.00     0.173 A 
ATOM     66  F   UNL A   1      44.858  28.331  34.427  1.00  0.00    -0.203 F 
ATOM     67  C   UNL A   1      44.495  26.057  34.821  1.00  0.00     0.198 A 
ATOM     68  C   UNL A   1      44.467  24.509  32.993  1.00  0.00     0.198 A 
ATOM     69  F   UNL A   1      44.922  25.252  30.806  1.00  0.00    -0.203 F 
ATOM     70  F   UNL A   1      44.321  26.319  36.126  1.00  0.00    -0.200 F 
ATOM     71  C   UNL A   1      44.317  24.770  34.347  1.00  0.00     0.200 A 
ATOM     72  F   UNL A   1      44.240  23.276  32.523  1.00  0.00    -0.200 F 
ATOM     73  F   UNL A   1      43.967  23.786  35.187  1.00  0.00    -0.200 F 
ENDBRANCH  40  63
ENDBRANCH  14  15
ENDBRANCH   7   9
ENDBRANCH   6   7
ENDBRANCH   5   6
ENDBRANCH   4   5
ENDBRANCH   3   4
ENDBRANCH   1   3
BRANCH   1  74
ATOM     74  C   UNL A   1      39.317  21.700  26.191  1.00  0.00     0.060 A 
ATOM     75  C   UNL A   1      38.984  23.035  26.448  1.00  0.00     0.017 A 
ATOM     76  C   UNL A   1      38.555  20.932  25.306  1.00  0.00     0.017 A 
ATOM     77  C   UNL A   1      37.876  23.607  25.822  1.00  0.00     0.022 A 
ATOM     78  C   UNL A   1      37.436  21.498  24.688  1.00  0.00     0.022 A 
ATOM     79  C   UNL A   1      37.094  22.828  24.964  1.00  0.00     0.082 A 
BRANCH  79  80
ATOM     80  S   UNL A   1      35.572  23.498  24.335  1.00  0.00     0.240 S 
ATOM     81  O   UNL A   1      35.344  24.777  24.994  1.00  0.00    -0.207 OA
ATOM     82  O   UNL A   1      35.617  23.388  22.906  1.00  0.00    -0.207 OA
BRANCH  80  83
ATOM     83  N   UNL A   1      34.405  22.441  24.882  1.00  0.00    -0.211 NA
ATOM     84  H   UNL A   1      34.248  22.687  25.859  1.00  0.00     0.141 HD
BRANCH  83  85
ATOM     85  C   UNL A   1      33.077  22.305  24.290  1.00  0.00     0.101 C 
BRANCH  85  86
ATOM     86  C   UNL A   1      32.745  20.892  23.830  1.00  0.00     0.040 C 
BRANCH  86  87
ATOM     87  C   UNL A   1      32.210  19.980  24.930  1.00  0.00     0.145 C 
BRANCH  87  88
ATOM     88  N   UNL A   1      32.925  18.719  24.995  1.00  0.00    -0.273 N 
ATOM     89  C   UNL A   1      34.108  18.422  24.383  1.00  0.00     0.108 A 
ATOM     90  N   UNL A   1      32.392  17.677  25.664  1.00  0.00    -0.182 NA
ATOM     91  C   UNL A   1      34.369  17.106  24.681  1.00  0.00     0.042 A 
ATOM     92  C   UNL A   1      33.284  16.699  25.479  1.00  0.00     0.135 A 
ENDBRANCH  87  88
ENDBRANCH  86  87
ENDBRANCH  85  86
ENDBRANCH  83  85
ENDBRANCH  80  83
ENDBRANCH  79  80
ENDBRANCH   1  74
TORSDOF 17
ENDMDL
MODEL 2
REMARK VINA RESULT:     -11.3      3.263      4.995
REMARK SMILES O=C(OCCOC(=O)c1ccc(S(=O)(=O)NCCCn2cccn2)cc1)c1ccc(-c2c3nc(c(-c4c(F)c(F)c(F)c(F)c4F)c4ccc([nH]4)c(-c4c(F)c(F)c(F)c(F)c4F)c4nc(c(-c5c(F)c(F)c(F)c(F)c5F)c5ccc2[nH]5)C=C4)C=C3)cc1
REMARK SMILES IDX 7 1 8 2 6 3 5 4 4 5 3 6 2 7 1 8 27 9 28 10 89 11 29 12 88 13
REMARK SMILES IDX 30 14 31 15 32 16 82 17 33 18 87 19 81 20 83 21 34 22 86 23
REMARK SMILES IDX 80 24 79 25 35 27 67 28 47 29 66 30 48 31 51 32 65 33 84 34
REMARK SMILES IDX 49 35 50 36 64 38 85 39 52 40 36 41 37 42 45 43 38 44 39 45
REMARK SMILES IDX 43 46 46 47 40 48 41 49 44 50 42 51 68 52 69 53 77 54 70 55
REMARK SMILES IDX 71 56 75 57 78 58 72 59 73 60 76 61 74 62 53 63 54 64 62 65
REMARK SMILES IDX 55 66 56 67 60 68 63 69 57 70 58 71 61 72 59 73 9 74 10 75
REMARK SMILES IDX 26 76 11 77 25 78 12 79 13 80 14 81 15 82 16 83 17 85 18 86
REMARK SMILES IDX 19 87 20 88 21 89 24 90 22 91 23 92
REMARK H PARENT 83 26 51 37 16 84
REMARK Flexibility Score: inf
ROOT
ATOM      1  C   UNL A   1      35.057  21.893  25.496  1.00  0.00     0.338 C 
ATOM      2  O   UNL A   1      34.777  21.957  26.680  1.00  0.00    -0.246 OA
ENDROOT
BRANCH   1   3
ATOM      3  O   UNL A   1      35.790  20.941  24.867  1.00  0.00    -0.458 OA
BRANCH   3   4
ATOM      4  C   UNL A   1      37.089  21.372  24.412  1.00  0.00     0.275 C 
BRANCH   4   5
ATOM      5  C   UNL A   1      38.116  21.303  25.543  1.00  0.00     0.275 C 
BRANCH   5   6
ATOM      6  O   UNL A   1      38.670  22.549  26.018  1.00  0.00    -0.458 OA
BRANCH   6   7
ATOM      7  C   UNL A   1      39.730  22.522  26.854  1.00  0.00     0.338 C 
ATOM      8  O   UNL A   1      40.360  21.514  27.127  1.00  0.00    -0.246 OA
BRANCH   7   9
ATOM      9  C   UNL A   1      40.175  23.883  27.246  1.00  0.00     0.060 A 
ATOM     10  C   UNL A   1      41.343  24.104  27.988  1.00  0.00     0.016 A 
ATOM     11  C   UNL A   1      39.379  24.968  26.858  1.00  0.00     0.016 A 
ATOM     12  C   UNL A   1      41.675  25.383  28.404  1.00  0.00     0.010 A 
ATOM     13  C   UNL A   1      39.720  26.252  27.258  1.00  0.00     0.010 A 
ATOM     14  C   UNL A   1      40.832  26.446  28.083  1.00  0.00    -0.014 A 
BRANCH  14  15
ATOM     15  C   UNL A   1      41.096  27.733  28.720  1.00  0.00     0.031 A 
ATOM     16  C   UNL A   1      42.342  28.469  28.355  1.00  0.00     0.074 A 
ATOM     17  C   UNL A   1      40.170  28.289  29.528  1.00  0.00     0.049 A 
ATOM     18  N   UNL A   1      43.234  28.994  29.139  1.00  0.00    -0.248 NA
ATOM     19  C   UNL A   1      42.632  28.635  26.925  1.00  0.00     0.031 C 
ATOM     20  C   UNL A   1      38.804  27.820  29.783  1.00  0.00     0.029 A 
ATOM     21  N   UNL A   1      40.223  29.473  30.197  1.00  0.00    -0.354 N 
ATOM     22  C   UNL A   1      44.117  29.688  28.311  1.00  0.00     0.074 A 
ATOM     23  C   UNL A   1      43.744  29.372  26.955  1.00  0.00     0.031 C 
ATOM     24  C   UNL A   1      38.090  28.822  30.339  1.00  0.00     0.029 A 
ATOM     25  C   UNL A   1      38.983  29.936  30.601  1.00  0.00     0.049 A 
ATOM     26  H   UNL A   1      41.063  29.955  30.377  1.00  0.00     0.167 HD
ATOM     27  C   UNL A   1      44.998  30.617  28.778  1.00  0.00     0.037 A 
ATOM     28  C   UNL A   1      38.688  31.181  31.033  1.00  0.00     0.037 A 
ATOM     29  C   UNL A   1      45.266  30.472  30.180  1.00  0.00     0.049 A 
ATOM     30  C   UNL A   1      39.945  31.819  31.488  1.00  0.00     0.074 A 
ATOM     31  C   UNL A   1      45.823  29.485  30.970  1.00  0.00     0.029 A 
ATOM     32  N   UNL A   1      44.704  31.359  31.060  1.00  0.00    -0.354 N 
ATOM     33  N   UNL A   1      40.622  31.439  32.536  1.00  0.00    -0.248 NA
ATOM     34  C   UNL A   1      40.676  32.645  30.539  1.00  0.00     0.031 C 
ATOM     35  C   UNL A   1      45.133  29.572  32.215  1.00  0.00     0.029 A 
ATOM     36  C   UNL A   1      44.212  30.613  32.099  1.00  0.00     0.049 A 
ATOM     37  H   UNL A   1      44.662  32.339  30.965  1.00  0.00     0.167 HD
ATOM     38  C   UNL A   1      41.951  31.629  32.190  1.00  0.00     0.074 A 
ATOM     39  C   UNL A   1      41.916  32.475  31.001  1.00  0.00     0.031 C 
ATOM     40  C   UNL A   1      42.940  30.860  32.732  1.00  0.00     0.037 A 
BRANCH  27  41
ATOM     41  C   UNL A   1      45.410  31.843  28.007  1.00  0.00     0.064 A 
ATOM     42  C   UNL A   1      44.439  32.742  27.527  1.00  0.00     0.173 A 
ATOM     43  C   UNL A   1      46.709  32.003  27.478  1.00  0.00     0.173 A 
ATOM     44  F   UNL A   1      43.162  32.647  27.928  1.00  0.00    -0.203 F 
ATOM     45  C   UNL A   1      44.741  33.705  26.559  1.00  0.00     0.198 A 
ATOM     46  C   UNL A   1      47.019  32.997  26.553  1.00  0.00     0.198 A 
ATOM     47  F   UNL A   1      47.688  31.130  27.752  1.00  0.00    -0.203 F 
ATOM     48  F   UNL A   1      43.763  34.468  26.050  1.00  0.00    -0.200 F 
ATOM     49  C   UNL A   1      46.030  33.833  26.074  1.00  0.00     0.200 A 
ATOM     50  F   UNL A   1      48.266  33.087  26.070  1.00  0.00    -0.200 F 
ATOM     51  F   UNL A   1      46.309  34.719  25.109  1.00  0.00    -0.200 F 
ENDBRANCH  27  41
BRANCH  28  52
ATOM     52  C   UNL A   1      37.441  31.927  30.754  1.00  0.00     0.064 A 
ATOM     53  C   UNL A   1      37.123  32.365  29.462  1.00  0.00     0.173 A 
ATOM     54  C   UNL A   1      36.422  32.029  31.724  1.00  0.00     0.173 A 
ATOM     55  F   UNL A   1      38.020  32.248  28.472  1.00  0.00    -0.203 F 
ATOM     56  C   UNL A   1      35.859  32.878  29.159  1.00  0.00     0.198 A 
ATOM     57  C   UNL A   1      35.167  32.553  31.425  1.00  0.00     0.198 A 
ATOM     58  F   UNL A   1      36.596  31.541  32.961  1.00  0.00    -0.203 F 
ATOM     59  F   UNL A   1      35.571  33.244  27.902  1.00  0.00    -0.200 F 
ATOM     60  C   UNL A   1      34.881  32.970  30.139  1.00  0.00     0.200 A 
ATOM     61  F   UNL A   1      34.222  32.603  32.375  1.00  0.00    -0.200 F 
ATOM     62  F   UNL A   1      33.657  33.423  29.837  1.00  0.00    -0.200 F 
ENDBRANCH  28  52
BRANCH  40  63
ATOM     63  C   UNL A   1      42.576  29.974  33.887  1.00  0.00     0.064 A 
ATOM     64  C   UNL A   1      42.009  28.698  33.724  1.00  0.00     0.173 A 
ATOM     65  C   UNL A   1      42.951  30.350  35.182  1.00  0.00     0.173 A 
ATOM     66  F   UNL A   1      41.736  28.220  32.504  1.00  0.00    -0.203 F 
ATOM     67  C   UNL A   1      41.776  27.862  34.813  1.00  0.00     0.198 A 
ATOM     68  C   UNL A   1      42.750  29.498  36.267  1.00  0.00     0.198 A 
ATOM     69  F   UNL A   1      43.563  31.526  35.390  1.00  0.00    -0.203 F 
ATOM     70  F   UNL A   1      41.225  26.653  34.627  1.00  0.00    -0.200 F 
ATOM     71  C   UNL A   1      42.152  28.261  36.083  1.00  0.00     0.200 A 
ATOM     72  F   UNL A   1      43.166  29.863  37.487  1.00  0.00    -0.200 F 
ATOM     73  F   UNL A   1      41.970  27.439  37.126  1.00  0.00    -0.200 F 
ENDBRANCH  40  63
ENDBRANCH  14  15
ENDBRANCH   7   9
ENDBRANCH   6   7
ENDBRANCH   5   6
ENDBRANCH   4   5
ENDBRANCH   3   4
ENDBRANCH   1   3
BRANCH   1  74
ATOM     74  C   UNL A   1      34.648  22.925  24.529  1.00  0.00     0.060 A 
ATOM     75  C   UNL A   1      34.684  24.268  24.922  1.00  0.00     0.017 A 
ATOM     76  C   UNL A   1      34.129  22.560  23.282  1.00  0.00     0.017 A 
ATOM     77  C   UNL A   1      34.193  25.255  24.068  1.00  0.00     0.022 A 
ATOM     78  C   UNL A   1      33.624  23.545  22.430  1.00  0.00     0.022 A 
ATOM     79  C   UNL A   1      33.643  24.886  22.836  1.00  0.00     0.082 A 
BRANCH  79  80
ATOM     80  S   UNL A   1      32.834  26.121  21.846  1.00  0.00     0.240 S 
ATOM     81  O   UNL A   1      33.335  27.424  22.265  1.00  0.00    -0.207 OA
ATOM     82  O   UNL A   1      32.910  25.691  20.481  1.00  0.00    -0.207 OA
BRANCH  80  83
ATOM     83  N   UNL A   1      31.235  26.031  22.311  1.00  0.00    -0.211 NA
ATOM     84  H   UNL A   1      31.130  25.122  22.761  1.00  0.00     0.141 HD
BRANCH  83  85
ATOM     85  C   UNL A   1      30.582  26.989  23.199  1.00  0.00     0.101 C 
BRANCH  85  86
ATOM     86  C   UNL A   1      29.927  26.357  24.419  1.00  0.00     0.040 C 
BRANCH  86  87
ATOM     87  C   UNL A   1      30.873  26.123  25.592  1.00  0.00     0.145 C 
BRANCH  87  88
ATOM     88  N   UNL A   1      31.066  24.713  25.873  1.00  0.00    -0.273 N 
ATOM     89  C   UNL A   1      30.875  23.677  25.003  1.00  0.00     0.108 A 
ATOM     90  N   UNL A   1      31.410  24.313  27.113  1.00  0.00    -0.182 NA
ATOM     91  C   UNL A   1      31.123  22.531  25.720  1.00  0.00     0.042 A 
ATOM     92  C   UNL A   1      31.456  22.982  27.010  1.00  0.00     0.135 A 
ENDBRANCH  87  88
ENDBRANCH  86  87
ENDBRANCH  85  86
ENDBRANCH  83  85
ENDBRANCH  80  83
ENDBRANCH  79  80
ENDBRANCH   1  74
TORSDOF 17
ENDMDL
MODEL 3
REMARK VINA RESULT:     -11.3      3.734      8.927
REMARK SMILES O=C(OCCOC(=O)c1ccc(S(=O)(=O)NCCCn2cccn2)cc1)c1ccc(-c2c3nc(c(-c4c(F)c(F)c(F)c(F)c4F)c4ccc([nH]4)c(-c4c(F)c(F)c(F)c(F)c4F)c4nc(c(-c5c(F)c(F)c(F)c(F)c5F)c5ccc2[nH]5)C=C4)C=C3)cc1
REMARK SMILES IDX 7 1 8 2 6 3 5 4 4 5 3 6 2 7 1 8 27 9 28 10 89 11 29 12 88 13
REMARK SMILES IDX 30 14 31 15 32 16 82 17 33 18 87 19 81 20 83 21 34 22 86 23
REMARK SMILES IDX 80 24 79 25 35 27 67 28 47 29 66 30 48 31 51 32 65 33 84 34
REMARK SMILES IDX 49 35 50 36 64 38 85 39 52 40 36 41 37 42 45 43 38 44 39 45
REMARK SMILES IDX 43 46 46 47 40 48 41 49 44 50 42 51 68 52 69 53 77 54 70 55
REMARK SMILES IDX 71 56 75 57 78 58 72 59 73 60 76 61 74 62 53 63 54 64 62 65
REMARK SMILES IDX 55 66 56 67 60 68 63 69 57 70 58 71 61 72 59 73 9 74 10 75
REMARK SMILES IDX 26 76 11 77 25 78 12 79 13 80 14 81 15 82 16 83 17 85 18 86
REMARK SMILES IDX 19 87 20 88 21 89 24 90 22 91 23 92
REMARK H PARENT 83 26 51 37 16 84
REMARK Flexibility Score: inf
ROOT
ATOM      1  C   UNL A   1      32.414  29.000  24.972  1.00  0.00     0.338 C 
ATOM      2  O   UNL A   1      33.218  29.334  24.119  1.00  0.00    -0.246 OA
ENDROOT
BRANCH   1   3
ATOM      3  O   UNL A   1      31.530  29.788  25.632  1.00  0.00    -0.458 OA
BRANCH   3   4
ATOM      4  C   UNL A   1      31.855  30.050  27.011  1.00  0.00     0.275 C 
BRANCH   4   5
ATOM      5  C   UNL A   1      32.847  31.209  27.129  1.00  0.00     0.275 C 
BRANCH   5   6
ATOM      6  O   UNL A   1      34.222  30.882  27.428  1.00  0.00    -0.458 OA
BRANCH   6   7
ATOM      7  C   UNL A   1      34.981  31.778  28.095  1.00  0.00     0.338 C 
ATOM      8  O   UNL A   1      34.610  32.900  28.395  1.00  0.00    -0.246 OA
BRANCH   7   9
ATOM      9  C   UNL A   1      36.241  31.182  28.603  1.00  0.00     0.060 A 
ATOM     10  C   UNL A   1      37.351  31.963  28.954  1.00  0.00     0.016 A 
ATOM     11  C   UNL A   1      36.305  29.788  28.720  1.00  0.00     0.016 A 
ATOM     12  C   UNL A   1      38.536  31.360  29.344  1.00  0.00     0.010 A 
ATOM     13  C   UNL A   1      37.485  29.183  29.128  1.00  0.00     0.010 A 
ATOM     14  C   UNL A   1      38.615  29.969  29.377  1.00  0.00    -0.014 A 
BRANCH  14  15
ATOM     15  C   UNL A   1      39.932  29.372  29.578  1.00  0.00     0.031 A 
ATOM     16  C   UNL A   1      40.481  29.304  30.964  1.00  0.00     0.074 A 
ATOM     17  C   UNL A   1      40.575  28.793  28.544  1.00  0.00     0.049 A 
ATOM     18  N   UNL A   1      41.652  29.668  31.392  1.00  0.00    -0.248 NA
ATOM     19  C   UNL A   1      39.606  28.761  32.011  1.00  0.00     0.031 C 
ATOM     20  C   UNL A   1      40.064  28.552  27.190  1.00  0.00     0.029 A 
ATOM     21  N   UNL A   1      41.790  28.179  28.532  1.00  0.00    -0.354 N 
ATOM     22  C   UNL A   1      41.720  29.263  32.726  1.00  0.00     0.074 A 
ATOM     23  C   UNL A   1      40.409  28.779  33.076  1.00  0.00     0.031 C 
ATOM     24  C   UNL A   1      40.849  27.641  26.578  1.00  0.00     0.029 A 
ATOM     25  C   UNL A   1      41.980  27.351  27.440  1.00  0.00     0.049 A 
ATOM     26  H   UNL A   1      42.469  28.312  29.233  1.00  0.00     0.167 HD
ATOM     27  C   UNL A   1      42.891  29.188  33.420  1.00  0.00     0.037 A 
ATOM     28  C   UNL A   1      42.947  26.419  27.293  1.00  0.00     0.037 A 
ATOM     29  C   UNL A   1      43.931  29.989  32.842  1.00  0.00     0.049 A 
ATOM     30  C   UNL A   1      44.053  26.754  28.220  1.00  0.00     0.074 A 
ATOM     31  C   UNL A   1      44.108  31.339  32.606  1.00  0.00     0.029 A 
ATOM     32  N   UNL A   1      44.937  29.371  32.145  1.00  0.00    -0.354 N 
ATOM     33  N   UNL A   1      44.818  27.804  28.099  1.00  0.00    -0.248 NA
ATOM     34  C   UNL A   1      44.062  26.123  29.531  1.00  0.00     0.031 C 
ATOM     35  C   UNL A   1      44.871  31.410  31.405  1.00  0.00     0.029 A 
ATOM     36  C   UNL A   1      45.116  30.098  30.998  1.00  0.00     0.049 A 
ATOM     37  H   UNL A   1      45.433  28.564  32.417  1.00  0.00     0.167 HD
ATOM     38  C   UNL A   1      45.084  28.201  29.400  1.00  0.00     0.074 A 
ATOM     39  C   UNL A   1      44.689  27.070  30.232  1.00  0.00     0.031 C 
ATOM     40  C   UNL A   1      45.339  29.508  29.701  1.00  0.00     0.037 A 
BRANCH  27  41
ATOM     41  C   UNL A   1      43.170  28.159  34.483  1.00  0.00     0.064 A 
ATOM     42  C   UNL A   1      43.537  28.559  35.782  1.00  0.00     0.173 A 
ATOM     43  C   UNL A   1      43.370  26.794  34.181  1.00  0.00     0.173 A 
ATOM     44  F   UNL A   1      43.433  29.843  36.157  1.00  0.00    -0.203 F 
ATOM     45  C   UNL A   1      44.099  27.663  36.697  1.00  0.00     0.198 A 
ATOM     46  C   UNL A   1      43.880  25.893  35.113  1.00  0.00     0.198 A 
ATOM     47  F   UNL A   1      43.186  26.318  32.943  1.00  0.00    -0.203 F 
ATOM     48  F   UNL A   1      44.534  28.109  37.884  1.00  0.00    -0.200 F 
ATOM     49  C   UNL A   1      44.268  26.332  36.363  1.00  0.00     0.200 A 
ATOM     50  F   UNL A   1      44.068  24.613  34.762  1.00  0.00    -0.200 F 
ATOM     51  F   UNL A   1      44.856  25.485  37.219  1.00  0.00    -0.200 F 
ENDBRANCH  27  41
BRANCH  28  52
ATOM     52  C   UNL A   1      42.795  25.102  26.636  1.00  0.00     0.064 A 
ATOM     53  C   UNL A   1      43.522  24.769  25.486  1.00  0.00     0.173 A 
ATOM     54  C   UNL A   1      42.091  24.053  27.263  1.00  0.00     0.173 A 
ATOM     55  F   UNL A   1      44.263  25.699  24.865  1.00  0.00    -0.203 F 
ATOM     56  C   UNL A   1      43.541  23.462  24.990  1.00  0.00     0.198 A 
ATOM     57  C   UNL A   1      42.098  22.754  26.761  1.00  0.00     0.198 A 
ATOM     58  F   UNL A   1      41.451  24.250  28.426  1.00  0.00    -0.203 F 
ATOM     59  F   UNL A   1      44.284  23.166  23.914  1.00  0.00    -0.200 F 
ATOM     60  C   UNL A   1      42.831  22.456  25.629  1.00  0.00     0.200 A 
ATOM     61  F   UNL A   1      41.435  21.786  27.410  1.00  0.00    -0.200 F 
ATOM     62  F   UNL A   1      42.883  21.196  25.176  1.00  0.00    -0.200 F 
ENDBRANCH  28  52
BRANCH  40  63
ATOM     63  C   UNL A   1      45.562  30.455  28.558  1.00  0.00     0.064 A 
ATOM     64  C   UNL A   1      44.513  31.122  27.901  1.00  0.00     0.173 A 
ATOM     65  C   UNL A   1      46.869  30.819  28.217  1.00  0.00     0.173 A 
ATOM     66  F   UNL A   1      43.240  30.915  28.258  1.00  0.00    -0.203 F 
ATOM     67  C   UNL A   1      44.762  32.068  26.911  1.00  0.00     0.198 A 
ATOM     68  C   UNL A   1      47.117  31.792  27.250  1.00  0.00     0.198 A 
ATOM     69  F   UNL A   1      47.911  30.270  28.861  1.00  0.00    -0.203 F 
ATOM     70  F   UNL A   1      43.740  32.682  26.295  1.00  0.00    -0.200 F 
ATOM     71  C   UNL A   1      46.064  32.407  26.589  1.00  0.00     0.200 A 
ATOM     72  F   UNL A   1      48.377  32.159  26.981  1.00  0.00    -0.200 F 
ATOM     73  F   UNL A   1      46.305  33.350  25.668  1.00  0.00    -0.200 F 
ENDBRANCH  40  63
ENDBRANCH  14  15
ENDBRANCH   7   9
ENDBRANCH   6   7
ENDBRANCH   5   6
ENDBRANCH   4   5
ENDBRANCH   3   4
ENDBRANCH   1   3
BRANCH   1  74
ATOM     74  C   UNL A   1      32.313  27.617  25.466  1.00  0.00     0.060 A 
ATOM     75  C   UNL A   1      33.488  26.875  25.635  1.00  0.00     0.017 A 
ATOM     76  C   UNL A   1      31.061  27.025  25.657  1.00  0.00     0.017 A 
ATOM     77  C   UNL A   1      33.413  25.528  25.990  1.00  0.00     0.022 A 
ATOM     78  C   UNL A   1      30.983  25.672  26.000  1.00  0.00     0.022 A 
ATOM     79  C   UNL A   1      32.160  24.928  26.147  1.00  0.00     0.082 A 
BRANCH  79  80
ATOM     80  S   UNL A   1      32.070  23.169  26.394  1.00  0.00     0.240 S 
ATOM     81  O   UNL A   1      31.995  22.926  27.829  1.00  0.00    -0.207 OA
ATOM     82  O   UNL A   1      31.076  22.663  25.495  1.00  0.00    -0.207 OA
BRANCH  80  83
ATOM     83  N   UNL A   1      33.550  22.609  25.871  1.00  0.00    -0.211 NA
ATOM     84  H   UNL A   1      33.852  21.933  26.574  1.00  0.00     0.141 HD
BRANCH  83  85
ATOM     85  C   UNL A   1      33.775  21.963  24.581  1.00  0.00     0.101 C 
BRANCH  85  86
ATOM     86  C   UNL A   1      34.335  22.891  23.512  1.00  0.00     0.040 C 
BRANCH  86  87
ATOM     87  C   UNL A   1      33.390  23.149  22.343  1.00  0.00     0.145 C 
BRANCH  87  88
ATOM     88  N   UNL A   1      33.000  24.544  22.247  1.00  0.00    -0.273 N 
ATOM     89  C   UNL A   1      31.734  25.044  22.358  1.00  0.00     0.108 A 
ATOM     90  N   UNL A   1      33.923  25.484  21.964  1.00  0.00    -0.182 NA
ATOM     91  C   UNL A   1      31.842  26.397  22.145  1.00  0.00     0.042 A 
ATOM     92  C   UNL A   1      33.213  26.614  21.915  1.00  0.00     0.135 A 
ENDBRANCH  87  88
ENDBRANCH  86  87
ENDBRANCH  85  86
ENDBRANCH  83  85
ENDBRANCH  80  83
ENDBRANCH  79  80
ENDBRANCH   1  74
TORSDOF 17
ENDMDL
