MODEL 1
REMARK VINA RESULT:     -12.3      0.000      0.000
REMARK SMILES Cc1cc(C(F)(F)CC(C)(C)CC(=O)OCCOC(=O)c2ccc(-c3c4nc(c(-c5c(F)c(F)c(F)c(F)c5F)c5ccc([nH]5)c(-c5c(F)c(F)c(F)c(F)c5F)c5nc(c(-c6c(F)c(F)c(F)c(F)c6F)c6ccc3[nH]6)C=C5)C=C4)cc2)sc1Br
REMARK SMILES IDX 16 1 15 2 13 3 14 4 12 5 9 6 10 7 11 8 8 9 5 10 6 11 7 12
REMARK SMILES IDX 4 13 1 14 2 15 3 16 85 17 84 18 86 19 17 20 18 21 19 22
REMARK SMILES IDX 20 23 21 24 22 25 83 26 23 27 82 28 24 29 25 30 26 31 76 32
REMARK SMILES IDX 27 33 81 34 75 35 77 36 28 37 80 38 74 39 73 40 29 42 61 43
REMARK SMILES IDX 41 44 60 45 42 46 45 47 59 48 78 49 43 50 44 51 58 53 79 54
REMARK SMILES IDX 46 55 30 56 31 57 39 58 32 59 33 60 37 61 40 62 34 63 35 64
REMARK SMILES IDX 38 65 36 66 62 67 63 68 71 69 64 70 65 71 69 72 72 73 66 74
REMARK SMILES IDX 67 75 70 76 68 77 47 78 48 79 56 80 49 81 50 82 54 83 57 84
REMARK SMILES IDX 51 85 52 86 55 87 53 88
REMARK H PARENT 77 41 45 52
REMARK Flexibility Score: inf
ROOT
ATOM      1  C   UNL A   1      39.168  21.818  26.030  1.00  0.00     0.274 C 
ENDROOT
BRANCH   1   2
ATOM      2  O   UNL A   1      37.746  22.066  25.953  1.00  0.00    -0.462 OA
BRANCH   2   3
ATOM      3  C   UNL A   1      37.035  21.273  25.112  1.00  0.00     0.306 C 
ATOM      4  O   UNL A   1      37.328  20.104  24.864  1.00  0.00    -0.252 OA
BRANCH   3   5
ATOM      5  C   UNL A   1      35.918  21.993  24.370  1.00  0.00     0.129 C 
BRANCH   5   6
ATOM      6  C   UNL A   1      34.442  22.107  24.866  1.00  0.00    -0.019 C 
ATOM      7  C   UNL A   1      34.381  23.428  25.669  1.00  0.00     0.012 C 
ATOM      8  C   UNL A   1      34.096  20.977  25.860  1.00  0.00     0.012 C 
BRANCH   6   9
ATOM      9  C   UNL A   1      33.315  22.112  23.779  1.00  0.00     0.090 C 
BRANCH   9  10
ATOM     10  C   UNL A   1      33.276  23.189  22.686  1.00  0.00     0.282 C 
ATOM     11  F   UNL A   1      32.988  22.560  21.506  1.00  0.00    -0.200 F 
ATOM     12  F   UNL A   1      34.527  23.700  22.531  1.00  0.00    -0.200 F 
BRANCH  10  13
ATOM     13  C   UNL A   1      32.277  24.296  22.881  1.00  0.00     0.075 A 
ATOM     14  C   UNL A   1      29.445  26.014  24.659  1.00  0.00     0.046 C 
ATOM     15  C   UNL A   1      30.541  25.656  23.713  1.00  0.00    -0.025 A 
ATOM     16  C   UNL A   1      31.138  24.351  23.667  1.00  0.00     0.026 A 
ATOM     17  C   UNL A   1      31.160  26.485  22.802  1.00  0.00     0.073 A 
ATOM     18  S   UNL A   1      32.452  25.754  21.986  1.00  0.00    -0.127 S 
ATOM     19  Br  UNL A   1      30.686  28.273  22.476  1.00  0.00    -0.039 Br
ENDBRANCH  10  13
ENDBRANCH   9  10
ENDBRANCH   6   9
ENDBRANCH   5   6
ENDBRANCH   3   5
ENDBRANCH   2   3
ENDBRANCH   1   2
BRANCH   1  20
ATOM     20  C   UNL A   1      39.884  22.727  27.035  1.00  0.00     0.275 C 
BRANCH  20  21
ATOM     21  O   UNL A   1      39.442  24.093  26.996  1.00  0.00    -0.458 OA
BRANCH  21  22
ATOM     22  C   UNL A   1      40.164  24.888  27.813  1.00  0.00     0.338 C 
ATOM     23  O   UNL A   1      41.259  24.634  28.283  1.00  0.00    -0.246 OA
BRANCH  22  24
ATOM     24  C   UNL A   1      39.408  26.012  28.359  1.00  0.00     0.060 A 
ATOM     25  C   UNL A   1      39.495  27.200  27.629  1.00  0.00     0.016 A 
ATOM     26  C   UNL A   1      39.083  26.005  29.714  1.00  0.00     0.016 A 
ATOM     27  C   UNL A   1      39.491  28.403  28.298  1.00  0.00     0.010 A 
ATOM     28  C   UNL A   1      39.011  27.218  30.374  1.00  0.00     0.010 A 
ATOM     29  C   UNL A   1      39.312  28.402  29.682  1.00  0.00    -0.014 A 
BRANCH  29  30
ATOM     30  C   UNL A   1      39.349  29.693  30.364  1.00  0.00     0.031 A 
ATOM     31  C   UNL A   1      40.670  30.392  30.343  1.00  0.00     0.074 A 
ATOM     32  C   UNL A   1      38.222  30.289  30.803  1.00  0.00     0.049 A 
ATOM     33  N   UNL A   1      41.225  31.127  31.256  1.00  0.00    -0.248 NA
ATOM     34  C   UNL A   1      41.499  30.210  29.136  1.00  0.00     0.031 C 
ATOM     35  C   UNL A   1      36.844  29.810  30.648  1.00  0.00     0.029 A 
ATOM     36  N   UNL A   1      38.061  31.540  31.323  1.00  0.00    -0.354 N 
ATOM     37  C   UNL A   1      42.397  31.619  30.681  1.00  0.00     0.074 A 
ATOM     38  C   UNL A   1      42.566  30.949  29.421  1.00  0.00     0.031 C 
ATOM     39  C   UNL A   1      36.001  30.853  30.802  1.00  0.00     0.029 A 
ATOM     40  C   UNL A   1      36.774  32.029  31.163  1.00  0.00     0.049 A 
ATOM     41  H   UNL A   1      38.784  32.042  31.766  1.00  0.00     0.167 HD
ATOM     42  C   UNL A   1      43.058  32.697  31.174  1.00  0.00     0.037 A 
ATOM     43  C   UNL A   1      36.391  33.326  31.194  1.00  0.00     0.037 A 
ATOM     44  C   UNL A   1      42.854  32.869  32.583  1.00  0.00     0.049 A 
ATOM     45  C   UNL A   1      37.464  34.116  31.840  1.00  0.00     0.074 A 
ATOM     46  C   UNL A   1      43.086  32.080  33.696  1.00  0.00     0.029 A 
ATOM     47  N   UNL A   1      42.086  33.910  33.035  1.00  0.00    -0.354 N 
ATOM     48  N   UNL A   1      37.758  34.080  33.109  1.00  0.00    -0.248 NA
ATOM     49  C   UNL A   1      38.474  34.721  30.982  1.00  0.00     0.031 C 
ATOM     50  C   UNL A   1      42.062  32.425  34.624  1.00  0.00     0.029 A 
ATOM     51  C   UNL A   1      41.273  33.397  34.011  1.00  0.00     0.049 A 
ATOM     52  H   UNL A   1      42.113  34.842  32.720  1.00  0.00     0.167 HD
ATOM     53  C   UNL A   1      39.128  34.280  33.158  1.00  0.00     0.074 A 
ATOM     54  C   UNL A   1      39.490  34.791  31.843  1.00  0.00     0.031 C 
ATOM     55  C   UNL A   1      39.884  33.748  34.161  1.00  0.00     0.037 A 
BRANCH  42  56
ATOM     56  C   UNL A   1      43.647  33.760  30.281  1.00  0.00     0.064 A 
ATOM     57  C   UNL A   1      42.812  34.485  29.411  1.00  0.00     0.173 A 
ATOM     58  C   UNL A   1      45.036  33.893  30.045  1.00  0.00     0.173 A 
ATOM     59  F   UNL A   1      41.477  34.405  29.520  1.00  0.00    -0.203 F 
ATOM     60  C   UNL A   1      43.327  35.236  28.351  1.00  0.00     0.198 A 
ATOM     61  C   UNL A   1      45.546  34.689  29.024  1.00  0.00     0.198 A 
ATOM     62  F   UNL A   1      45.944  33.178  30.722  1.00  0.00    -0.203 F 
ATOM     63  F   UNL A   1      42.490  35.811  27.476  1.00  0.00    -0.200 F 
ATOM     64  C   UNL A   1      44.693  35.337  28.156  1.00  0.00     0.200 A 
ATOM     65  F   UNL A   1      46.873  34.757  28.841  1.00  0.00    -0.200 F 
ATOM     66  F   UNL A   1      45.185  36.010  27.109  1.00  0.00    -0.200 F 
ENDBRANCH  42  56
BRANCH  43  67
ATOM     67  C   UNL A   1      35.279  33.960  30.448  1.00  0.00     0.064 A 
ATOM     68  C   UNL A   1      34.219  34.582  31.122  1.00  0.00     0.173 A 
ATOM     69  C   UNL A   1      35.344  34.168  29.055  1.00  0.00     0.173 A 
ATOM     70  F   UNL A   1      34.119  34.486  32.455  1.00  0.00    -0.203 F 
ATOM     71  C   UNL A   1      33.275  35.359  30.443  1.00  0.00     0.198 A 
ATOM     72  C   UNL A   1      34.392  34.926  28.375  1.00  0.00     0.198 A 
ATOM     73  F   UNL A   1      36.379  33.714  28.334  1.00  0.00    -0.203 F 
ATOM     74  F   UNL A   1      32.306  35.982  31.129  1.00  0.00    -0.200 F 
ATOM     75  C   UNL A   1      33.362  35.529  29.071  1.00  0.00     0.200 A 
ATOM     76  F   UNL A   1      34.508  35.110  27.053  1.00  0.00    -0.200 F 
ATOM     77  F   UNL A   1      32.479  36.305  28.426  1.00  0.00    -0.200 F 
ENDBRANCH  43  67
BRANCH  55  78
ATOM     78  C   UNL A   1      39.169  33.202  35.360  1.00  0.00     0.064 A 
ATOM     79  C   UNL A   1      38.765  31.862  35.472  1.00  0.00     0.173 A 
ATOM     80  C   UNL A   1      39.010  34.024  36.484  1.00  0.00     0.173 A 
ATOM     81  F   UNL A   1      38.986  30.992  34.477  1.00  0.00    -0.203 F 
ATOM     82  C   UNL A   1      38.176  31.381  36.638  1.00  0.00     0.198 A 
ATOM     83  C   UNL A   1      38.454  33.532  37.662  1.00  0.00     0.198 A 
ATOM     84  F   UNL A   1      39.439  35.296  36.454  1.00  0.00    -0.203 F 
ATOM     85  F   UNL A   1      37.782  30.101  36.716  1.00  0.00    -0.200 F 
ATOM     86  C   UNL A   1      38.025  32.215  37.734  1.00  0.00     0.200 A 
ATOM     87  F   UNL A   1      38.356  34.327  38.736  1.00  0.00    -0.200 F 
ATOM     88  F   UNL A   1      37.493  31.744  38.870  1.00  0.00    -0.200 F 
ENDBRANCH  55  78
ENDBRANCH  29  30
ENDBRANCH  22  24
ENDBRANCH  21  22
ENDBRANCH  20  21
ENDBRANCH   1  20
TORSDOF 15
ENDMDL
MODEL 2
REMARK VINA RESULT:     -12.2      6.100     11.348
REMARK SMILES Cc1cc(C(F)(F)CC(C)(C)CC(=O)OCCOC(=O)c2ccc(-c3c4nc(c(-c5c(F)c(F)c(F)c(F)c5F)c5ccc([nH]5)c(-c5c(F)c(F)c(F)c(F)c5F)c5nc(c(-c6c(F)c(F)c(F)c(F)c6F)c6ccc3[nH]6)C=C5)C=C4)cc2)sc1Br
REMARK SMILES IDX 16 1 15 2 13 3 14 4 12 5 9 6 10 7 11 8 8 9 5 10 6 11 7 12
REMARK SMILES IDX 4 13 1 14 2 15 3 16 85 17 84 18 86 19 17 20 18 21 19 22
REMARK SMILES IDX 20 23 21 24 22 25 83 26 23 27 82 28 24 29 25 30 26 31 76 32
REMARK SMILES IDX 27 33 81 34 75 35 77 36 28 37 80 38 74 39 73 40 29 42 61 43
REMARK SMILES IDX 41 44 60 45 42 46 45 47 59 48 78 49 43 50 44 51 58 53 79 54
REMARK SMILES IDX 46 55 30 56 31 57 39 58 32 59 33 60 37 61 40 62 34 63 35 64
REMARK SMILES IDX 38 65 36 66 62 67 63 68 71 69 64 70 65 71 69 72 72 73 66 74
REMARK SMILES IDX 67 75 70 76 68 77 47 78 48 79 56 80 49 81 50 82 54 83 57 84
REMARK SMILES IDX 51 85 52 86 55 87 53 88
REMARK H PARENT 77 41 45 52
REMARK Flexibility Score: inf
ROOT
ATOM      1  C   UNL A   1      33.733  30.847  27.622  1.00  0.00     0.274 C 
ENDROOT
BRANCH   1   2
ATOM      2  O   UNL A   1      32.769  30.515  26.597  1.00  0.00    -0.462 OA
BRANCH   2   3
ATOM      3  C   UNL A   1      32.265  29.255  26.622  1.00  0.00     0.306 C 
ATOM      4  O   UNL A   1      31.666  28.777  27.584  1.00  0.00    -0.252 OA
BRANCH   3   5
ATOM      5  C   UNL A   1      32.635  28.411  25.410  1.00  0.00     0.129 C 
BRANCH   5   6
ATOM      6  C   UNL A   1      31.826  28.359  24.076  1.00  0.00    -0.019 C 
ATOM      7  C   UNL A   1      32.790  28.895  22.991  1.00  0.00     0.012 C 
ATOM      8  C   UNL A   1      30.625  29.329  24.110  1.00  0.00     0.012 C 
BRANCH   6   9
ATOM      9  C   UNL A   1      31.268  26.966  23.627  1.00  0.00     0.090 C 
BRANCH   9  10
ATOM     10  C   UNL A   1      30.912  25.887  24.659  1.00  0.00     0.282 C 
ATOM     11  F   UNL A   1      29.957  25.086  24.096  1.00  0.00    -0.200 F 
ATOM     12  F   UNL A   1      30.308  26.481  25.723  1.00  0.00    -0.200 F 
BRANCH  10  13
ATOM     13  C   UNL A   1      32.044  25.010  25.121  1.00  0.00     0.075 A 
ATOM     14  C   UNL A   1      35.664  24.035  25.392  1.00  0.00     0.046 C 
ATOM     15  C   UNL A   1      34.178  24.092  25.512  1.00  0.00    -0.025 A 
ATOM     16  C   UNL A   1      33.361  24.948  24.699  1.00  0.00     0.026 A 
ATOM     17  C   UNL A   1      33.386  23.399  26.404  1.00  0.00     0.073 A 
ATOM     18  S   UNL A   1      31.748  23.818  26.324  1.00  0.00    -0.127 S 
ATOM     19  Br  UNL A   1      34.011  22.128  27.638  1.00  0.00    -0.039 Br
ENDBRANCH  10  13
ENDBRANCH   9  10
ENDBRANCH   6   9
ENDBRANCH   5   6
ENDBRANCH   3   5
ENDBRANCH   2   3
ENDBRANCH   1   2
BRANCH   1  20
ATOM     20  C   UNL A   1      35.121  30.256  27.357  1.00  0.00     0.275 C 
BRANCH  20  21
ATOM     21  O   UNL A   1      35.757  29.721  28.529  1.00  0.00    -0.458 OA
BRANCH  21  22
ATOM     22  C   UNL A   1      37.036  30.131  28.650  1.00  0.00     0.338 C 
ATOM     23  O   UNL A   1      37.409  31.237  28.996  1.00  0.00    -0.246 OA
BRANCH  22  24
ATOM     24  C   UNL A   1      38.005  29.219  28.047  1.00  0.00     0.060 A 
ATOM     25  C   UNL A   1      38.091  27.960  28.645  1.00  0.00     0.016 A 
ATOM     26  C   UNL A   1      39.058  29.754  27.307  1.00  0.00     0.016 A 
ATOM     27  C   UNL A   1      39.312  27.328  28.709  1.00  0.00     0.010 A 
ATOM     28  C   UNL A   1      40.267  29.084  27.315  1.00  0.00     0.010 A 
ATOM     29  C   UNL A   1      40.413  27.927  28.096  1.00  0.00    -0.014 A 
BRANCH  29  30
ATOM     30  C   UNL A   1      41.700  27.247  28.215  1.00  0.00     0.031 A 
ATOM     31  C   UNL A   1      42.427  27.470  29.502  1.00  0.00     0.074 A 
ATOM     32  C   UNL A   1      42.098  26.333  27.308  1.00  0.00     0.049 A 
ATOM     33  N   UNL A   1      43.701  27.578  29.717  1.00  0.00    -0.248 NA
ATOM     34  C   UNL A   1      41.600  27.627  30.714  1.00  0.00     0.031 C 
ATOM     35  C   UNL A   1      41.349  25.851  26.142  1.00  0.00     0.029 A 
ATOM     36  N   UNL A   1      43.187  25.510  27.341  1.00  0.00    -0.354 N 
ATOM     37  C   UNL A   1      43.842  27.664  31.102  1.00  0.00     0.074 A 
ATOM     38  C   UNL A   1      42.522  27.789  31.656  1.00  0.00     0.031 C 
ATOM     39  C   UNL A   1      41.860  24.662  25.758  1.00  0.00     0.029 A 
ATOM     40  C   UNL A   1      43.019  24.364  26.581  1.00  0.00     0.049 A 
ATOM     41  H   UNL A   1      44.005  25.711  27.852  1.00  0.00     0.167 HD
ATOM     42  C   UNL A   1      45.018  27.424  31.736  1.00  0.00     0.037 A 
ATOM     43  C   UNL A   1      43.700  23.201  26.708  1.00  0.00     0.037 A 
ATOM     44  C   UNL A   1      46.155  27.702  30.906  1.00  0.00     0.049 A 
ATOM     45  C   UNL A   1      44.932  23.463  27.488  1.00  0.00     0.074 A 
ATOM     46  C   UNL A   1      46.615  28.826  30.244  1.00  0.00     0.029 A 
ATOM     47  N   UNL A   1      46.914  26.667  30.427  1.00  0.00    -0.354 N 
ATOM     48  N   UNL A   1      45.966  24.124  27.050  1.00  0.00    -0.248 NA
ATOM     49  C   UNL A   1      44.878  23.270  28.930  1.00  0.00     0.031 C 
ATOM     50  C   UNL A   1      47.271  28.335  29.078  1.00  0.00     0.029 A 
ATOM     51  C   UNL A   1      47.162  26.946  29.108  1.00  0.00     0.049 A 
ATOM     52  H   UNL A   1      47.220  25.877  30.930  1.00  0.00     0.167 HD
ATOM     53  C   UNL A   1      46.469  24.768  28.168  1.00  0.00     0.074 A 
ATOM     54  C   UNL A   1      45.844  24.110  29.307  1.00  0.00     0.031 C 
ATOM     55  C   UNL A   1      47.128  25.958  28.061  1.00  0.00     0.037 A 
BRANCH  42  56
ATOM     56  C   UNL A   1      45.097  26.642  33.023  1.00  0.00     0.064 A 
ATOM     57  C   UNL A   1      44.542  25.351  33.094  1.00  0.00     0.173 A 
ATOM     58  C   UNL A   1      45.443  27.226  34.265  1.00  0.00     0.173 A 
ATOM     59  F   UNL A   1      44.144  24.717  31.980  1.00  0.00    -0.203 F 
ATOM     60  C   UNL A   1      44.298  24.720  34.316  1.00  0.00     0.198 A 
ATOM     61  C   UNL A   1      45.251  26.569  35.477  1.00  0.00     0.198 A 
ATOM     62  F   UNL A   1      45.877  28.489  34.361  1.00  0.00    -0.203 F 
ATOM     63  F   UNL A   1      43.657  23.543  34.339  1.00  0.00    -0.200 F 
ATOM     64  C   UNL A   1      44.650  25.329  35.507  1.00  0.00     0.200 A 
ATOM     65  F   UNL A   1      45.582  27.185  36.621  1.00  0.00    -0.200 F 
ATOM     66  F   UNL A   1      44.366  24.750  36.680  1.00  0.00    -0.200 F 
ENDBRANCH  42  56
BRANCH  43  67
ATOM     67  C   UNL A   1      43.209  21.830  26.438  1.00  0.00     0.064 A 
ATOM     68  C   UNL A   1      43.857  21.000  25.512  1.00  0.00     0.173 A 
ATOM     69  C   UNL A   1      42.227  21.221  27.247  1.00  0.00     0.173 A 
ATOM     70  F   UNL A   1      44.845  21.484  24.748  1.00  0.00    -0.203 F 
ATOM     71  C   UNL A   1      43.537  19.643  25.396  1.00  0.00     0.198 A 
ATOM     72  C   UNL A   1      41.894  19.874  27.116  1.00  0.00     0.198 A 
ATOM     73  F   UNL A   1      41.630  21.897  28.239  1.00  0.00    -0.203 F 
ATOM     74  F   UNL A   1      44.214  18.869  24.537  1.00  0.00    -0.200 F 
ATOM     75  C   UNL A   1      42.555  19.082  26.197  1.00  0.00     0.200 A 
ATOM     76  F   UNL A   1      40.967  19.337  27.922  1.00  0.00    -0.200 F 
ATOM     77  F   UNL A   1      42.275  17.774  26.112  1.00  0.00    -0.200 F 
ENDBRANCH  43  67
BRANCH  55  78
ATOM     78  C   UNL A   1      47.555  26.399  26.694  1.00  0.00     0.064 A 
ATOM     79  C   UNL A   1      48.779  26.029  26.112  1.00  0.00     0.173 A 
ATOM     80  C   UNL A   1      46.643  27.101  25.895  1.00  0.00     0.173 A 
ATOM     81  F   UNL A   1      49.653  25.264  26.779  1.00  0.00    -0.203 F 
ATOM     82  C   UNL A   1      49.097  26.395  24.807  1.00  0.00     0.198 A 
ATOM     83  C   UNL A   1      46.948  27.435  24.579  1.00  0.00     0.198 A 
ATOM     84  F   UNL A   1      45.433  27.422  26.379  1.00  0.00    -0.203 F 
ATOM     85  F   UNL A   1      50.279  26.045  24.278  1.00  0.00    -0.200 F 
ATOM     86  C   UNL A   1      48.180  27.094  24.039  1.00  0.00     0.200 A 
ATOM     87  F   UNL A   1      46.039  28.067  23.822  1.00  0.00    -0.200 F 
ATOM     88  F   UNL A   1      48.469  27.415  22.771  1.00  0.00    -0.200 F 
ENDBRANCH  55  78
ENDBRANCH  29  30
ENDBRANCH  22  24
ENDBRANCH  21  22
ENDBRANCH  20  21
ENDBRANCH   1  20
TORSDOF 15
ENDMDL
MODEL 3
REMARK VINA RESULT:     -12.2      1.261      1.859
REMARK SMILES Cc1cc(C(F)(F)CC(C)(C)CC(=O)OCCOC(=O)c2ccc(-c3c4nc(c(-c5c(F)c(F)c(F)c(F)c5F)c5ccc([nH]5)c(-c5c(F)c(F)c(F)c(F)c5F)c5nc(c(-c6c(F)c(F)c(F)c(F)c6F)c6ccc3[nH]6)C=C5)C=C4)cc2)sc1Br
REMARK SMILES IDX 16 1 15 2 13 3 14 4 12 5 9 6 10 7 11 8 8 9 5 10 6 11 7 12
REMARK SMILES IDX 4 13 1 14 2 15 3 16 85 17 84 18 86 19 17 20 18 21 19 22
REMARK SMILES IDX 20 23 21 24 22 25 83 26 23 27 82 28 24 29 25 30 26 31 76 32
REMARK SMILES IDX 27 33 81 34 75 35 77 36 28 37 80 38 74 39 73 40 29 42 61 43
REMARK SMILES IDX 41 44 60 45 42 46 45 47 59 48 78 49 43 50 44 51 58 53 79 54
REMARK SMILES IDX 46 55 30 56 31 57 39 58 32 59 33 60 37 61 40 62 34 63 35 64
REMARK SMILES IDX 38 65 36 66 62 67 63 68 71 69 64 70 65 71 69 72 72 73 66 74
REMARK SMILES IDX 67 75 70 76 68 77 47 78 48 79 56 80 49 81 50 82 54 83 57 84
REMARK SMILES IDX 51 85 52 86 55 87 53 88
REMARK H PARENT 77 41 45 52
REMARK Flexibility Score: inf
ROOT
ATOM      1  C   UNL A   1      38.578  21.896  25.920  1.00  0.00     0.274 C 
ENDROOT
BRANCH   1   2
ATOM      2  O   UNL A   1      37.400  22.640  25.534  1.00  0.00    -0.462 OA
BRANCH   2   3
ATOM      3  C   UNL A   1      36.675  22.139  24.501  1.00  0.00     0.306 C 
ATOM      4  O   UNL A   1      36.744  22.563  23.348  1.00  0.00    -0.252 OA
BRANCH   3   5
ATOM      5  C   UNL A   1      35.642  21.099  24.911  1.00  0.00     0.129 C 
BRANCH   5   6
ATOM      6  C   UNL A   1      34.113  21.373  25.072  1.00  0.00    -0.019 C 
ATOM      7  C   UNL A   1      33.799  21.079  26.558  1.00  0.00     0.012 C 
ATOM      8  C   UNL A   1      33.274  20.375  24.245  1.00  0.00     0.012 C 
BRANCH   6   9
ATOM      9  C   UNL A   1      33.597  22.806  24.709  1.00  0.00     0.090 C 
BRANCH   9  10
ATOM     10  C   UNL A   1      33.328  23.850  25.801  1.00  0.00     0.282 C 
ATOM     11  F   UNL A   1      34.262  23.660  26.783  1.00  0.00    -0.200 F 
ATOM     12  F   UNL A   1      32.130  23.576  26.383  1.00  0.00    -0.200 F 
BRANCH  10  13
ATOM     13  C   UNL A   1      33.387  25.291  25.373  1.00  0.00     0.075 A 
ATOM     14  C   UNL A   1      33.966  28.961  25.943  1.00  0.00     0.046 C 
ATOM     15  C   UNL A   1      33.659  27.632  25.341  1.00  0.00    -0.025 A 
ATOM     16  C   UNL A   1      33.435  26.451  26.127  1.00  0.00     0.026 A 
ATOM     17  C   UNL A   1      33.582  27.320  24.000  1.00  0.00     0.073 A 
ATOM     18  S   UNL A   1      33.335  25.673  23.697  1.00  0.00    -0.127 S 
ATOM     19  Br  UNL A   1      33.763  28.555  22.595  1.00  0.00    -0.039 Br
ENDBRANCH  10  13
ENDBRANCH   9  10
ENDBRANCH   6   9
ENDBRANCH   5   6
ENDBRANCH   3   5
ENDBRANCH   2   3
ENDBRANCH   1   2
BRANCH   1  20
ATOM     20  C   UNL A   1      39.639  22.762  26.606  1.00  0.00     0.275 C 
BRANCH  20  21
ATOM     21  O   UNL A   1      39.289  24.154  26.682  1.00  0.00    -0.458 OA
BRANCH  21  22
ATOM     22  C   UNL A   1      39.998  24.809  27.625  1.00  0.00     0.338 C 
ATOM     23  O   UNL A   1      41.035  24.431  28.139  1.00  0.00    -0.246 OA
BRANCH  22  24
ATOM     24  C   UNL A   1      39.278  25.925  28.232  1.00  0.00     0.060 A 
ATOM     25  C   UNL A   1      39.280  27.110  27.492  1.00  0.00     0.016 A 
ATOM     26  C   UNL A   1      39.077  25.921  29.611  1.00  0.00     0.016 A 
ATOM     27  C   UNL A   1      39.319  28.316  28.154  1.00  0.00     0.010 A 
ATOM     28  C   UNL A   1      39.047  27.137  30.269  1.00  0.00     0.010 A 
ATOM     29  C   UNL A   1      39.266  28.321  29.548  1.00  0.00    -0.014 A 
BRANCH  29  30
ATOM     30  C   UNL A   1      39.346  29.616  30.218  1.00  0.00     0.031 A 
ATOM     31  C   UNL A   1      40.670  30.304  30.130  1.00  0.00     0.074 A 
ATOM     32  C   UNL A   1      38.246  30.224  30.705  1.00  0.00     0.049 A 
ATOM     33  N   UNL A   1      41.274  31.040  31.010  1.00  0.00    -0.248 NA
ATOM     34  C   UNL A   1      41.440  30.107  28.886  1.00  0.00     0.031 C 
ATOM     35  C   UNL A   1      36.858  29.756  30.620  1.00  0.00     0.029 A 
ATOM     36  N   UNL A   1      38.120  31.480  31.224  1.00  0.00    -0.354 N 
ATOM     37  C   UNL A   1      42.421  31.519  30.378  1.00  0.00     0.074 A 
ATOM     38  C   UNL A   1      42.524  30.838  29.116  1.00  0.00     0.031 C 
ATOM     39  C   UNL A   1      36.032  30.807  30.806  1.00  0.00     0.029 A 
ATOM     40  C   UNL A   1      36.831  31.979  31.121  1.00  0.00     0.049 A 
ATOM     41  H   UNL A   1      38.867  31.979  31.628  1.00  0.00     0.167 HD
ATOM     42  C   UNL A   1      43.113  32.594  30.831  1.00  0.00     0.037 A 
ATOM     43  C   UNL A   1      36.459  33.280  31.160  1.00  0.00     0.037 A 
ATOM     44  C   UNL A   1      42.977  32.777  32.247  1.00  0.00     0.049 A 
ATOM     45  C   UNL A   1      37.569  34.065  31.749  1.00  0.00     0.074 A 
ATOM     46  C   UNL A   1      43.255  31.995  33.353  1.00  0.00     0.029 A 
ATOM     47  N   UNL A   1      42.240  33.828  32.726  1.00  0.00    -0.354 N 
ATOM     48  N   UNL A   1      37.922  34.035  33.003  1.00  0.00    -0.248 NA
ATOM     49  C   UNL A   1      38.542  34.655  30.841  1.00  0.00     0.031 C 
ATOM     50  C   UNL A   1      42.279  32.354  34.325  1.00  0.00     0.029 A 
ATOM     51  C   UNL A   1      41.470  33.329  33.744  1.00  0.00     0.049 A 
ATOM     52  H   UNL A   1      42.259  34.758  32.404  1.00  0.00     0.167 HD
ATOM     53  C   UNL A   1      39.294  34.224  32.986  1.00  0.00     0.074 A 
ATOM     54  C   UNL A   1      39.598  34.723  31.653  1.00  0.00     0.031 C 
ATOM     55  C   UNL A   1      40.092  33.693  33.957  1.00  0.00     0.037 A 
BRANCH  42  56
ATOM     56  C   UNL A   1      43.668  33.647  29.904  1.00  0.00     0.064 A 
ATOM     57  C   UNL A   1      42.796  34.387  29.082  1.00  0.00     0.173 A 
ATOM     58  C   UNL A   1      45.042  33.755  29.586  1.00  0.00     0.173 A 
ATOM     59  F   UNL A   1      41.469  34.330  29.270  1.00  0.00    -0.203 F 
ATOM     60  C   UNL A   1      43.262  35.128  27.993  1.00  0.00     0.198 A 
ATOM     61  C   UNL A   1      45.506  34.541  28.535  1.00  0.00     0.198 A 
ATOM     62  F   UNL A   1      45.975  33.023  30.209  1.00  0.00    -0.203 F 
ATOM     63  F   UNL A   1      42.385  35.718  27.168  1.00  0.00    -0.200 F 
ATOM     64  C   UNL A   1      44.615  35.204  27.719  1.00  0.00     0.200 A 
ATOM     65  F   UNL A   1      46.821  34.585  28.275  1.00  0.00    -0.200 F 
ATOM     66  F   UNL A   1      45.057  35.867  26.643  1.00  0.00    -0.200 F 
ENDBRANCH  42  56
BRANCH  43  67
ATOM     67  C   UNL A   1      35.319  33.917  30.464  1.00  0.00     0.064 A 
ATOM     68  C   UNL A   1      34.294  34.548  31.183  1.00  0.00     0.173 A 
ATOM     69  C   UNL A   1      35.322  34.120  29.068  1.00  0.00     0.173 A 
ATOM     70  F   UNL A   1      34.254  34.459  32.519  1.00  0.00    -0.203 F 
ATOM     71  C   UNL A   1      33.325  35.329  30.544  1.00  0.00     0.198 A 
ATOM     72  C   UNL A   1      34.344  34.881  28.429  1.00  0.00     0.198 A 
ATOM     73  F   UNL A   1      36.320  33.656  28.303  1.00  0.00    -0.203 F 
ATOM     74  F   UNL A   1      32.392  35.961  31.270  1.00  0.00    -0.200 F 
ATOM     75  C   UNL A   1      33.350  35.493  29.169  1.00  0.00     0.200 A 
ATOM     76  F   UNL A   1      34.401  35.060  27.102  1.00  0.00    -0.200 F 
ATOM     77  F   UNL A   1      32.444  36.272  28.561  1.00  0.00    -0.200 F 
ENDBRANCH  43  67
BRANCH  55  78
ATOM     78  C   UNL A   1      39.430  33.161  35.192  1.00  0.00     0.064 A 
ATOM     79  C   UNL A   1      39.122  33.960  36.305  1.00  0.00     0.173 A 
ATOM     80  C   UNL A   1      38.969  31.838  35.196  1.00  0.00     0.173 A 
ATOM     81  F   UNL A   1      39.435  35.263  36.324  1.00  0.00    -0.203 F 
ATOM     82  C   UNL A   1      38.433  33.441  37.398  1.00  0.00     0.198 A 
ATOM     83  C   UNL A   1      38.249  31.330  36.273  1.00  0.00     0.198 A 
ATOM     84  F   UNL A   1      39.178  31.050  34.129  1.00  0.00    -0.203 F 
ATOM     85  F   UNL A   1      38.166  34.218  38.458  1.00  0.00    -0.200 F 
ATOM     86  C   UNL A   1      37.993  32.127  37.379  1.00  0.00     0.200 A 
ATOM     87  F   UNL A   1      37.781  30.075  36.231  1.00  0.00    -0.200 F 
ATOM     88  F   UNL A   1      37.297  31.636  38.413  1.00  0.00    -0.200 F 
ENDBRANCH  55  78
ENDBRANCH  29  30
ENDBRANCH  22  24
ENDBRANCH  21  22
ENDBRANCH  20  21
ENDBRANCH   1  20
TORSDOF 15
ENDMDL
