MODEL 1
REMARK VINA RESULT:     -12.7      0.000      0.000
REMARK SMILES Cc1cc([C@H](C)NC(=O)N2CC[C@H](C(=O)OCCOC(=O)c3ccc(-c4c5nc(c(-c6c(F)c(F)c(F)c(F)c6F)c6ccc([nH]6)c(-c6c(F)c(F)c(F)c(F)c6F)c6nc(c(-c7c(F)c(F)c(F)c(F)c7F)c7ccc4[nH]7)C=C6)C=C5)cc3)[C@@H]2C)c(C)s1
REMARK SMILES IDX 17 1 16 2 14 3 15 4 13 5 10 6 11 7 85 8 12 9 86 10 8 11 7 12
REMARK SMILES IDX 9 14 5 15 6 16 4 17 1 18 2 19 3 20 89 21 87 22 88 23 18 24
REMARK SMILES IDX 19 25 20 26 21 27 22 28 23 29 84 30 24 31 83 32 25 33 26 34
REMARK SMILES IDX 27 35 77 36 28 37 82 38 76 39 78 40 29 41 81 42 75 43 74 44
REMARK SMILES IDX 30 46 62 47 42 48 61 49 43 50 46 51 60 52 79 53 44 54 45 55
REMARK SMILES IDX 59 57 80 58 47 59 31 60 32 61 40 62 33 63 34 64 38 65 41 66
REMARK SMILES IDX 35 67 36 68 39 69 37 70 63 71 64 72 72 73 65 74 66 75 70 76
REMARK SMILES IDX 73 77 67 78 68 79 71 80 69 81 48 82 49 83 57 84 50 85 51 86
REMARK SMILES IDX 55 87 58 88 52 89 53 90 56 91 54 92
REMARK H PARENT 7 13 78 45 46 56
REMARK Flexibility Score: inf
ROOT
ATOM      1  C   UNL A   1      35.681  21.009  25.517  1.00  0.00     0.274 C 
ENDROOT
BRANCH   1   2
ATOM      2  O   UNL A   1      34.809  21.327  24.406  1.00  0.00    -0.462 OA
BRANCH   2   3
ATOM      3  C   UNL A   1      34.920  22.584  23.881  1.00  0.00     0.311 C 
ATOM      4  O   UNL A   1      35.878  22.985  23.234  1.00  0.00    -0.252 OA
BRANCH   3   5
ATOM      5  C   UNL A   1      33.711  23.436  24.257  1.00  0.00     0.123 C 
ATOM      6  N   UNL A   1      33.093  25.134  22.669  1.00  0.00    -0.321 N 
ATOM      7  C   UNL A   1      34.192  25.644  23.473  1.00  0.00     0.122 C 
ATOM      8  C   UNL A   1      32.727  23.781  23.113  1.00  0.00     0.098 C 
ATOM      9  C   UNL A   1      34.156  24.817  24.747  1.00  0.00     0.039 C 
ATOM     10  C   UNL A   1      32.719  22.756  21.995  1.00  0.00     0.032 C 
BRANCH   6  11
ATOM     11  C   UNL A   1      32.660  25.878  21.610  1.00  0.00     0.318 C 
ATOM     12  N   UNL A   1      31.699  26.821  21.740  1.00  0.00    -0.331 N 
ATOM     13  H   UNL A   1      30.999  26.812  21.048  1.00  0.00     0.165 HD
ATOM     14  O   UNL A   1      33.106  25.698  20.475  1.00  0.00    -0.249 OA
BRANCH  12  15
ATOM     15  C   UNL A   1      31.559  27.846  22.763  1.00  0.00     0.112 C 
ATOM     16  C   UNL A   1      32.735  28.824  22.669  1.00  0.00     0.036 C 
BRANCH  15  17
ATOM     17  C   UNL A   1      30.209  28.535  22.595  1.00  0.00    -0.012 A 
ATOM     18  C   UNL A   1      28.166  31.609  21.640  1.00  0.00     0.056 C 
ATOM     19  C   UNL A   1      28.724  30.286  22.038  1.00  0.00     0.002 A 
ATOM     20  C   UNL A   1      30.019  29.822  21.958  1.00  0.00     0.021 A 
ATOM     21  S   UNL A   1      27.688  29.125  22.719  1.00  0.00    -0.146 S 
ATOM     22  C   UNL A   1      28.989  28.074  23.088  1.00  0.00     0.007 A 
ATOM     23  C   UNL A   1      28.655  26.847  23.868  1.00  0.00     0.057 C 
ENDBRANCH  15  17
ENDBRANCH  12  15
ENDBRANCH   6  11
ENDBRANCH   3   5
ENDBRANCH   2   3
ENDBRANCH   1   2
BRANCH   1  24
ATOM     24  C   UNL A   1      36.976  20.350  25.036  1.00  0.00     0.275 C 
BRANCH  24  25
ATOM     25  O   UNL A   1      38.040  21.310  25.114  1.00  0.00    -0.458 OA
BRANCH  25  26
ATOM     26  C   UNL A   1      39.057  21.017  25.963  1.00  0.00     0.338 C 
ATOM     27  O   UNL A   1      39.538  19.913  26.157  1.00  0.00    -0.246 OA
BRANCH  26  28
ATOM     28  C   UNL A   1      39.614  22.274  26.537  1.00  0.00     0.060 A 
ATOM     29  C   UNL A   1      39.132  23.521  26.133  1.00  0.00     0.016 A 
ATOM     30  C   UNL A   1      40.743  22.219  27.362  1.00  0.00     0.016 A 
ATOM     31  C   UNL A   1      39.839  24.680  26.444  1.00  0.00     0.010 A 
ATOM     32  C   UNL A   1      41.377  23.402  27.774  1.00  0.00     0.010 A 
ATOM     33  C   UNL A   1      40.951  24.651  27.296  1.00  0.00    -0.014 A 
BRANCH  33  34
ATOM     34  C   UNL A   1      41.633  25.921  27.694  1.00  0.00     0.031 A 
ATOM     35  C   UNL A   1      40.933  26.966  28.527  1.00  0.00     0.074 A 
ATOM     36  C   UNL A   1      42.910  26.149  27.319  1.00  0.00     0.049 A 
ATOM     37  N   UNL A   1      41.305  28.196  28.795  1.00  0.00    -0.248 NA
ATOM     38  C   UNL A   1      39.648  26.590  29.138  1.00  0.00     0.031 C 
ATOM     39  C   UNL A   1      43.756  25.217  26.572  1.00  0.00     0.029 A 
ATOM     40  N   UNL A   1      43.724  27.240  27.518  1.00  0.00    -0.354 N 
ATOM     41  C   UNL A   1      40.300  28.742  29.583  1.00  0.00     0.074 A 
ATOM     42  C   UNL A   1      39.290  27.716  29.744  1.00  0.00     0.031 C 
ATOM     43  C   UNL A   1      44.974  25.749  26.418  1.00  0.00     0.029 A 
ATOM     44  C   UNL A   1      44.960  27.113  26.933  1.00  0.00     0.049 A 
ATOM     45  H   UNL A   1      43.448  28.036  28.029  1.00  0.00     0.167 HD
ATOM     46  C   UNL A   1      40.229  29.983  30.120  1.00  0.00     0.037 A 
ATOM     47  C   UNL A   1      45.953  28.002  26.748  1.00  0.00     0.037 A 
ATOM     48  C   UNL A   1      41.238  31.005  29.982  1.00  0.00     0.049 A 
ATOM     49  C   UNL A   1      45.785  29.413  27.219  1.00  0.00     0.074 A 
ATOM     50  C   UNL A   1      41.245  32.287  30.510  1.00  0.00     0.029 A 
ATOM     51  N   UNL A   1      42.417  30.866  29.268  1.00  0.00    -0.354 N 
ATOM     52  N   UNL A   1      44.796  29.944  27.891  1.00  0.00    -0.248 NA
ATOM     53  C   UNL A   1      46.854  30.357  26.870  1.00  0.00     0.031 C 
ATOM     54  C   UNL A   1      42.402  32.941  30.071  1.00  0.00     0.029 A 
ATOM     55  C   UNL A   1      43.140  32.050  29.309  1.00  0.00     0.049 A 
ATOM     56  H   UNL A   1      42.701  30.048  28.800  1.00  0.00     0.167 HD
ATOM     57  C   UNL A   1      45.120  31.284  28.046  1.00  0.00     0.074 A 
ATOM     58  C   UNL A   1      46.408  31.480  27.415  1.00  0.00     0.031 C 
ATOM     59  C   UNL A   1      44.405  32.259  28.656  1.00  0.00     0.037 A 
BRANCH  46  60
ATOM     60  C   UNL A   1      38.999  30.345  30.900  1.00  0.00     0.064 A 
ATOM     61  C   UNL A   1      38.948  30.223  32.294  1.00  0.00     0.173 A 
ATOM     62  C   UNL A   1      37.902  30.932  30.248  1.00  0.00     0.173 A 
ATOM     63  F   UNL A   1      39.961  29.650  32.961  1.00  0.00    -0.203 F 
ATOM     64  C   UNL A   1      37.846  30.685  33.010  1.00  0.00     0.198 A 
ATOM     65  C   UNL A   1      36.810  31.407  30.968  1.00  0.00     0.198 A 
ATOM     66  F   UNL A   1      37.907  31.077  28.914  1.00  0.00    -0.203 F 
ATOM     67  F   UNL A   1      37.810  30.546  34.343  1.00  0.00    -0.200 F 
ATOM     68  C   UNL A   1      36.785  31.285  32.349  1.00  0.00     0.200 A 
ATOM     69  F   UNL A   1      35.792  31.998  30.329  1.00  0.00    -0.200 F 
ATOM     70  F   UNL A   1      35.734  31.744  33.044  1.00  0.00    -0.200 F 
ENDBRANCH  46  60
BRANCH  47  71
ATOM     71  C   UNL A   1      47.157  27.587  25.983  1.00  0.00     0.064 A 
ATOM     72  C   UNL A   1      47.195  27.678  24.586  1.00  0.00     0.173 A 
ATOM     73  C   UNL A   1      48.310  27.135  26.645  1.00  0.00     0.173 A 
ATOM     74  F   UNL A   1      46.106  28.069  23.909  1.00  0.00    -0.203 F 
ATOM     75  C   UNL A   1      48.350  27.345  23.881  1.00  0.00     0.198 A 
ATOM     76  C   UNL A   1      49.473  26.837  25.941  1.00  0.00     0.198 A 
ATOM     77  F   UNL A   1      48.317  27.022  27.981  1.00  0.00    -0.203 F 
ATOM     78  F   UNL A   1      48.358  27.415  22.543  1.00  0.00    -0.200 F 
ATOM     79  C   UNL A   1      49.491  26.941  24.560  1.00  0.00     0.200 A 
ATOM     80  F   UNL A   1      50.576  26.465  26.604  1.00  0.00    -0.200 F 
ATOM     81  F   UNL A   1      50.609  26.648  23.881  1.00  0.00    -0.200 F 
ENDBRANCH  47  71
BRANCH  59  82
ATOM     82  C   UNL A   1      45.006  33.631  28.673  1.00  0.00     0.064 A 
ATOM     83  C   UNL A   1      45.900  34.023  29.682  1.00  0.00     0.173 A 
ATOM     84  C   UNL A   1      44.682  34.569  27.681  1.00  0.00     0.173 A 
ATOM     85  F   UNL A   1      46.224  33.169  30.665  1.00  0.00    -0.203 F 
ATOM     86  C   UNL A   1      46.426  35.311  29.711  1.00  0.00     0.198 A 
ATOM     87  C   UNL A   1      45.230  35.848  27.700  1.00  0.00     0.198 A 
ATOM     88  F   UNL A   1      43.834  34.243  26.694  1.00  0.00    -0.203 F 
ATOM     89  F   UNL A   1      47.236  35.681  30.712  1.00  0.00    -0.200 F 
ATOM     90  C   UNL A   1      46.093  36.222  28.718  1.00  0.00     0.200 A 
ATOM     91  F   UNL A   1      44.912  36.725  26.737  1.00  0.00    -0.200 F 
ATOM     92  F   UNL A   1      46.594  37.464  28.752  1.00  0.00    -0.200 F 
ENDBRANCH  59  82
ENDBRANCH  33  34
ENDBRANCH  26  28
ENDBRANCH  25  26
ENDBRANCH  24  25
ENDBRANCH   1  24
TORSDOF 14
ENDMDL
MODEL 2
REMARK VINA RESULT:     -12.6      4.609     10.131
REMARK SMILES Cc1cc([C@H](C)NC(=O)N2CC[C@H](C(=O)OCCOC(=O)c3ccc(-c4c5nc(c(-c6c(F)c(F)c(F)c(F)c6F)c6ccc([nH]6)c(-c6c(F)c(F)c(F)c(F)c6F)c6nc(c(-c7c(F)c(F)c(F)c(F)c7F)c7ccc4[nH]7)C=C6)C=C5)cc3)[C@@H]2C)c(C)s1
REMARK SMILES IDX 17 1 16 2 14 3 15 4 13 5 10 6 11 7 85 8 12 9 86 10 8 11 7 12
REMARK SMILES IDX 9 14 5 15 6 16 4 17 1 18 2 19 3 20 89 21 87 22 88 23 18 24
REMARK SMILES IDX 19 25 20 26 21 27 22 28 23 29 84 30 24 31 83 32 25 33 26 34
REMARK SMILES IDX 27 35 77 36 28 37 82 38 76 39 78 40 29 41 81 42 75 43 74 44
REMARK SMILES IDX 30 46 62 47 42 48 61 49 43 50 46 51 60 52 79 53 44 54 45 55
REMARK SMILES IDX 59 57 80 58 47 59 31 60 32 61 40 62 33 63 34 64 38 65 41 66
REMARK SMILES IDX 35 67 36 68 39 69 37 70 63 71 64 72 72 73 65 74 66 75 70 76
REMARK SMILES IDX 73 77 67 78 68 79 71 80 69 81 48 82 49 83 57 84 50 85 51 86
REMARK SMILES IDX 55 87 58 88 52 89 53 90 56 91 54 92
REMARK H PARENT 7 13 78 45 46 56
REMARK Flexibility Score: inf
ROOT
ATOM      1  C   UNL A   1      32.995  28.916  24.551  1.00  0.00     0.274 C 
ENDROOT
BRANCH   1   2
ATOM      2  O   UNL A   1      32.389  28.048  23.563  1.00  0.00    -0.462 OA
BRANCH   2   3
ATOM      3  C   UNL A   1      32.294  26.724  23.888  1.00  0.00     0.311 C 
ATOM      4  O   UNL A   1      33.203  25.913  23.778  1.00  0.00    -0.252 OA
BRANCH   3   5
ATOM      5  C   UNL A   1      30.882  26.383  24.357  1.00  0.00     0.123 C 
ATOM      6  N   UNL A   1      30.647  24.303  25.543  1.00  0.00    -0.321 N 
ATOM      7  C   UNL A   1      30.663  24.013  24.118  1.00  0.00     0.122 C 
ATOM      8  C   UNL A   1      30.756  25.752  25.765  1.00  0.00     0.098 C 
ATOM      9  C   UNL A   1      30.255  25.317  23.453  1.00  0.00     0.039 C 
ATOM     10  C   UNL A   1      31.883  26.140  26.703  1.00  0.00     0.032 C 
BRANCH   6  11
ATOM     11  C   UNL A   1      30.653  23.257  26.420  1.00  0.00     0.318 C 
ATOM     12  N   UNL A   1      31.256  22.082  26.131  1.00  0.00    -0.331 N 
ATOM     13  H   UNL A   1      30.737  21.274  26.344  1.00  0.00     0.165 HD
ATOM     14  O   UNL A   1      30.075  23.328  27.507  1.00  0.00    -0.249 OA
BRANCH  12  15
ATOM     15  C   UNL A   1      32.569  21.849  25.548  1.00  0.00     0.112 C 
ATOM     16  C   UNL A   1      33.645  22.043  26.622  1.00  0.00     0.036 C 
BRANCH  15  17
ATOM     17  C   UNL A   1      32.600  20.454  24.933  1.00  0.00    -0.012 A 
ATOM     18  C   UNL A   1      33.413  16.739  25.209  1.00  0.00     0.056 C 
ATOM     19  C   UNL A   1      32.986  18.124  24.863  1.00  0.00     0.002 A 
ATOM     20  C   UNL A   1      32.903  19.242  25.665  1.00  0.00     0.021 A 
ATOM     21  S   UNL A   1      32.541  18.474  23.262  1.00  0.00    -0.146 S 
ATOM     22  C   UNL A   1      32.419  20.151  23.584  1.00  0.00     0.007 A 
ATOM     23  C   UNL A   1      32.151  21.038  22.415  1.00  0.00     0.057 C 
ENDBRANCH  15  17
ENDBRANCH  12  15
ENDBRANCH   6  11
ENDBRANCH   3   5
ENDBRANCH   2   3
ENDBRANCH   1   2
BRANCH   1  24
ATOM     24  C   UNL A   1      31.945  29.790  25.241  1.00  0.00     0.275 C 
BRANCH  24  25
ATOM     25  O   UNL A   1      32.301  29.935  26.624  1.00  0.00    -0.458 OA
BRANCH  25  26
ATOM     26  C   UNL A   1      32.884  31.108  26.979  1.00  0.00     0.338 C 
ATOM     27  O   UNL A   1      32.356  32.207  26.964  1.00  0.00    -0.246 OA
BRANCH  26  28
ATOM     28  C   UNL A   1      34.242  30.850  27.535  1.00  0.00     0.060 A 
ATOM     29  C   UNL A   1      34.656  29.552  27.841  1.00  0.00     0.016 A 
ATOM     30  C   UNL A   1      35.052  31.927  27.912  1.00  0.00     0.016 A 
ATOM     31  C   UNL A   1      35.792  29.344  28.619  1.00  0.00     0.010 A 
ATOM     32  C   UNL A   1      36.261  31.700  28.588  1.00  0.00     0.010 A 
ATOM     33  C   UNL A   1      36.636  30.404  28.978  1.00  0.00    -0.014 A 
BRANCH  33  34
ATOM     34  C   UNL A   1      37.902  30.143  29.730  1.00  0.00     0.031 A 
ATOM     35  C   UNL A   1      39.007  29.299  29.146  1.00  0.00     0.074 A 
ATOM     36  C   UNL A   1      38.083  30.679  30.956  1.00  0.00     0.049 A 
ATOM     37  N   UNL A   1      40.077  28.815  29.733  1.00  0.00    -0.248 NA
ATOM     38  C   UNL A   1      38.902  28.943  27.722  1.00  0.00     0.031 C 
ATOM     39  C   UNL A   1      37.149  31.574  31.640  1.00  0.00     0.029 A 
ATOM     40  N   UNL A   1      39.122  30.549  31.849  1.00  0.00    -0.354 N 
ATOM     41  C   UNL A   1      40.757  28.090  28.763  1.00  0.00     0.074 A 
ATOM     42  C   UNL A   1      39.975  28.182  27.547  1.00  0.00     0.031 C 
ATOM     43  C   UNL A   1      37.671  31.950  32.813  1.00  0.00     0.029 A 
ATOM     44  C   UNL A   1      38.914  31.219  33.030  1.00  0.00     0.049 A 
ATOM     45  H   UNL A   1      39.935  30.027  31.661  1.00  0.00     0.167 HD
ATOM     46  C   UNL A   1      41.923  27.411  28.879  1.00  0.00     0.037 A 
ATOM     47  C   UNL A   1      39.587  31.199  34.195  1.00  0.00     0.037 A 
ATOM     48  C   UNL A   1      42.719  27.331  30.079  1.00  0.00     0.049 A 
ATOM     49  C   UNL A   1      40.789  30.319  34.344  1.00  0.00     0.074 A 
ATOM     50  C   UNL A   1      43.924  26.673  30.273  1.00  0.00     0.029 A 
ATOM     51  N   UNL A   1      42.395  27.924  31.289  1.00  0.00    -0.354 N 
ATOM     52  N   UNL A   1      41.379  29.572  33.447  1.00  0.00    -0.248 NA
ATOM     53  C   UNL A   1      41.396  30.252  35.680  1.00  0.00     0.031 C 
ATOM     54  C   UNL A   1      44.301  26.823  31.612  1.00  0.00     0.029 A 
ATOM     55  C   UNL A   1      43.355  27.614  32.242  1.00  0.00     0.049 A 
ATOM     56  H   UNL A   1      41.600  28.482  31.449  1.00  0.00     0.167 HD
ATOM     57  C   UNL A   1      42.425  28.944  34.105  1.00  0.00     0.074 A 
ATOM     58  C   UNL A   1      42.401  29.413  35.475  1.00  0.00     0.031 C 
ATOM     59  C   UNL A   1      43.318  28.053  33.612  1.00  0.00     0.037 A 
BRANCH  46  60
ATOM     60  C   UNL A   1      42.425  26.661  27.680  1.00  0.00     0.064 A 
ATOM     61  C   UNL A   1      43.383  27.208  26.817  1.00  0.00     0.173 A 
ATOM     62  C   UNL A   1      42.026  25.332  27.467  1.00  0.00     0.173 A 
ATOM     63  F   UNL A   1      43.782  28.479  26.966  1.00  0.00    -0.203 F 
ATOM     64  C   UNL A   1      43.930  26.446  25.787  1.00  0.00     0.198 A 
ATOM     65  C   UNL A   1      42.586  24.570  26.447  1.00  0.00     0.198 A 
ATOM     66  F   UNL A   1      41.116  24.762  28.271  1.00  0.00    -0.203 F 
ATOM     67  F   UNL A   1      44.835  26.992  24.961  1.00  0.00    -0.200 F 
ATOM     68  C   UNL A   1      43.540  25.127  25.609  1.00  0.00     0.200 A 
ATOM     69  F   UNL A   1      42.217  23.292  26.284  1.00  0.00    -0.200 F 
ATOM     70  F   UNL A   1      44.082  24.393  24.627  1.00  0.00    -0.200 F 
ENDBRANCH  46  60
BRANCH  47  71
ATOM     71  C   UNL A   1      39.055  31.973  35.346  1.00  0.00     0.064 A 
ATOM     72  C   UNL A   1      38.264  31.363  36.327  1.00  0.00     0.173 A 
ATOM     73  C   UNL A   1      39.371  33.332  35.506  1.00  0.00     0.173 A 
ATOM     74  F   UNL A   1      37.907  30.078  36.198  1.00  0.00    -0.203 F 
ATOM     75  C   UNL A   1      37.822  32.083  37.435  1.00  0.00     0.198 A 
ATOM     76  C   UNL A   1      38.957  34.038  36.631  1.00  0.00     0.198 A 
ATOM     77  F   UNL A   1      40.117  33.962  34.587  1.00  0.00    -0.203 F 
ATOM     78  F   UNL A   1      37.046  31.487  38.351  1.00  0.00    -0.200 F 
ATOM     79  C   UNL A   1      38.182  33.414  37.594  1.00  0.00     0.200 A 
ATOM     80  F   UNL A   1      39.323  35.318  36.786  1.00  0.00    -0.200 F 
ATOM     81  F   UNL A   1      37.778  34.095  38.675  1.00  0.00    -0.200 F 
ENDBRANCH  47  71
BRANCH  59  82
ATOM     82  C   UNL A   1      44.352  27.532  34.564  1.00  0.00     0.064 A 
ATOM     83  C   UNL A   1      44.153  26.337  35.273  1.00  0.00     0.173 A 
ATOM     84  C   UNL A   1      45.548  28.233  34.778  1.00  0.00     0.173 A 
ATOM     85  F   UNL A   1      43.017  25.642  35.118  1.00  0.00    -0.203 F 
ATOM     86  C   UNL A   1      45.103  25.879  36.182  1.00  0.00     0.198 A 
ATOM     87  C   UNL A   1      46.505  27.759  35.670  1.00  0.00     0.198 A 
ATOM     88  F   UNL A   1      45.786  29.379  34.123  1.00  0.00    -0.203 F 
ATOM     89  F   UNL A   1      44.870  24.764  36.888  1.00  0.00    -0.200 F 
ATOM     90  C   UNL A   1      46.279  26.588  36.377  1.00  0.00     0.200 A 
ATOM     91  F   UNL A   1      47.644  28.442  35.853  1.00  0.00    -0.200 F 
ATOM     92  F   UNL A   1      47.188  26.150  37.258  1.00  0.00    -0.200 F 
ENDBRANCH  59  82
ENDBRANCH  33  34
ENDBRANCH  26  28
ENDBRANCH  25  26
ENDBRANCH  24  25
ENDBRANCH   1  24
TORSDOF 14
ENDMDL
MODEL 3
REMARK VINA RESULT:     -12.5      4.549     10.019
REMARK SMILES Cc1cc([C@H](C)NC(=O)N2CC[C@H](C(=O)OCCOC(=O)c3ccc(-c4c5nc(c(-c6c(F)c(F)c(F)c(F)c6F)c6ccc([nH]6)c(-c6c(F)c(F)c(F)c(F)c6F)c6nc(c(-c7c(F)c(F)c(F)c(F)c7F)c7ccc4[nH]7)C=C6)C=C5)cc3)[C@@H]2C)c(C)s1
REMARK SMILES IDX 17 1 16 2 14 3 15 4 13 5 10 6 11 7 85 8 12 9 86 10 8 11 7 12
REMARK SMILES IDX 9 14 5 15 6 16 4 17 1 18 2 19 3 20 89 21 87 22 88 23 18 24
REMARK SMILES IDX 19 25 20 26 21 27 22 28 23 29 84 30 24 31 83 32 25 33 26 34
REMARK SMILES IDX 27 35 77 36 28 37 82 38 76 39 78 40 29 41 81 42 75 43 74 44
REMARK SMILES IDX 30 46 62 47 42 48 61 49 43 50 46 51 60 52 79 53 44 54 45 55
REMARK SMILES IDX 59 57 80 58 47 59 31 60 32 61 40 62 33 63 34 64 38 65 41 66
REMARK SMILES IDX 35 67 36 68 39 69 37 70 63 71 64 72 72 73 65 74 66 75 70 76
REMARK SMILES IDX 73 77 67 78 68 79 71 80 69 81 48 82 49 83 57 84 50 85 51 86
REMARK SMILES IDX 55 87 58 88 52 89 53 90 56 91 54 92
REMARK H PARENT 7 13 78 45 46 56
REMARK Flexibility Score: inf
ROOT
ATOM      1  C   UNL A   1      31.009  29.634  24.561  1.00  0.00     0.274 C 
ENDROOT
BRANCH   1   2
ATOM      2  O   UNL A   1      31.789  28.934  23.563  1.00  0.00    -0.462 OA
BRANCH   2   3
ATOM      3  C   UNL A   1      31.090  28.229  22.624  1.00  0.00     0.311 C 
ATOM      4  O   UNL A   1      30.180  28.685  21.945  1.00  0.00    -0.252 OA
BRANCH   3   5
ATOM      5  C   UNL A   1      31.565  26.779  22.573  1.00  0.00     0.123 C 
ATOM      6  N   UNL A   1      31.921  25.719  24.703  1.00  0.00    -0.321 N 
ATOM      7  C   UNL A   1      33.094  26.522  24.395  1.00  0.00     0.122 C 
ATOM      8  C   UNL A   1      30.942  25.812  23.610  1.00  0.00     0.098 C 
ATOM      9  C   UNL A   1      33.062  26.689  22.885  1.00  0.00     0.039 C 
ATOM     10  C   UNL A   1      29.558  26.229  24.067  1.00  0.00     0.032 C 
BRANCH   6  11
ATOM     11  C   UNL A   1      31.842  25.127  25.931  1.00  0.00     0.318 C 
ATOM     12  N   UNL A   1      32.248  23.855  26.141  1.00  0.00    -0.331 N 
ATOM     13  H   UNL A   1      31.636  23.294  26.670  1.00  0.00     0.165 HD
ATOM     14  O   UNL A   1      31.360  25.719  26.899  1.00  0.00    -0.249 OA
BRANCH  12  15
ATOM     15  C   UNL A   1      33.469  23.201  25.693  1.00  0.00     0.112 C 
ATOM     16  C   UNL A   1      34.439  23.068  26.872  1.00  0.00     0.036 C 
BRANCH  15  17
ATOM     17  C   UNL A   1      33.113  21.853  25.073  1.00  0.00    -0.012 A 
ATOM     18  C   UNL A   1      33.003  18.048  25.281  1.00  0.00     0.056 C 
ATOM     19  C   UNL A   1      32.907  19.502  24.970  1.00  0.00     0.002 A 
ATOM     20  C   UNL A   1      33.157  20.590  25.779  1.00  0.00     0.021 A 
ATOM     21  S   UNL A   1      32.453  19.982  23.406  1.00  0.00    -0.146 S 
ATOM     22  C   UNL A   1      32.771  21.632  23.740  1.00  0.00     0.007 A 
ATOM     23  C   UNL A   1      32.650  22.580  22.595  1.00  0.00     0.057 C 
ENDBRANCH  15  17
ENDBRANCH  12  15
ENDBRANCH   6  11
ENDBRANCH   3   5
ENDBRANCH   2   3
ENDBRANCH   1   2
BRANCH   1  24
ATOM     24  C   UNL A   1      31.682  29.576  25.934  1.00  0.00     0.275 C 
BRANCH  24  25
ATOM     25  O   UNL A   1      32.960  30.225  25.850  1.00  0.00    -0.458 OA
BRANCH  25  26
ATOM     26  C   UNL A   1      33.243  31.132  26.819  1.00  0.00     0.338 C 
ATOM     27  O   UNL A   1      32.486  31.986  27.249  1.00  0.00    -0.246 OA
BRANCH  26  28
ATOM     28  C   UNL A   1      34.585  30.848  27.401  1.00  0.00     0.060 A 
ATOM     29  C   UNL A   1      34.950  29.548  27.758  1.00  0.00     0.016 A 
ATOM     30  C   UNL A   1      35.427  31.908  27.748  1.00  0.00     0.016 A 
ATOM     31  C   UNL A   1      36.069  29.330  28.558  1.00  0.00     0.010 A 
ATOM     32  C   UNL A   1      36.621  31.665  28.447  1.00  0.00     0.010 A 
ATOM     33  C   UNL A   1      36.946  30.372  28.889  1.00  0.00    -0.014 A 
BRANCH  33  34
ATOM     34  C   UNL A   1      38.193  30.095  29.665  1.00  0.00     0.031 A 
ATOM     35  C   UNL A   1      39.293  29.226  29.107  1.00  0.00     0.074 A 
ATOM     36  C   UNL A   1      38.363  30.637  30.890  1.00  0.00     0.049 A 
ATOM     37  N   UNL A   1      40.345  28.729  29.716  1.00  0.00    -0.248 NA
ATOM     38  C   UNL A   1      39.207  28.861  27.684  1.00  0.00     0.031 C 
ATOM     39  C   UNL A   1      37.432  31.554  31.549  1.00  0.00     0.029 A 
ATOM     40  N   UNL A   1      39.383  30.497  31.802  1.00  0.00    -0.354 N 
ATOM     41  C   UNL A   1      41.028  27.984  28.764  1.00  0.00     0.074 A 
ATOM     42  C   UNL A   1      40.269  28.079  27.534  1.00  0.00     0.031 C 
ATOM     43  C   UNL A   1      37.941  31.931  32.729  1.00  0.00     0.029 A 
ATOM     44  C   UNL A   1      39.166  31.180  32.973  1.00  0.00     0.049 A 
ATOM     45  H   UNL A   1      40.190  29.958  31.632  1.00  0.00     0.167 HD
ATOM     46  C   UNL A   1      42.180  27.286  28.907  1.00  0.00     0.037 A 
ATOM     47  C   UNL A   1      39.818  31.157  34.151  1.00  0.00     0.037 A 
ATOM     48  C   UNL A   1      42.953  27.201  30.121  1.00  0.00     0.049 A 
ATOM     49  C   UNL A   1      41.002  30.258  34.328  1.00  0.00     0.074 A 
ATOM     50  C   UNL A   1      44.142  26.524  30.342  1.00  0.00     0.029 A 
ATOM     51  N   UNL A   1      42.618  27.810  31.320  1.00  0.00    -0.354 N 
ATOM     52  N   UNL A   1      41.594  29.493  33.447  1.00  0.00    -0.248 NA
ATOM     53  C   UNL A   1      41.583  30.191  35.674  1.00  0.00     0.031 C 
ATOM     54  C   UNL A   1      44.498  26.678  31.686  1.00  0.00     0.029 A 
ATOM     55  C   UNL A   1      43.556  27.491  32.293  1.00  0.00     0.049 A 
ATOM     56  H   UNL A   1      41.831  28.383  31.462  1.00  0.00     0.167 HD
ATOM     57  C   UNL A   1      42.617  28.852  34.128  1.00  0.00     0.074 A 
ATOM     58  C   UNL A   1      42.578  29.333  35.494  1.00  0.00     0.031 C 
ATOM     59  C   UNL A   1      43.503  27.942  33.659  1.00  0.00     0.037 A 
BRANCH  46  60
ATOM     60  C   UNL A   1      42.690  26.517  27.723  1.00  0.00     0.064 A 
ATOM     61  C   UNL A   1      43.604  27.074  26.820  1.00  0.00     0.173 A 
ATOM     62  C   UNL A   1      42.345  25.165  27.563  1.00  0.00     0.173 A 
ATOM     63  F   UNL A   1      43.950  28.366  26.918  1.00  0.00    -0.203 F 
ATOM     64  C   UNL A   1      44.163  26.302  25.805  1.00  0.00     0.198 A 
ATOM     65  C   UNL A   1      42.917  24.393  26.557  1.00  0.00     0.198 A 
ATOM     66  F   UNL A   1      41.477  24.584  28.407  1.00  0.00    -0.203 F 
ATOM     67  F   UNL A   1      45.025  26.858  24.941  1.00  0.00    -0.200 F 
ATOM     68  C   UNL A   1      43.827  24.962  25.680  1.00  0.00     0.200 A 
ATOM     69  F   UNL A   1      42.601  23.096  26.446  1.00  0.00    -0.200 F 
ATOM     70  F   UNL A   1      44.381  24.219  24.711  1.00  0.00    -0.200 F 
ENDBRANCH  46  60
BRANCH  47  71
ATOM     71  C   UNL A   1      39.280  31.950  35.286  1.00  0.00     0.064 A 
ATOM     72  C   UNL A   1      38.469  31.361  36.262  1.00  0.00     0.173 A 
ATOM     73  C   UNL A   1      39.610  33.307  35.435  1.00  0.00     0.173 A 
ATOM     74  F   UNL A   1      38.098  30.078  36.142  1.00  0.00    -0.203 F 
ATOM     75  C   UNL A   1      38.020  32.097  37.357  1.00  0.00     0.198 A 
ATOM     76  C   UNL A   1      39.190  34.030  36.547  1.00  0.00     0.198 A 
ATOM     77  F   UNL A   1      40.375  33.918  34.519  1.00  0.00    -0.203 F 
ATOM     78  F   UNL A   1      37.224  31.520  38.267  1.00  0.00    -0.200 F 
ATOM     79  C   UNL A   1      38.394  33.426  37.506  1.00  0.00     0.200 A 
ATOM     80  F   UNL A   1      39.568  35.308  36.693  1.00  0.00    -0.200 F 
ATOM     81  F   UNL A   1      37.983  34.124  38.573  1.00  0.00    -0.200 F 
ENDBRANCH  47  71
BRANCH  59  82
ATOM     82  C   UNL A   1      44.510  27.410  34.632  1.00  0.00     0.064 A 
ATOM     83  C   UNL A   1      45.723  28.077  34.864  1.00  0.00     0.173 A 
ATOM     84  C   UNL A   1      44.270  26.220  35.334  1.00  0.00     0.173 A 
ATOM     85  F   UNL A   1      46.008  29.208  34.201  1.00  0.00    -0.203 F 
ATOM     86  C   UNL A   1      46.669  27.556  35.742  1.00  0.00     0.198 A 
ATOM     87  C   UNL A   1      45.208  25.716  36.230  1.00  0.00     0.198 A 
ATOM     88  F   UNL A   1      43.124  25.545  35.149  1.00  0.00    -0.203 F 
ATOM     89  F   UNL A   1      47.842  28.182  35.910  1.00  0.00    -0.200 F 
ATOM     90  C   UNL A   1      46.409  26.379  36.428  1.00  0.00     0.200 A 
ATOM     91  F   UNL A   1      44.953  24.580  36.896  1.00  0.00    -0.200 F 
ATOM     92  F   UNL A   1      47.324  25.875  37.267  1.00  0.00    -0.200 F 
ENDBRANCH  59  82
ENDBRANCH  33  34
ENDBRANCH  26  28
ENDBRANCH  25  26
ENDBRANCH  24  25
ENDBRANCH   1  24
TORSDOF 14
ENDMDL
