MODEL 1
REMARK VINA RESULT:     -11.6      0.000      0.000
REMARK SMILES N#C[C@@H]1CN(C(=O)N[C@@H](Cc2cnc[nH]2)C(=O)OCCOC(=O)c2ccc(-c3c4nc(c(-c5c(F)c(F)c(F)c(F)c5F)c5ccc([nH]5)c(-c5c(F)c(F)c(F)c(F)c5F)c5nc(c(-c6c(F)c(F)c(F)c(F)c6F)c6ccc3[nH]6)C=C5)C=C4)cc2)CCO1
REMARK SMILES IDX 19 1 18 2 16 3 17 4 9 5 8 6 6 7 7 8 5 10 3 11 4 12 89 13
REMARK SMILES IDX 88 14 87 15 2 16 1 17 10 18 11 19 12 20 15 21 13 22 14 23
REMARK SMILES IDX 20 25 21 26 22 27 23 28 24 29 25 30 86 31 26 32 85 33 27 34
REMARK SMILES IDX 28 35 29 36 79 37 30 38 84 39 78 40 80 41 31 42 83 43 77 44
REMARK SMILES IDX 76 45 32 47 64 48 44 49 63 50 45 51 48 52 62 53 81 54 46 55
REMARK SMILES IDX 47 56 61 58 82 59 49 60 33 61 34 62 42 63 35 64 36 65 40 66
REMARK SMILES IDX 43 67 37 68 38 69 41 70 39 71 65 72 66 73 74 74 67 75 68 76
REMARK SMILES IDX 72 77 75 78 69 79 70 80 73 81 71 82 50 83 51 84 59 85 52 86
REMARK SMILES IDX 53 87 57 88 60 89 54 90 55 91 58 92 56 93
REMARK H PARENT 8 9 15 24 80 46 48 57
REMARK Flexibility Score: inf
ROOT
ATOM      1  C   UNL A   1      32.714  29.832  25.376  1.00  0.00     0.274 C 
ENDROOT
BRANCH   1   2
ATOM      2  O   UNL A   1      31.767  29.144  24.527  1.00  0.00    -0.461 OA
BRANCH   2   3
ATOM      3  C   UNL A   1      32.137  28.961  23.223  1.00  0.00     0.329 C 
ATOM      4  O   UNL A   1      33.277  29.078  22.785  1.00  0.00    -0.250 OA
BRANCH   3   5
ATOM      5  C   UNL A   1      30.955  28.399  22.397  1.00  0.00     0.199 C 
BRANCH   5   6
ATOM      6  N   UNL A   1      30.038  27.550  23.178  1.00  0.00    -0.324 N 
ATOM      7  C   UNL A   1      29.931  26.248  23.488  1.00  0.00     0.318 C 
ATOM      8  O   UNL A   1      28.816  25.888  23.876  1.00  0.00    -0.249 OA
ATOM      9  H   UNL A   1      29.313  28.078  23.583  1.00  0.00     0.166 HD
BRANCH   7  10
ATOM     10  N   UNL A   1      30.971  25.361  23.411  1.00  0.00    -0.319 N 
ATOM     11  C   UNL A   1      32.738  25.160  25.128  1.00  0.00     0.240 C 
ATOM     12  C   UNL A   1      32.392  25.601  23.691  1.00  0.00     0.169 C 
ATOM     13  O   UNL A   1      32.431  23.746  25.275  1.00  0.00    -0.360 OA
ATOM     14  C   UNL A   1      31.053  23.437  24.966  1.00  0.00     0.183 C 
ATOM     15  C   UNL A   1      30.649  23.930  23.565  1.00  0.00     0.150 C 
BRANCH  11  16
ATOM     16  C   UNL A   1      31.939  25.982  26.127  1.00  0.00     0.096 C 
ATOM     17  N   UNL A   1      31.276  26.664  26.955  1.00  0.00    -0.195 NA
ENDBRANCH  11  16
ENDBRANCH   7  10
ENDBRANCH   5   6
BRANCH   5  18
ATOM     18  C   UNL A   1      30.202  29.496  21.626  1.00  0.00     0.092 C 
BRANCH  18  19
ATOM     19  C   UNL A   1      29.156  30.195  22.424  1.00  0.00     0.037 A 
ATOM     20  C   UNL A   1      27.794  30.030  22.543  1.00  0.00     0.134 A 
ATOM     21  N   UNL A   1      29.460  31.205  23.308  1.00  0.00    -0.348 N 
ATOM     22  N   UNL A   1      27.278  30.889  23.479  1.00  0.00    -0.245 NA
ATOM     23  C   UNL A   1      28.303  31.578  23.925  1.00  0.00     0.196 A 
ATOM     24  H   UNL A   1      30.353  31.588  23.465  1.00  0.00     0.167 HD
ENDBRANCH  18  19
ENDBRANCH   5  18
ENDBRANCH   3   5
ENDBRANCH   2   3
ENDBRANCH   1   2
BRANCH   1  25
ATOM     25  C   UNL A   1      31.968  30.915  26.193  1.00  0.00     0.275 C 
BRANCH  25  26
ATOM     26  O   UNL A   1      32.423  31.286  27.533  1.00  0.00    -0.458 OA
BRANCH  26  27
ATOM     27  C   UNL A   1      33.295  32.299  27.684  1.00  0.00     0.338 C 
ATOM     28  O   UNL A   1      33.027  33.489  27.611  1.00  0.00    -0.246 OA
BRANCH  27  29
ATOM     29  C   UNL A   1      34.729  31.918  27.820  1.00  0.00     0.060 A 
ATOM     30  C   UNL A   1      34.896  30.547  28.008  1.00  0.00     0.016 A 
ATOM     31  C   UNL A   1      35.815  32.769  28.072  1.00  0.00     0.016 A 
ATOM     32  C   UNL A   1      36.028  30.072  28.643  1.00  0.00     0.010 A 
ATOM     33  C   UNL A   1      37.021  32.247  28.622  1.00  0.00     0.010 A 
ATOM     34  C   UNL A   1      37.127  30.890  28.973  1.00  0.00    -0.014 A 
BRANCH  34  35
ATOM     35  C   UNL A   1      38.271  30.234  29.711  1.00  0.00     0.031 A 
ATOM     36  C   UNL A   1      39.337  29.380  29.049  1.00  0.00     0.074 A 
ATOM     37  C   UNL A   1      38.481  30.591  31.000  1.00  0.00     0.049 A 
ATOM     38  N   UNL A   1      40.373  28.796  29.615  1.00  0.00    -0.248 NA
ATOM     39  C   UNL A   1      39.258  29.149  27.601  1.00  0.00     0.031 C 
ATOM     40  C   UNL A   1      37.580  31.436  31.791  1.00  0.00     0.029 A 
ATOM     41  N   UNL A   1      39.549  30.388  31.844  1.00  0.00    -0.354 N 
ATOM     42  C   UNL A   1      41.032  28.096  28.611  1.00  0.00     0.074 A 
ATOM     43  C   UNL A   1      40.302  28.350  27.386  1.00  0.00     0.031 C 
ATOM     44  C   UNL A   1      38.207  31.835  32.900  1.00  0.00     0.029 A 
ATOM     45  C   UNL A   1      39.448  31.084  33.027  1.00  0.00     0.049 A 
ATOM     46  H   UNL A   1      40.309  29.805  31.624  1.00  0.00     0.167 HD
ATOM     47  C   UNL A   1      42.130  27.303  28.707  1.00  0.00     0.037 A 
ATOM     48  C   UNL A   1      40.194  31.071  34.147  1.00  0.00     0.037 A 
ATOM     49  C   UNL A   1      42.901  27.079  29.909  1.00  0.00     0.049 A 
ATOM     50  C   UNL A   1      41.339  30.120  34.254  1.00  0.00     0.074 A 
ATOM     51  C   UNL A   1      44.037  26.298  30.073  1.00  0.00     0.029 A 
ATOM     52  N   UNL A   1      42.630  27.637  31.146  1.00  0.00    -0.354 N 
ATOM     53  N   UNL A   1      41.850  29.348  33.330  1.00  0.00    -0.248 NA
ATOM     54  C   UNL A   1      41.956  29.977  35.578  1.00  0.00     0.031 C 
ATOM     55  C   UNL A   1      44.428  26.351  31.416  1.00  0.00     0.029 A 
ATOM     56  C   UNL A   1      43.559  27.196  32.080  1.00  0.00     0.049 A 
ATOM     57  H   UNL A   1      41.888  28.256  31.336  1.00  0.00     0.167 HD
ATOM     58  C   UNL A   1      42.807  28.583  33.973  1.00  0.00     0.074 A 
ATOM     59  C   UNL A   1      42.851  29.027  35.351  1.00  0.00     0.031 C 
ATOM     60  C   UNL A   1      43.558  27.579  33.464  1.00  0.00     0.037 A 
BRANCH  47  61
ATOM     61  C   UNL A   1      42.585  26.542  27.494  1.00  0.00     0.064 A 
ATOM     62  C   UNL A   1      43.585  27.036  26.646  1.00  0.00     0.173 A 
ATOM     63  C   UNL A   1      42.160  25.216  27.312  1.00  0.00     0.173 A 
ATOM     64  F   UNL A   1      44.031  28.292  26.789  1.00  0.00    -0.203 F 
ATOM     65  C   UNL A   1      44.159  26.220  25.672  1.00  0.00     0.198 A 
ATOM     66  C   UNL A   1      42.744  24.401  26.346  1.00  0.00     0.198 A 
ATOM     67  F   UNL A   1      41.221  24.693  28.116  1.00  0.00    -0.203 F 
ATOM     68  F   UNL A   1      45.132  26.701  24.886  1.00  0.00    -0.200 F 
ATOM     69  C   UNL A   1      43.748  24.901  25.533  1.00  0.00     0.200 A 
ATOM     70  F   UNL A   1      42.362  23.122  26.230  1.00  0.00    -0.200 F 
ATOM     71  F   UNL A   1      44.333  24.108  24.625  1.00  0.00    -0.200 F 
ENDBRANCH  47  61
BRANCH  48  72
ATOM     72  C   UNL A   1      39.740  31.860  35.320  1.00  0.00     0.064 A 
ATOM     73  C   UNL A   1      40.189  33.165  35.547  1.00  0.00     0.173 A 
ATOM     74  C   UNL A   1      38.785  31.330  36.204  1.00  0.00     0.173 A 
ATOM     75  F   UNL A   1      41.129  33.700  34.753  1.00  0.00    -0.203 F 
ATOM     76  C   UNL A   1      39.675  33.922  36.597  1.00  0.00     0.198 A 
ATOM     77  C   UNL A   1      38.240  32.101  37.222  1.00  0.00     0.198 A 
ATOM     78  F   UNL A   1      38.332  30.078  36.031  1.00  0.00    -0.203 F 
ATOM     79  F   UNL A   1      40.126  35.166  36.808  1.00  0.00    -0.200 F 
ATOM     80  C   UNL A   1      38.685  33.397  37.419  1.00  0.00     0.200 A 
ATOM     81  F   UNL A   1      37.263  31.598  37.990  1.00  0.00    -0.200 F 
ATOM     82  F   UNL A   1      38.159  34.143  38.399  1.00  0.00    -0.200 F 
ENDBRANCH  48  72
BRANCH  60  83
ATOM     83  C   UNL A   1      44.451  26.860  34.426  1.00  0.00     0.064 A 
ATOM     84  C   UNL A   1      44.025  25.678  35.052  1.00  0.00     0.173 A 
ATOM     85  C   UNL A   1      45.710  27.372  34.767  1.00  0.00     0.173 A 
ATOM     86  F   UNL A   1      42.816  25.166  34.775  1.00  0.00    -0.203 F 
ATOM     87  C   UNL A   1      44.817  25.051  36.009  1.00  0.00     0.198 A 
ATOM     88  C   UNL A   1      46.507  26.731  35.712  1.00  0.00     0.198 A 
ATOM     89  F   UNL A   1      46.156  28.502  34.201  1.00  0.00    -0.203 F 
ATOM     90  F   UNL A   1      44.366  23.956  36.636  1.00  0.00    -0.200 F 
ATOM     91  C   UNL A   1      46.056  25.578  36.339  1.00  0.00     0.200 A 
ATOM     92  F   UNL A   1      47.704  27.242  36.033  1.00  0.00    -0.200 F 
ATOM     93  F   UNL A   1      46.809  24.986  37.277  1.00  0.00    -0.200 F 
ENDBRANCH  60  83
ENDBRANCH  34  35
ENDBRANCH  27  29
ENDBRANCH  26  27
ENDBRANCH  25  26
ENDBRANCH   1  25
TORSDOF 16
ENDMDL
MODEL 2
REMARK VINA RESULT:     -11.5      1.701      2.753
REMARK SMILES N#C[C@@H]1CN(C(=O)N[C@@H](Cc2cnc[nH]2)C(=O)OCCOC(=O)c2ccc(-c3c4nc(c(-c5c(F)c(F)c(F)c(F)c5F)c5ccc([nH]5)c(-c5c(F)c(F)c(F)c(F)c5F)c5nc(c(-c6c(F)c(F)c(F)c(F)c6F)c6ccc3[nH]6)C=C5)C=C4)cc2)CCO1
REMARK SMILES IDX 19 1 18 2 16 3 17 4 9 5 8 6 6 7 7 8 5 10 3 11 4 12 89 13
REMARK SMILES IDX 88 14 87 15 2 16 1 17 10 18 11 19 12 20 15 21 13 22 14 23
REMARK SMILES IDX 20 25 21 26 22 27 23 28 24 29 25 30 86 31 26 32 85 33 27 34
REMARK SMILES IDX 28 35 29 36 79 37 30 38 84 39 78 40 80 41 31 42 83 43 77 44
REMARK SMILES IDX 76 45 32 47 64 48 44 49 63 50 45 51 48 52 62 53 81 54 46 55
REMARK SMILES IDX 47 56 61 58 82 59 49 60 33 61 34 62 42 63 35 64 36 65 40 66
REMARK SMILES IDX 43 67 37 68 38 69 41 70 39 71 65 72 66 73 74 74 67 75 68 76
REMARK SMILES IDX 72 77 75 78 69 79 70 80 73 81 71 82 50 83 51 84 59 85 52 86
REMARK SMILES IDX 53 87 57 88 60 89 54 90 55 91 58 92 56 93
REMARK H PARENT 8 9 15 24 80 46 48 57
REMARK Flexibility Score: inf
ROOT
ATOM      1  C   UNL A   1      32.339  30.477  26.088  1.00  0.00     0.274 C 
ENDROOT
BRANCH   1   2
ATOM      2  O   UNL A   1      31.399  29.401  25.866  1.00  0.00    -0.461 OA
BRANCH   2   3
ATOM      3  C   UNL A   1      31.592  28.261  26.596  1.00  0.00     0.329 C 
ATOM      4  O   UNL A   1      31.533  28.181  27.819  1.00  0.00    -0.250 OA
BRANCH   3   5
ATOM      5  C   UNL A   1      31.714  27.032  25.662  1.00  0.00     0.199 C 
BRANCH   5   6
ATOM      6  N   UNL A   1      31.185  25.788  26.250  1.00  0.00    -0.324 N 
ATOM      7  C   UNL A   1      31.189  24.481  25.946  1.00  0.00     0.318 C 
ATOM      8  O   UNL A   1      30.327  23.805  26.515  1.00  0.00    -0.249 OA
ATOM      9  H   UNL A   1      30.703  25.962  27.090  1.00  0.00     0.166 HD
BRANCH   7  10
ATOM     10  N   UNL A   1      32.085  23.903  25.088  1.00  0.00    -0.319 N 
ATOM     11  C   UNL A   1      33.964  22.473  25.819  1.00  0.00     0.240 C 
ATOM     12  C   UNL A   1      33.546  23.829  25.215  1.00  0.00     0.169 C 
ATOM     13  O   UNL A   1      33.482  21.403  24.958  1.00  0.00    -0.360 OA
ATOM     14  C   UNL A   1      32.051  21.451  24.756  1.00  0.00     0.183 C 
ATOM     15  C   UNL A   1      31.586  22.818  24.222  1.00  0.00     0.150 C 
BRANCH  11  16
ATOM     16  C   UNL A   1      33.384  22.329  27.217  1.00  0.00     0.096 C 
ATOM     17  N   UNL A   1      32.903  22.210  28.376  1.00  0.00    -0.195 NA
ENDBRANCH  11  16
ENDBRANCH   7  10
ENDBRANCH   5   6
BRANCH   5  18
ATOM     18  C   UNL A   1      31.132  27.297  24.264  1.00  0.00     0.092 C 
BRANCH  18  19
ATOM     19  C   UNL A   1      31.990  26.816  23.144  1.00  0.00     0.037 A 
ATOM     20  C   UNL A   1      33.291  27.073  22.776  1.00  0.00     0.134 A 
ATOM     21  N   UNL A   1      31.551  25.884  22.233  1.00  0.00    -0.348 N 
ATOM     22  N   UNL A   1      33.651  26.315  21.692  1.00  0.00    -0.245 NA
ATOM     23  C   UNL A   1      32.588  25.606  21.391  1.00  0.00     0.196 A 
ATOM     24  H   UNL A   1      30.650  25.489  22.195  1.00  0.00     0.167 HD
ENDBRANCH  18  19
ENDBRANCH   5  18
ENDBRANCH   3   5
ENDBRANCH   2   3
ENDBRANCH   1   2
BRANCH   1  25
ATOM     25  C   UNL A   1      31.619  31.638  26.815  1.00  0.00     0.275 C 
BRANCH  25  26
ATOM     26  O   UNL A   1      32.209  32.977  26.851  1.00  0.00    -0.458 OA
BRANCH  26  27
ATOM     27  C   UNL A   1      32.946  33.352  27.911  1.00  0.00     0.338 C 
ATOM     28  O   UNL A   1      32.630  34.195  28.738  1.00  0.00    -0.246 OA
BRANCH  27  29
ATOM     29  C   UNL A   1      34.318  32.779  27.994  1.00  0.00     0.060 A 
ATOM     30  C   UNL A   1      34.310  31.438  28.369  1.00  0.00     0.016 A 
ATOM     31  C   UNL A   1      35.532  33.481  28.034  1.00  0.00     0.016 A 
ATOM     32  C   UNL A   1      35.419  30.886  28.980  1.00  0.00     0.010 A 
ATOM     33  C   UNL A   1      36.701  32.861  28.563  1.00  0.00     0.010 A 
ATOM     34  C   UNL A   1      36.648  31.564  29.102  1.00  0.00    -0.014 A 
BRANCH  34  35
ATOM     35  C   UNL A   1      37.754  30.847  29.841  1.00  0.00     0.031 A 
ATOM     36  C   UNL A   1      38.806  29.979  29.173  1.00  0.00     0.074 A 
ATOM     37  C   UNL A   1      37.949  31.156  31.145  1.00  0.00     0.049 A 
ATOM     38  N   UNL A   1      39.811  29.343  29.740  1.00  0.00    -0.248 NA
ATOM     39  C   UNL A   1      38.750  29.797  27.716  1.00  0.00     0.031 C 
ATOM     40  C   UNL A   1      37.061  32.004  31.945  1.00  0.00     0.029 A 
ATOM     41  N   UNL A   1      38.992  30.891  32.003  1.00  0.00    -0.354 N 
ATOM     42  C   UNL A   1      40.467  28.653  28.727  1.00  0.00     0.074 A 
ATOM     43  C   UNL A   1      39.771  28.971  27.497  1.00  0.00     0.031 C 
ATOM     44  C   UNL A   1      37.677  32.347  33.078  1.00  0.00     0.029 A 
ATOM     45  C   UNL A   1      38.890  31.551  33.205  1.00  0.00     0.049 A 
ATOM     46  H   UNL A   1      39.738  30.289  31.779  1.00  0.00     0.167 HD
ATOM     47  C   UNL A   1      41.536  27.822  28.819  1.00  0.00     0.037 A 
ATOM     48  C   UNL A   1      39.612  31.478  34.339  1.00  0.00     0.037 A 
ATOM     49  C   UNL A   1      42.274  27.534  30.028  1.00  0.00     0.049 A 
ATOM     50  C   UNL A   1      40.722  30.486  34.437  1.00  0.00     0.074 A 
ATOM     51  C   UNL A   1      43.380  26.711  30.189  1.00  0.00     0.029 A 
ATOM     52  N   UNL A   1      41.996  28.062  31.277  1.00  0.00    -0.354 N 
ATOM     53  N   UNL A   1      41.227  29.728  33.500  1.00  0.00    -0.248 NA
ATOM     54  C   UNL A   1      41.306  30.281  35.769  1.00  0.00     0.031 C 
ATOM     55  C   UNL A   1      43.744  26.709  31.541  1.00  0.00     0.029 A 
ATOM     56  C   UNL A   1      42.890  27.560  32.214  1.00  0.00     0.049 A 
ATOM     57  H   UNL A   1      41.271  28.698  31.472  1.00  0.00     0.167 HD
ATOM     58  C   UNL A   1      42.144  28.911  34.136  1.00  0.00     0.074 A 
ATOM     59  C   UNL A   1      42.174  29.309  35.528  1.00  0.00     0.031 C 
ATOM     60  C   UNL A   1      42.873  27.899  33.610  1.00  0.00     0.037 A 
BRANCH  47  61
ATOM     61  C   UNL A   1      41.991  27.085  27.591  1.00  0.00     0.064 A 
ATOM     62  C   UNL A   1      42.999  27.590  26.760  1.00  0.00     0.173 A 
ATOM     63  C   UNL A   1      41.557  25.766  27.378  1.00  0.00     0.173 A 
ATOM     64  F   UNL A   1      43.454  28.840  26.932  1.00  0.00    -0.203 F 
ATOM     65  C   UNL A   1      43.571  26.793  25.770  1.00  0.00     0.198 A 
ATOM     66  C   UNL A   1      42.140  24.969  26.396  1.00  0.00     0.198 A 
ATOM     67  F   UNL A   1      40.610  25.233  28.165  1.00  0.00    -0.203 F 
ATOM     68  F   UNL A   1      44.552  27.283  24.999  1.00  0.00    -0.200 F 
ATOM     69  C   UNL A   1      43.151  25.480  25.599  1.00  0.00     0.200 A 
ATOM     70  F   UNL A   1      41.749  23.696  26.249  1.00  0.00    -0.200 F 
ATOM     71  F   UNL A   1      43.735  24.703  24.676  1.00  0.00    -0.200 F 
ENDBRANCH  47  61
BRANCH  48  72
ATOM     72  C   UNL A   1      39.159  32.244  35.528  1.00  0.00     0.064 A 
ATOM     73  C   UNL A   1      38.315  31.679  36.488  1.00  0.00     0.173 A 
ATOM     74  C   UNL A   1      39.629  33.550  35.751  1.00  0.00     0.173 A 
ATOM     75  F   UNL A   1      37.810  30.451  36.300  1.00  0.00    -0.203 F 
ATOM     76  C   UNL A   1      37.982  32.381  37.645  1.00  0.00     0.198 A 
ATOM     77  C   UNL A   1      39.334  34.230  36.924  1.00  0.00     0.198 A 
ATOM     78  F   UNL A   1      40.434  34.136  34.851  1.00  0.00    -0.203 F 
ATOM     79  F   UNL A   1      37.161  31.831  38.548  1.00  0.00    -0.200 F 
ATOM     80  C   UNL A   1      38.510  33.647  37.871  1.00  0.00     0.200 A 
ATOM     81  F   UNL A   1      39.873  35.437  37.149  1.00  0.00    -0.200 F 
ATOM     82  F   UNL A   1      38.227  34.300  39.006  1.00  0.00    -0.200 F 
ENDBRANCH  48  72
BRANCH  60  83
ATOM     83  C   UNL A   1      43.722  27.121  34.566  1.00  0.00     0.064 A 
ATOM     84  C   UNL A   1      45.041  27.519  34.839  1.00  0.00     0.173 A 
ATOM     85  C   UNL A   1      43.245  25.952  35.172  1.00  0.00     0.173 A 
ATOM     86  F   UNL A   1      45.547  28.618  34.261  1.00  0.00    -0.203 F 
ATOM     87  C   UNL A   1      45.862  26.753  35.662  1.00  0.00     0.198 A 
ATOM     88  C   UNL A   1      44.064  25.198  36.008  1.00  0.00     0.198 A 
ATOM     89  F   UNL A   1      41.995  25.529  34.935  1.00  0.00    -0.203 F 
ATOM     90  F   UNL A   1      47.135  27.119  35.863  1.00  0.00    -0.200 F 
ATOM     91  C   UNL A   1      45.373  25.593  36.244  1.00  0.00     0.200 A 
ATOM     92  F   UNL A   1      43.593  24.076  36.570  1.00  0.00    -0.200 F 
ATOM     93  F   UNL A   1      46.171  24.844  37.019  1.00  0.00    -0.200 F 
ENDBRANCH  60  83
ENDBRANCH  34  35
ENDBRANCH  27  29
ENDBRANCH  26  27
ENDBRANCH  25  26
ENDBRANCH   1  25
TORSDOF 16
ENDMDL
MODEL 3
REMARK VINA RESULT:     -11.4      4.537     10.224
REMARK SMILES N#C[C@@H]1CN(C(=O)N[C@@H](Cc2cnc[nH]2)C(=O)OCCOC(=O)c2ccc(-c3c4nc(c(-c5c(F)c(F)c(F)c(F)c5F)c5ccc([nH]5)c(-c5c(F)c(F)c(F)c(F)c5F)c5nc(c(-c6c(F)c(F)c(F)c(F)c6F)c6ccc3[nH]6)C=C5)C=C4)cc2)CCO1
REMARK SMILES IDX 19 1 18 2 16 3 17 4 9 5 8 6 6 7 7 8 5 10 3 11 4 12 89 13
REMARK SMILES IDX 88 14 87 15 2 16 1 17 10 18 11 19 12 20 15 21 13 22 14 23
REMARK SMILES IDX 20 25 21 26 22 27 23 28 24 29 25 30 86 31 26 32 85 33 27 34
REMARK SMILES IDX 28 35 29 36 79 37 30 38 84 39 78 40 80 41 31 42 83 43 77 44
REMARK SMILES IDX 76 45 32 47 64 48 44 49 63 50 45 51 48 52 62 53 81 54 46 55
REMARK SMILES IDX 47 56 61 58 82 59 49 60 33 61 34 62 42 63 35 64 36 65 40 66
REMARK SMILES IDX 43 67 37 68 38 69 41 70 39 71 65 72 66 73 74 74 67 75 68 76
REMARK SMILES IDX 72 77 75 78 69 79 70 80 73 81 71 82 50 83 51 84 59 85 52 86
REMARK SMILES IDX 53 87 57 88 60 89 54 90 55 91 58 92 56 93
REMARK H PARENT 8 9 15 24 80 46 48 57
REMARK Flexibility Score: inf
ROOT
ATOM      1  C   UNL A   1      36.373  19.847  25.001  1.00  0.00     0.274 C 
ENDROOT
BRANCH   1   2
ATOM      2  O   UNL A   1      35.886  21.051  25.636  1.00  0.00    -0.461 OA
BRANCH   2   3
ATOM      3  C   UNL A   1      35.210  21.933  24.837  1.00  0.00     0.329 C 
ATOM      4  O   UNL A   1      35.558  22.283  23.714  1.00  0.00    -0.250 OA
BRANCH   3   5
ATOM      5  C   UNL A   1      33.842  22.294  25.463  1.00  0.00     0.199 C 
BRANCH   5   6
ATOM      6  N   UNL A   1      32.821  22.677  24.471  1.00  0.00    -0.324 N 
ATOM      7  C   UNL A   1      31.984  23.707  24.274  1.00  0.00     0.318 C 
ATOM      8  O   UNL A   1      31.036  23.479  23.516  1.00  0.00    -0.249 OA
ATOM      9  H   UNL A   1      32.732  21.998  23.764  1.00  0.00     0.166 HD
BRANCH   7  10
ATOM     10  N   UNL A   1      32.151  24.943  24.840  1.00  0.00    -0.319 N 
ATOM     11  C   UNL A   1      33.331  26.813  23.737  1.00  0.00     0.240 C 
ATOM     12  C   UNL A   1      33.363  25.770  24.872  1.00  0.00     0.169 C 
ATOM     13  O   UNL A   1      32.150  27.649  23.897  1.00  0.00    -0.360 OA
ATOM     14  C   UNL A   1      30.923  26.885  23.921  1.00  0.00     0.183 C 
ATOM     15  C   UNL A   1      30.948  25.781  24.995  1.00  0.00     0.150 C 
BRANCH  11  16
ATOM     16  C   UNL A   1      33.303  26.110  22.390  1.00  0.00     0.096 C 
ATOM     17  N   UNL A   1      33.280  25.526  21.272  1.00  0.00    -0.195 NA
ENDBRANCH  11  16
ENDBRANCH   7  10
ENDBRANCH   5   6
BRANCH   5  18
ATOM     18  C   UNL A   1      33.329  21.208  26.422  1.00  0.00     0.092 C 
BRANCH  18  19
ATOM     19  C   UNL A   1      32.899  19.950  25.748  1.00  0.00     0.037 A 
ATOM     20  C   UNL A   1      32.488  19.662  24.466  1.00  0.00     0.134 A 
ATOM     21  N   UNL A   1      32.905  18.735  26.391  1.00  0.00    -0.348 N 
ATOM     22  N   UNL A   1      32.268  18.316  24.315  1.00  0.00    -0.245 NA
ATOM     23  C   UNL A   1      32.532  17.785  25.486  1.00  0.00     0.196 A 
ATOM     24  H   UNL A   1      33.137  18.578  27.335  1.00  0.00     0.167 HD
ENDBRANCH  18  19
ENDBRANCH   5  18
ENDBRANCH   3   5
ENDBRANCH   2   3
ENDBRANCH   1   2
BRANCH   1  25
ATOM     25  C   UNL A   1      37.902  19.968  24.790  1.00  0.00     0.275 C 
BRANCH  25  26
ATOM     26  O   UNL A   1      38.633  21.140  25.274  1.00  0.00    -0.458 OA
BRANCH  26  27
ATOM     27  C   UNL A   1      39.662  20.979  26.124  1.00  0.00     0.338 C 
ATOM     28  O   UNL A   1      40.272  19.938  26.318  1.00  0.00    -0.246 OA
BRANCH  27  29
ATOM     29  C   UNL A   1      39.987  22.145  26.991  1.00  0.00     0.060 A 
ATOM     30  C   UNL A   1      39.291  23.293  26.617  1.00  0.00     0.016 A 
ATOM     31  C   UNL A   1      41.068  22.273  27.876  1.00  0.00     0.016 A 
ATOM     32  C   UNL A   1      39.799  24.539  26.929  1.00  0.00     0.010 A 
ATOM     33  C   UNL A   1      41.513  23.564  28.281  1.00  0.00     0.010 A 
ATOM     34  C   UNL A   1      40.918  24.728  27.765  1.00  0.00    -0.014 A 
BRANCH  34  35
ATOM     35  C   UNL A   1      41.385  26.150  27.972  1.00  0.00     0.031 A 
ATOM     36  C   UNL A   1      40.656  27.175  28.822  1.00  0.00     0.074 A 
ATOM     37  C   UNL A   1      42.629  26.476  27.547  1.00  0.00     0.049 A 
ATOM     38  N   UNL A   1      41.008  28.420  29.069  1.00  0.00    -0.248 NA
ATOM     39  C   UNL A   1      39.402  26.783  29.479  1.00  0.00     0.031 C 
ATOM     40  C   UNL A   1      43.495  25.605  26.746  1.00  0.00     0.029 A 
ATOM     41  N   UNL A   1      43.428  27.567  27.805  1.00  0.00    -0.354 N 
ATOM     42  C   UNL A   1      40.003  28.966  29.860  1.00  0.00     0.074 A 
ATOM     43  C   UNL A   1      39.037  27.911  30.084  1.00  0.00     0.031 C 
ATOM     44  C   UNL A   1      44.738  26.091  26.749  1.00  0.00     0.029 A 
ATOM     45  C   UNL A   1      44.712  27.426  27.331  1.00  0.00     0.049 A 
ATOM     46  H   UNL A   1      43.113  28.368  28.281  1.00  0.00     0.167 HD
ATOM     47  C   UNL A   1      39.892  30.232  30.337  1.00  0.00     0.037 A 
ATOM     48  C   UNL A   1      45.749  28.282  27.265  1.00  0.00     0.037 A 
ATOM     49  C   UNL A   1      40.870  31.283  30.168  1.00  0.00     0.049 A 
ATOM     50  C   UNL A   1      45.562  29.693  27.714  1.00  0.00     0.074 A 
ATOM     51  C   UNL A   1      40.826  32.588  30.640  1.00  0.00     0.029 A 
ATOM     52  N   UNL A   1      42.068  31.155  29.486  1.00  0.00    -0.354 N 
ATOM     53  N   UNL A   1      44.537  30.229  28.323  1.00  0.00    -0.248 NA
ATOM     54  C   UNL A   1      46.641  30.635  27.390  1.00  0.00     0.031 C 
ATOM     55  C   UNL A   1      41.977  33.259  30.209  1.00  0.00     0.029 A 
ATOM     56  C   UNL A   1      42.754  32.362  29.502  1.00  0.00     0.049 A 
ATOM     57  H   UNL A   1      42.385  30.330  29.053  1.00  0.00     0.167 HD
ATOM     58  C   UNL A   1      44.817  31.582  28.402  1.00  0.00     0.074 A 
ATOM     59  C   UNL A   1      46.136  31.776  27.836  1.00  0.00     0.031 C 
ATOM     60  C   UNL A   1      44.031  32.575  28.877  1.00  0.00     0.037 A 
BRANCH  47  61
ATOM     61  C   UNL A   1      38.640  30.625  31.069  1.00  0.00     0.064 A 
ATOM     62  C   UNL A   1      38.555  30.573  32.466  1.00  0.00     0.173 A 
ATOM     63  C   UNL A   1      37.601  31.258  30.367  1.00  0.00     0.173 A 
ATOM     64  F   UNL A   1      39.528  29.989  33.180  1.00  0.00    -0.203 F 
ATOM     65  C   UNL A   1      37.483  31.160  33.137  1.00  0.00     0.198 A 
ATOM     66  C   UNL A   1      36.538  31.854  31.041  1.00  0.00     0.198 A 
ATOM     67  F   UNL A   1      37.650  31.352  29.029  1.00  0.00    -0.203 F 
ATOM     68  F   UNL A   1      37.430  31.123  34.476  1.00  0.00    -0.200 F 
ATOM     69  C   UNL A   1      36.484  31.811  32.425  1.00  0.00     0.200 A 
ATOM     70  F   UNL A   1      35.588  32.502  30.353  1.00  0.00    -0.200 F 
ATOM     71  F   UNL A   1      35.479  32.413  33.076  1.00  0.00    -0.200 F 
ENDBRANCH  47  61
BRANCH  48  72
ATOM     72  C   UNL A   1      46.988  27.856  26.567  1.00  0.00     0.064 A 
ATOM     73  C   UNL A   1      48.084  27.340  27.265  1.00  0.00     0.173 A 
ATOM     74  C   UNL A   1      47.061  27.900  25.164  1.00  0.00     0.173 A 
ATOM     75  F   UNL A   1      48.076  27.314  28.605  1.00  0.00    -0.203 F 
ATOM     76  C   UNL A   1      49.198  26.855  26.582  1.00  0.00     0.198 A 
ATOM     77  C   UNL A   1      48.151  27.373  24.484  1.00  0.00     0.198 A 
ATOM     78  F   UNL A   1      46.036  28.395  24.454  1.00  0.00    -0.203 F 
ATOM     79  F   UNL A   1      50.245  26.377  27.266  1.00  0.00    -0.200 F 
ATOM     80  C   UNL A   1      49.220  26.852  25.192  1.00  0.00     0.200 A 
ATOM     81  F   UNL A   1      48.150  27.345  23.144  1.00  0.00    -0.200 F 
ATOM     82  F   UNL A   1      50.271  26.341  24.538  1.00  0.00    -0.200 F 
ENDBRANCH  48  72
BRANCH  60  83
ATOM     83  C   UNL A   1      44.563  33.967  28.749  1.00  0.00     0.064 A 
ATOM     84  C   UNL A   1      45.392  34.511  29.744  1.00  0.00     0.173 A 
ATOM     85  C   UNL A   1      44.210  34.782  27.666  1.00  0.00     0.173 A 
ATOM     86  F   UNL A   1      45.734  33.775  30.813  1.00  0.00    -0.203 F 
ATOM     87  C   UNL A   1      45.822  35.832  29.672  1.00  0.00     0.198 A 
ATOM     88  C   UNL A   1      44.658  36.097  27.588  1.00  0.00     0.198 A 
ATOM     89  F   UNL A   1      43.416  34.309  26.695  1.00  0.00    -0.203 F 
ATOM     90  F   UNL A   1      46.564  36.349  30.661  1.00  0.00    -0.200 F 
ATOM     91  C   UNL A   1      45.454  36.624  28.595  1.00  0.00     0.200 A 
ATOM     92  F   UNL A   1      44.300  36.865  26.549  1.00  0.00    -0.200 F 
ATOM     93  F   UNL A   1      45.850  37.904  28.537  1.00  0.00    -0.200 F 
ENDBRANCH  60  83
ENDBRANCH  34  35
ENDBRANCH  27  29
ENDBRANCH  26  27
ENDBRANCH  25  26
ENDBRANCH   1  25
TORSDOF 16
ENDMDL
