MODEL 1
REMARK VINA RESULT:     -12.2      0.000      0.000
REMARK SMILES C[C@@H](C(=O)OCCOC(=O)c1ccc(-c2c3nc(c(-c4c(F)c(F)c(F)c(F)c4F)c4ccc([nH]4)c(-c4c(F)c(F)c(F)c(F)c4F)c4nc(c(-c5c(F)c(F)c(F)c(F)c5F)c5ccc2[nH]5)C=C4)C=C3)cc1)c1ccc(C[C@H]2CCC[C@@H]2O)cc1F
REMARK SMILES IDX 6 1 5 2 3 3 4 4 2 5 1 6 74 7 75 8 86 9 76 10 85 11 87 12
REMARK SMILES IDX 77 13 78 14 79 15 80 16 83 17 81 18 82 19 84 20 7 22 8 23
REMARK SMILES IDX 9 24 10 25 11 26 12 27 73 28 13 29 72 30 14 31 15 32 16 33
REMARK SMILES IDX 66 34 17 35 71 36 65 37 67 38 18 39 70 40 64 41 63 42 19 44
REMARK SMILES IDX 51 45 31 46 50 47 32 48 35 49 49 50 68 51 33 52 34 53 48 55
REMARK SMILES IDX 69 56 36 57 20 58 21 59 29 60 22 61 23 62 27 63 30 64 24 65
REMARK SMILES IDX 25 66 28 67 26 68 52 69 53 70 61 71 54 72 55 73 59 74 62 75
REMARK SMILES IDX 56 76 57 77 60 78 58 79 37 80 38 81 46 82 39 83 40 84 44 85
REMARK SMILES IDX 47 86 41 87 42 88 45 89 43 90
REMARK H PARENT 84 21 67 43 35 54
REMARK Flexibility Score: inf
ROOT
ATOM      1  C   UNL A   1      31.916  28.473  27.315  1.00  0.00     0.274 C 
ENDROOT
BRANCH   1   2
ATOM      2  O   UNL A   1      32.721  27.542  26.562  1.00  0.00    -0.462 OA
BRANCH   2   3
ATOM      3  C   UNL A   1      32.102  26.410  26.127  1.00  0.00     0.313 C 
ATOM      4  O   UNL A   1      31.645  25.548  26.871  1.00  0.00    -0.252 OA
BRANCH   3   5
ATOM      5  C   UNL A   1      32.090  26.292  24.599  1.00  0.00     0.129 C 
ATOM      6  C   UNL A   1      33.460  26.525  23.954  1.00  0.00     0.025 C 
BRANCH   5   7
ATOM      7  C   UNL A   1      30.970  27.131  23.992  1.00  0.00     0.002 A 
ATOM      8  C   UNL A   1      31.293  28.241  23.191  1.00  0.00     0.008 A 
ATOM      9  C   UNL A   1      29.617  26.811  24.125  1.00  0.00     0.127 A 
ATOM     10  C   UNL A   1      30.298  28.987  22.549  1.00  0.00     0.004 A 
ATOM     11  C   UNL A   1      28.618  27.561  23.502  1.00  0.00     0.043 A 
ATOM     12  F   UNL A   1      29.238  25.727  24.815  1.00  0.00    -0.207 F 
ATOM     13  C   UNL A   1      28.945  28.655  22.693  1.00  0.00    -0.045 A 
BRANCH  13  14
ATOM     14  C   UNL A   1      27.878  29.397  21.918  1.00  0.00     0.041 C 
BRANCH  14  15
ATOM     15  C   UNL A   1      27.648  30.875  22.261  1.00  0.00     0.022 C 
ATOM     16  C   UNL A   1      27.995  31.271  23.707  1.00  0.00     0.007 C 
ATOM     17  C   UNL A   1      28.404  31.866  21.365  1.00  0.00     0.117 C 
ATOM     18  C   UNL A   1      28.956  32.448  23.596  1.00  0.00     0.003 C 
ATOM     19  C   UNL A   1      28.612  33.079  22.259  1.00  0.00     0.032 C 
BRANCH  17  20
ATOM     20  O   UNL A   1      27.653  32.219  20.217  1.00  0.00    -0.393 OA
ATOM     21  H   UNL A   1      26.836  32.667  20.490  1.00  0.00     0.210 HD
ENDBRANCH  17  20
ENDBRANCH  14  15
ENDBRANCH  13  14
ENDBRANCH   5   7
ENDBRANCH   3   5
ENDBRANCH   2   3
ENDBRANCH   1   2
BRANCH   1  22
ATOM     22  C   UNL A   1      31.759  29.775  26.536  1.00  0.00     0.275 C 
BRANCH  22  23
ATOM     23  O   UNL A   1      33.064  30.310  26.262  1.00  0.00    -0.458 OA
BRANCH  23  24
ATOM     24  C   UNL A   1      33.489  31.304  27.072  1.00  0.00     0.338 C 
ATOM     25  O   UNL A   1      32.918  32.360  27.301  1.00  0.00    -0.246 OA
BRANCH  24  26
ATOM     26  C   UNL A   1      34.799  30.946  27.661  1.00  0.00     0.060 A 
ATOM     27  C   UNL A   1      35.120  29.621  27.953  1.00  0.00     0.016 A 
ATOM     28  C   UNL A   1      35.698  31.960  28.001  1.00  0.00     0.016 A 
ATOM     29  C   UNL A   1      36.286  29.325  28.659  1.00  0.00     0.010 A 
ATOM     30  C   UNL A   1      36.906  31.646  28.636  1.00  0.00     0.010 A 
ATOM     31  C   UNL A   1      37.200  30.326  29.021  1.00  0.00    -0.014 A 
BRANCH  31  32
ATOM     32  C   UNL A   1      38.403  30.013  29.856  1.00  0.00     0.031 A 
ATOM     33  C   UNL A   1      39.528  29.174  29.292  1.00  0.00     0.074 A 
ATOM     34  C   UNL A   1      38.546  30.509  31.102  1.00  0.00     0.049 A 
ATOM     35  N   UNL A   1      40.539  28.614  29.912  1.00  0.00    -0.248 NA
ATOM     36  C   UNL A   1      39.513  28.929  27.841  1.00  0.00     0.031 C 
ATOM     37  C   UNL A   1      37.600  31.394  31.781  1.00  0.00     0.029 A 
ATOM     38  N   UNL A   1      39.562  30.352  32.018  1.00  0.00    -0.354 N 
ATOM     39  C   UNL A   1      41.220  27.880  28.948  1.00  0.00     0.074 A 
ATOM     40  C   UNL A   1      40.528  28.089  27.695  1.00  0.00     0.031 C 
ATOM     41  C   UNL A   1      38.104  31.753  32.970  1.00  0.00     0.029 A 
ATOM     42  C   UNL A   1      39.355  31.035  33.192  1.00  0.00     0.049 A 
ATOM     43  H   UNL A   1      40.361  29.804  31.847  1.00  0.00     0.167 HD
ATOM     44  C   UNL A   1      42.316  27.096  29.098  1.00  0.00     0.037 A 
ATOM     45  C   UNL A   1      40.055  31.047  34.345  1.00  0.00     0.037 A 
ATOM     46  C   UNL A   1      43.065  26.954  30.320  1.00  0.00     0.049 A 
ATOM     47  C   UNL A   1      41.265  30.170  34.491  1.00  0.00     0.074 A 
ATOM     48  C   UNL A   1      44.187  26.179  30.562  1.00  0.00     0.029 A 
ATOM     49  N   UNL A   1      42.787  27.628  31.498  1.00  0.00    -0.354 N 
ATOM     50  N   UNL A   1      41.820  29.375  33.611  1.00  0.00    -0.248 NA
ATOM     51  C   UNL A   1      41.922  30.163  35.807  1.00  0.00     0.031 C 
ATOM     52  C   UNL A   1      44.578  26.369  31.891  1.00  0.00     0.029 A 
ATOM     53  C   UNL A   1      43.719  27.289  32.468  1.00  0.00     0.049 A 
ATOM     54  H   UNL A   1      42.039  28.255  31.628  1.00  0.00     0.167 HD
ATOM     55  C   UNL A   1      42.880  28.765  34.268  1.00  0.00     0.074 A 
ATOM     56  C   UNL A   1      42.915  29.309  35.609  1.00  0.00     0.031 C 
ATOM     57  C   UNL A   1      43.739  27.825  33.803  1.00  0.00     0.037 A 
BRANCH  44  58
ATOM     58  C   UNL A   1      42.763  26.287  27.914  1.00  0.00     0.064 A 
ATOM     59  C   UNL A   1      42.237  25.019  27.636  1.00  0.00     0.173 A 
ATOM     60  C   UNL A   1      43.690  26.830  27.008  1.00  0.00     0.173 A 
ATOM     61  F   UNL A   1      41.361  24.453  28.478  1.00  0.00    -0.203 F 
ATOM     62  C   UNL A   1      42.635  24.315  26.501  1.00  0.00     0.198 A 
ATOM     63  C   UNL A   1      44.066  26.134  25.862  1.00  0.00     0.198 A 
ATOM     64  F   UNL A   1      44.216  28.045  27.225  1.00  0.00    -0.203 F 
ATOM     65  F   UNL A   1      42.146  23.089  26.271  1.00  0.00    -0.200 F 
ATOM     66  C   UNL A   1      43.541  24.876  25.612  1.00  0.00     0.200 A 
ATOM     67  F   UNL A   1      44.930  26.684  24.999  1.00  0.00    -0.200 F 
ATOM     68  F   UNL A   1      43.912  24.201  24.515  1.00  0.00    -0.200 F 
ENDBRANCH  44  58
BRANCH  45  69
ATOM     69  C   UNL A   1      39.584  31.883  35.479  1.00  0.00     0.064 A 
ATOM     70  C   UNL A   1      40.072  33.184  35.665  1.00  0.00     0.173 A 
ATOM     71  C   UNL A   1      38.628  31.406  36.388  1.00  0.00     0.173 A 
ATOM     72  F   UNL A   1      41.009  33.672  34.840  1.00  0.00    -0.203 F 
ATOM     73  C   UNL A   1      39.618  33.976  36.718  1.00  0.00     0.198 A 
ATOM     74  C   UNL A   1      38.153  32.211  37.420  1.00  0.00     0.198 A 
ATOM     75  F   UNL A   1      38.135  30.166  36.255  1.00  0.00    -0.203 F 
ATOM     76  F   UNL A   1      40.123  35.205  36.894  1.00  0.00    -0.200 F 
ATOM     77  C   UNL A   1      38.651  33.493  37.587  1.00  0.00     0.200 A 
ATOM     78  F   UNL A   1      37.207  31.746  38.247  1.00  0.00    -0.200 F 
ATOM     79  F   UNL A   1      38.202  34.263  38.587  1.00  0.00    -0.200 F 
ENDBRANCH  45  69
BRANCH  57  80
ATOM     80  C   UNL A   1      44.788  27.326  34.749  1.00  0.00     0.064 A 
ATOM     81  C   UNL A   1      46.019  27.984  34.885  1.00  0.00     0.173 A 
ATOM     82  C   UNL A   1      44.553  26.193  35.544  1.00  0.00     0.173 A 
ATOM     83  F   UNL A   1      46.295  29.060  34.135  1.00  0.00    -0.203 F 
ATOM     84  C   UNL A   1      46.987  27.513  35.769  1.00  0.00     0.198 A 
ATOM     85  C   UNL A   1      45.515  25.739  36.442  1.00  0.00     0.198 A 
ATOM     86  F   UNL A   1      43.389  25.533  35.452  1.00  0.00    -0.203 F 
ATOM     87  F   UNL A   1      48.171  28.134  35.855  1.00  0.00    -0.200 F 
ATOM     88  C   UNL A   1      46.733  26.394  36.549  1.00  0.00     0.200 A 
ATOM     89  F   UNL A   1      45.266  24.663  37.200  1.00  0.00    -0.200 F 
ATOM     90  F   UNL A   1      47.665  25.944  37.398  1.00  0.00    -0.200 F 
ENDBRANCH  57  80
ENDBRANCH  31  32
ENDBRANCH  24  26
ENDBRANCH  23  24
ENDBRANCH  22  23
ENDBRANCH   1  22
TORSDOF 15
ENDMDL
MODEL 2
REMARK VINA RESULT:     -12.1      2.819      4.674
REMARK SMILES C[C@@H](C(=O)OCCOC(=O)c1ccc(-c2c3nc(c(-c4c(F)c(F)c(F)c(F)c4F)c4ccc([nH]4)c(-c4c(F)c(F)c(F)c(F)c4F)c4nc(c(-c5c(F)c(F)c(F)c(F)c5F)c5ccc2[nH]5)C=C4)C=C3)cc1)c1ccc(C[C@H]2CCC[C@@H]2O)cc1F
REMARK SMILES IDX 6 1 5 2 3 3 4 4 2 5 1 6 74 7 75 8 86 9 76 10 85 11 87 12
REMARK SMILES IDX 77 13 78 14 79 15 80 16 83 17 81 18 82 19 84 20 7 22 8 23
REMARK SMILES IDX 9 24 10 25 11 26 12 27 73 28 13 29 72 30 14 31 15 32 16 33
REMARK SMILES IDX 66 34 17 35 71 36 65 37 67 38 18 39 70 40 64 41 63 42 19 44
REMARK SMILES IDX 51 45 31 46 50 47 32 48 35 49 49 50 68 51 33 52 34 53 48 55
REMARK SMILES IDX 69 56 36 57 20 58 21 59 29 60 22 61 23 62 27 63 30 64 24 65
REMARK SMILES IDX 25 66 28 67 26 68 52 69 53 70 61 71 54 72 55 73 59 74 62 75
REMARK SMILES IDX 56 76 57 77 60 78 58 79 37 80 38 81 46 82 39 83 40 84 44 85
REMARK SMILES IDX 47 86 41 87 42 88 45 89 43 90
REMARK H PARENT 84 21 67 43 35 54
REMARK Flexibility Score: inf
ROOT
ATOM      1  C   UNL A   1      31.714  28.244  26.610  1.00  0.00     0.274 C 
ENDROOT
BRANCH   1   2
ATOM      2  O   UNL A   1      32.768  27.375  26.145  1.00  0.00    -0.462 OA
BRANCH   2   3
ATOM      3  C   UNL A   1      32.499  26.040  26.131  1.00  0.00     0.313 C 
ATOM      4  O   UNL A   1      31.531  25.528  26.685  1.00  0.00    -0.252 OA
BRANCH   3   5
ATOM      5  C   UNL A   1      33.573  25.228  25.398  1.00  0.00     0.129 C 
ATOM      6  C   UNL A   1      33.978  25.824  24.046  1.00  0.00     0.025 C 
BRANCH   5   7
ATOM      7  C   UNL A   1      33.197  23.751  25.335  1.00  0.00     0.002 A 
ATOM      8  C   UNL A   1      32.548  23.251  24.192  1.00  0.00     0.008 A 
ATOM      9  C   UNL A   1      33.535  22.833  26.332  1.00  0.00     0.127 A 
ATOM     10  C   UNL A   1      32.260  21.887  24.060  1.00  0.00     0.004 A 
ATOM     11  C   UNL A   1      33.235  21.474  26.214  1.00  0.00     0.043 A 
ATOM     12  F   UNL A   1      34.217  23.226  27.416  1.00  0.00    -0.207 F 
ATOM     13  C   UNL A   1      32.604  20.979  25.069  1.00  0.00    -0.045 A 
BRANCH  13  14
ATOM     14  C   UNL A   1      32.386  19.494  24.881  1.00  0.00     0.041 C 
BRANCH  14  15
ATOM     15  C   UNL A   1      33.361  18.741  23.966  1.00  0.00     0.022 C 
ATOM     16  C   UNL A   1      34.692  18.334  24.625  1.00  0.00     0.007 C 
ATOM     17  C   UNL A   1      32.795  17.458  23.343  1.00  0.00     0.117 C 
ATOM     18  C   UNL A   1      34.831  16.836  24.389  1.00  0.00     0.003 C 
ATOM     19  C   UNL A   1      34.024  16.586  23.127  1.00  0.00     0.032 C 
BRANCH  17  20
ATOM     20  O   UNL A   1      32.144  17.711  22.111  1.00  0.00    -0.393 OA
ATOM     21  H   UNL A   1      32.039  18.669  21.991  1.00  0.00     0.210 HD
ENDBRANCH  17  20
ENDBRANCH  14  15
ENDBRANCH  13  14
ENDBRANCH   5   7
ENDBRANCH   3   5
ENDBRANCH   2   3
ENDBRANCH   1   2
BRANCH   1  22
ATOM     22  C   UNL A   1      31.729  29.550  25.820  1.00  0.00     0.275 C 
BRANCH  22  23
ATOM     23  O   UNL A   1      33.052  30.108  25.875  1.00  0.00    -0.458 OA
BRANCH  23  24
ATOM     24  C   UNL A   1      33.289  30.996  26.864  1.00  0.00     0.338 C 
ATOM     25  O   UNL A   1      32.555  31.902  27.230  1.00  0.00    -0.246 OA
BRANCH  24  26
ATOM     26  C   UNL A   1      34.616  30.734  27.465  1.00  0.00     0.060 A 
ATOM     27  C   UNL A   1      35.114  29.436  27.575  1.00  0.00     0.016 A 
ATOM     28  C   UNL A   1      35.348  31.796  28.001  1.00  0.00     0.016 A 
ATOM     29  C   UNL A   1      36.286  29.197  28.295  1.00  0.00     0.010 A 
ATOM     30  C   UNL A   1      36.566  31.557  28.650  1.00  0.00     0.010 A 
ATOM     31  C   UNL A   1      37.033  30.246  28.851  1.00  0.00    -0.014 A 
BRANCH  31  32
ATOM     32  C   UNL A   1      38.239  29.976  29.695  1.00  0.00     0.031 A 
ATOM     33  C   UNL A   1      39.389  29.160  29.148  1.00  0.00     0.074 A 
ATOM     34  C   UNL A   1      38.363  30.492  30.936  1.00  0.00     0.049 A 
ATOM     35  N   UNL A   1      40.411  28.634  29.781  1.00  0.00    -0.248 NA
ATOM     36  C   UNL A   1      39.389  28.896  27.701  1.00  0.00     0.031 C 
ATOM     37  C   UNL A   1      37.390  31.360  31.599  1.00  0.00     0.029 A 
ATOM     38  N   UNL A   1      39.377  30.373  31.859  1.00  0.00    -0.354 N 
ATOM     39  C   UNL A   1      41.117  27.907  28.831  1.00  0.00     0.074 A 
ATOM     40  C   UNL A   1      40.426  28.081  27.571  1.00  0.00     0.031 C 
ATOM     41  C   UNL A   1      37.878  31.747  32.786  1.00  0.00     0.029 A 
ATOM     42  C   UNL A   1      39.146  31.065  33.024  1.00  0.00     0.049 A 
ATOM     43  H   UNL A   1      40.191  29.844  31.700  1.00  0.00     0.167 HD
ATOM     44  C   UNL A   1      42.232  27.154  28.996  1.00  0.00     0.037 A 
ATOM     45  C   UNL A   1      39.838  31.110  34.179  1.00  0.00     0.037 A 
ATOM     46  C   UNL A   1      42.977  27.047  30.224  1.00  0.00     0.049 A 
ATOM     47  C   UNL A   1      41.071  30.268  34.343  1.00  0.00     0.074 A 
ATOM     48  C   UNL A   1      44.119  26.305  30.482  1.00  0.00     0.029 A 
ATOM     49  N   UNL A   1      42.675  27.728  31.392  1.00  0.00    -0.354 N 
ATOM     50  N   UNL A   1      41.651  29.476  33.477  1.00  0.00    -0.248 NA
ATOM     51  C   UNL A   1      41.720  30.295  35.663  1.00  0.00     0.031 C 
ATOM     52  C   UNL A   1      44.497  26.522  31.811  1.00  0.00     0.029 A 
ATOM     53  C   UNL A   1      43.610  27.427  32.370  1.00  0.00     0.049 A 
ATOM     54  H   UNL A   1      41.911  28.337  31.509  1.00  0.00     0.167 HD
ATOM     55  C   UNL A   1      42.724  28.903  34.147  1.00  0.00     0.074 A 
ATOM     56  C   UNL A   1      42.737  29.465  35.481  1.00  0.00     0.031 C 
ATOM     57  C   UNL A   1      43.609  27.980  33.698  1.00  0.00     0.037 A 
BRANCH  44  58
ATOM     58  C   UNL A   1      42.706  26.342  27.825  1.00  0.00     0.064 A 
ATOM     59  C   UNL A   1      42.163  25.088  27.518  1.00  0.00     0.173 A 
ATOM     60  C   UNL A   1      43.681  26.868  26.960  1.00  0.00     0.173 A 
ATOM     61  F   UNL A   1      41.241  24.538  28.320  1.00  0.00    -0.203 F 
ATOM     62  C   UNL A   1      42.589  24.382  26.395  1.00  0.00     0.198 A 
ATOM     63  C   UNL A   1      44.086  26.170  25.826  1.00  0.00     0.198 A 
ATOM     64  F   UNL A   1      44.226  28.069  27.206  1.00  0.00    -0.203 F 
ATOM     65  F   UNL A   1      42.081  23.169  26.137  1.00  0.00    -0.200 F 
ATOM     66  C   UNL A   1      43.542  24.926  25.546  1.00  0.00     0.200 A 
ATOM     67  F   UNL A   1      44.996  26.705  25.001  1.00  0.00    -0.200 F 
ATOM     68  F   UNL A   1      43.940  24.249  24.460  1.00  0.00    -0.200 F 
ENDBRANCH  44  58
BRANCH  45  69
ATOM     69  C   UNL A   1      39.340  31.948  35.300  1.00  0.00     0.064 A 
ATOM     70  C   UNL A   1      39.672  33.307  35.386  1.00  0.00     0.173 A 
ATOM     71  C   UNL A   1      38.511  31.413  36.297  1.00  0.00     0.173 A 
ATOM     72  F   UNL A   1      40.486  33.856  34.473  1.00  0.00    -0.203 F 
ATOM     73  C   UNL A   1      39.189  34.099  36.427  1.00  0.00     0.198 A 
ATOM     74  C   UNL A   1      38.005  32.213  37.318  1.00  0.00     0.198 A 
ATOM     75  F   UNL A   1      38.169  30.117  36.262  1.00  0.00    -0.203 F 
ATOM     76  F   UNL A   1      39.547  35.388  36.504  1.00  0.00    -0.200 F 
ATOM     77  C   UNL A   1      38.347  33.554  37.385  1.00  0.00     0.200 A 
ATOM     78  F   UNL A   1      37.179  31.685  38.232  1.00  0.00    -0.200 F 
ATOM     79  F   UNL A   1      37.870  34.321  38.374  1.00  0.00    -0.200 F 
ENDBRANCH  45  69
BRANCH  57  80
ATOM     80  C   UNL A   1      44.665  27.521  34.657  1.00  0.00     0.064 A 
ATOM     81  C   UNL A   1      45.891  28.193  34.766  1.00  0.00     0.173 A 
ATOM     82  C   UNL A   1      44.443  26.414  35.490  1.00  0.00     0.173 A 
ATOM     83  F   UNL A   1      46.157  29.245  33.979  1.00  0.00    -0.203 F 
ATOM     84  C   UNL A   1      46.867  27.759  35.661  1.00  0.00     0.198 A 
ATOM     85  C   UNL A   1      45.411  25.997  36.398  1.00  0.00     0.198 A 
ATOM     86  F   UNL A   1      43.284  25.741  35.425  1.00  0.00    -0.203 F 
ATOM     87  F   UNL A   1      48.046  28.392  35.721  1.00  0.00    -0.200 F 
ATOM     88  C   UNL A   1      46.624  26.665  36.479  1.00  0.00     0.200 A 
ATOM     89  F   UNL A   1      45.174  24.944  37.193  1.00  0.00    -0.200 F 
ATOM     90  F   UNL A   1      47.564  26.250  37.339  1.00  0.00    -0.200 F 
ENDBRANCH  57  80
ENDBRANCH  31  32
ENDBRANCH  24  26
ENDBRANCH  23  24
ENDBRANCH  22  23
ENDBRANCH   1  22
TORSDOF 15
ENDMDL
MODEL 3
REMARK VINA RESULT:     -12.1      2.009      4.393
REMARK SMILES C[C@@H](C(=O)OCCOC(=O)c1ccc(-c2c3nc(c(-c4c(F)c(F)c(F)c(F)c4F)c4ccc([nH]4)c(-c4c(F)c(F)c(F)c(F)c4F)c4nc(c(-c5c(F)c(F)c(F)c(F)c5F)c5ccc2[nH]5)C=C4)C=C3)cc1)c1ccc(C[C@H]2CCC[C@@H]2O)cc1F
REMARK SMILES IDX 6 1 5 2 3 3 4 4 2 5 1 6 74 7 75 8 86 9 76 10 85 11 87 12
REMARK SMILES IDX 77 13 78 14 79 15 80 16 83 17 81 18 82 19 84 20 7 22 8 23
REMARK SMILES IDX 9 24 10 25 11 26 12 27 73 28 13 29 72 30 14 31 15 32 16 33
REMARK SMILES IDX 66 34 17 35 71 36 65 37 67 38 18 39 70 40 64 41 63 42 19 44
REMARK SMILES IDX 51 45 31 46 50 47 32 48 35 49 49 50 68 51 33 52 34 53 48 55
REMARK SMILES IDX 69 56 36 57 20 58 21 59 29 60 22 61 23 62 27 63 30 64 24 65
REMARK SMILES IDX 25 66 28 67 26 68 52 69 53 70 61 71 54 72 55 73 59 74 62 75
REMARK SMILES IDX 56 76 57 77 60 78 58 79 37 80 38 81 46 82 39 83 40 84 44 85
REMARK SMILES IDX 47 86 41 87 42 88 45 89 43 90
REMARK H PARENT 84 21 67 43 35 54
REMARK Flexibility Score: inf
ROOT
ATOM      1  C   UNL A   1      31.037  29.586  24.397  1.00  0.00     0.274 C 
ENDROOT
BRANCH   1   2
ATOM      2  O   UNL A   1      30.783  28.189  24.140  1.00  0.00    -0.462 OA
BRANCH   2   3
ATOM      3  C   UNL A   1      31.538  27.597  23.174  1.00  0.00     0.313 C 
ATOM      4  O   UNL A   1      31.074  27.034  22.188  1.00  0.00    -0.252 OA
BRANCH   3   5
ATOM      5  C   UNL A   1      33.039  27.653  23.479  1.00  0.00     0.129 C 
ATOM      6  C   UNL A   1      33.890  28.122  22.293  1.00  0.00     0.025 C 
BRANCH   5   7
ATOM      7  C   UNL A   1      33.521  26.351  24.110  1.00  0.00     0.002 A 
ATOM      8  C   UNL A   1      33.964  25.304  23.282  1.00  0.00     0.008 A 
ATOM      9  C   UNL A   1      33.622  26.162  25.490  1.00  0.00     0.127 A 
ATOM     10  C   UNL A   1      34.491  24.125  23.823  1.00  0.00     0.004 A 
ATOM     11  C   UNL A   1      34.130  24.982  26.036  1.00  0.00     0.043 A 
ATOM     12  F   UNL A   1      33.284  27.143  26.338  1.00  0.00    -0.207 F 
ATOM     13  C   UNL A   1      34.584  23.949  25.209  1.00  0.00    -0.045 A 
BRANCH  13  14
ATOM     14  C   UNL A   1      35.247  22.720  25.791  1.00  0.00     0.041 C 
BRANCH  14  15
ATOM     15  C   UNL A   1      34.402  21.445  25.911  1.00  0.00     0.022 C 
ATOM     16  C   UNL A   1      32.884  21.676  26.023  1.00  0.00     0.007 C 
ATOM     17  C   UNL A   1      34.587  20.443  24.763  1.00  0.00     0.117 C 
ATOM     18  C   UNL A   1      32.253  20.831  24.923  1.00  0.00     0.003 C 
ATOM     19  C   UNL A   1      33.254  19.712  24.700  1.00  0.00     0.032 C 
BRANCH  17  20
ATOM     20  O   UNL A   1      35.641  19.533  25.021  1.00  0.00    -0.393 OA
ATOM     21  H   UNL A   1      35.984  19.188  24.181  1.00  0.00     0.210 HD
ENDBRANCH  17  20
ENDBRANCH  14  15
ENDBRANCH  13  14
ENDBRANCH   5   7
ENDBRANCH   3   5
ENDBRANCH   2   3
ENDBRANCH   1   2
BRANCH   1  22
ATOM     22  C   UNL A   1      31.503  29.775  25.837  1.00  0.00     0.275 C 
BRANCH  22  23
ATOM     23  O   UNL A   1      32.801  30.391  25.825  1.00  0.00    -0.458 OA
BRANCH  23  24
ATOM     24  C   UNL A   1      33.068  31.252  26.831  1.00  0.00     0.338 C 
ATOM     25  O   UNL A   1      32.353  32.160  27.229  1.00  0.00    -0.246 OA
BRANCH  24  26
ATOM     26  C   UNL A   1      34.400  30.956  27.404  1.00  0.00     0.060 A 
ATOM     27  C   UNL A   1      34.823  29.643  27.603  1.00  0.00     0.016 A 
ATOM     28  C   UNL A   1      35.214  32.010  27.827  1.00  0.00     0.016 A 
ATOM     29  C   UNL A   1      36.007  29.388  28.297  1.00  0.00     0.010 A 
ATOM     30  C   UNL A   1      36.441  31.747  28.449  1.00  0.00     0.010 A 
ATOM     31  C   UNL A   1      36.837  30.430  28.740  1.00  0.00    -0.014 A 
BRANCH  31  32
ATOM     32  C   UNL A   1      38.057  30.152  29.561  1.00  0.00     0.031 A 
ATOM     33  C   UNL A   1      39.195  29.336  28.989  1.00  0.00     0.074 A 
ATOM     34  C   UNL A   1      38.204  30.662  30.802  1.00  0.00     0.049 A 
ATOM     35  N   UNL A   1      40.227  28.805  29.601  1.00  0.00    -0.248 NA
ATOM     36  C   UNL A   1      39.168  29.079  27.542  1.00  0.00     0.031 C 
ATOM     37  C   UNL A   1      37.246  31.530  31.486  1.00  0.00     0.029 A 
ATOM     38  N   UNL A   1      39.236  30.537  31.706  1.00  0.00    -0.354 N 
ATOM     39  C   UNL A   1      40.913  28.080  28.635  1.00  0.00     0.074 A 
ATOM     40  C   UNL A   1      40.201  28.262  27.388  1.00  0.00     0.031 C 
ATOM     41  C   UNL A   1      37.757  31.910  32.666  1.00  0.00     0.029 A 
ATOM     42  C   UNL A   1      39.027  31.224  32.878  1.00  0.00     0.049 A 
ATOM     43  H   UNL A   1      40.045  30.006  31.529  1.00  0.00     0.167 HD
ATOM     44  C   UNL A   1      42.030  27.323  28.776  1.00  0.00     0.037 A 
ATOM     45  C   UNL A   1      39.741  31.262  34.021  1.00  0.00     0.037 A 
ATOM     46  C   UNL A   1      42.797  27.209  29.990  1.00  0.00     0.049 A 
ATOM     47  C   UNL A   1      40.973  30.415  34.158  1.00  0.00     0.074 A 
ATOM     48  C   UNL A   1      43.940  26.463  30.223  1.00  0.00     0.029 A 
ATOM     49  N   UNL A   1      42.518  27.886  31.166  1.00  0.00    -0.354 N 
ATOM     50  N   UNL A   1      41.536  29.626  33.278  1.00  0.00    -0.248 NA
ATOM     51  C   UNL A   1      41.647  30.435  35.466  1.00  0.00     0.031 C 
ATOM     52  C   UNL A   1      44.343  26.673  31.546  1.00  0.00     0.029 A 
ATOM     53  C   UNL A   1      43.470  27.577  32.126  1.00  0.00     0.049 A 
ATOM     54  H   UNL A   1      41.757  28.496  31.301  1.00  0.00     0.167 HD
ATOM     55  C   UNL A   1      42.619  29.047  33.925  1.00  0.00     0.074 A 
ATOM     56  C   UNL A   1      42.658  29.603  35.261  1.00  0.00     0.031 C 
ATOM     57  C   UNL A   1      43.494  28.125  33.457  1.00  0.00     0.037 A 
BRANCH  44  58
ATOM     58  C   UNL A   1      42.480  26.516  27.593  1.00  0.00     0.064 A 
ATOM     59  C   UNL A   1      43.483  26.963  26.724  1.00  0.00     0.173 A 
ATOM     60  C   UNL A   1      41.936  25.240  27.370  1.00  0.00     0.173 A 
ATOM     61  F   UNL A   1      44.024  28.179  26.886  1.00  0.00    -0.203 F 
ATOM     62  C   UNL A   1      43.915  26.168  25.663  1.00  0.00     0.198 A 
ATOM     63  C   UNL A   1      42.387  24.439  26.326  1.00  0.00     0.198 A 
ATOM     64  F   UNL A   1      40.978  24.763  28.180  1.00  0.00    -0.203 F 
ATOM     65  F   UNL A   1      44.852  26.628  24.823  1.00  0.00    -0.200 F 
ATOM     66  C   UNL A   1      43.374  24.905  25.471  1.00  0.00     0.200 A 
ATOM     67  F   UNL A   1      41.873  23.214  26.151  1.00  0.00    -0.200 F 
ATOM     68  F   UNL A   1      43.801  24.139  24.458  1.00  0.00    -0.200 F 
ENDBRANCH  44  58
BRANCH  45  69
ATOM     69  C   UNL A   1      39.265  32.096  35.154  1.00  0.00     0.064 A 
ATOM     70  C   UNL A   1      38.498  31.537  36.187  1.00  0.00     0.173 A 
ATOM     71  C   UNL A   1      39.578  33.460  35.237  1.00  0.00     0.173 A 
ATOM     72  F   UNL A   1      38.148  30.243  36.135  1.00  0.00    -0.203 F 
ATOM     73  C   UNL A   1      38.067  32.313  37.261  1.00  0.00     0.198 A 
ATOM     74  C   UNL A   1      39.173  34.226  36.326  1.00  0.00     0.198 A 
ATOM     75  F   UNL A   1      40.304  34.042  34.271  1.00  0.00    -0.203 F 
ATOM     76  F   UNL A   1      37.309  31.763  38.219  1.00  0.00    -0.200 F 
ATOM     77  C   UNL A   1      38.414  33.654  37.335  1.00  0.00     0.200 A 
ATOM     78  F   UNL A   1      39.525  35.518  36.402  1.00  0.00    -0.200 F 
ATOM     79  F   UNL A   1      38.015  34.394  38.377  1.00  0.00    -0.200 F 
ENDBRANCH  45  69
BRANCH  57  80
ATOM     80  C   UNL A   1      44.566  27.658  34.394  1.00  0.00     0.064 A 
ATOM     81  C   UNL A   1      45.781  28.348  34.511  1.00  0.00     0.173 A 
ATOM     82  C   UNL A   1      44.370  26.525  35.198  1.00  0.00     0.173 A 
ATOM     83  F   UNL A   1      46.021  29.427  33.751  1.00  0.00    -0.203 F 
ATOM     84  C   UNL A   1      46.771  27.908  35.386  1.00  0.00     0.198 A 
ATOM     85  C   UNL A   1      45.354  26.100  36.086  1.00  0.00     0.198 A 
ATOM     86  F   UNL A   1      43.223  25.833  35.123  1.00  0.00    -0.203 F 
ATOM     87  F   UNL A   1      47.940  28.560  35.454  1.00  0.00    -0.200 F 
ATOM     88  C   UNL A   1      46.556  26.788  36.176  1.00  0.00     0.200 A 
ATOM     89  F   UNL A   1      45.142  25.023  36.853  1.00  0.00    -0.200 F 
ATOM     90  F   UNL A   1      47.510  26.367  37.016  1.00  0.00    -0.200 F 
ENDBRANCH  57  80
ENDBRANCH  31  32
ENDBRANCH  24  26
ENDBRANCH  23  24
ENDBRANCH  22  23
ENDBRANCH   1  22
TORSDOF 15
ENDMDL
