MODEL 1
REMARK VINA RESULT:     -11.3      0.000      0.000
REMARK SMILES C[C@@H](NC1=[NH+]CCC1)C(=O)OCCOC(=O)c1ccc(-c2c3nc(c(-c4c(F)c(F)c(F)c(F)c4F)c4ccc([nH]4)c(-c4c(F)c(F)c(F)c(F)c4F)c4nc(c(-c5c(F)c(F)c(F)c(F)c5F)c5ccc2[nH]5)C=C4)C=C3)cc1
REMARK SMILES IDX 13 1 12 2 11 3 9 4 10 5 2 6 1 7 3 8 4 9 5 11 8 12 6 13 7 15
REMARK SMILES IDX 14 16 15 17 16 18 17 19 18 20 79 21 19 22 78 23 20 24 21 25
REMARK SMILES IDX 22 26 72 27 23 28 77 29 71 30 73 31 24 32 76 33 70 34 69 35
REMARK SMILES IDX 25 37 57 38 37 39 56 40 38 41 41 42 55 43 74 44 39 45 40 46
REMARK SMILES IDX 54 48 75 49 42 50 26 51 27 52 35 53 28 54 29 55 33 56 36 57
REMARK SMILES IDX 30 58 31 59 34 60 32 61 58 62 59 63 67 64 60 65 61 66 65 67
REMARK SMILES IDX 68 68 62 69 63 70 66 71 64 72 43 73 44 74 52 75 45 76 46 77
REMARK SMILES IDX 50 78 53 79 47 80 48 81 51 82 49 83
REMARK H PARENT 3 10 5 14 73 36 41 47
REMARK Flexibility Score: inf
ROOT
ATOM      1  C   UNL A   1      45.308  23.164  23.880  1.00  0.00     0.275 C 
ENDROOT
BRANCH   1   2
ATOM      2  C   UNL A   1      46.429  22.499  24.688  1.00  0.00     0.274 C 
BRANCH   2   3
ATOM      3  O   UNL A   1      46.004  21.297  25.360  1.00  0.00    -0.459 OA
BRANCH   3   4
ATOM      4  C   UNL A   1      46.225  20.130  24.695  1.00  0.00     0.350 C 
ATOM      5  O   UNL A   1      47.336  19.635  24.519  1.00  0.00    -0.247 OA
BRANCH   4   6
ATOM      6  C   UNL A   1      44.947  19.502  24.134  1.00  0.00     0.279 C 
ATOM      7  C   UNL A   1      45.187  18.912  22.742  1.00  0.00     0.071 C 
BRANCH   6   8
ATOM      8  N   UNL A   1      44.348  18.472  24.979  1.00  0.00    -0.265 N 
ATOM      9  C   UNL A   1      43.424  18.619  25.963  1.00  0.00     0.243 C 
ATOM     10  H   UNL A   1      44.655  17.551  24.813  1.00  0.00     0.305 HD
ATOM     11  N   UNL A   1      43.565  17.946  27.070  1.00  0.00    -0.279 N 
ATOM     12  C   UNL A   1      42.177  19.455  25.876  1.00  0.00     0.131 C 
ATOM     13  C   UNL A   1      42.450  18.371  27.937  1.00  0.00     0.234 C 
ATOM     14  H   UNL A   1      44.269  17.291  27.282  1.00  0.00     0.304 HD
ATOM     15  C   UNL A   1      41.968  19.686  27.352  1.00  0.00     0.058 C 
ENDBRANCH   6   8
ENDBRANCH   4   6
ENDBRANCH   3   4
ENDBRANCH   2   3
ENDBRANCH   1   2
BRANCH   1  16
ATOM     16  O   UNL A   1      44.568  24.122  24.663  1.00  0.00    -0.458 OA
BRANCH  16  17
ATOM     17  C   UNL A   1      43.333  23.718  25.043  1.00  0.00     0.338 C 
ATOM     18  O   UNL A   1      42.783  22.670  24.752  1.00  0.00    -0.246 OA
BRANCH  17  19
ATOM     19  C   UNL A   1      42.780  24.650  26.042  1.00  0.00     0.060 A 
ATOM     20  C   UNL A   1      43.335  25.934  26.102  1.00  0.00     0.016 A 
ATOM     21  C   UNL A   1      41.778  24.268  26.935  1.00  0.00     0.016 A 
ATOM     22  C   UNL A   1      42.889  26.847  27.050  1.00  0.00     0.010 A 
ATOM     23  C   UNL A   1      41.345  25.181  27.904  1.00  0.00     0.010 A 
ATOM     24  C   UNL A   1      41.906  26.468  27.970  1.00  0.00    -0.014 A 
BRANCH  24  25
ATOM     25  C   UNL A   1      41.548  27.397  29.065  1.00  0.00     0.031 A 
ATOM     26  C   UNL A   1      42.377  27.405  30.314  1.00  0.00     0.074 A 
ATOM     27  C   UNL A   1      40.521  28.252  28.920  1.00  0.00     0.049 A 
ATOM     28  N   UNL A   1      42.210  28.088  31.418  1.00  0.00    -0.248 NA
ATOM     29  C   UNL A   1      43.558  26.528  30.320  1.00  0.00     0.031 C 
ATOM     30  C   UNL A   1      39.691  28.376  27.723  1.00  0.00     0.029 A 
ATOM     31  N   UNL A   1      40.002  29.177  29.790  1.00  0.00    -0.354 N 
ATOM     32  C   UNL A   1      43.252  27.712  32.253  1.00  0.00     0.074 A 
ATOM     33  C   UNL A   1      44.040  26.733  31.537  1.00  0.00     0.031 C 
ATOM     34  C   UNL A   1      38.757  29.318  27.938  1.00  0.00     0.029 A 
ATOM     35  C   UNL A   1      38.899  29.830  29.299  1.00  0.00     0.049 A 
ATOM     36  H   UNL A   1      40.382  29.354  30.680  1.00  0.00     0.167 HD
ATOM     37  C   UNL A   1      43.523  28.149  33.506  1.00  0.00     0.037 A 
ATOM     38  C   UNL A   1      38.082  30.719  29.897  1.00  0.00     0.037 A 
ATOM     39  C   UNL A   1      42.737  29.127  34.208  1.00  0.00     0.049 A 
ATOM     40  C   UNL A   1      38.365  31.134  31.316  1.00  0.00     0.074 A 
ATOM     41  C   UNL A   1      42.926  29.639  35.479  1.00  0.00     0.029 A 
ATOM     42  N   UNL A   1      41.602  29.741  33.695  1.00  0.00    -0.354 N 
ATOM     43  N   UNL A   1      39.346  30.770  32.106  1.00  0.00    -0.248 NA
ATOM     44  C   UNL A   1      37.423  32.081  31.930  1.00  0.00     0.031 C 
ATOM     45  C   UNL A   1      41.882  30.529  35.752  1.00  0.00     0.029 A 
ATOM     46  C   UNL A   1      41.069  30.609  34.633  1.00  0.00     0.049 A 
ATOM     47  H   UNL A   1      41.231  29.582  32.796  1.00  0.00     0.167 HD
ATOM     48  C   UNL A   1      39.154  31.457  33.297  1.00  0.00     0.074 A 
ATOM     49  C   UNL A   1      37.969  32.271  33.122  1.00  0.00     0.031 C 
ATOM     50  C   UNL A   1      39.891  31.416  34.435  1.00  0.00     0.037 A 
BRANCH  37  51
ATOM     51  C   UNL A   1      44.698  27.538  34.210  1.00  0.00     0.064 A 
ATOM     52  C   UNL A   1      44.578  26.360  34.963  1.00  0.00     0.173 A 
ATOM     53  C   UNL A   1      45.966  28.129  34.111  1.00  0.00     0.173 A 
ATOM     54  F   UNL A   1      43.383  25.766  35.102  1.00  0.00    -0.203 F 
ATOM     55  C   UNL A   1      45.682  25.810  35.610  1.00  0.00     0.198 A 
ATOM     56  C   UNL A   1      47.072  27.562  34.738  1.00  0.00     0.198 A 
ATOM     57  F   UNL A   1      46.134  29.255  33.403  1.00  0.00    -0.203 F 
ATOM     58  F   UNL A   1      45.536  24.710  36.361  1.00  0.00    -0.200 F 
ATOM     59  C   UNL A   1      46.928  26.407  35.492  1.00  0.00     0.200 A 
ATOM     60  F   UNL A   1      48.277  28.136  34.616  1.00  0.00    -0.200 F 
ATOM     61  F   UNL A   1      47.989  25.875  36.113  1.00  0.00    -0.200 F 
ENDBRANCH  37  51
BRANCH  38  62
ATOM     62  C   UNL A   1      36.906  31.254  29.164  1.00  0.00     0.064 A 
ATOM     63  C   UNL A   1      36.879  32.576  28.701  1.00  0.00     0.173 A 
ATOM     64  C   UNL A   1      35.778  30.455  28.921  1.00  0.00     0.173 A 
ATOM     65  F   UNL A   1      37.922  33.388  28.933  1.00  0.00    -0.203 F 
ATOM     66  C   UNL A   1      35.765  33.084  28.036  1.00  0.00     0.198 A 
ATOM     67  C   UNL A   1      34.677  30.954  28.230  1.00  0.00     0.198 A 
ATOM     68  F   UNL A   1      35.751  29.184  29.347  1.00  0.00    -0.203 F 
ATOM     69  F   UNL A   1      35.748  34.365  27.642  1.00  0.00    -0.200 F 
ATOM     70  C   UNL A   1      34.668  32.271  27.794  1.00  0.00     0.200 A 
ATOM     71  F   UNL A   1      33.623  30.162  27.992  1.00  0.00    -0.200 F 
ATOM     72  F   UNL A   1      33.598  32.757  27.150  1.00  0.00    -0.200 F 
ENDBRANCH  38  62
BRANCH  50  73
ATOM     73  C   UNL A   1      39.457  32.300  35.566  1.00  0.00     0.064 A 
ATOM     74  C   UNL A   1      38.575  31.845  36.558  1.00  0.00     0.173 A 
ATOM     75  C   UNL A   1      39.962  33.603  35.683  1.00  0.00     0.173 A 
ATOM     76  F   UNL A   1      38.052  30.612  36.482  1.00  0.00    -0.203 F 
ATOM     77  C   UNL A   1      38.199  32.672  37.613  1.00  0.00     0.198 A 
ATOM     78  C   UNL A   1      39.606  34.417  36.755  1.00  0.00     0.198 A 
ATOM     79  F   UNL A   1      40.815  34.083  34.765  1.00  0.00    -0.203 F 
ATOM     80  F   UNL A   1      37.322  32.231  38.527  1.00  0.00    -0.200 F 
ATOM     81  C   UNL A   1      38.720  33.953  37.715  1.00  0.00     0.200 A 
ATOM     82  F   UNL A   1      40.121  35.649  36.859  1.00  0.00    -0.200 F 
ATOM     83  F   UNL A   1      38.364  34.744  38.737  1.00  0.00    -0.200 F 
ENDBRANCH  50  73
ENDBRANCH  24  25
ENDBRANCH  17  19
ENDBRANCH  16  17
ENDBRANCH   1  16
TORSDOF 12
ENDMDL
MODEL 2
REMARK VINA RESULT:     -11.2      0.210      2.079
REMARK SMILES C[C@@H](NC1=[NH+]CCC1)C(=O)OCCOC(=O)c1ccc(-c2c3nc(c(-c4c(F)c(F)c(F)c(F)c4F)c4ccc([nH]4)c(-c4c(F)c(F)c(F)c(F)c4F)c4nc(c(-c5c(F)c(F)c(F)c(F)c5F)c5ccc2[nH]5)C=C4)C=C3)cc1
REMARK SMILES IDX 13 1 12 2 11 3 9 4 10 5 2 6 1 7 3 8 4 9 5 11 8 12 6 13 7 15
REMARK SMILES IDX 14 16 15 17 16 18 17 19 18 20 79 21 19 22 78 23 20 24 21 25
REMARK SMILES IDX 22 26 72 27 23 28 77 29 71 30 73 31 24 32 76 33 70 34 69 35
REMARK SMILES IDX 25 37 57 38 37 39 56 40 38 41 41 42 55 43 74 44 39 45 40 46
REMARK SMILES IDX 54 48 75 49 42 50 26 51 27 52 35 53 28 54 29 55 33 56 36 57
REMARK SMILES IDX 30 58 31 59 34 60 32 61 58 62 59 63 67 64 60 65 61 66 65 67
REMARK SMILES IDX 68 68 62 69 63 70 66 71 64 72 43 73 44 74 52 75 45 76 46 77
REMARK SMILES IDX 50 78 53 79 47 80 48 81 51 82 49 83
REMARK H PARENT 3 10 5 14 73 36 41 47
REMARK Flexibility Score: inf
ROOT
ATOM      1  C   UNL A   1      45.391  23.262  23.957  1.00  0.00     0.275 C 
ENDROOT
BRANCH   1   2
ATOM      2  C   UNL A   1      46.549  22.539  24.658  1.00  0.00     0.274 C 
BRANCH   2   3
ATOM      3  O   UNL A   1      46.130  21.354  25.363  1.00  0.00    -0.459 OA
BRANCH   3   4
ATOM      4  C   UNL A   1      46.269  20.177  24.692  1.00  0.00     0.350 C 
ATOM      5  O   UNL A   1      47.348  19.632  24.470  1.00  0.00    -0.247 OA
BRANCH   4   6
ATOM      6  C   UNL A   1      44.941  19.609  24.187  1.00  0.00     0.279 C 
ATOM      7  C   UNL A   1      45.070  19.096  22.752  1.00  0.00     0.071 C 
BRANCH   6   8
ATOM      8  N   UNL A   1      44.377  18.544  25.012  1.00  0.00    -0.265 N 
ATOM      9  C   UNL A   1      43.433  18.638  25.986  1.00  0.00     0.243 C 
ATOM     10  H   UNL A   1      44.726  17.639  24.842  1.00  0.00     0.305 HD
ATOM     11  N   UNL A   1      43.590  17.959  27.086  1.00  0.00    -0.279 N 
ATOM     12  C   UNL A   1      42.152  19.419  25.890  1.00  0.00     0.131 C 
ATOM     13  C   UNL A   1      42.445  18.325  27.942  1.00  0.00     0.234 C 
ATOM     14  H   UNL A   1      44.319  17.334  27.302  1.00  0.00     0.304 HD
ATOM     15  C   UNL A   1      41.913  19.624  27.366  1.00  0.00     0.058 C 
ENDBRANCH   6   8
ENDBRANCH   4   6
ENDBRANCH   3   4
ENDBRANCH   2   3
ENDBRANCH   1   2
BRANCH   1  16
ATOM     16  O   UNL A   1      44.695  24.159  24.844  1.00  0.00    -0.458 OA
BRANCH  16  17
ATOM     17  C   UNL A   1      43.431  23.788  25.156  1.00  0.00     0.338 C 
ATOM     18  O   UNL A   1      42.857  22.771  24.805  1.00  0.00    -0.246 OA
BRANCH  17  19
ATOM     19  C   UNL A   1      42.867  24.705  26.162  1.00  0.00     0.060 A 
ATOM     20  C   UNL A   1      43.430  25.984  26.256  1.00  0.00     0.016 A 
ATOM     21  C   UNL A   1      41.848  24.315  27.032  1.00  0.00     0.016 A 
ATOM     22  C   UNL A   1      42.974  26.884  27.212  1.00  0.00     0.010 A 
ATOM     23  C   UNL A   1      41.404  25.213  28.009  1.00  0.00     0.010 A 
ATOM     24  C   UNL A   1      41.974  26.495  28.109  1.00  0.00    -0.014 A 
BRANCH  24  25
ATOM     25  C   UNL A   1      41.603  27.406  29.214  1.00  0.00     0.031 A 
ATOM     26  C   UNL A   1      42.412  27.387  30.476  1.00  0.00     0.074 A 
ATOM     27  C   UNL A   1      40.583  28.269  29.068  1.00  0.00     0.049 A 
ATOM     28  N   UNL A   1      42.231  28.051  31.589  1.00  0.00    -0.248 NA
ATOM     29  C   UNL A   1      43.588  26.504  30.485  1.00  0.00     0.031 C 
ATOM     30  C   UNL A   1      39.772  28.419  27.861  1.00  0.00     0.029 A 
ATOM     31  N   UNL A   1      40.055  29.181  29.947  1.00  0.00    -0.354 N 
ATOM     32  C   UNL A   1      43.258  27.655  32.433  1.00  0.00     0.074 A 
ATOM     33  C   UNL A   1      44.052  26.684  31.712  1.00  0.00     0.031 C 
ATOM     34  C   UNL A   1      38.840  29.362  28.078  1.00  0.00     0.029 A 
ATOM     35  C   UNL A   1      38.963  29.849  29.450  1.00  0.00     0.049 A 
ATOM     36  H   UNL A   1      40.422  29.340  30.845  1.00  0.00     0.167 HD
ATOM     37  C   UNL A   1      43.512  28.069  33.698  1.00  0.00     0.037 A 
ATOM     38  C   UNL A   1      38.142  30.732  30.051  1.00  0.00     0.037 A 
ATOM     39  C   UNL A   1      42.720  29.039  34.405  1.00  0.00     0.049 A 
ATOM     40  C   UNL A   1      38.404  31.120  31.481  1.00  0.00     0.074 A 
ATOM     41  C   UNL A   1      42.892  29.527  35.687  1.00  0.00     0.029 A 
ATOM     42  N   UNL A   1      41.596  29.668  33.885  1.00  0.00    -0.354 N 
ATOM     43  N   UNL A   1      39.371  30.737  32.279  1.00  0.00    -0.248 NA
ATOM     44  C   UNL A   1      37.458  32.061  32.097  1.00  0.00     0.031 C 
ATOM     45  C   UNL A   1      41.849  30.418  35.960  1.00  0.00     0.029 A 
ATOM     46  C   UNL A   1      41.053  30.522  34.830  1.00  0.00     0.049 A 
ATOM     47  H   UNL A   1      41.239  29.527  32.978  1.00  0.00     0.167 HD
ATOM     48  C   UNL A   1      39.164  31.403  33.480  1.00  0.00     0.074 A 
ATOM     49  C   UNL A   1      37.987  32.228  33.301  1.00  0.00     0.031 C 
ATOM     50  C   UNL A   1      39.883  31.338  34.628  1.00  0.00     0.037 A 
BRANCH  37  51
ATOM     51  C   UNL A   1      44.672  27.438  34.409  1.00  0.00     0.064 A 
ATOM     52  C   UNL A   1      45.948  28.023  34.405  1.00  0.00     0.173 A 
ATOM     53  C   UNL A   1      44.499  26.243  35.122  1.00  0.00     0.173 A 
ATOM     54  F   UNL A   1      46.169  29.157  33.724  1.00  0.00    -0.203 F 
ATOM     55  C   UNL A   1      47.012  27.420  35.071  1.00  0.00     0.198 A 
ATOM     56  C   UNL A   1      45.559  25.657  35.807  1.00  0.00     0.198 A 
ATOM     57  F   UNL A   1      43.300  25.644  35.156  1.00  0.00    -0.203 F 
ATOM     58  F   UNL A   1      48.232  27.971  35.017  1.00  0.00    -0.200 F 
ATOM     59  C   UNL A   1      46.816  26.242  35.777  1.00  0.00     0.200 A 
ATOM     60  F   UNL A   1      45.366  24.523  36.495  1.00  0.00    -0.200 F 
ATOM     61  F   UNL A   1      47.841  25.665  36.419  1.00  0.00    -0.200 F 
ENDBRANCH  37  51
BRANCH  38  62
ATOM     62  C   UNL A   1      36.980  31.286  29.309  1.00  0.00     0.064 A 
ATOM     63  C   UNL A   1      35.867  30.491  29.005  1.00  0.00     0.173 A 
ATOM     64  C   UNL A   1      36.965  32.621  28.878  1.00  0.00     0.173 A 
ATOM     65  F   UNL A   1      35.845  29.201  29.371  1.00  0.00    -0.203 F 
ATOM     66  C   UNL A   1      34.789  31.006  28.288  1.00  0.00     0.198 A 
ATOM     67  C   UNL A   1      35.875  33.144  28.186  1.00  0.00     0.198 A 
ATOM     68  F   UNL A   1      38.009  33.423  29.139  1.00  0.00    -0.203 F 
ATOM     69  F   UNL A   1      33.756  30.213  27.973  1.00  0.00    -0.200 F 
ATOM     70  C   UNL A   1      34.791  32.333  27.885  1.00  0.00     0.200 A 
ATOM     71  F   UNL A   1      35.878  34.428  27.807  1.00  0.00    -0.200 F 
ATOM     72  F   UNL A   1      33.752  32.830  27.199  1.00  0.00    -0.200 F 
ENDBRANCH  38  62
BRANCH  50  73
ATOM     73  C   UNL A   1      39.436  32.205  35.768  1.00  0.00     0.064 A 
ATOM     74  C   UNL A   1      39.921  33.510  35.934  1.00  0.00     0.173 A 
ATOM     75  C   UNL A   1      38.478  31.738  36.681  1.00  0.00     0.173 A 
ATOM     76  F   UNL A   1      40.849  33.996  35.096  1.00  0.00    -0.203 F 
ATOM     77  C   UNL A   1      39.479  34.308  36.985  1.00  0.00     0.198 A 
ATOM     78  C   UNL A   1      38.018  32.550  37.714  1.00  0.00     0.198 A 
ATOM     79  F   UNL A   1      37.977  30.499  36.561  1.00  0.00    -0.203 F 
ATOM     80  F   UNL A   1      39.988  35.538  37.150  1.00  0.00    -0.200 F 
ATOM     81  C   UNL A   1      38.523  33.831  37.870  1.00  0.00     0.200 A 
ATOM     82  F   UNL A   1      37.085  32.091  38.560  1.00  0.00    -0.200 F 
ATOM     83  F   UNL A   1      38.093  34.604  38.876  1.00  0.00    -0.200 F 
ENDBRANCH  50  73
ENDBRANCH  24  25
ENDBRANCH  17  19
ENDBRANCH  16  17
ENDBRANCH   1  16
TORSDOF 12
ENDMDL
MODEL 3
REMARK VINA RESULT:     -11.2      4.893     11.591
REMARK SMILES C[C@@H](NC1=[NH+]CCC1)C(=O)OCCOC(=O)c1ccc(-c2c3nc(c(-c4c(F)c(F)c(F)c(F)c4F)c4ccc([nH]4)c(-c4c(F)c(F)c(F)c(F)c4F)c4nc(c(-c5c(F)c(F)c(F)c(F)c5F)c5ccc2[nH]5)C=C4)C=C3)cc1
REMARK SMILES IDX 13 1 12 2 11 3 9 4 10 5 2 6 1 7 3 8 4 9 5 11 8 12 6 13 7 15
REMARK SMILES IDX 14 16 15 17 16 18 17 19 18 20 79 21 19 22 78 23 20 24 21 25
REMARK SMILES IDX 22 26 72 27 23 28 77 29 71 30 73 31 24 32 76 33 70 34 69 35
REMARK SMILES IDX 25 37 57 38 37 39 56 40 38 41 41 42 55 43 74 44 39 45 40 46
REMARK SMILES IDX 54 48 75 49 42 50 26 51 27 52 35 53 28 54 29 55 33 56 36 57
REMARK SMILES IDX 30 58 31 59 34 60 32 61 58 62 59 63 67 64 60 65 61 66 65 67
REMARK SMILES IDX 68 68 62 69 63 70 66 71 64 72 43 73 44 74 52 75 45 76 46 77
REMARK SMILES IDX 50 78 53 79 47 80 48 81 51 82 49 83
REMARK H PARENT 3 10 5 14 73 36 41 47
REMARK Flexibility Score: inf
ROOT
ATOM      1  C   UNL A   1      33.223  34.154  28.091  1.00  0.00     0.275 C 
ENDROOT
BRANCH   1   2
ATOM      2  C   UNL A   1      33.549  35.199  29.166  1.00  0.00     0.274 C 
BRANCH   2   3
ATOM      3  O   UNL A   1      32.527  35.307  30.177  1.00  0.00    -0.459 OA
BRANCH   3   4
ATOM      4  C   UNL A   1      32.635  36.365  31.026  1.00  0.00     0.350 C 
ATOM      5  O   UNL A   1      32.908  37.510  30.672  1.00  0.00    -0.247 OA
BRANCH   4   6
ATOM      6  C   UNL A   1      32.429  35.986  32.494  1.00  0.00     0.279 C 
ATOM      7  C   UNL A   1      30.953  36.074  32.886  1.00  0.00     0.071 C 
BRANCH   6   8
ATOM      8  N   UNL A   1      32.930  34.664  32.861  1.00  0.00    -0.265 N 
ATOM      9  C   UNL A   1      34.118  34.089  32.537  1.00  0.00     0.243 C 
ATOM     10  H   UNL A   1      32.328  34.117  33.416  1.00  0.00     0.305 HD
ATOM     11  N   UNL A   1      34.140  32.834  32.190  1.00  0.00    -0.279 N 
ATOM     12  C   UNL A   1      35.462  34.759  32.606  1.00  0.00     0.131 C 
ATOM     13  C   UNL A   1      35.545  32.544  31.847  1.00  0.00     0.234 C 
ATOM     14  H   UNL A   1      33.378  32.211  32.161  1.00  0.00     0.304 HD
ATOM     15  C   UNL A   1      36.186  33.897  31.602  1.00  0.00     0.058 C 
ENDBRANCH   6   8
ENDBRANCH   4   6
ENDBRANCH   3   4
ENDBRANCH   2   3
ENDBRANCH   1   2
BRANCH   1  16
ATOM     16  O   UNL A   1      34.386  33.403  27.693  1.00  0.00    -0.458 OA
BRANCH  16  17
ATOM     17  C   UNL A   1      34.276  32.061  27.834  1.00  0.00     0.338 C 
ATOM     18  O   UNL A   1      33.327  31.365  27.513  1.00  0.00    -0.246 OA
BRANCH  17  19
ATOM     19  C   UNL A   1      35.562  31.489  28.271  1.00  0.00     0.060 A 
ATOM     20  C   UNL A   1      35.553  30.174  28.750  1.00  0.00     0.016 A 
ATOM     21  C   UNL A   1      36.743  32.232  28.262  1.00  0.00     0.016 A 
ATOM     22  C   UNL A   1      36.724  29.589  29.218  1.00  0.00     0.010 A 
ATOM     23  C   UNL A   1      37.918  31.651  28.754  1.00  0.00     0.010 A 
ATOM     24  C   UNL A   1      37.908  30.332  29.243  1.00  0.00    -0.014 A 
BRANCH  24  25
ATOM     25  C   UNL A   1      39.111  29.750  29.879  1.00  0.00     0.031 A 
ATOM     26  C   UNL A   1      39.573  30.294  31.198  1.00  0.00     0.074 A 
ATOM     27  C   UNL A   1      39.751  28.718  29.303  1.00  0.00     0.049 A 
ATOM     28  N   UNL A   1      40.629  29.979  31.902  1.00  0.00    -0.248 NA
ATOM     29  C   UNL A   1      38.727  31.331  31.808  1.00  0.00     0.031 C 
ATOM     30  C   UNL A   1      39.349  28.068  28.057  1.00  0.00     0.029 A 
ATOM     31  N   UNL A   1      40.877  28.039  29.693  1.00  0.00    -0.354 N 
ATOM     32  C   UNL A   1      40.584  30.788  33.029  1.00  0.00     0.074 A 
ATOM     33  C   UNL A   1      39.404  31.618  32.910  1.00  0.00     0.031 C 
ATOM     34  C   UNL A   1      40.224  27.087  27.777  1.00  0.00     0.029 A 
ATOM     35  C   UNL A   1      41.267  27.070  28.802  1.00  0.00     0.049 A 
ATOM     36  H   UNL A   1      41.360  28.228  30.529  1.00  0.00     0.167 HD
ATOM     37  C   UNL A   1      41.452  30.831  34.067  1.00  0.00     0.037 A 
ATOM     38  C   UNL A   1      42.359  26.282  28.802  1.00  0.00     0.037 A 
ATOM     39  C   UNL A   1      42.620  29.999  34.179  1.00  0.00     0.049 A 
ATOM     40  C   UNL A   1      43.346  26.400  29.933  1.00  0.00     0.074 A 
ATOM     41  C   UNL A   1      43.563  29.962  35.190  1.00  0.00     0.029 A 
ATOM     42  N   UNL A   1      43.006  29.053  33.237  1.00  0.00    -0.354 N 
ATOM     43  N   UNL A   1      43.305  27.172  30.992  1.00  0.00    -0.248 NA
ATOM     44  C   UNL A   1      44.536  25.539  29.866  1.00  0.00     0.031 C 
ATOM     45  C   UNL A   1      44.543  29.027  34.840  1.00  0.00     0.029 A 
ATOM     46  C   UNL A   1      44.185  28.446  33.634  1.00  0.00     0.049 A 
ATOM     47  H   UNL A   1      42.513  28.846  32.410  1.00  0.00     0.167 HD
ATOM     48  C   UNL A   1      44.445  26.877  31.726  1.00  0.00     0.074 A 
ATOM     49  C   UNL A   1      45.153  25.843  30.999  1.00  0.00     0.031 C 
ATOM     50  C   UNL A   1      44.870  27.414  32.897  1.00  0.00     0.037 A 
BRANCH  37  51
ATOM     51  C   UNL A   1      41.190  31.842  35.143  1.00  0.00     0.064 A 
ATOM     52  C   UNL A   1      41.892  33.055  35.206  1.00  0.00     0.173 A 
ATOM     53  C   UNL A   1      40.207  31.601  36.114  1.00  0.00     0.173 A 
ATOM     54  F   UNL A   1      42.854  33.325  34.311  1.00  0.00    -0.203 F 
ATOM     55  C   UNL A   1      41.633  33.979  36.215  1.00  0.00     0.198 A 
ATOM     56  C   UNL A   1      39.933  32.538  37.106  1.00  0.00     0.198 A 
ATOM     57  F   UNL A   1      39.508  30.456  36.099  1.00  0.00    -0.203 F 
ATOM     58  F   UNL A   1      42.346  35.111  36.283  1.00  0.00    -0.200 F 
ATOM     59  C   UNL A   1      40.651  33.723  37.160  1.00  0.00     0.200 A 
ATOM     60  F   UNL A   1      38.977  32.293  38.013  1.00  0.00    -0.200 F 
ATOM     61  F   UNL A   1      40.402  34.615  38.128  1.00  0.00    -0.200 F 
ENDBRANCH  37  51
BRANCH  38  62
ATOM     62  C   UNL A   1      42.589  25.332  27.683  1.00  0.00     0.064 A 
ATOM     63  C   UNL A   1      41.973  24.074  27.661  1.00  0.00     0.173 A 
ATOM     64  C   UNL A   1      43.439  25.661  26.617  1.00  0.00     0.173 A 
ATOM     65  F   UNL A   1      41.174  23.702  28.672  1.00  0.00    -0.203 F 
ATOM     66  C   UNL A   1      42.209  23.175  26.623  1.00  0.00     0.198 A 
ATOM     67  C   UNL A   1      43.652  24.774  25.565  1.00  0.00     0.198 A 
ATOM     68  F   UNL A   1      44.057  26.851  26.592  1.00  0.00    -0.203 F 
ATOM     69  F   UNL A   1      41.642  21.961  26.649  1.00  0.00    -0.200 F 
ATOM     70  C   UNL A   1      43.043  23.528  25.572  1.00  0.00     0.200 A 
ATOM     71  F   UNL A   1      44.451  25.123  24.547  1.00  0.00    -0.200 F 
ATOM     72  F   UNL A   1      43.266  22.665  24.572  1.00  0.00    -0.200 F 
ENDBRANCH  38  62
BRANCH  50  73
ATOM     73  C   UNL A   1      46.141  26.871  33.480  1.00  0.00     0.064 A 
ATOM     74  C   UNL A   1      47.385  27.456  33.203  1.00  0.00     0.173 A 
ATOM     75  C   UNL A   1      46.108  25.780  34.361  1.00  0.00     0.173 A 
ATOM     76  F   UNL A   1      47.470  28.491  32.355  1.00  0.00    -0.203 F 
ATOM     77  C   UNL A   1      48.553  26.953  33.770  1.00  0.00     0.198 A 
ATOM     78  C   UNL A   1      47.275  25.297  34.948  1.00  0.00     0.198 A 
ATOM     79  F   UNL A   1      44.942  25.190  34.664  1.00  0.00    -0.203 F 
ATOM     80  F   UNL A   1      49.737  27.500  33.459  1.00  0.00    -0.200 F 
ATOM     81  C   UNL A   1      48.496  25.879  34.647  1.00  0.00     0.200 A 
ATOM     82  F   UNL A   1      47.216  24.269  35.805  1.00  0.00    -0.200 F 
ATOM     83  F   UNL A   1      49.621  25.402  35.199  1.00  0.00    -0.200 F 
ENDBRANCH  50  73
ENDBRANCH  24  25
ENDBRANCH  17  19
ENDBRANCH  16  17
ENDBRANCH   1  16
TORSDOF 12
ENDMDL
