MODEL 1
REMARK VINA RESULT:     -14.0      0.000      0.000
REMARK SMILES Cc1c(NC(=O)c2ccc(Br)cc2N)cccc1C(=O)OCCOC(=O)c1ccc(-c2c3nc(c(-c4c(F)c(F)c(F)c(F)c4F)c4ccc([nH]4)c(-c4c(F)c(F)c(F)c(F)c4F)c4nc(c(-c5c(F)c(F)c(F)c(F)c5F)c5ccc2[nH]5)C=C4)C=C3)cc1
REMARK SMILES IDX 22 1 21 2 19 3 20 4 18 5 1 6 2 7 3 8 15 9 17 10 16 11 4 12
REMARK SMILES IDX 5 13 6 15 7 16 8 17 13 18 9 19 12 20 10 21 11 22 14 23 23 26
REMARK SMILES IDX 24 27 25 28 26 29 27 30 28 31 89 32 29 33 88 34 30 35 31 36
REMARK SMILES IDX 32 37 82 38 33 39 87 40 81 41 83 42 34 43 86 44 80 45 79 46
REMARK SMILES IDX 35 48 67 49 47 50 66 51 48 52 51 53 65 54 84 55 49 56 50 57
REMARK SMILES IDX 64 59 85 60 52 61 36 62 37 63 45 64 38 65 39 66 43 67 46 68
REMARK SMILES IDX 40 69 41 70 44 71 42 72 68 73 69 74 77 75 70 76 71 77 75 78
REMARK SMILES IDX 78 79 72 80 73 81 76 82 74 83 53 84 54 85 62 86 55 87 56 88
REMARK SMILES IDX 60 89 63 90 57 91 58 92 61 93 59 94
REMARK H PARENT 4 14 14 24 14 25 83 47 51 58
REMARK Flexibility Score: inf
ROOT
ATOM      1  C   UNL A   1      33.472  30.123  26.141  1.00  0.00     0.275 C 
ENDROOT
BRANCH   1   2
ATOM      2  O   UNL A   1      33.164  29.421  24.924  1.00  0.00    -0.458 OA
BRANCH   2   3
ATOM      3  C   UNL A   1      31.826  29.201  24.806  1.00  0.00     0.338 C 
ATOM      4  O   UNL A   1      30.970  30.068  24.917  1.00  0.00    -0.246 OA
BRANCH   3   5
ATOM      5  C   UNL A   1      31.435  27.792  24.559  1.00  0.00     0.065 A 
ATOM      6  C   UNL A   1      31.282  27.404  27.077  1.00  0.00     0.047 C 
ATOM      7  C   UNL A   1      31.034  26.988  25.645  1.00  0.00    -0.013 A 
ATOM      8  C   UNL A   1      30.572  25.683  25.367  1.00  0.00     0.045 A 
ATOM      9  C   UNL A   1      30.305  25.284  24.055  1.00  0.00     0.026 A 
ATOM     10  C   UNL A   1      31.350  27.295  23.249  1.00  0.00     0.016 A 
ATOM     11  C   UNL A   1      30.714  26.082  22.993  1.00  0.00     0.003 A 
BRANCH   8  12
ATOM     12  N   UNL A   1      30.532  24.765  26.426  1.00  0.00    -0.322 N 
ATOM     13  C   UNL A   1      31.361  23.700  26.716  1.00  0.00     0.257 C 
ATOM     14  H   UNL A   1      29.795  24.901  27.065  1.00  0.00     0.170 HD
ATOM     15  O   UNL A   1      31.091  23.015  27.704  1.00  0.00    -0.269 OA
BRANCH  13  16
ATOM     16  C   UNL A   1      32.575  23.356  25.921  1.00  0.00     0.063 A 
ATOM     17  C   UNL A   1      33.477  24.423  25.751  1.00  0.00     0.017 A 
ATOM     18  C   UNL A   1      32.860  22.101  25.338  1.00  0.00     0.045 A 
ATOM     19  C   UNL A   1      34.676  24.245  25.061  1.00  0.00     0.016 A 
ATOM     20  C   UNL A   1      34.088  21.933  24.678  1.00  0.00     0.042 A 
ATOM     21  C   UNL A   1      34.986  22.992  24.548  1.00  0.00     0.020 A 
ATOM     22  Br  UNL A   1      36.617  22.731  23.630  1.00  0.00    -0.051 Br
BRANCH  18  23
ATOM     23  N   UNL A   1      31.943  21.054  25.238  1.00  0.00    -0.398 N 
ATOM     24  H   UNL A   1      31.159  21.140  24.649  1.00  0.00     0.156 HD
ATOM     25  H   UNL A   1      32.081  20.227  25.756  1.00  0.00     0.156 HD
ENDBRANCH  18  23
ENDBRANCH  13  16
ENDBRANCH   8  12
ENDBRANCH   3   5
ENDBRANCH   2   3
ENDBRANCH   1   2
BRANCH   1  26
ATOM     26  C   UNL A   1      34.354  29.359  27.140  1.00  0.00     0.275 C 
BRANCH  26  27
ATOM     27  O   UNL A   1      35.012  30.016  28.257  1.00  0.00    -0.458 OA
BRANCH  27  28
ATOM     28  C   UNL A   1      36.166  30.705  28.151  1.00  0.00     0.338 C 
ATOM     29  O   UNL A   1      36.222  31.885  27.816  1.00  0.00    -0.246 OA
BRANCH  28  30
ATOM     30  C   UNL A   1      37.376  29.907  28.406  1.00  0.00     0.060 A 
ATOM     31  C   UNL A   1      37.417  29.077  29.539  1.00  0.00     0.016 A 
ATOM     32  C   UNL A   1      38.375  29.854  27.440  1.00  0.00     0.016 A 
ATOM     33  C   UNL A   1      38.382  28.087  29.643  1.00  0.00     0.010 A 
ATOM     34  C   UNL A   1      39.248  28.802  27.466  1.00  0.00     0.010 A 
ATOM     35  C   UNL A   1      39.278  27.957  28.588  1.00  0.00    -0.014 A 
BRANCH  35  36
ATOM     36  C   UNL A   1      40.539  27.261  28.718  1.00  0.00     0.031 A 
ATOM     37  C   UNL A   1      40.665  25.827  28.432  1.00  0.00     0.074 A 
ATOM     38  C   UNL A   1      41.523  28.163  28.938  1.00  0.00     0.049 A 
ATOM     39  N   UNL A   1      41.685  25.127  28.768  1.00  0.00    -0.248 NA
ATOM     40  C   UNL A   1      39.638  25.017  27.783  1.00  0.00     0.031 C 
ATOM     41  C   UNL A   1      42.964  28.093  28.834  1.00  0.00     0.029 A 
ATOM     42  N   UNL A   1      41.294  29.453  29.473  1.00  0.00    -0.354 N 
ATOM     43  C   UNL A   1      41.617  23.919  28.098  1.00  0.00     0.074 A 
ATOM     44  C   UNL A   1      40.264  23.843  27.619  1.00  0.00     0.031 C 
ATOM     45  C   UNL A   1      43.487  29.086  29.585  1.00  0.00     0.029 A 
ATOM     46  C   UNL A   1      42.382  29.731  30.294  1.00  0.00     0.049 A 
ATOM     47  H   UNL A   1      40.521  30.036  29.299  1.00  0.00     0.167 HD
ATOM     48  C   UNL A   1      42.788  23.243  27.910  1.00  0.00     0.037 A 
ATOM     49  C   UNL A   1      42.160  29.694  31.642  1.00  0.00     0.037 A 
ATOM     50  C   UNL A   1      43.842  23.944  28.644  1.00  0.00     0.049 A 
ATOM     51  C   UNL A   1      42.902  28.521  32.228  1.00  0.00     0.074 A 
ATOM     52  C   UNL A   1      44.744  24.917  28.245  1.00  0.00     0.029 A 
ATOM     53  N   UNL A   1      43.759  24.019  30.031  1.00  0.00    -0.354 N 
ATOM     54  N   UNL A   1      43.038  27.359  31.641  1.00  0.00    -0.248 NA
ATOM     55  C   UNL A   1      43.677  28.646  33.455  1.00  0.00     0.031 C 
ATOM     56  C   UNL A   1      45.111  25.657  29.403  1.00  0.00     0.029 A 
ATOM     57  C   UNL A   1      44.440  25.128  30.496  1.00  0.00     0.049 A 
ATOM     58  H   UNL A   1      43.281  23.374  30.600  1.00  0.00     0.167 HD
ATOM     59  C   UNL A   1      43.978  26.634  32.325  1.00  0.00     0.074 A 
ATOM     60  C   UNL A   1      44.325  27.472  33.464  1.00  0.00     0.031 C 
ATOM     61  C   UNL A   1      44.478  25.430  31.917  1.00  0.00     0.037 A 
BRANCH  48  62
ATOM     62  C   UNL A   1      43.092  22.161  26.888  1.00  0.00     0.064 A 
ATOM     63  C   UNL A   1      42.428  20.911  26.977  1.00  0.00     0.173 A 
ATOM     64  C   UNL A   1      44.045  22.233  25.854  1.00  0.00     0.173 A 
ATOM     65  F   UNL A   1      41.453  20.701  27.873  1.00  0.00    -0.203 F 
ATOM     66  C   UNL A   1      42.739  19.821  26.158  1.00  0.00     0.198 A 
ATOM     67  C   UNL A   1      44.358  21.138  25.033  1.00  0.00     0.198 A 
ATOM     68  F   UNL A   1      44.703  23.359  25.573  1.00  0.00    -0.203 F 
ATOM     69  F   UNL A   1      42.090  18.660  26.324  1.00  0.00    -0.200 F 
ATOM     70  C   UNL A   1      43.713  19.930  25.192  1.00  0.00     0.200 A 
ATOM     71  F   UNL A   1      45.298  21.267  24.085  1.00  0.00    -0.200 F 
ATOM     72  F   UNL A   1      44.020  18.884  24.412  1.00  0.00    -0.200 F 
ENDBRANCH  48  62
BRANCH  49  73
ATOM     73  C   UNL A   1      40.806  30.198  32.067  1.00  0.00     0.064 A 
ATOM     74  C   UNL A   1      39.816  29.251  32.430  1.00  0.00     0.173 A 
ATOM     75  C   UNL A   1      40.523  31.536  32.374  1.00  0.00     0.173 A 
ATOM     76  F   UNL A   1      40.002  27.949  32.153  1.00  0.00    -0.203 F 
ATOM     77  C   UNL A   1      38.674  29.601  33.154  1.00  0.00     0.198 A 
ATOM     78  C   UNL A   1      39.359  31.890  33.077  1.00  0.00     0.198 A 
ATOM     79  F   UNL A   1      41.396  32.505  32.069  1.00  0.00    -0.203 F 
ATOM     80  F   UNL A   1      37.833  28.649  33.581  1.00  0.00    -0.200 F 
ATOM     81  C   UNL A   1      38.452  30.922  33.489  1.00  0.00     0.200 A 
ATOM     82  F   UNL A   1      39.159  33.166  33.441  1.00  0.00    -0.200 F 
ATOM     83  F   UNL A   1      37.402  31.259  34.252  1.00  0.00    -0.200 F 
ENDBRANCH  49  73
BRANCH  61  84
ATOM     84  C   UNL A   1      45.163  24.453  32.838  1.00  0.00     0.064 A 
ATOM     85  C   UNL A   1      46.439  24.679  33.377  1.00  0.00     0.173 A 
ATOM     86  C   UNL A   1      44.470  23.332  33.356  1.00  0.00     0.173 A 
ATOM     87  F   UNL A   1      47.136  25.788  33.093  1.00  0.00    -0.203 F 
ATOM     88  C   UNL A   1      47.023  23.796  34.282  1.00  0.00     0.198 A 
ATOM     89  C   UNL A   1      45.021  22.504  34.328  1.00  0.00     0.198 A 
ATOM     90  F   UNL A   1      43.222  23.026  32.968  1.00  0.00    -0.203 F 
ATOM     91  F   UNL A   1      48.274  24.019  34.705  1.00  0.00    -0.200 F 
ATOM     92  C   UNL A   1      46.310  22.718  34.769  1.00  0.00     0.200 A 
ATOM     93  F   UNL A   1      44.286  21.513  34.850  1.00  0.00    -0.200 F 
ATOM     94  F   UNL A   1      46.855  21.903  35.679  1.00  0.00    -0.200 F 
ENDBRANCH  61  84
ENDBRANCH  35  36
ENDBRANCH  28  30
ENDBRANCH  27  28
ENDBRANCH  26  27
ENDBRANCH   1  26
TORSDOF 14
ENDMDL
MODEL 2
REMARK VINA RESULT:     -13.9      0.523      1.233
REMARK SMILES Cc1c(NC(=O)c2ccc(Br)cc2N)cccc1C(=O)OCCOC(=O)c1ccc(-c2c3nc(c(-c4c(F)c(F)c(F)c(F)c4F)c4ccc([nH]4)c(-c4c(F)c(F)c(F)c(F)c4F)c4nc(c(-c5c(F)c(F)c(F)c(F)c5F)c5ccc2[nH]5)C=C4)C=C3)cc1
REMARK SMILES IDX 22 1 21 2 19 3 20 4 18 5 1 6 2 7 3 8 15 9 17 10 16 11 4 12
REMARK SMILES IDX 5 13 6 15 7 16 8 17 13 18 9 19 12 20 10 21 11 22 14 23 23 26
REMARK SMILES IDX 24 27 25 28 26 29 27 30 28 31 89 32 29 33 88 34 30 35 31 36
REMARK SMILES IDX 32 37 82 38 33 39 87 40 81 41 83 42 34 43 86 44 80 45 79 46
REMARK SMILES IDX 35 48 67 49 47 50 66 51 48 52 51 53 65 54 84 55 49 56 50 57
REMARK SMILES IDX 64 59 85 60 52 61 36 62 37 63 45 64 38 65 39 66 43 67 46 68
REMARK SMILES IDX 40 69 41 70 44 71 42 72 68 73 69 74 77 75 70 76 71 77 75 78
REMARK SMILES IDX 78 79 72 80 73 81 76 82 74 83 53 84 54 85 62 86 55 87 56 88
REMARK SMILES IDX 60 89 63 90 57 91 58 92 61 93 59 94
REMARK H PARENT 4 14 14 24 14 25 83 47 51 58
REMARK Flexibility Score: inf
ROOT
ATOM      1  C   UNL A   1      33.347  30.220  26.462  1.00  0.00     0.275 C 
ENDROOT
BRANCH   1   2
ATOM      2  O   UNL A   1      33.144  29.535  25.213  1.00  0.00    -0.458 OA
BRANCH   2   3
ATOM      3  C   UNL A   1      31.821  29.338  24.967  1.00  0.00     0.338 C 
ATOM      4  O   UNL A   1      30.974  30.220  24.993  1.00  0.00    -0.246 OA
BRANCH   3   5
ATOM      5  C   UNL A   1      31.430  27.935  24.688  1.00  0.00     0.065 A 
ATOM      6  C   UNL A   1      31.373  27.463  27.195  1.00  0.00     0.047 C 
ATOM      7  C   UNL A   1      31.075  27.092  25.761  1.00  0.00    -0.013 A 
ATOM      8  C   UNL A   1      30.612  25.794  25.456  1.00  0.00     0.045 A 
ATOM      9  C   UNL A   1      30.299  25.436  24.142  1.00  0.00     0.026 A 
ATOM     10  C   UNL A   1      31.301  27.481  23.366  1.00  0.00     0.016 A 
ATOM     11  C   UNL A   1      30.664  26.272  23.093  1.00  0.00     0.003 A 
BRANCH   8  12
ATOM     12  N   UNL A   1      30.617  24.840  26.485  1.00  0.00    -0.322 N 
ATOM     13  C   UNL A   1      31.469  23.780  26.715  1.00  0.00     0.257 C 
ATOM     14  H   UNL A   1      29.897  24.943  27.149  1.00  0.00     0.170 HD
ATOM     15  O   UNL A   1      31.239  23.058  27.686  1.00  0.00    -0.269 OA
BRANCH  13  16
ATOM     16  C   UNL A   1      32.664  23.482  25.874  1.00  0.00     0.063 A 
ATOM     17  C   UNL A   1      33.627  24.509  25.850  1.00  0.00     0.017 A 
ATOM     18  C   UNL A   1      32.879  22.306  25.120  1.00  0.00     0.045 A 
ATOM     19  C   UNL A   1      34.816  24.361  25.137  1.00  0.00     0.016 A 
ATOM     20  C   UNL A   1      34.098  22.162  24.437  1.00  0.00     0.042 A 
ATOM     21  C   UNL A   1      35.056  23.177  24.453  1.00  0.00     0.020 A 
ATOM     22  Br  UNL A   1      36.672  22.954  23.499  1.00  0.00    -0.051 Br
BRANCH  18  23
ATOM     23  N   UNL A   1      31.905  21.337  24.880  1.00  0.00    -0.398 N 
ATOM     24  H   UNL A   1      32.150  20.384  24.871  1.00  0.00     0.156 HD
ATOM     25  H   UNL A   1      30.971  21.606  24.721  1.00  0.00     0.156 HD
ENDBRANCH  18  23
ENDBRANCH  13  16
ENDBRANCH   8  12
ENDBRANCH   3   5
ENDBRANCH   2   3
ENDBRANCH   1   2
BRANCH   1  26
ATOM     26  C   UNL A   1      34.582  29.781  27.263  1.00  0.00     0.275 C 
BRANCH  26  27
ATOM     27  O   UNL A   1      35.656  30.700  27.601  1.00  0.00    -0.458 OA
BRANCH  27  28
ATOM     28  C   UNL A   1      36.202  30.800  28.829  1.00  0.00     0.338 C 
ATOM     29  O   UNL A   1      35.770  31.545  29.705  1.00  0.00    -0.246 OA
BRANCH  28  30
ATOM     30  C   UNL A   1      37.414  29.987  29.023  1.00  0.00     0.060 A 
ATOM     31  C   UNL A   1      37.401  28.964  29.986  1.00  0.00     0.016 A 
ATOM     32  C   UNL A   1      38.479  30.129  28.140  1.00  0.00     0.016 A 
ATOM     33  C   UNL A   1      38.384  27.987  29.978  1.00  0.00     0.010 A 
ATOM     34  C   UNL A   1      39.379  29.103  28.038  1.00  0.00     0.010 A 
ATOM     35  C   UNL A   1      39.354  28.067  28.987  1.00  0.00    -0.014 A 
BRANCH  35  36
ATOM     36  C   UNL A   1      40.623  27.378  29.080  1.00  0.00     0.031 A 
ATOM     37  C   UNL A   1      40.775  25.976  28.673  1.00  0.00     0.074 A 
ATOM     38  C   UNL A   1      41.590  28.271  29.396  1.00  0.00     0.049 A 
ATOM     39  N   UNL A   1      41.799  25.263  28.967  1.00  0.00    -0.248 NA
ATOM     40  C   UNL A   1      39.772  25.213  27.937  1.00  0.00     0.031 C 
ATOM     41  C   UNL A   1      43.034  28.228  29.314  1.00  0.00     0.029 A 
ATOM     42  N   UNL A   1      41.332  29.506  30.037  1.00  0.00    -0.354 N 
ATOM     43  C   UNL A   1      41.760  24.117  28.194  1.00  0.00     0.074 A 
ATOM     44  C   UNL A   1      40.418  24.066  27.684  1.00  0.00     0.031 C 
ATOM     45  C   UNL A   1      43.529  29.160  30.158  1.00  0.00     0.029 A 
ATOM     46  C   UNL A   1      42.402  29.726  30.899  1.00  0.00     0.049 A 
ATOM     47  H   UNL A   1      40.554  30.092  29.899  1.00  0.00     0.167 HD
ATOM     48  C   UNL A   1      42.945  23.475  27.971  1.00  0.00     0.037 A 
ATOM     49  C   UNL A   1      42.156  29.569  32.234  1.00  0.00     0.037 A 
ATOM     50  C   UNL A   1      43.975  24.124  28.783  1.00  0.00     0.049 A 
ATOM     51  C   UNL A   1      42.904  28.360  32.731  1.00  0.00     0.074 A 
ATOM     52  C   UNL A   1      44.869  25.139  28.487  1.00  0.00     0.029 A 
ATOM     53  N   UNL A   1      43.865  24.077  30.169  1.00  0.00    -0.354 N 
ATOM     54  N   UNL A   1      43.067  27.255  32.048  1.00  0.00    -0.248 NA
ATOM     55  C   UNL A   1      43.655  28.388  33.978  1.00  0.00     0.031 C 
ATOM     56  C   UNL A   1      45.205  25.781  29.711  1.00  0.00     0.029 A 
ATOM     57  C   UNL A   1      44.522  25.150  30.741  1.00  0.00     0.049 A 
ATOM     58  H   UNL A   1      43.387  23.378  30.671  1.00  0.00     0.167 HD
ATOM     59  C   UNL A   1      44.005  26.486  32.685  1.00  0.00     0.074 A 
ATOM     60  C   UNL A   1      44.320  27.226  33.898  1.00  0.00     0.031 C 
ATOM     61  C   UNL A   1      44.530  25.328  32.184  1.00  0.00     0.037 A 
BRANCH  48  62
ATOM     62  C   UNL A   1      43.282  22.491  26.864  1.00  0.00     0.064 A 
ATOM     63  C   UNL A   1      42.671  21.211  26.860  1.00  0.00     0.173 A 
ATOM     64  C   UNL A   1      44.222  22.682  25.833  1.00  0.00     0.173 A 
ATOM     65  F   UNL A   1      41.714  20.891  27.742  1.00  0.00    -0.203 F 
ATOM     66  C   UNL A   1      43.018  20.202  25.956  1.00  0.00     0.198 A 
ATOM     67  C   UNL A   1      44.572  21.668  24.927  1.00  0.00     0.198 A 
ATOM     68  F   UNL A   1      44.831  23.853  25.638  1.00  0.00    -0.203 F 
ATOM     69  F   UNL A   1      42.419  19.005  26.033  1.00  0.00    -0.200 F 
ATOM     70  C   UNL A   1      43.978  20.426  24.995  1.00  0.00     0.200 A 
ATOM     71  F   UNL A   1      45.497  21.910  23.986  1.00  0.00    -0.200 F 
ATOM     72  F   UNL A   1      44.320  19.458  24.133  1.00  0.00    -0.200 F 
ENDBRANCH  48  62
BRANCH  49  73
ATOM     73  C   UNL A   1      40.787  30.018  32.675  1.00  0.00     0.064 A 
ATOM     74  C   UNL A   1      40.447  31.387  32.536  1.00  0.00     0.173 A 
ATOM     75  C   UNL A   1      39.732  29.147  32.980  1.00  0.00     0.173 A 
ATOM     76  F   UNL A   1      41.404  32.290  32.263  1.00  0.00    -0.203 F 
ATOM     77  C   UNL A   1      39.127  31.838  32.582  1.00  0.00     0.198 A 
ATOM     78  C   UNL A   1      38.408  29.609  33.055  1.00  0.00     0.198 A 
ATOM     79  F   UNL A   1      39.954  27.834  33.133  1.00  0.00    -0.203 F 
ATOM     80  F   UNL A   1      38.848  33.123  32.318  1.00  0.00    -0.200 F 
ATOM     81  C   UNL A   1      38.104  30.945  32.830  1.00  0.00     0.200 A 
ATOM     82  F   UNL A   1      37.405  28.738  33.254  1.00  0.00    -0.200 F 
ATOM     83  F   UNL A   1      36.827  31.353  32.797  1.00  0.00    -0.200 F 
ENDBRANCH  49  73
BRANCH  61  84
ATOM     84  C   UNL A   1      45.212  24.283  33.029  1.00  0.00     0.064 A 
ATOM     85  C   UNL A   1      46.492  24.463  33.578  1.00  0.00     0.173 A 
ATOM     86  C   UNL A   1      44.514  23.132  33.469  1.00  0.00     0.173 A 
ATOM     87  F   UNL A   1      47.194  25.585  33.371  1.00  0.00    -0.203 F 
ATOM     88  C   UNL A   1      47.073  23.514  34.415  1.00  0.00     0.198 A 
ATOM     89  C   UNL A   1      45.064  22.234  34.377  1.00  0.00     0.198 A 
ATOM     90  F   UNL A   1      43.264  22.862  33.064  1.00  0.00    -0.203 F 
ATOM     91  F   UNL A   1      48.328  23.699  34.848  1.00  0.00    -0.200 F 
ATOM     92  C   UNL A   1      46.356  22.408  34.826  1.00  0.00     0.200 A 
ATOM     93  F   UNL A   1      44.325  21.212  34.829  1.00  0.00    -0.200 F 
ATOM     94  F   UNL A   1      46.899  21.527  35.673  1.00  0.00    -0.200 F 
ENDBRANCH  61  84
ENDBRANCH  35  36
ENDBRANCH  28  30
ENDBRANCH  27  28
ENDBRANCH  26  27
ENDBRANCH   1  26
TORSDOF 14
ENDMDL
MODEL 3
REMARK VINA RESULT:     -13.6      4.179     10.223
REMARK SMILES Cc1c(NC(=O)c2ccc(Br)cc2N)cccc1C(=O)OCCOC(=O)c1ccc(-c2c3nc(c(-c4c(F)c(F)c(F)c(F)c4F)c4ccc([nH]4)c(-c4c(F)c(F)c(F)c(F)c4F)c4nc(c(-c5c(F)c(F)c(F)c(F)c5F)c5ccc2[nH]5)C=C4)C=C3)cc1
REMARK SMILES IDX 22 1 21 2 19 3 20 4 18 5 1 6 2 7 3 8 15 9 17 10 16 11 4 12
REMARK SMILES IDX 5 13 6 15 7 16 8 17 13 18 9 19 12 20 10 21 11 22 14 23 23 26
REMARK SMILES IDX 24 27 25 28 26 29 27 30 28 31 89 32 29 33 88 34 30 35 31 36
REMARK SMILES IDX 32 37 82 38 33 39 87 40 81 41 83 42 34 43 86 44 80 45 79 46
REMARK SMILES IDX 35 48 67 49 47 50 66 51 48 52 51 53 65 54 84 55 49 56 50 57
REMARK SMILES IDX 64 59 85 60 52 61 36 62 37 63 45 64 38 65 39 66 43 67 46 68
REMARK SMILES IDX 40 69 41 70 44 71 42 72 68 73 69 74 77 75 70 76 71 77 75 78
REMARK SMILES IDX 78 79 72 80 73 81 76 82 74 83 53 84 54 85 62 86 55 87 56 88
REMARK SMILES IDX 60 89 63 90 57 91 58 92 61 93 59 94
REMARK H PARENT 4 14 14 24 14 25 83 47 51 58
REMARK Flexibility Score: inf
ROOT
ATOM      1  C   UNL A   1      37.228  21.898  25.727  1.00  0.00     0.275 C 
ENDROOT
BRANCH   1   2
ATOM      2  O   UNL A   1      35.856  22.013  26.143  1.00  0.00    -0.458 OA
BRANCH   2   3
ATOM      3  C   UNL A   1      35.029  21.318  25.316  1.00  0.00     0.338 C 
ATOM      4  O   UNL A   1      35.179  20.141  25.019  1.00  0.00    -0.246 OA
BRANCH   3   5
ATOM      5  C   UNL A   1      33.908  22.098  24.739  1.00  0.00     0.065 A 
ATOM      6  C   UNL A   1      35.466  22.970  22.916  1.00  0.00     0.047 C 
ATOM      7  C   UNL A   1      34.092  22.763  23.510  1.00  0.00    -0.013 A 
ATOM      8  C   UNL A   1      32.978  23.413  22.937  1.00  0.00     0.045 A 
ATOM      9  C   UNL A   1      31.692  23.213  23.448  1.00  0.00     0.026 A 
ATOM     10  C   UNL A   1      32.642  22.080  25.345  1.00  0.00     0.016 A 
ATOM     11  C   UNL A   1      31.526  22.564  24.665  1.00  0.00     0.003 A 
BRANCH   8  12
ATOM     12  N   UNL A   1      33.221  24.371  21.942  1.00  0.00    -0.322 N 
ATOM     13  C   UNL A   1      33.145  25.748  21.991  1.00  0.00     0.257 C 
ATOM     14  H   UNL A   1      33.489  24.003  21.069  1.00  0.00     0.170 HD
ATOM     15  O   UNL A   1      33.381  26.374  20.956  1.00  0.00    -0.269 OA
BRANCH  13  16
ATOM     16  C   UNL A   1      32.824  26.515  23.229  1.00  0.00     0.063 A 
ATOM     17  C   UNL A   1      33.715  26.292  24.296  1.00  0.00     0.017 A 
ATOM     18  C   UNL A   1      31.731  27.393  23.405  1.00  0.00     0.045 A 
ATOM     19  C   UNL A   1      33.567  26.966  25.507  1.00  0.00     0.016 A 
ATOM     20  C   UNL A   1      31.620  28.089  24.620  1.00  0.00     0.042 A 
ATOM     21  C   UNL A   1      32.532  27.881  25.654  1.00  0.00     0.020 A 
ATOM     22  Br  UNL A   1      32.331  28.818  27.283  1.00  0.00    -0.051 Br
BRANCH  18  23
ATOM     23  N   UNL A   1      30.664  27.509  22.513  1.00  0.00    -0.398 N 
ATOM     24  H   UNL A   1      30.239  26.701  22.146  1.00  0.00     0.156 HD
ATOM     25  H   UNL A   1      30.335  28.400  22.252  1.00  0.00     0.156 HD
ENDBRANCH  18  23
ENDBRANCH  13  16
ENDBRANCH   8  12
ENDBRANCH   3   5
ENDBRANCH   2   3
ENDBRANCH   1   2
BRANCH   1  26
ATOM     26  C   UNL A   1      38.057  23.189  25.819  1.00  0.00     0.275 C 
BRANCH  26  27
ATOM     27  O   UNL A   1      38.640  23.651  27.068  1.00  0.00    -0.458 OA
BRANCH  27  28
ATOM     28  C   UNL A   1      39.888  24.148  27.177  1.00  0.00     0.338 C 
ATOM     29  O   UNL A   1      40.901  23.499  26.928  1.00  0.00    -0.246 OA
BRANCH  28  30
ATOM     30  C   UNL A   1      39.950  25.527  27.689  1.00  0.00     0.060 A 
ATOM     31  C   UNL A   1      40.295  26.565  26.808  1.00  0.00     0.016 A 
ATOM     32  C   UNL A   1      39.500  25.797  28.977  1.00  0.00     0.016 A 
ATOM     33  C   UNL A   1      40.056  27.885  27.159  1.00  0.00     0.010 A 
ATOM     34  C   UNL A   1      39.139  27.080  29.283  1.00  0.00     0.010 A 
ATOM     35  C   UNL A   1      39.464  28.119  28.394  1.00  0.00    -0.014 A 
BRANCH  35  36
ATOM     36  C   UNL A   1      39.510  29.408  29.049  1.00  0.00     0.031 A 
ATOM     37  C   UNL A   1      38.479  30.428  28.824  1.00  0.00     0.074 A 
ATOM     38  C   UNL A   1      40.495  29.398  29.977  1.00  0.00     0.049 A 
ATOM     39  N   UNL A   1      38.609  31.653  29.180  1.00  0.00    -0.248 NA
ATOM     40  C   UNL A   1      37.215  30.192  28.132  1.00  0.00     0.031 C 
ATOM     41  C   UNL A   1      40.789  30.251  31.108  1.00  0.00     0.029 A 
ATOM     42  N   UNL A   1      41.597  28.512  29.936  1.00  0.00    -0.354 N 
ATOM     43  C   UNL A   1      37.369  32.258  29.096  1.00  0.00     0.074 A 
ATOM     44  C   UNL A   1      36.574  31.356  28.308  1.00  0.00     0.031 C 
ATOM     45  C   UNL A   1      42.094  30.095  31.422  1.00  0.00     0.029 A 
ATOM     46  C   UNL A   1      42.692  29.234  30.402  1.00  0.00     0.049 A 
ATOM     47  H   UNL A   1      41.591  27.574  29.640  1.00  0.00     0.167 HD
ATOM     48  C   UNL A   1      37.162  33.367  29.867  1.00  0.00     0.037 A 
ATOM     49  C   UNL A   1      43.618  29.612  29.471  1.00  0.00     0.037 A 
ATOM     50  C   UNL A   1      38.433  33.728  30.495  1.00  0.00     0.049 A 
ATOM     51  C   UNL A   1      43.575  31.110  29.318  1.00  0.00     0.074 A 
ATOM     52  C   UNL A   1      38.971  33.398  31.729  1.00  0.00     0.029 A 
ATOM     53  N   UNL A   1      39.496  34.118  29.686  1.00  0.00    -0.354 N 
ATOM     54  N   UNL A   1      42.482  31.830  29.359  1.00  0.00    -0.248 NA
ATOM     55  C   UNL A   1      44.793  31.906  29.268  1.00  0.00     0.031 C 
ATOM     56  C   UNL A   1      40.386  33.483  31.612  1.00  0.00     0.029 A 
ATOM     57  C   UNL A   1      40.700  33.869  30.317  1.00  0.00     0.049 A 
ATOM     58  H   UNL A   1      39.402  34.516  28.790  1.00  0.00     0.167 HD
ATOM     59  C   UNL A   1      42.836  33.150  29.452  1.00  0.00     0.074 A 
ATOM     60  C   UNL A   1      44.289  33.145  29.364  1.00  0.00     0.031 C 
ATOM     61  C   UNL A   1      41.957  34.177  29.657  1.00  0.00     0.037 A 
BRANCH  48  62
ATOM     62  C   UNL A   1      35.839  33.970  30.304  1.00  0.00     0.064 A 
ATOM     63  C   UNL A   1      34.959  34.504  29.328  1.00  0.00     0.173 A 
ATOM     64  C   UNL A   1      35.390  34.129  31.630  1.00  0.00     0.173 A 
ATOM     65  F   UNL A   1      35.215  34.384  28.018  1.00  0.00    -0.203 F 
ATOM     66  C   UNL A   1      33.784  35.189  29.653  1.00  0.00     0.198 A 
ATOM     67  C   UNL A   1      34.211  34.818  31.955  1.00  0.00     0.198 A 
ATOM     68  F   UNL A   1      36.051  33.614  32.668  1.00  0.00    -0.203 F 
ATOM     69  F   UNL A   1      33.018  35.694  28.675  1.00  0.00    -0.200 F 
ATOM     70  C   UNL A   1      33.414  35.357  30.967  1.00  0.00     0.200 A 
ATOM     71  F   UNL A   1      33.857  34.957  33.241  1.00  0.00    -0.200 F 
ATOM     72  F   UNL A   1      32.294  36.021  31.282  1.00  0.00    -0.200 F 
ENDBRANCH  48  62
BRANCH  49  73
ATOM     73  C   UNL A   1      43.848  28.607  28.373  1.00  0.00     0.064 A 
ATOM     74  C   UNL A   1      44.281  27.305  28.729  1.00  0.00     0.173 A 
ATOM     75  C   UNL A   1      43.429  28.778  27.047  1.00  0.00     0.173 A 
ATOM     76  F   UNL A   1      44.717  27.062  29.977  1.00  0.00    -0.203 F 
ATOM     77  C   UNL A   1      44.190  26.221  27.853  1.00  0.00     0.198 A 
ATOM     78  C   UNL A   1      43.367  27.692  26.159  1.00  0.00     0.198 A 
ATOM     79  F   UNL A   1      43.004  29.973  26.615  1.00  0.00    -0.203 F 
ATOM     80  F   UNL A   1      44.494  24.987  28.280  1.00  0.00    -0.200 F 
ATOM     81  C   UNL A   1      43.720  26.413  26.569  1.00  0.00     0.200 A 
ATOM     82  F   UNL A   1      42.872  27.865  24.923  1.00  0.00    -0.200 F 
ATOM     83  F   UNL A   1      43.554  25.367  25.747  1.00  0.00    -0.200 F 
ENDBRANCH  49  73
BRANCH  61  84
ATOM     84  C   UNL A   1      42.265  35.618  29.340  1.00  0.00     0.064 A 
ATOM     85  C   UNL A   1      43.140  36.399  30.111  1.00  0.00     0.173 A 
ATOM     86  C   UNL A   1      41.824  36.207  28.130  1.00  0.00     0.173 A 
ATOM     87  F   UNL A   1      43.754  35.903  31.195  1.00  0.00    -0.203 F 
ATOM     88  C   UNL A   1      43.465  37.705  29.759  1.00  0.00     0.198 A 
ATOM     89  C   UNL A   1      42.225  37.480  27.736  1.00  0.00     0.198 A 
ATOM     90  F   UNL A   1      41.026  35.555  27.272  1.00  0.00    -0.203 F 
ATOM     91  F   UNL A   1      44.243  38.433  30.572  1.00  0.00    -0.200 F 
ATOM     92  C   UNL A   1      43.021  38.241  28.566  1.00  0.00     0.200 A 
ATOM     93  F   UNL A   1      41.853  37.952  26.540  1.00  0.00    -0.200 F 
ATOM     94  F   UNL A   1      43.379  39.479  28.205  1.00  0.00    -0.200 F 
ENDBRANCH  61  84
ENDBRANCH  35  36
ENDBRANCH  28  30
ENDBRANCH  27  28
ENDBRANCH  26  27
ENDBRANCH   1  26
TORSDOF 14
ENDMDL
