MODEL 1
REMARK VINA RESULT:     -13.2      0.000      0.000
REMARK SMILES Cc1ccc(F)cc1-c1ccc(F)cc1C(=O)OCCOC(=O)c1ccc(-c2c3nc(c(-c4c(F)c(F)c(F)c(F)c4F)c4ccc([nH]4)c(-c4c(F)c(F)c(F)c(F)c4F)c4nc(c(-c5c(F)c(F)c(F)c(F)c5F)c5ccc2[nH]5)C=C4)C=C3)cc1
REMARK SMILES IDX 20 1 19 2 18 3 16 4 17 5 15 6 9 7 10 8 11 9 14 10 12 11
REMARK SMILES IDX 13 12 8 13 1 14 2 15 3 16 4 17 7 18 5 19 6 20 21 21 22 22
REMARK SMILES IDX 23 23 24 24 25 25 86 26 26 27 85 28 27 29 28 30 29 31 79 32
REMARK SMILES IDX 30 33 84 34 78 35 80 36 31 37 83 38 77 39 76 40 32 42 64 43
REMARK SMILES IDX 44 44 63 45 45 46 48 47 62 48 81 49 46 50 47 51 61 53 82 54
REMARK SMILES IDX 49 55 33 56 34 57 42 58 35 59 36 60 40 61 43 62 37 63 38 64
REMARK SMILES IDX 41 65 39 66 65 67 66 68 74 69 67 70 68 71 72 72 75 73 69 74
REMARK SMILES IDX 70 75 73 76 71 77 50 78 51 79 59 80 52 81 53 82 57 83 60 84
REMARK SMILES IDX 54 85 55 86 58 87 56 88
REMARK H PARENT 80 41 48 52
REMARK Flexibility Score: inf
ROOT
ATOM      1  C   UNL A   1      34.625  31.046  27.526  1.00  0.00     0.275 C 
ENDROOT
BRANCH   1   2
ATOM      2  C   UNL A   1      33.271  30.349  27.624  1.00  0.00     0.275 C 
BRANCH   2   3
ATOM      3  O   UNL A   1      33.347  29.001  27.123  1.00  0.00    -0.458 OA
BRANCH   3   4
ATOM      4  C   UNL A   1      32.201  28.283  27.044  1.00  0.00     0.338 C 
ATOM      5  O   UNL A   1      31.502  27.948  27.994  1.00  0.00    -0.246 OA
BRANCH   4   6
ATOM      6  C   UNL A   1      31.798  28.028  25.626  1.00  0.00     0.070 A 
ATOM      7  C   UNL A   1      32.012  26.808  24.932  1.00  0.00    -0.003 A 
ATOM      8  C   UNL A   1      31.508  26.708  23.616  1.00  0.00     0.012 A 
ATOM      9  C   UNL A   1      30.895  27.792  22.980  1.00  0.00     0.040 A 
ATOM     10  C   UNL A   1      31.162  29.106  24.982  1.00  0.00     0.055 A 
ATOM     11  C   UNL A   1      30.744  28.986  23.666  1.00  0.00     0.124 A 
ATOM     12  F   UNL A   1      30.183  30.035  23.050  1.00  0.00    -0.207 F 
BRANCH   7  13
ATOM     13  C   UNL A   1      32.755  25.669  25.519  1.00  0.00    -0.012 A 
ATOM     14  C   UNL A   1      30.634  24.527  26.441  1.00  0.00     0.045 C 
ATOM     15  C   UNL A   1      32.108  24.561  26.129  1.00  0.00    -0.043 A 
ATOM     16  C   UNL A   1      32.859  23.428  26.495  1.00  0.00     0.007 A 
ATOM     17  C   UNL A   1      34.228  23.371  26.252  1.00  0.00     0.039 A 
ATOM     18  C   UNL A   1      34.155  25.615  25.364  1.00  0.00     0.048 A 
ATOM     19  C   UNL A   1      34.863  24.467  25.697  1.00  0.00     0.123 A 
ATOM     20  F   UNL A   1      36.176  24.409  25.436  1.00  0.00    -0.207 F 
ENDBRANCH   7  13
ENDBRANCH   4   6
ENDBRANCH   3   4
ENDBRANCH   2   3
ENDBRANCH   1   2
BRANCH   1  21
ATOM     21  O   UNL A   1      35.184  31.290  28.825  1.00  0.00    -0.458 OA
BRANCH  21  22
ATOM     22  C   UNL A   1      36.518  31.093  28.854  1.00  0.00     0.338 C 
ATOM     23  O   UNL A   1      37.392  31.947  28.829  1.00  0.00    -0.246 OA
BRANCH  22  24
ATOM     24  C   UNL A   1      36.890  29.706  28.572  1.00  0.00     0.060 A 
ATOM     25  C   UNL A   1      37.116  28.969  29.746  1.00  0.00     0.016 A 
ATOM     26  C   UNL A   1      37.723  29.600  27.457  1.00  0.00     0.016 A 
ATOM     27  C   UNL A   1      38.369  28.424  29.943  1.00  0.00     0.010 A 
ATOM     28  C   UNL A   1      38.964  29.045  27.651  1.00  0.00     0.010 A 
ATOM     29  C   UNL A   1      39.304  28.545  28.915  1.00  0.00    -0.014 A 
BRANCH  29  30
ATOM     30  C   UNL A   1      40.635  27.994  29.024  1.00  0.00     0.031 A 
ATOM     31  C   UNL A   1      40.792  26.577  28.666  1.00  0.00     0.074 A 
ATOM     32  C   UNL A   1      41.680  28.780  29.352  1.00  0.00     0.049 A 
ATOM     33  N   UNL A   1      41.796  25.845  28.993  1.00  0.00    -0.248 NA
ATOM     34  C   UNL A   1      39.747  25.848  27.951  1.00  0.00     0.031 C 
ATOM     35  C   UNL A   1      43.091  28.479  29.167  1.00  0.00     0.029 A 
ATOM     36  N   UNL A   1      41.666  29.971  30.098  1.00  0.00    -0.354 N 
ATOM     37  C   UNL A   1      41.668  24.652  28.321  1.00  0.00     0.074 A 
ATOM     38  C   UNL A   1      40.335  24.664  27.770  1.00  0.00     0.031 C 
ATOM     39  C   UNL A   1      43.812  29.268  29.979  1.00  0.00     0.029 A 
ATOM     40  C   UNL A   1      42.877  29.970  30.838  1.00  0.00     0.049 A 
ATOM     41  H   UNL A   1      40.964  30.661  30.105  1.00  0.00     0.167 HD
ATOM     42  C   UNL A   1      42.765  23.855  28.198  1.00  0.00     0.037 A 
ATOM     43  C   UNL A   1      42.854  29.873  32.204  1.00  0.00     0.037 A 
ATOM     44  C   UNL A   1      43.894  24.413  28.941  1.00  0.00     0.049 A 
ATOM     45  C   UNL A   1      43.461  28.609  32.758  1.00  0.00     0.074 A 
ATOM     46  C   UNL A   1      44.941  25.257  28.604  1.00  0.00     0.029 A 
ATOM     47  N   UNL A   1      43.831  24.416  30.319  1.00  0.00    -0.354 N 
ATOM     48  N   UNL A   1      43.860  27.613  32.016  1.00  0.00    -0.248 NA
ATOM     49  C   UNL A   1      43.603  28.331  34.187  1.00  0.00     0.031 C 
ATOM     50  C   UNL A   1      45.482  25.791  29.809  1.00  0.00     0.029 A 
ATOM     51  C   UNL A   1      44.776  25.257  30.872  1.00  0.00     0.049 A 
ATOM     52  H   UNL A   1      43.190  23.883  30.845  1.00  0.00     0.167 HD
ATOM     53  C   UNL A   1      44.306  26.602  32.814  1.00  0.00     0.074 A 
ATOM     54  C   UNL A   1      44.115  27.087  34.168  1.00  0.00     0.031 C 
ATOM     55  C   UNL A   1      44.790  25.433  32.313  1.00  0.00     0.037 A 
BRANCH  42  56
ATOM     56  C   UNL A   1      42.889  22.728  27.205  1.00  0.00     0.064 A 
ATOM     57  C   UNL A   1      42.141  21.545  27.382  1.00  0.00     0.173 A 
ATOM     58  C   UNL A   1      43.753  22.717  26.093  1.00  0.00     0.173 A 
ATOM     59  F   UNL A   1      41.206  21.446  28.337  1.00  0.00    -0.203 F 
ATOM     60  C   UNL A   1      42.326  20.413  26.585  1.00  0.00     0.198 A 
ATOM     61  C   UNL A   1      43.983  21.567  25.332  1.00  0.00     0.198 A 
ATOM     62  F   UNL A   1      44.357  23.831  25.664  1.00  0.00    -0.203 F 
ATOM     63  F   UNL A   1      41.585  19.320  26.805  1.00  0.00    -0.200 F 
ATOM     64  C   UNL A   1      43.275  20.411  25.584  1.00  0.00     0.200 A 
ATOM     65  F   UNL A   1      44.892  21.592  24.347  1.00  0.00    -0.200 F 
ATOM     66  F   UNL A   1      43.483  19.312  24.848  1.00  0.00    -0.200 F 
ENDBRANCH  42  56
BRANCH  43  67
ATOM     67  C   UNL A   1      41.710  30.619  32.788  1.00  0.00     0.064 A 
ATOM     68  C   UNL A   1      41.739  32.017  32.629  1.00  0.00     0.173 A 
ATOM     69  C   UNL A   1      40.464  29.992  32.922  1.00  0.00     0.173 A 
ATOM     70  F   UNL A   1      42.915  32.659  32.548  1.00  0.00    -0.203 F 
ATOM     71  C   UNL A   1      40.572  32.721  32.371  1.00  0.00     0.198 A 
ATOM     72  C   UNL A   1      39.294  30.708  32.678  1.00  0.00     0.198 A 
ATOM     73  F   UNL A   1      40.391  28.671  33.138  1.00  0.00    -0.203 F 
ATOM     74  F   UNL A   1      40.631  34.024  32.058  1.00  0.00    -0.200 F 
ATOM     75  C   UNL A   1      39.360  32.053  32.337  1.00  0.00     0.200 A 
ATOM     76  F   UNL A   1      38.114  30.074  32.696  1.00  0.00    -0.200 F 
ATOM     77  F   UNL A   1      38.262  32.721  31.965  1.00  0.00    -0.200 F 
ENDBRANCH  43  67
BRANCH  55  78
ATOM     78  C   UNL A   1      45.333  24.348  33.183  1.00  0.00     0.064 A 
ATOM     79  C   UNL A   1      44.554  23.241  33.552  1.00  0.00     0.173 A 
ATOM     80  C   UNL A   1      46.610  24.448  33.769  1.00  0.00     0.173 A 
ATOM     81  F   UNL A   1      43.304  23.098  33.084  1.00  0.00    -0.203 F 
ATOM     82  C   UNL A   1      45.044  22.267  34.420  1.00  0.00     0.198 A 
ATOM     83  C   UNL A   1      47.074  23.504  34.678  1.00  0.00     0.198 A 
ATOM     84  F   UNL A   1      47.446  25.449  33.455  1.00  0.00    -0.203 F 
ATOM     85  F   UNL A   1      44.295  21.193  34.703  1.00  0.00    -0.200 F 
ATOM     86  C   UNL A   1      46.297  22.405  34.991  1.00  0.00     0.200 A 
ATOM     87  F   UNL A   1      48.280  23.662  35.241  1.00  0.00    -0.200 F 
ATOM     88  F   UNL A   1      46.760  21.476  35.838  1.00  0.00    -0.200 F 
ENDBRANCH  55  78
ENDBRANCH  29  30
ENDBRANCH  22  24
ENDBRANCH  21  22
ENDBRANCH   1  21
TORSDOF 12
ENDMDL
MODEL 2
REMARK VINA RESULT:     -13.1      4.009     10.172
REMARK SMILES Cc1ccc(F)cc1-c1ccc(F)cc1C(=O)OCCOC(=O)c1ccc(-c2c3nc(c(-c4c(F)c(F)c(F)c(F)c4F)c4ccc([nH]4)c(-c4c(F)c(F)c(F)c(F)c4F)c4nc(c(-c5c(F)c(F)c(F)c(F)c5F)c5ccc2[nH]5)C=C4)C=C3)cc1
REMARK SMILES IDX 20 1 19 2 18 3 16 4 17 5 15 6 9 7 10 8 11 9 14 10 12 11
REMARK SMILES IDX 13 12 8 13 1 14 2 15 3 16 4 17 7 18 5 19 6 20 21 21 22 22
REMARK SMILES IDX 23 23 24 24 25 25 86 26 26 27 85 28 27 29 28 30 29 31 79 32
REMARK SMILES IDX 30 33 84 34 78 35 80 36 31 37 83 38 77 39 76 40 32 42 64 43
REMARK SMILES IDX 44 44 63 45 45 46 48 47 62 48 81 49 46 50 47 51 61 53 82 54
REMARK SMILES IDX 49 55 33 56 34 57 42 58 35 59 36 60 40 61 43 62 37 63 38 64
REMARK SMILES IDX 41 65 39 66 65 67 66 68 74 69 67 70 68 71 72 72 75 73 69 74
REMARK SMILES IDX 70 75 73 76 71 77 50 78 51 79 59 80 52 81 53 82 57 83 60 84
REMARK SMILES IDX 54 85 55 86 58 87 56 88
REMARK H PARENT 80 41 48 52
REMARK Flexibility Score: inf
ROOT
ATOM      1  C   UNL A   1      39.387  22.395  26.869  1.00  0.00     0.275 C 
ENDROOT
BRANCH   1   2
ATOM      2  C   UNL A   1      38.708  21.683  25.702  1.00  0.00     0.275 C 
BRANCH   2   3
ATOM      3  O   UNL A   1      37.279  21.858  25.752  1.00  0.00    -0.458 OA
BRANCH   3   4
ATOM      4  C   UNL A   1      36.611  21.995  24.582  1.00  0.00     0.338 C 
ATOM      5  O   UNL A   1      37.024  22.583  23.588  1.00  0.00    -0.246 OA
BRANCH   4   6
ATOM      6  C   UNL A   1      35.324  21.233  24.581  1.00  0.00     0.070 A 
ATOM      7  C   UNL A   1      34.035  21.823  24.503  1.00  0.00    -0.003 A 
ATOM      8  C   UNL A   1      32.921  20.955  24.445  1.00  0.00     0.012 A 
ATOM      9  C   UNL A   1      33.066  19.568  24.546  1.00  0.00     0.040 A 
ATOM     10  C   UNL A   1      35.457  19.834  24.663  1.00  0.00     0.055 A 
ATOM     11  C   UNL A   1      34.332  19.023  24.671  1.00  0.00     0.124 A 
ATOM     12  F   UNL A   1      34.472  17.697  24.796  1.00  0.00    -0.207 F 
BRANCH   7  13
ATOM     13  C   UNL A   1      33.821  23.289  24.508  1.00  0.00    -0.012 A 
ATOM     14  C   UNL A   1      33.755  23.450  27.081  1.00  0.00     0.045 C 
ATOM     15  C   UNL A   1      33.793  24.057  25.702  1.00  0.00    -0.043 A 
ATOM     16  C   UNL A   1      33.775  25.463  25.627  1.00  0.00     0.007 A 
ATOM     17  C   UNL A   1      33.801  26.113  24.397  1.00  0.00     0.039 A 
ATOM     18  C   UNL A   1      33.760  23.974  23.278  1.00  0.00     0.048 A 
ATOM     19  C   UNL A   1      33.785  25.362  23.235  1.00  0.00     0.123 A 
ATOM     20  F   UNL A   1      33.837  25.981  22.048  1.00  0.00    -0.207 F 
ENDBRANCH   7  13
ENDBRANCH   4   6
ENDBRANCH   3   4
ENDBRANCH   2   3
ENDBRANCH   1   2
BRANCH   1  21
ATOM     21  O   UNL A   1      40.520  23.158  26.429  1.00  0.00    -0.458 OA
BRANCH  21  22
ATOM     22  C   UNL A   1      40.840  24.144  27.291  1.00  0.00     0.338 C 
ATOM     23  O   UNL A   1      41.621  24.082  28.229  1.00  0.00    -0.246 OA
BRANCH  22  24
ATOM     24  C   UNL A   1      39.902  25.266  27.239  1.00  0.00     0.060 A 
ATOM     25  C   UNL A   1      40.414  26.352  26.509  1.00  0.00     0.016 A 
ATOM     26  C   UNL A   1      39.218  25.438  28.444  1.00  0.00     0.016 A 
ATOM     27  C   UNL A   1      40.576  27.557  27.161  1.00  0.00     0.010 A 
ATOM     28  C   UNL A   1      39.370  26.643  29.084  1.00  0.00     0.010 A 
ATOM     29  C   UNL A   1      40.121  27.657  28.476  1.00  0.00    -0.014 A 
BRANCH  29  30
ATOM     30  C   UNL A   1      40.234  28.882  29.233  1.00  0.00     0.031 A 
ATOM     31  C   UNL A   1      39.167  29.874  29.042  1.00  0.00     0.074 A 
ATOM     32  C   UNL A   1      41.228  29.047  30.129  1.00  0.00     0.049 A 
ATOM     33  N   UNL A   1      39.251  31.114  29.368  1.00  0.00    -0.248 NA
ATOM     34  C   UNL A   1      37.912  29.530  28.377  1.00  0.00     0.031 C 
ATOM     35  C   UNL A   1      41.286  30.035  31.196  1.00  0.00     0.029 A 
ATOM     36  N   UNL A   1      42.495  28.441  30.137  1.00  0.00    -0.354 N 
ATOM     37  C   UNL A   1      38.001  31.665  29.212  1.00  0.00     0.074 A 
ATOM     38  C   UNL A   1      37.232  30.671  28.502  1.00  0.00     0.031 C 
ATOM     39  C   UNL A   1      42.563  30.178  31.584  1.00  0.00     0.029 A 
ATOM     40  C   UNL A   1      43.381  29.420  30.656  1.00  0.00     0.049 A 
ATOM     41  H   UNL A   1      42.721  27.528  29.844  1.00  0.00     0.167 HD
ATOM     42  C   UNL A   1      37.729  32.847  29.830  1.00  0.00     0.037 A 
ATOM     43  C   UNL A   1      44.357  29.961  29.862  1.00  0.00     0.037 A 
ATOM     44  C   UNL A   1      38.926  33.373  30.483  1.00  0.00     0.049 A 
ATOM     45  C   UNL A   1      44.195  31.432  29.573  1.00  0.00     0.074 A 
ATOM     46  C   UNL A   1      39.448  33.262  31.763  1.00  0.00     0.029 A 
ATOM     47  N   UNL A   1      39.960  33.823  29.688  1.00  0.00    -0.354 N 
ATOM     48  N   UNL A   1      43.149  32.126  29.926  1.00  0.00    -0.248 NA
ATOM     49  C   UNL A   1      45.157  32.223  28.806  1.00  0.00     0.031 C 
ATOM     50  C   UNL A   1      40.826  33.623  31.710  1.00  0.00     0.029 A 
ATOM     51  C   UNL A   1      41.130  33.968  30.405  1.00  0.00     0.049 A 
ATOM     52  H   UNL A   1      39.874  34.016  28.726  1.00  0.00     0.167 HD
ATOM     53  C   UNL A   1      43.278  33.404  29.472  1.00  0.00     0.074 A 
ATOM     54  C   UNL A   1      44.544  33.420  28.764  1.00  0.00     0.031 C 
ATOM     55  C   UNL A   1      42.335  34.360  29.696  1.00  0.00     0.037 A 
BRANCH  42  56
ATOM     56  C   UNL A   1      36.340  33.384  30.063  1.00  0.00     0.064 A 
ATOM     57  C   UNL A   1      35.569  33.842  28.974  1.00  0.00     0.173 A 
ATOM     58  C   UNL A   1      35.725  33.527  31.322  1.00  0.00     0.173 A 
ATOM     59  F   UNL A   1      35.981  33.682  27.709  1.00  0.00    -0.203 F 
ATOM     60  C   UNL A   1      34.342  34.489  29.143  1.00  0.00     0.198 A 
ATOM     61  C   UNL A   1      34.527  34.225  31.497  1.00  0.00     0.198 A 
ATOM     62  F   UNL A   1      36.227  32.943  32.416  1.00  0.00    -0.203 F 
ATOM     63  F   UNL A   1      33.658  34.902  28.068  1.00  0.00    -0.200 F 
ATOM     64  C   UNL A   1      33.839  34.715  30.407  1.00  0.00     0.200 A 
ATOM     65  F   UNL A   1      34.042  34.413  32.732  1.00  0.00    -0.200 F 
ATOM     66  F   UNL A   1      32.684  35.373  30.571  1.00  0.00    -0.200 F 
ENDBRANCH  42  56
BRANCH  43  67
ATOM     67  C   UNL A   1      44.938  28.951  28.940  1.00  0.00     0.064 A 
ATOM     68  C   UNL A   1      45.654  27.902  29.545  1.00  0.00     0.173 A 
ATOM     69  C   UNL A   1      44.335  28.713  27.698  1.00  0.00     0.173 A 
ATOM     70  F   UNL A   1      46.287  28.107  30.711  1.00  0.00    -0.203 F 
ATOM     71  C   UNL A   1      45.563  26.610  29.050  1.00  0.00     0.198 A 
ATOM     72  C   UNL A   1      44.260  27.415  27.197  1.00  0.00     0.198 A 
ATOM     73  F   UNL A   1      43.696  29.701  27.055  1.00  0.00    -0.203 F 
ATOM     74  F   UNL A   1      46.114  25.592  29.728  1.00  0.00    -0.200 F 
ATOM     75  C   UNL A   1      44.817  26.362  27.911  1.00  0.00     0.200 A 
ATOM     76  F   UNL A   1      43.582  27.180  26.066  1.00  0.00    -0.200 F 
ATOM     77  F   UNL A   1      44.636  25.095  27.517  1.00  0.00    -0.200 F 
ENDBRANCH  43  67
BRANCH  55  78
ATOM     78  C   UNL A   1      42.501  35.776  29.251  1.00  0.00     0.064 A 
ATOM     79  C   UNL A   1      41.951  36.237  28.046  1.00  0.00     0.173 A 
ATOM     80  C   UNL A   1      43.319  36.676  29.961  1.00  0.00     0.173 A 
ATOM     81  F   UNL A   1      41.206  35.427  27.279  1.00  0.00    -0.203 F 
ATOM     82  C   UNL A   1      42.167  37.541  27.603  1.00  0.00     0.198 A 
ATOM     83  C   UNL A   1      43.579  37.958  29.487  1.00  0.00     0.198 A 
ATOM     84  F   UNL A   1      43.863  36.344  31.141  1.00  0.00    -0.203 F 
ATOM     85  F   UNL A   1      41.577  37.967  26.478  1.00  0.00    -0.200 F 
ATOM     86  C   UNL A   1      42.990  38.396  28.317  1.00  0.00     0.200 A 
ATOM     87  F   UNL A   1      44.396  38.766  30.177  1.00  0.00    -0.200 F 
ATOM     88  F   UNL A   1      43.211  39.643  27.881  1.00  0.00    -0.200 F 
ENDBRANCH  55  78
ENDBRANCH  29  30
ENDBRANCH  22  24
ENDBRANCH  21  22
ENDBRANCH   1  21
TORSDOF 12
ENDMDL
MODEL 3
REMARK VINA RESULT:     -13.1      0.822      1.380
REMARK SMILES Cc1ccc(F)cc1-c1ccc(F)cc1C(=O)OCCOC(=O)c1ccc(-c2c3nc(c(-c4c(F)c(F)c(F)c(F)c4F)c4ccc([nH]4)c(-c4c(F)c(F)c(F)c(F)c4F)c4nc(c(-c5c(F)c(F)c(F)c(F)c5F)c5ccc2[nH]5)C=C4)C=C3)cc1
REMARK SMILES IDX 20 1 19 2 18 3 16 4 17 5 15 6 9 7 10 8 11 9 14 10 12 11
REMARK SMILES IDX 13 12 8 13 1 14 2 15 3 16 4 17 7 18 5 19 6 20 21 21 22 22
REMARK SMILES IDX 23 23 24 24 25 25 86 26 26 27 85 28 27 29 28 30 29 31 79 32
REMARK SMILES IDX 30 33 84 34 78 35 80 36 31 37 83 38 77 39 76 40 32 42 64 43
REMARK SMILES IDX 44 44 63 45 45 46 48 47 62 48 81 49 46 50 47 51 61 53 82 54
REMARK SMILES IDX 49 55 33 56 34 57 42 58 35 59 36 60 40 61 43 62 37 63 38 64
REMARK SMILES IDX 41 65 39 66 65 67 66 68 74 69 67 70 68 71 72 72 75 73 69 74
REMARK SMILES IDX 70 75 73 76 71 77 50 78 51 79 59 80 52 81 53 82 57 83 60 84
REMARK SMILES IDX 54 85 55 86 58 87 56 88
REMARK H PARENT 80 41 48 52
REMARK Flexibility Score: inf
ROOT
ATOM      1  C   UNL A   1      33.913  31.306  27.313  1.00  0.00     0.275 C 
ENDROOT
BRANCH   1   2
ATOM      2  C   UNL A   1      32.683  30.403  27.291  1.00  0.00     0.275 C 
BRANCH   2   3
ATOM      3  O   UNL A   1      32.941  29.197  26.548  1.00  0.00    -0.458 OA
BRANCH   3   4
ATOM      4  C   UNL A   1      31.958  28.269  26.474  1.00  0.00     0.338 C 
ATOM      5  O   UNL A   1      31.284  27.865  27.415  1.00  0.00    -0.246 OA
BRANCH   4   6
ATOM      6  C   UNL A   1      31.686  27.856  25.062  1.00  0.00     0.070 A 
ATOM      7  C   UNL A   1      32.015  26.589  24.513  1.00  0.00    -0.003 A 
ATOM      8  C   UNL A   1      31.627  26.334  23.178  1.00  0.00     0.012 A 
ATOM      9  C   UNL A   1      31.016  27.315  22.391  1.00  0.00     0.040 A 
ATOM     10  C   UNL A   1      31.053  28.829  24.265  1.00  0.00     0.055 A 
ATOM     11  C   UNL A   1      30.751  28.559  22.939  1.00  0.00     0.124 A 
ATOM     12  F   UNL A   1      30.192  29.510  22.180  1.00  0.00    -0.207 F 
BRANCH   7  13
ATOM     13  C   UNL A   1      32.762  25.556  25.267  1.00  0.00    -0.012 A 
ATOM     14  C   UNL A   1      30.633  24.452  26.216  1.00  0.00     0.045 C 
ATOM     15  C   UNL A   1      32.120  24.504  25.973  1.00  0.00    -0.043 A 
ATOM     16  C   UNL A   1      32.887  23.452  26.508  1.00  0.00     0.007 A 
ATOM     17  C   UNL A   1      34.268  23.418  26.340  1.00  0.00     0.039 A 
ATOM     18  C   UNL A   1      34.169  25.537  25.187  1.00  0.00     0.048 A 
ATOM     19  C   UNL A   1      34.896  24.464  25.689  1.00  0.00     0.123 A 
ATOM     20  F   UNL A   1      36.222  24.425  25.500  1.00  0.00    -0.207 F 
ENDBRANCH   7  13
ENDBRANCH   4   6
ENDBRANCH   3   4
ENDBRANCH   2   3
ENDBRANCH   1   2
BRANCH   1  21
ATOM     21  O   UNL A   1      34.410  31.482  28.648  1.00  0.00    -0.458 OA
BRANCH  21  22
ATOM     22  C   UNL A   1      35.751  31.356  28.716  1.00  0.00     0.338 C 
ATOM     23  O   UNL A   1      36.582  32.251  28.671  1.00  0.00    -0.246 OA
BRANCH  22  24
ATOM     24  C   UNL A   1      36.199  29.979  28.509  1.00  0.00     0.060 A 
ATOM     25  C   UNL A   1      36.490  29.328  29.719  1.00  0.00     0.016 A 
ATOM     26  C   UNL A   1      37.017  29.854  27.384  1.00  0.00     0.016 A 
ATOM     27  C   UNL A   1      37.776  28.869  29.921  1.00  0.00     0.010 A 
ATOM     28  C   UNL A   1      38.292  29.385  27.585  1.00  0.00     0.010 A 
ATOM     29  C   UNL A   1      38.684  28.982  28.868  1.00  0.00    -0.014 A 
BRANCH  29  30
ATOM     30  C   UNL A   1      40.047  28.517  28.981  1.00  0.00     0.031 A 
ATOM     31  C   UNL A   1      40.286  27.100  28.669  1.00  0.00     0.074 A 
ATOM     32  C   UNL A   1      41.045  29.375  29.272  1.00  0.00     0.049 A 
ATOM     33  N   UNL A   1      41.336  26.442  29.008  1.00  0.00    -0.248 NA
ATOM     34  C   UNL A   1      39.282  26.286  27.988  1.00  0.00     0.031 C 
ATOM     35  C   UNL A   1      42.470  29.154  29.082  1.00  0.00     0.029 A 
ATOM     36  N   UNL A   1      40.965  30.587  29.978  1.00  0.00    -0.354 N 
ATOM     37  C   UNL A   1      41.276  25.221  28.378  1.00  0.00     0.074 A 
ATOM     38  C   UNL A   1      39.939  25.135  27.841  1.00  0.00     0.031 C 
ATOM     39  C   UNL A   1      43.149  30.012  29.860  1.00  0.00     0.029 A 
ATOM     40  C   UNL A   1      42.179  30.684  30.705  1.00  0.00     0.049 A 
ATOM     41  H   UNL A   1      40.222  31.233  29.970  1.00  0.00     0.167 HD
ATOM     42  C   UNL A   1      42.418  24.489  28.269  1.00  0.00     0.037 A 
ATOM     43  C   UNL A   1      42.174  30.631  32.073  1.00  0.00     0.037 A 
ATOM     44  C   UNL A   1      43.517  25.139  28.981  1.00  0.00     0.049 A 
ATOM     45  C   UNL A   1      42.862  29.426  32.662  1.00  0.00     0.074 A 
ATOM     46  C   UNL A   1      44.508  26.033  28.605  1.00  0.00     0.029 A 
ATOM     47  N   UNL A   1      43.466  25.184  30.360  1.00  0.00    -0.354 N 
ATOM     48  N   UNL A   1      43.314  28.432  31.950  1.00  0.00    -0.248 NA
ATOM     49  C   UNL A   1      43.033  29.206  34.098  1.00  0.00     0.031 C 
ATOM     50  C   UNL A   1      45.026  26.639  29.787  1.00  0.00     0.029 A 
ATOM     51  C   UNL A   1      44.362  26.099  30.874  1.00  0.00     0.049 A 
ATOM     52  H   UNL A   1      42.863  24.632  30.909  1.00  0.00     0.167 HD
ATOM     53  C   UNL A   1      43.828  27.478  32.775  1.00  0.00     0.074 A 
ATOM     54  C   UNL A   1      43.620  27.995  34.115  1.00  0.00     0.031 C 
ATOM     55  C   UNL A   1      44.378  26.323  32.308  1.00  0.00     0.037 A 
BRANCH  42  56
ATOM     56  C   UNL A   1      42.602  23.338  27.312  1.00  0.00     0.064 A 
ATOM     57  C   UNL A   1      42.030  22.082  27.601  1.00  0.00     0.173 A 
ATOM     58  C   UNL A   1      43.363  23.382  26.128  1.00  0.00     0.173 A 
ATOM     59  F   UNL A   1      41.201  21.913  28.640  1.00  0.00    -0.203 F 
ATOM     60  C   UNL A   1      42.292  20.944  26.834  1.00  0.00     0.198 A 
ATOM     61  C   UNL A   1      43.673  22.233  25.394  1.00  0.00     0.198 A 
ATOM     62  F   UNL A   1      43.779  24.540  25.605  1.00  0.00    -0.203 F 
ATOM     63  F   UNL A   1      41.719  19.778  27.162  1.00  0.00    -0.200 F 
ATOM     64  C   UNL A   1      43.145  21.011  25.752  1.00  0.00     0.200 A 
ATOM     65  F   UNL A   1      44.486  22.324  24.331  1.00  0.00    -0.200 F 
ATOM     66  F   UNL A   1      43.430  19.912  25.042  1.00  0.00    -0.200 F 
ENDBRANCH  42  56
BRANCH  43  67
ATOM     67  C   UNL A   1      40.992  31.327  32.645  1.00  0.00     0.064 A 
ATOM     68  C   UNL A   1      40.920  32.713  32.416  1.00  0.00     0.173 A 
ATOM     69  C   UNL A   1      39.795  30.623  32.838  1.00  0.00     0.173 A 
ATOM     70  F   UNL A   1      42.047  33.429  32.277  1.00  0.00    -0.203 F 
ATOM     71  C   UNL A   1      39.703  33.321  32.149  1.00  0.00     0.198 A 
ATOM     72  C   UNL A   1      38.574  31.243  32.584  1.00  0.00     0.198 A 
ATOM     73  F   UNL A   1      39.819  29.313  33.121  1.00  0.00    -0.203 F 
ATOM     74  F   UNL A   1      39.665  34.607  31.771  1.00  0.00    -0.200 F 
ATOM     75  C   UNL A   1      38.540  32.570  32.176  1.00  0.00     0.200 A 
ATOM     76  F   UNL A   1      37.442  30.531  32.659  1.00  0.00    -0.200 F 
ATOM     77  F   UNL A   1      37.391  33.141  31.795  1.00  0.00    -0.200 F 
ENDBRANCH  43  67
BRANCH  55  78
ATOM     78  C   UNL A   1      44.994  25.303  33.208  1.00  0.00     0.064 A 
ATOM     79  C   UNL A   1      46.378  25.077  33.225  1.00  0.00     0.173 A 
ATOM     80  C   UNL A   1      44.201  24.440  33.988  1.00  0.00     0.173 A 
ATOM     81  F   UNL A   1      47.202  25.817  32.467  1.00  0.00    -0.203 F 
ATOM     82  C   UNL A   1      46.940  24.077  34.017  1.00  0.00     0.198 A 
ATOM     83  C   UNL A   1      44.759  23.406  34.733  1.00  0.00     0.198 A 
ATOM     84  F   UNL A   1      42.871  24.594  34.068  1.00  0.00    -0.203 F 
ATOM     85  F   UNL A   1      48.271  23.929  34.055  1.00  0.00    -0.200 F 
ATOM     86  C   UNL A   1      46.130  23.235  34.760  1.00  0.00     0.200 A 
ATOM     87  F   UNL A   1      43.961  22.584  35.429  1.00  0.00    -0.200 F 
ATOM     88  F   UNL A   1      46.670  22.263  35.506  1.00  0.00    -0.200 F 
ENDBRANCH  55  78
ENDBRANCH  29  30
ENDBRANCH  22  24
ENDBRANCH  21  22
ENDBRANCH   1  21
TORSDOF 12
ENDMDL
