MODEL 1
REMARK VINA RESULT:     -12.9      0.000      0.000
REMARK SMILES O=C(OCCOC(=O)c1ccc(-c2c3nc(c(-c4c(F)c(F)c(F)c(F)c4F)c4ccc([nH]4)c(-c4c(F)c(F)c(F)c(F)c4F)c4nc(c(-c5c(F)c(F)c(F)c(F)c5F)c5ccc2[nH]5)C=C4)C=C3)cc1)C1=Cc2cc(Cl)cc(Cl)c2O[C@@H]1C(F)(F)F
REMARK SMILES IDX 5 1 4 2 3 3 2 4 1 5 72 6 73 7 83 8 74 9 82 10 75 11 81 12
REMARK SMILES IDX 76 13 79 14 77 15 78 16 80 17 84 18 85 19 86 20 87 21 6 22
REMARK SMILES IDX 7 23 8 24 9 25 10 26 71 27 11 28 70 29 12 30 13 31 14 32
REMARK SMILES IDX 64 33 15 34 69 35 63 36 65 37 16 38 68 39 62 40 61 41 17 43
REMARK SMILES IDX 49 44 29 45 48 46 30 47 33 48 47 49 66 50 31 51 32 52 46 54
REMARK SMILES IDX 67 55 34 56 18 57 19 58 27 59 20 60 21 61 25 62 28 63 22 64
REMARK SMILES IDX 23 65 26 66 24 67 50 68 51 69 59 70 52 71 53 72 57 73 60 74
REMARK SMILES IDX 54 75 55 76 58 77 56 78 35 79 36 80 44 81 37 82 38 83 42 84
REMARK SMILES IDX 45 85 39 86 40 87 43 88 41 89
REMARK H PARENT 65 42 33 53
REMARK Flexibility Score: inf
ROOT
ATOM      1  C   UNL A   1      31.817  31.619  26.527  1.00  0.00     0.275 C 
ENDROOT
BRANCH   1   2
ATOM      2  C   UNL A   1      31.772  30.244  25.823  1.00  0.00     0.275 C 
BRANCH   2   3
ATOM      3  O   UNL A   1      32.398  29.184  26.596  1.00  0.00    -0.459 OA
BRANCH   3   4
ATOM      4  C   UNL A   1      31.670  28.068  26.899  1.00  0.00     0.338 C 
ATOM      5  O   UNL A   1      31.155  27.893  27.992  1.00  0.00    -0.246 OA
BRANCH   4   6
ATOM      6  C   UNL A   1      31.626  27.061  25.807  1.00  0.00     0.087 C 
ATOM      7  C   UNL A   1      32.704  26.285  25.622  1.00  0.00     0.027 C 
ATOM      8  C   UNL A   1      30.313  26.508  25.375  1.00  0.00     0.316 C 
ATOM      9  C   UNL A   1      32.475  24.864  25.909  1.00  0.00     0.020 A 
ATOM     10  O   UNL A   1      30.066  25.207  25.942  1.00  0.00    -0.474 OA
ATOM     11  C   UNL A   1      33.556  24.003  26.132  1.00  0.00     0.032 A 
ATOM     12  C   UNL A   1      31.169  24.423  26.187  1.00  0.00     0.146 A 
ATOM     13  C   UNL A   1      33.334  22.750  26.704  1.00  0.00     0.043 A 
ATOM     14  C   UNL A   1      30.970  23.188  26.816  1.00  0.00     0.085 A 
ATOM     15  Cl  UNL A   1      34.666  21.701  27.000  1.00  0.00    -0.084 Cl
ATOM     16  C   UNL A   1      32.053  22.355  27.086  1.00  0.00     0.045 A 
ATOM     17  Cl  UNL A   1      29.403  22.710  27.363  1.00  0.00    -0.080 Cl
BRANCH   8  18
ATOM     18  C   UNL A   1      30.154  26.561  23.844  1.00  0.00     0.430 C 
ATOM     19  F   UNL A   1      28.842  26.654  23.507  1.00  0.00    -0.167 F 
ATOM     20  F   UNL A   1      30.782  27.616  23.279  1.00  0.00    -0.167 F 
ATOM     21  F   UNL A   1      30.633  25.441  23.258  1.00  0.00    -0.167 F 
ENDBRANCH   8  18
ENDBRANCH   4   6
ENDBRANCH   3   4
ENDBRANCH   2   3
ENDBRANCH   1   2
BRANCH   1  22
ATOM     22  O   UNL A   1      32.676  31.611  27.678  1.00  0.00    -0.458 OA
BRANCH  22  23
ATOM     23  C   UNL A   1      33.490  32.690  27.766  1.00  0.00     0.338 C 
ATOM     24  O   UNL A   1      33.147  33.863  27.721  1.00  0.00    -0.246 OA
BRANCH  23  25
ATOM     25  C   UNL A   1      34.847  32.256  28.174  1.00  0.00     0.060 A 
ATOM     26  C   UNL A   1      35.004  30.908  28.511  1.00  0.00     0.016 A 
ATOM     27  C   UNL A   1      35.958  33.110  28.177  1.00  0.00     0.016 A 
ATOM     28  C   UNL A   1      36.249  30.425  28.906  1.00  0.00     0.010 A 
ATOM     29  C   UNL A   1      37.217  32.612  28.546  1.00  0.00     0.010 A 
ATOM     30  C   UNL A   1      37.362  31.276  28.958  1.00  0.00    -0.014 A 
BRANCH  30  31
ATOM     31  C   UNL A   1      38.604  30.768  29.604  1.00  0.00     0.031 A 
ATOM     32  C   UNL A   1      38.895  31.159  31.028  1.00  0.00     0.074 A 
ATOM     33  C   UNL A   1      39.393  29.866  28.988  1.00  0.00     0.049 A 
ATOM     34  N   UNL A   1      39.773  30.664  31.864  1.00  0.00    -0.248 NA
ATOM     35  C   UNL A   1      38.086  32.252  31.590  1.00  0.00     0.031 C 
ATOM     36  C   UNL A   1      39.243  29.409  27.608  1.00  0.00     0.029 A 
ATOM     37  N   UNL A   1      40.471  29.153  29.459  1.00  0.00    -0.354 N 
ATOM     38  C   UNL A   1      39.586  31.350  33.056  1.00  0.00     0.074 A 
ATOM     39  C   UNL A   1      38.578  32.357  32.813  1.00  0.00     0.031 C 
ATOM     40  C   UNL A   1      40.180  28.481  27.348  1.00  0.00     0.029 A 
ATOM     41  C   UNL A   1      40.995  28.273  28.544  1.00  0.00     0.049 A 
ATOM     42  H   UNL A   1      40.831  29.263  30.369  1.00  0.00     0.167 HD
ATOM     43  C   UNL A   1      40.165  31.135  34.262  1.00  0.00     0.037 A 
ATOM     44  C   UNL A   1      42.007  27.390  28.664  1.00  0.00     0.037 A 
ATOM     45  C   UNL A   1      41.192  30.160  34.509  1.00  0.00     0.049 A 
ATOM     46  C   UNL A   1      42.688  27.219  30.002  1.00  0.00     0.074 A 
ATOM     47  C   UNL A   1      41.848  29.876  35.693  1.00  0.00     0.029 A 
ATOM     48  N   UNL A   1      41.721  29.316  33.546  1.00  0.00    -0.354 N 
ATOM     49  N   UNL A   1      42.437  27.808  31.146  1.00  0.00    -0.248 NA
ATOM     50  C   UNL A   1      43.779  26.233  30.069  1.00  0.00     0.031 C 
ATOM     51  C   UNL A   1      42.810  28.893  35.435  1.00  0.00     0.029 A 
ATOM     52  C   UNL A   1      42.713  28.526  34.103  1.00  0.00     0.049 A 
ATOM     53  H   UNL A   1      41.434  29.283  32.604  1.00  0.00     0.167 HD
ATOM     54  C   UNL A   1      43.309  27.244  32.069  1.00  0.00     0.074 A 
ATOM     55  C   UNL A   1      44.079  26.244  31.359  1.00  0.00     0.031 C 
ATOM     56  C   UNL A   1      43.465  27.528  33.387  1.00  0.00     0.037 A 
BRANCH  43  57
ATOM     57  C   UNL A   1      39.683  31.978  35.406  1.00  0.00     0.064 A 
ATOM     58  C   UNL A   1      38.679  31.518  36.275  1.00  0.00     0.173 A 
ATOM     59  C   UNL A   1      40.226  33.248  35.645  1.00  0.00     0.173 A 
ATOM     60  F   UNL A   1      38.116  30.316  36.079  1.00  0.00    -0.203 F 
ATOM     61  C   UNL A   1      38.214  32.313  37.318  1.00  0.00     0.198 A 
ATOM     62  C   UNL A   1      39.778  34.029  36.707  1.00  0.00     0.198 A 
ATOM     63  F   UNL A   1      41.188  33.734  34.846  1.00  0.00    -0.203 F 
ATOM     64  F   UNL A   1      37.216  31.876  38.098  1.00  0.00    -0.200 F 
ATOM     65  C   UNL A   1      38.768  33.565  37.536  1.00  0.00     0.200 A 
ATOM     66  F   UNL A   1      40.320  35.235  36.925  1.00  0.00    -0.200 F 
ATOM     67  F   UNL A   1      38.319  34.330  38.542  1.00  0.00    -0.200 F 
ENDBRANCH  43  57
BRANCH  44  68
ATOM     68  C   UNL A   1      42.446  26.576  27.496  1.00  0.00     0.064 A 
ATOM     69  C   UNL A   1      41.902  25.308  27.240  1.00  0.00     0.173 A 
ATOM     70  C   UNL A   1      43.480  27.019  26.658  1.00  0.00     0.173 A 
ATOM     71  F   UNL A   1      40.930  24.826  28.028  1.00  0.00    -0.203 F 
ATOM     72  C   UNL A   1      42.405  24.500  26.222  1.00  0.00     0.198 A 
ATOM     73  C   UNL A   1      43.959  26.224  25.619  1.00  0.00     0.198 A 
ATOM     74  F   UNL A   1      44.037  28.222  26.858  1.00  0.00    -0.203 F 
ATOM     75  F   UNL A   1      41.919  23.262  26.050  1.00  0.00    -0.200 F 
ATOM     76  C   UNL A   1      43.432  24.958  25.412  1.00  0.00     0.200 A 
ATOM     77  F   UNL A   1      44.947  26.675  24.834  1.00  0.00    -0.200 F 
ATOM     78  F   UNL A   1      43.927  24.174  24.444  1.00  0.00    -0.200 F 
ENDBRANCH  44  68
BRANCH  56  79
ATOM     79  C   UNL A   1      44.482  26.727  34.153  1.00  0.00     0.064 A 
ATOM     80  C   UNL A   1      45.815  27.149  34.277  1.00  0.00     0.173 A 
ATOM     81  C   UNL A   1      44.111  25.536  34.797  1.00  0.00     0.173 A 
ATOM     82  F   UNL A   1      46.226  28.274  33.674  1.00  0.00    -0.203 F 
ATOM     83  C   UNL A   1      46.745  26.388  34.981  1.00  0.00     0.198 A 
ATOM     84  C   UNL A   1      45.035  24.798  35.532  1.00  0.00     0.198 A 
ATOM     85  F   UNL A   1      42.848  25.091  34.722  1.00  0.00    -0.203 F 
ATOM     86  F   UNL A   1      48.026  26.780  35.032  1.00  0.00    -0.200 F 
ATOM     87  C   UNL A   1      46.353  25.217  35.613  1.00  0.00     0.200 A 
ATOM     88  F   UNL A   1      44.650  23.676  36.156  1.00  0.00    -0.200 F 
ATOM     89  F   UNL A   1      47.249  24.490  36.294  1.00  0.00    -0.200 F 
ENDBRANCH  56  79
ENDBRANCH  30  31
ENDBRANCH  23  25
ENDBRANCH  22  23
ENDBRANCH   1  22
TORSDOF 12
ENDMDL
MODEL 2
REMARK VINA RESULT:     -12.9      1.493      2.439
REMARK SMILES O=C(OCCOC(=O)c1ccc(-c2c3nc(c(-c4c(F)c(F)c(F)c(F)c4F)c4ccc([nH]4)c(-c4c(F)c(F)c(F)c(F)c4F)c4nc(c(-c5c(F)c(F)c(F)c(F)c5F)c5ccc2[nH]5)C=C4)C=C3)cc1)C1=Cc2cc(Cl)cc(Cl)c2O[C@@H]1C(F)(F)F
REMARK SMILES IDX 5 1 4 2 3 3 2 4 1 5 72 6 73 7 83 8 74 9 82 10 75 11 81 12
REMARK SMILES IDX 76 13 79 14 77 15 78 16 80 17 84 18 85 19 86 20 87 21 6 22
REMARK SMILES IDX 7 23 8 24 9 25 10 26 71 27 11 28 70 29 12 30 13 31 14 32
REMARK SMILES IDX 64 33 15 34 69 35 63 36 65 37 16 38 68 39 62 40 61 41 17 43
REMARK SMILES IDX 49 44 29 45 48 46 30 47 33 48 47 49 66 50 31 51 32 52 46 54
REMARK SMILES IDX 67 55 34 56 18 57 19 58 27 59 20 60 21 61 25 62 28 63 22 64
REMARK SMILES IDX 23 65 26 66 24 67 50 68 51 69 59 70 52 71 53 72 57 73 60 74
REMARK SMILES IDX 54 75 55 76 58 77 56 78 35 79 36 80 44 81 37 82 38 83 42 84
REMARK SMILES IDX 45 85 39 86 40 87 43 88 41 89
REMARK H PARENT 65 42 33 53
REMARK Flexibility Score: inf
ROOT
ATOM      1  C   UNL A   1      31.772  29.724  26.904  1.00  0.00     0.275 C 
ENDROOT
BRANCH   1   2
ATOM      2  C   UNL A   1      31.763  28.355  27.622  1.00  0.00     0.275 C 
BRANCH   2   3
ATOM      3  O   UNL A   1      31.047  27.327  26.885  1.00  0.00    -0.459 OA
BRANCH   3   4
ATOM      4  C   UNL A   1      31.727  26.221  26.462  1.00  0.00     0.338 C 
ATOM      5  O   UNL A   1      31.448  25.092  26.832  1.00  0.00    -0.246 OA
BRANCH   4   6
ATOM      6  C   UNL A   1      32.878  26.524  25.572  1.00  0.00     0.087 C 
ATOM      7  C   UNL A   1      34.084  26.052  25.918  1.00  0.00     0.027 C 
ATOM      8  C   UNL A   1      32.638  26.765  24.122  1.00  0.00     0.316 C 
ATOM      9  C   UNL A   1      34.619  25.041  24.998  1.00  0.00     0.020 A 
ATOM     10  O   UNL A   1      32.940  25.601  23.328  1.00  0.00    -0.474 OA
ATOM     11  C   UNL A   1      35.655  24.191  25.403  1.00  0.00     0.032 A 
ATOM     12  C   UNL A   1      33.934  24.776  23.799  1.00  0.00     0.146 A 
ATOM     13  C   UNL A   1      35.942  23.047  24.656  1.00  0.00     0.043 A 
ATOM     14  C   UNL A   1      34.192  23.593  23.096  1.00  0.00     0.085 A 
ATOM     15  Cl  UNL A   1      37.200  21.991  25.168  1.00  0.00    -0.084 Cl
ATOM     16  C   UNL A   1      35.189  22.721  23.530  1.00  0.00     0.045 A 
ATOM     17  Cl  UNL A   1      33.225  23.133  21.741  1.00  0.00    -0.080 Cl
BRANCH   8  18
ATOM     18  C   UNL A   1      33.339  28.048  23.639  1.00  0.00     0.430 C 
ATOM     19  F   UNL A   1      32.468  29.090  23.632  1.00  0.00    -0.167 F 
ATOM     20  F   UNL A   1      34.382  28.412  24.418  1.00  0.00    -0.167 F 
ATOM     21  F   UNL A   1      33.802  27.914  22.376  1.00  0.00    -0.167 F 
ENDBRANCH   8  18
ENDBRANCH   4   6
ENDBRANCH   3   4
ENDBRANCH   2   3
ENDBRANCH   1   2
BRANCH   1  22
ATOM     22  O   UNL A   1      33.101  30.150  26.566  1.00  0.00    -0.458 OA
BRANCH  22  23
ATOM     23  C   UNL A   1      33.517  31.249  27.242  1.00  0.00     0.338 C 
ATOM     24  O   UNL A   1      32.821  32.193  27.588  1.00  0.00    -0.246 OA
BRANCH  23  25
ATOM     25  C   UNL A   1      34.901  31.039  27.726  1.00  0.00     0.060 A 
ATOM     26  C   UNL A   1      35.329  29.715  27.861  1.00  0.00     0.016 A 
ATOM     27  C   UNL A   1      35.790  32.090  27.990  1.00  0.00     0.016 A 
ATOM     28  C   UNL A   1      36.617  29.437  28.312  1.00  0.00     0.010 A 
ATOM     29  C   UNL A   1      37.097  31.805  28.415  1.00  0.00     0.010 A 
ATOM     30  C   UNL A   1      37.505  30.476  28.623  1.00  0.00    -0.014 A 
BRANCH  30  31
ATOM     31  C   UNL A   1      38.776  30.129  29.316  1.00  0.00     0.031 A 
ATOM     32  C   UNL A   1      39.017  30.660  30.705  1.00  0.00     0.074 A 
ATOM     33  C   UNL A   1      39.645  29.248  28.782  1.00  0.00     0.049 A 
ATOM     34  N   UNL A   1      39.922  30.311  31.584  1.00  0.00    -0.248 NA
ATOM     35  C   UNL A   1      38.113  31.725  31.168  1.00  0.00     0.031 C 
ATOM     36  C   UNL A   1      39.550  28.667  27.445  1.00  0.00     0.029 A 
ATOM     37  N   UNL A   1      40.771  28.669  29.318  1.00  0.00    -0.354 N 
ATOM     38  C   UNL A   1      39.663  31.076  32.713  1.00  0.00     0.074 A 
ATOM     39  C   UNL A   1      38.579  31.972  32.381  1.00  0.00     0.031 C 
ATOM     40  C   UNL A   1      40.564  27.802  27.269  1.00  0.00     0.029 A 
ATOM     41  C   UNL A   1      41.378  27.763  28.482  1.00  0.00     0.049 A 
ATOM     42  H   UNL A   1      41.110  28.883  30.217  1.00  0.00     0.167 HD
ATOM     43  C   UNL A   1      40.243  31.011  33.936  1.00  0.00     0.037 A 
ATOM     44  C   UNL A   1      42.458  26.980  28.682  1.00  0.00     0.037 A 
ATOM     45  C   UNL A   1      41.344  30.149  34.270  1.00  0.00     0.049 A 
ATOM     46  C   UNL A   1      43.134  26.978  30.033  1.00  0.00     0.074 A 
ATOM     47  C   UNL A   1      42.007  30.020  35.476  1.00  0.00     0.029 A 
ATOM     48  N   UNL A   1      41.953  29.275  33.383  1.00  0.00    -0.354 N 
ATOM     49  N   UNL A   1      42.821  27.637  31.123  1.00  0.00    -0.248 NA
ATOM     50  C   UNL A   1      44.301  26.096  30.188  1.00  0.00     0.031 C 
ATOM     51  C   UNL A   1      43.050  29.103  35.307  1.00  0.00     0.029 A 
ATOM     52  C   UNL A   1      43.000  28.619  34.010  1.00  0.00     0.049 A 
ATOM     53  H   UNL A   1      41.682  29.139  32.446  1.00  0.00     0.167 HD
ATOM     54  C   UNL A   1      43.725  27.226  32.094  1.00  0.00     0.074 A 
ATOM     55  C   UNL A   1      44.583  26.239  31.475  1.00  0.00     0.031 C 
ATOM     56  C   UNL A   1      43.841  27.631  33.384  1.00  0.00     0.037 A 
BRANCH  43  57
ATOM     57  C   UNL A   1      39.680  31.904  35.003  1.00  0.00     0.064 A 
ATOM     58  C   UNL A   1      40.101  33.238  35.130  1.00  0.00     0.173 A 
ATOM     59  C   UNL A   1      38.711  31.432  35.899  1.00  0.00     0.173 A 
ATOM     60  F   UNL A   1      41.038  33.732  34.306  1.00  0.00    -0.203 F 
ATOM     61  C   UNL A   1      39.598  34.055  36.138  1.00  0.00     0.198 A 
ATOM     62  C   UNL A   1      38.189  32.262  36.888  1.00  0.00     0.198 A 
ATOM     63  F   UNL A   1      38.274  30.167  35.819  1.00  0.00    -0.203 F 
ATOM     64  F   UNL A   1      40.057  35.307  36.275  1.00  0.00    -0.200 F 
ATOM     65  C   UNL A   1      38.638  33.568  37.012  1.00  0.00     0.200 A 
ATOM     66  F   UNL A   1      37.254  31.794  37.727  1.00  0.00    -0.200 F 
ATOM     67  F   UNL A   1      38.155  34.356  37.982  1.00  0.00    -0.200 F 
ENDBRANCH  43  57
BRANCH  44  68
ATOM     68  C   UNL A   1      42.977  26.111  27.588  1.00  0.00     0.064 A 
ATOM     69  C   UNL A   1      43.977  26.556  26.712  1.00  0.00     0.173 A 
ATOM     70  C   UNL A   1      42.420  24.846  27.349  1.00  0.00     0.173 A 
ATOM     71  F   UNL A   1      44.523  27.769  26.880  1.00  0.00    -0.203 F 
ATOM     72  C   UNL A   1      44.368  25.790  25.615  1.00  0.00     0.198 A 
ATOM     73  C   UNL A   1      42.836  24.066  26.272  1.00  0.00     0.198 A 
ATOM     74  F   UNL A   1      41.459  24.371  28.155  1.00  0.00    -0.203 F 
ATOM     75  F   UNL A   1      45.270  26.274  24.750  1.00  0.00    -0.200 F 
ATOM     76  C   UNL A   1      43.798  24.546  25.396  1.00  0.00     0.200 A 
ATOM     77  F   UNL A   1      42.288  22.860  26.069  1.00  0.00    -0.200 F 
ATOM     78  F   UNL A   1      44.162  23.816  24.332  1.00  0.00    -0.200 F 
ENDBRANCH  44  68
BRANCH  56  79
ATOM     79  C   UNL A   1      44.911  26.984  34.221  1.00  0.00     0.064 A 
ATOM     80  C   UNL A   1      46.196  27.535  34.332  1.00  0.00     0.173 A 
ATOM     81  C   UNL A   1      44.637  25.812  34.944  1.00  0.00     0.173 A 
ATOM     82  F   UNL A   1      46.515  28.648  33.656  1.00  0.00    -0.203 F 
ATOM     83  C   UNL A   1      47.178  26.915  35.102  1.00  0.00     0.198 A 
ATOM     84  C   UNL A   1      45.609  25.216  35.743  1.00  0.00     0.198 A 
ATOM     85  F   UNL A   1      43.421  25.247  34.883  1.00  0.00    -0.203 F 
ATOM     86  F   UNL A   1      48.416  27.427  35.143  1.00  0.00    -0.200 F 
ATOM     87  C   UNL A   1      46.882  25.761  35.812  1.00  0.00     0.200 A 
ATOM     88  F   UNL A   1      45.316  24.111  36.441  1.00  0.00    -0.200 F 
ATOM     89  F   UNL A   1      47.826  25.170  36.556  1.00  0.00    -0.200 F 
ENDBRANCH  56  79
ENDBRANCH  30  31
ENDBRANCH  23  25
ENDBRANCH  22  23
ENDBRANCH   1  22
TORSDOF 12
ENDMDL
MODEL 3
REMARK VINA RESULT:     -12.9      4.337      6.412
REMARK SMILES O=C(OCCOC(=O)c1ccc(-c2c3nc(c(-c4c(F)c(F)c(F)c(F)c4F)c4ccc([nH]4)c(-c4c(F)c(F)c(F)c(F)c4F)c4nc(c(-c5c(F)c(F)c(F)c(F)c5F)c5ccc2[nH]5)C=C4)C=C3)cc1)C1=Cc2cc(Cl)cc(Cl)c2O[C@@H]1C(F)(F)F
REMARK SMILES IDX 5 1 4 2 3 3 2 4 1 5 72 6 73 7 83 8 74 9 82 10 75 11 81 12
REMARK SMILES IDX 76 13 79 14 77 15 78 16 80 17 84 18 85 19 86 20 87 21 6 22
REMARK SMILES IDX 7 23 8 24 9 25 10 26 71 27 11 28 70 29 12 30 13 31 14 32
REMARK SMILES IDX 64 33 15 34 69 35 63 36 65 37 16 38 68 39 62 40 61 41 17 43
REMARK SMILES IDX 49 44 29 45 48 46 30 47 33 48 47 49 66 50 31 51 32 52 46 54
REMARK SMILES IDX 67 55 34 56 18 57 19 58 27 59 20 60 21 61 25 62 28 63 22 64
REMARK SMILES IDX 23 65 26 66 24 67 50 68 51 69 59 70 52 71 53 72 57 73 60 74
REMARK SMILES IDX 54 75 55 76 58 77 56 78 35 79 36 80 44 81 37 82 38 83 42 84
REMARK SMILES IDX 45 85 39 86 40 87 43 88 41 89
REMARK H PARENT 65 42 33 53
REMARK Flexibility Score: inf
ROOT
ATOM      1  C   UNL A   1      34.041  33.240  28.295  1.00  0.00     0.275 C 
ENDROOT
BRANCH   1   2
ATOM      2  C   UNL A   1      34.519  34.598  28.858  1.00  0.00     0.275 C 
BRANCH   2   3
ATOM      3  O   UNL A   1      34.154  34.800  30.250  1.00  0.00    -0.459 OA
BRANCH   3   4
ATOM      4  C   UNL A   1      34.617  33.924  31.190  1.00  0.00     0.338 C 
ATOM      5  O   UNL A   1      33.878  33.200  31.838  1.00  0.00    -0.246 OA
BRANCH   4   6
ATOM      6  C   UNL A   1      36.086  33.986  31.400  1.00  0.00     0.087 C 
ATOM      7  C   UNL A   1      36.539  34.586  32.511  1.00  0.00     0.027 C 
ATOM      8  C   UNL A   1      36.957  32.941  30.794  1.00  0.00     0.316 C 
ATOM      9  C   UNL A   1      37.210  33.679  33.451  1.00  0.00     0.020 A 
ATOM     10  O   UNL A   1      37.340  31.938  31.755  1.00  0.00    -0.474 OA
ATOM     11  C   UNL A   1      37.394  34.052  34.787  1.00  0.00     0.032 A 
ATOM     12  C   UNL A   1      37.457  32.351  33.061  1.00  0.00     0.146 A 
ATOM     13  C   UNL A   1      37.740  33.085  35.732  1.00  0.00     0.043 A 
ATOM     14  C   UNL A   1      37.743  31.382  34.031  1.00  0.00     0.085 A 
ATOM     15  Cl  UNL A   1      37.943  33.541  37.379  1.00  0.00    -0.084 Cl
ATOM     16  C   UNL A   1      37.874  31.747  35.370  1.00  0.00     0.045 A 
ATOM     17  Cl  UNL A   1      37.842  29.709  33.617  1.00  0.00    -0.080 Cl
BRANCH   8  18
ATOM     18  C   UNL A   1      38.145  33.566  30.038  1.00  0.00     0.430 C 
ATOM     19  F   UNL A   1      38.532  32.759  29.016  1.00  0.00    -0.167 F 
ATOM     20  F   UNL A   1      37.861  34.773  29.502  1.00  0.00    -0.167 F 
ATOM     21  F   UNL A   1      39.218  33.721  30.846  1.00  0.00    -0.167 F 
ENDBRANCH   8  18
ENDBRANCH   4   6
ENDBRANCH   3   4
ENDBRANCH   2   3
ENDBRANCH   1   2
BRANCH   1  22
ATOM     22  O   UNL A   1      35.130  32.441  27.808  1.00  0.00    -0.458 OA
BRANCH  22  23
ATOM     23  C   UNL A   1      34.908  31.106  27.873  1.00  0.00     0.338 C 
ATOM     24  O   UNL A   1      33.874  30.528  27.569  1.00  0.00    -0.246 OA
BRANCH  23  25
ATOM     25  C   UNL A   1      36.185  30.402  28.135  1.00  0.00     0.060 A 
ATOM     26  C   UNL A   1      36.257  29.643  29.307  1.00  0.00     0.016 A 
ATOM     27  C   UNL A   1      37.270  30.424  27.249  1.00  0.00     0.016 A 
ATOM     28  C   UNL A   1      37.425  28.953  29.624  1.00  0.00     0.010 A 
ATOM     29  C   UNL A   1      38.435  29.703  27.557  1.00  0.00     0.010 A 
ATOM     30  C   UNL A   1      38.537  28.999  28.770  1.00  0.00    -0.014 A 
BRANCH  30  31
ATOM     31  C   UNL A   1      39.826  28.441  29.265  1.00  0.00     0.031 A 
ATOM     32  C   UNL A   1      40.500  29.100  30.439  1.00  0.00     0.074 A 
ATOM     33  C   UNL A   1      40.324  27.290  28.772  1.00  0.00     0.049 A 
ATOM     34  N   UNL A   1      41.486  28.666  31.183  1.00  0.00    -0.248 NA
ATOM     35  C   UNL A   1      39.993  30.424  30.832  1.00  0.00     0.031 C 
ATOM     36  C   UNL A   1      39.787  26.554  27.630  1.00  0.00     0.029 A 
ATOM     37  N   UNL A   1      41.386  26.525  29.193  1.00  0.00    -0.354 N 
ATOM     38  C   UNL A   1      41.680  29.638  32.155  1.00  0.00     0.074 A 
ATOM     39  C   UNL A   1      40.776  30.725  31.854  1.00  0.00     0.031 C 
ATOM     40  C   UNL A   1      40.512  25.436  27.449  1.00  0.00     0.029 A 
ATOM     41  C   UNL A   1      41.560  25.373  28.466  1.00  0.00     0.049 A 
ATOM     42  H   UNL A   1      41.968  26.780  29.945  1.00  0.00     0.167 HD
ATOM     43  C   UNL A   1      42.504  29.614  33.230  1.00  0.00     0.037 A 
ATOM     44  C   UNL A   1      42.453  24.374  28.616  1.00  0.00     0.037 A 
ATOM     45  C   UNL A   1      43.431  28.555  33.521  1.00  0.00     0.049 A 
ATOM     46  C   UNL A   1      43.413  24.404  29.783  1.00  0.00     0.074 A 
ATOM     47  C   UNL A   1      44.315  28.446  34.579  1.00  0.00     0.029 A 
ATOM     48  N   UNL A   1      43.602  27.424  32.738  1.00  0.00    -0.354 N 
ATOM     49  N   UNL A   1      43.521  25.284  30.749  1.00  0.00    -0.248 NA
ATOM     50  C   UNL A   1      44.356  23.281  29.894  1.00  0.00     0.031 C 
ATOM     51  C   UNL A   1      45.056  27.271  34.410  1.00  0.00     0.029 A 
ATOM     52  C   UNL A   1      44.594  26.622  33.278  1.00  0.00     0.049 A 
ATOM     53  H   UNL A   1      43.094  27.221  31.920  1.00  0.00     0.167 HD
ATOM     54  C   UNL A   1      44.515  24.806  31.594  1.00  0.00     0.074 A 
ATOM     55  C   UNL A   1      44.959  23.543  31.044  1.00  0.00     0.031 C 
ATOM     56  C   UNL A   1      45.021  25.362  32.724  1.00  0.00     0.037 A 
BRANCH  43  57
ATOM     57  C   UNL A   1      42.423  30.779  34.173  1.00  0.00     0.064 A 
ATOM     58  C   UNL A   1      43.218  31.922  33.985  1.00  0.00     0.173 A 
ATOM     59  C   UNL A   1      41.546  30.761  35.266  1.00  0.00     0.173 A 
ATOM     60  F   UNL A   1      44.085  31.980  32.963  1.00  0.00    -0.203 F 
ATOM     61  C   UNL A   1      43.162  32.988  34.877  1.00  0.00     0.198 A 
ATOM     62  C   UNL A   1      41.471  31.843  36.140  1.00  0.00     0.198 A 
ATOM     63  F   UNL A   1      40.764  29.695  35.489  1.00  0.00    -0.203 F 
ATOM     64  F   UNL A   1      43.971  34.043  34.710  1.00  0.00    -0.200 F 
ATOM     65  C   UNL A   1      42.284  32.950  35.950  1.00  0.00     0.200 A 
ATOM     66  F   UNL A   1      40.616  31.810  37.171  1.00  0.00    -0.200 F 
ATOM     67  F   UNL A   1      42.231  33.978  36.809  1.00  0.00    -0.200 F 
ENDBRANCH  43  57
BRANCH  44  68
ATOM     68  C   UNL A   1      42.491  23.239  27.650  1.00  0.00     0.064 A 
ATOM     69  C   UNL A   1      41.663  22.118  27.805  1.00  0.00     0.173 A 
ATOM     70  C   UNL A   1      43.419  23.221  26.598  1.00  0.00     0.173 A 
ATOM     71  F   UNL A   1      40.778  22.073  28.811  1.00  0.00    -0.203 F 
ATOM     72  C   UNL A   1      41.791  21.006  26.973  1.00  0.00     0.198 A 
ATOM     73  C   UNL A   1      43.523  22.123  25.746  1.00  0.00     0.198 A 
ATOM     74  F   UNL A   1      44.237  24.266  26.405  1.00  0.00    -0.203 F 
ATOM     75  F   UNL A   1      41.041  19.918  27.193  1.00  0.00    -0.200 F 
ATOM     76  C   UNL A   1      42.721  21.009  25.945  1.00  0.00     0.200 A 
ATOM     77  F   UNL A   1      44.417  22.134  24.749  1.00  0.00    -0.200 F 
ATOM     78  F   UNL A   1      42.856  19.934  25.156  1.00  0.00    -0.200 F 
ENDBRANCH  44  68
BRANCH  56  79
ATOM     79  C   UNL A   1      46.086  24.594  33.458  1.00  0.00     0.064 A 
ATOM     80  C   UNL A   1      47.449  24.893  33.308  1.00  0.00     0.173 A 
ATOM     81  C   UNL A   1      45.737  23.565  34.346  1.00  0.00     0.173 A 
ATOM     82  F   UNL A   1      47.839  25.860  32.465  1.00  0.00    -0.203 F 
ATOM     83  C   UNL A   1      48.422  24.163  33.987  1.00  0.00     0.198 A 
ATOM     84  C   UNL A   1      46.710  22.863  35.052  1.00  0.00     0.198 A 
ATOM     85  F   UNL A   1      44.448  23.244  34.538  1.00  0.00    -0.203 F 
ATOM     86  F   UNL A   1      49.720  24.427  33.778  1.00  0.00    -0.200 F 
ATOM     87  C   UNL A   1      48.052  23.154  34.863  1.00  0.00     0.200 A 
ATOM     88  F   UNL A   1      46.350  21.899  35.911  1.00  0.00    -0.200 F 
ATOM     89  F   UNL A   1      48.990  22.458  35.518  1.00  0.00    -0.200 F 
ENDBRANCH  56  79
ENDBRANCH  30  31
ENDBRANCH  23  25
ENDBRANCH  22  23
ENDBRANCH   1  22
TORSDOF 12
ENDMDL
