MODEL 1
REMARK VINA RESULT:     -13.9      0.000      0.000
REMARK SMILES Cc1[nH]c2ccccc2c1/C=C1/SC(=S)N(c2cccc(C(=O)OCCOC(=O)c3ccc(-c4c5nc(c(-c6c(F)c(F)c(F)c(F)c6F)c6ccc([nH]6)c(-c6c(F)c(F)c(F)c(F)c6F)c6nc(c(-c7c(F)c(F)c(F)c(F)c7F)c7ccc4[nH]7)C=C6)C=C5)cc3)c2)C1=O
REMARK SMILES IDX 25 1 24 2 22 3 23 4 21 5 17 6 18 7 93 8 19 9 20 10 16 11
REMARK SMILES IDX 11 12 12 13 13 14 94 15 14 16 95 17 15 18 10 19 1 20 2 21
REMARK SMILES IDX 3 22 4 23 9 25 5 26 8 27 6 28 7 29 26 30 27 31 28 32 29 33
REMARK SMILES IDX 30 34 31 35 92 36 32 37 91 38 33 39 34 40 35 41 85 42 36 43
REMARK SMILES IDX 90 44 84 45 86 46 37 47 89 48 83 49 82 50 38 52 70 53 50 54
REMARK SMILES IDX 69 55 51 56 54 57 68 58 87 59 52 60 53 61 67 63 88 64 55 65
REMARK SMILES IDX 39 66 40 67 48 68 41 69 42 70 46 71 49 72 43 73 44 74 47 75
REMARK SMILES IDX 45 76 71 77 72 78 80 79 73 80 74 81 78 82 81 83 75 84 76 85
REMARK SMILES IDX 79 86 77 87 56 88 57 89 65 90 58 91 59 92 63 93 66 94 60 95
REMARK SMILES IDX 61 96 64 97 62 98
REMARK H PARENT 3 24 86 51 54 62
REMARK Flexibility Score: inf
ROOT
ATOM      1  C   UNL A   1      41.464  20.203  26.288  1.00  0.00     0.275 C 
ENDROOT
BRANCH   1   2
ATOM      2  O   UNL A   1      40.273  20.995  26.481  1.00  0.00    -0.458 OA
BRANCH   2   3
ATOM      3  C   UNL A   1      39.187  20.629  25.752  1.00  0.00     0.338 C 
ATOM      4  O   UNL A   1      38.966  19.535  25.270  1.00  0.00    -0.246 OA
BRANCH   3   5
ATOM      5  C   UNL A   1      38.201  21.739  25.719  1.00  0.00     0.062 A 
ATOM      6  C   UNL A   1      36.025  22.641  25.150  1.00  0.00     0.051 A 
ATOM      7  C   UNL A   1      36.458  23.906  25.581  1.00  0.00     0.027 A 
ATOM      8  C   UNL A   1      36.921  21.564  25.186  1.00  0.00     0.042 A 
ATOM      9  C   UNL A   1      37.722  24.076  26.136  1.00  0.00     0.003 A 
ATOM     10  C   UNL A   1      38.572  22.982  26.246  1.00  0.00     0.016 A 
BRANCH   6  11
ATOM     11  N   UNL A   1      34.693  22.477  24.668  1.00  0.00    -0.261 N 
ATOM     12  C   UNL A   1      31.700  24.012  23.257  1.00  0.00     0.032 C 
ATOM     13  C   UNL A   1      32.614  23.203  23.812  1.00  0.00     0.081 C 
ATOM     14  S   UNL A   1      32.409  21.501  23.949  1.00  0.00    -0.054 SA
ATOM     15  C   UNL A   1      33.949  23.607  24.341  1.00  0.00     0.270 C 
ATOM     16  C   UNL A   1      34.047  21.254  24.558  1.00  0.00     0.152 C 
ATOM     17  O   UNL A   1      34.320  24.768  24.452  1.00  0.00    -0.268 OA
ATOM     18  S   UNL A   1      34.561  19.724  25.001  1.00  0.00    -0.051 S 
BRANCH  12  19
ATOM     19  C   UNL A   1      31.869  25.405  23.012  1.00  0.00     0.004 A 
ATOM     20  C   UNL A   1      32.586  25.343  20.485  1.00  0.00     0.065 C 
ATOM     21  C   UNL A   1      32.250  25.951  21.800  1.00  0.00     0.020 A 
ATOM     22  N   UNL A   1      32.362  27.307  21.995  1.00  0.00    -0.358 N 
ATOM     23  C   UNL A   1      32.058  27.640  23.295  1.00  0.00     0.046 A 
ATOM     24  H   UNL A   1      32.624  27.953  21.299  1.00  0.00     0.166 HD
ATOM     25  C   UNL A   1      31.727  26.458  23.959  1.00  0.00     0.007 A 
ATOM     26  C   UNL A   1      32.070  28.888  23.929  1.00  0.00     0.027 A 
ATOM     27  C   UNL A   1      31.390  26.526  25.327  1.00  0.00     0.011 A 
ATOM     28  C   UNL A   1      31.735  28.928  25.286  1.00  0.00     0.002 A 
ATOM     29  C   UNL A   1      31.399  27.766  25.976  1.00  0.00     0.001 A 
ENDBRANCH  12  19
ENDBRANCH   6  11
ENDBRANCH   3   5
ENDBRANCH   2   3
ENDBRANCH   1   2
BRANCH   1  30
ATOM     30  C   UNL A   1      42.643  21.071  25.846  1.00  0.00     0.275 C 
BRANCH  30  31
ATOM     31  O   UNL A   1      42.163  22.299  25.271  1.00  0.00    -0.458 OA
BRANCH  31  32
ATOM     32  C   UNL A   1      43.024  23.340  25.309  1.00  0.00     0.338 C 
ATOM     33  O   UNL A   1      44.064  23.480  24.686  1.00  0.00    -0.246 OA
BRANCH  32  34
ATOM     34  C   UNL A   1      42.489  24.378  26.200  1.00  0.00     0.060 A 
ATOM     35  C   UNL A   1      42.958  25.678  26.051  1.00  0.00     0.016 A 
ATOM     36  C   UNL A   1      41.651  24.053  27.261  1.00  0.00     0.016 A 
ATOM     37  C   UNL A   1      42.678  26.646  27.010  1.00  0.00     0.010 A 
ATOM     38  C   UNL A   1      41.281  25.053  28.168  1.00  0.00     0.010 A 
ATOM     39  C   UNL A   1      41.820  26.353  28.075  1.00  0.00    -0.014 A 
BRANCH  39  40
ATOM     40  C   UNL A   1      41.510  27.380  29.109  1.00  0.00     0.031 A 
ATOM     41  C   UNL A   1      42.329  27.444  30.369  1.00  0.00     0.074 A 
ATOM     42  C   UNL A   1      40.491  28.246  28.939  1.00  0.00     0.049 A 
ATOM     43  N   UNL A   1      42.084  28.072  31.491  1.00  0.00    -0.248 NA
ATOM     44  C   UNL A   1      43.586  26.680  30.372  1.00  0.00     0.031 C 
ATOM     45  C   UNL A   1      39.648  28.341  27.746  1.00  0.00     0.029 A 
ATOM     46  N   UNL A   1      39.981  29.205  29.782  1.00  0.00    -0.354 N 
ATOM     47  C   UNL A   1      43.112  27.719  32.356  1.00  0.00     0.074 A 
ATOM     48  C   UNL A   1      43.987  26.826  31.627  1.00  0.00     0.031 C 
ATOM     49  C   UNL A   1      38.736  29.307  27.927  1.00  0.00     0.029 A 
ATOM     50  C   UNL A   1      38.864  29.828  29.283  1.00  0.00     0.049 A 
ATOM     51  H   UNL A   1      40.377  29.422  30.656  1.00  0.00     0.167 HD
ATOM     52  C   UNL A   1      43.298  28.100  33.643  1.00  0.00     0.037 A 
ATOM     53  C   UNL A   1      37.993  30.675  29.866  1.00  0.00     0.037 A 
ATOM     54  C   UNL A   1      42.456  29.040  34.337  1.00  0.00     0.049 A 
ATOM     55  C   UNL A   1      38.201  31.069  31.301  1.00  0.00     0.074 A 
ATOM     56  C   UNL A   1      42.584  29.528  35.626  1.00  0.00     0.029 A 
ATOM     57  N   UNL A   1      41.331  29.644  33.791  1.00  0.00    -0.354 N 
ATOM     58  N   UNL A   1      39.146  30.696  32.128  1.00  0.00    -0.248 NA
ATOM     59  C   UNL A   1      37.213  31.984  31.888  1.00  0.00     0.031 C 
ATOM     60  C   UNL A   1      41.511  30.390  35.876  1.00  0.00     0.029 A 
ATOM     61  C   UNL A   1      40.743  30.482  34.726  1.00  0.00     0.049 A 
ATOM     62  H   UNL A   1      41.000  29.498  32.876  1.00  0.00     0.167 HD
ATOM     63  C   UNL A   1      38.878  31.338  33.329  1.00  0.00     0.074 A 
ATOM     64  C   UNL A   1      37.686  32.134  33.119  1.00  0.00     0.031 C 
ATOM     65  C   UNL A   1      39.559  31.270  34.500  1.00  0.00     0.037 A 
BRANCH  52  66
ATOM     66  C   UNL A   1      44.425  27.458  34.402  1.00  0.00     0.064 A 
ATOM     67  C   UNL A   1      45.709  28.020  34.459  1.00  0.00     0.173 A 
ATOM     68  C   UNL A   1      44.205  26.255  35.092  1.00  0.00     0.173 A 
ATOM     69  F   UNL A   1      45.975  29.162  33.809  1.00  0.00    -0.203 F 
ATOM     70  C   UNL A   1      46.740  27.381  35.146  1.00  0.00     0.198 A 
ATOM     71  C   UNL A   1      45.230  25.637  35.805  1.00  0.00     0.198 A 
ATOM     72  F   UNL A   1      42.995  25.677  35.079  1.00  0.00    -0.203 F 
ATOM     73  F   UNL A   1      47.974  27.905  35.137  1.00  0.00    -0.200 F 
ATOM     74  C   UNL A   1      46.499  26.194  35.822  1.00  0.00     0.200 A 
ATOM     75  F   UNL A   1      44.990  24.497  36.468  1.00  0.00    -0.200 F 
ATOM     76  F   UNL A   1      47.493  25.581  36.479  1.00  0.00    -0.200 F 
ENDBRANCH  52  66
BRANCH  53  77
ATOM     77  C   UNL A   1      36.816  31.150  29.094  1.00  0.00     0.064 A 
ATOM     78  C   UNL A   1      35.729  30.306  28.836  1.00  0.00     0.173 A 
ATOM     79  C   UNL A   1      36.732  32.479  28.648  1.00  0.00     0.173 A 
ATOM     80  F   UNL A   1      35.773  29.022  29.221  1.00  0.00    -0.203 F 
ATOM     81  C   UNL A   1      34.601  30.772  28.164  1.00  0.00     0.198 A 
ATOM     82  C   UNL A   1      35.592  32.952  28.005  1.00  0.00     0.198 A 
ATOM     83  F   UNL A   1      37.746  33.327  28.872  1.00  0.00    -0.203 F 
ATOM     84  F   UNL A   1      33.584  29.939  27.909  1.00  0.00    -0.200 F 
ATOM     85  C   UNL A   1      34.527  32.099  27.761  1.00  0.00     0.200 A 
ATOM     86  F   UNL A   1      35.519  34.238  27.634  1.00  0.00    -0.200 F 
ATOM     87  F   UNL A   1      33.431  32.553  27.138  1.00  0.00    -0.200 F 
ENDBRANCH  53  77
BRANCH  65  88
ATOM     88  C   UNL A   1      39.054  32.104  35.639  1.00  0.00     0.064 A 
ATOM     89  C   UNL A   1      38.222  31.567  36.631  1.00  0.00     0.173 A 
ATOM     90  C   UNL A   1      39.462  33.440  35.773  1.00  0.00     0.173 A 
ATOM     91  F   UNL A   1      37.791  30.300  36.538  1.00  0.00    -0.203 F 
ATOM     92  C   UNL A   1      37.808  32.342  37.712  1.00  0.00     0.198 A 
ATOM     93  C   UNL A   1      39.067  34.203  36.867  1.00  0.00     0.198 A 
ATOM     94  F   UNL A   1      40.262  33.998  34.851  1.00  0.00    -0.203 F 
ATOM     95  F   UNL A   1      36.986  31.818  38.633  1.00  0.00    -0.200 F 
ATOM     96  C   UNL A   1      38.238  33.654  37.834  1.00  0.00     0.200 A 
ATOM     97  F   UNL A   1      39.494  35.468  36.989  1.00  0.00    -0.200 F 
ATOM     98  F   UNL A   1      37.850  34.394  38.882  1.00  0.00    -0.200 F 
ENDBRANCH  65  88
ENDBRANCH  39  40
ENDBRANCH  32  34
ENDBRANCH  31  32
ENDBRANCH  30  31
ENDBRANCH   1  30
TORSDOF 13
ENDMDL
MODEL 2
REMARK VINA RESULT:     -13.7      5.083     10.236
REMARK SMILES Cc1[nH]c2ccccc2c1/C=C1/SC(=S)N(c2cccc(C(=O)OCCOC(=O)c3ccc(-c4c5nc(c(-c6c(F)c(F)c(F)c(F)c6F)c6ccc([nH]6)c(-c6c(F)c(F)c(F)c(F)c6F)c6nc(c(-c7c(F)c(F)c(F)c(F)c7F)c7ccc4[nH]7)C=C6)C=C5)cc3)c2)C1=O
REMARK SMILES IDX 25 1 24 2 22 3 23 4 21 5 17 6 18 7 93 8 19 9 20 10 16 11
REMARK SMILES IDX 11 12 12 13 13 14 94 15 14 16 95 17 15 18 10 19 1 20 2 21
REMARK SMILES IDX 3 22 4 23 9 25 5 26 8 27 6 28 7 29 26 30 27 31 28 32 29 33
REMARK SMILES IDX 30 34 31 35 92 36 32 37 91 38 33 39 34 40 35 41 85 42 36 43
REMARK SMILES IDX 90 44 84 45 86 46 37 47 89 48 83 49 82 50 38 52 70 53 50 54
REMARK SMILES IDX 69 55 51 56 54 57 68 58 87 59 52 60 53 61 67 63 88 64 55 65
REMARK SMILES IDX 39 66 40 67 48 68 41 69 42 70 46 71 49 72 43 73 44 74 47 75
REMARK SMILES IDX 45 76 71 77 72 78 80 79 73 80 74 81 78 82 81 83 75 84 76 85
REMARK SMILES IDX 79 86 77 87 56 88 57 89 65 90 58 91 59 92 63 93 66 94 60 95
REMARK SMILES IDX 61 96 64 97 62 98
REMARK H PARENT 3 24 86 51 54 62
REMARK Flexibility Score: inf
ROOT
ATOM      1  C   UNL A   1      33.411  34.061  28.500  1.00  0.00     0.275 C 
ENDROOT
BRANCH   1   2
ATOM      2  O   UNL A   1      33.700  32.890  27.709  1.00  0.00    -0.458 OA
BRANCH   2   3
ATOM      3  C   UNL A   1      32.625  32.192  27.260  1.00  0.00     0.338 C 
ATOM      4  O   UNL A   1      31.516  32.630  27.026  1.00  0.00    -0.246 OA
BRANCH   3   5
ATOM      5  C   UNL A   1      33.020  30.793  26.955  1.00  0.00     0.062 A 
ATOM      6  C   UNL A   1      32.583  28.619  25.979  1.00  0.00     0.051 A 
ATOM      7  C   UNL A   1      33.783  28.147  26.539  1.00  0.00     0.027 A 
ATOM      8  C   UNL A   1      32.187  29.940  26.226  1.00  0.00     0.042 A 
ATOM      9  C   UNL A   1      34.625  29.002  27.242  1.00  0.00     0.003 A 
ATOM     10  C   UNL A   1      34.263  30.333  27.408  1.00  0.00     0.016 A 
BRANCH   6  11
ATOM     11  N   UNL A   1      31.783  27.744  25.187  1.00  0.00    -0.261 N 
ATOM     12  C   UNL A   1      30.883  24.323  24.300  1.00  0.00     0.032 C 
ATOM     13  C   UNL A   1      31.047  25.651  24.375  1.00  0.00     0.081 C 
ATOM     14  S   UNL A   1      30.072  26.773  23.509  1.00  0.00    -0.054 SA
ATOM     15  C   UNL A   1      32.029  26.375  25.233  1.00  0.00     0.270 C 
ATOM     16  C   UNL A   1      30.798  28.169  24.306  1.00  0.00     0.152 C 
ATOM     17  O   UNL A   1      32.907  25.825  25.884  1.00  0.00    -0.268 OA
ATOM     18  S   UNL A   1      30.340  29.720  23.874  1.00  0.00    -0.051 S 
BRANCH  12  19
ATOM     19  C   UNL A   1      31.581  23.358  25.082  1.00  0.00     0.004 A 
ATOM     20  C   UNL A   1      29.835  22.980  27.008  1.00  0.00     0.065 C 
ATOM     21  C   UNL A   1      31.100  22.792  26.248  1.00  0.00     0.020 A 
ATOM     22  N   UNL A   1      32.091  21.970  26.727  1.00  0.00    -0.358 N 
ATOM     23  C   UNL A   1      33.187  21.991  25.896  1.00  0.00     0.046 A 
ATOM     24  H   UNL A   1      32.026  21.437  27.553  1.00  0.00     0.166 HD
ATOM     25  C   UNL A   1      32.888  22.850  24.838  1.00  0.00     0.007 A 
ATOM     26  C   UNL A   1      34.417  21.334  26.015  1.00  0.00     0.027 A 
ATOM     27  C   UNL A   1      33.867  23.062  23.845  1.00  0.00     0.011 A 
ATOM     28  C   UNL A   1      35.372  21.563  25.019  1.00  0.00     0.002 A 
ATOM     29  C   UNL A   1      35.103  22.413  23.949  1.00  0.00     0.001 A 
ENDBRANCH  12  19
ENDBRANCH   6  11
ENDBRANCH   3   5
ENDBRANCH   2   3
ENDBRANCH   1   2
BRANCH   1  30
ATOM     30  C   UNL A   1      34.053  33.968  29.885  1.00  0.00     0.275 C 
BRANCH  30  31
ATOM     31  O   UNL A   1      34.224  32.589  30.258  1.00  0.00    -0.458 OA
BRANCH  31  32
ATOM     32  C   UNL A   1      35.048  32.364  31.305  1.00  0.00     0.338 C 
ATOM     33  O   UNL A   1      34.882  32.671  32.473  1.00  0.00    -0.246 OA
BRANCH  32  34
ATOM     34  C   UNL A   1      36.214  31.597  30.845  1.00  0.00     0.060 A 
ATOM     35  C   UNL A   1      37.001  30.962  31.800  1.00  0.00     0.016 A 
ATOM     36  C   UNL A   1      36.613  31.622  29.513  1.00  0.00     0.016 A 
ATOM     37  C   UNL A   1      38.240  30.432  31.456  1.00  0.00     0.010 A 
ATOM     38  C   UNL A   1      37.809  30.994  29.148  1.00  0.00     0.010 A 
ATOM     39  C   UNL A   1      38.656  30.424  30.120  1.00  0.00    -0.014 A 
BRANCH  39  40
ATOM     40  C   UNL A   1      39.980  29.858  29.737  1.00  0.00     0.031 A 
ATOM     41  C   UNL A   1      41.198  30.741  29.732  1.00  0.00     0.074 A 
ATOM     42  C   UNL A   1      40.100  28.565  29.377  1.00  0.00     0.049 A 
ATOM     43  N   UNL A   1      42.376  30.532  29.201  1.00  0.00    -0.248 NA
ATOM     44  C   UNL A   1      41.064  32.044  30.401  1.00  0.00     0.031 C 
ATOM     45  C   UNL A   1      39.021  27.576  29.388  1.00  0.00     0.029 A 
ATOM     46  N   UNL A   1      41.187  27.861  28.914  1.00  0.00    -0.354 N 
ATOM     47  C   UNL A   1      43.096  31.703  29.403  1.00  0.00     0.074 A 
ATOM     48  C   UNL A   1      42.224  32.616  30.111  1.00  0.00     0.031 C 
ATOM     49  C   UNL A   1      39.498  26.397  28.965  1.00  0.00     0.029 A 
ATOM     50  C   UNL A   1      40.888  26.570  28.557  1.00  0.00     0.049 A 
ATOM     51  H   UNL A   1      42.090  28.247  28.845  1.00  0.00     0.167 HD
ATOM     52  C   UNL A   1      44.364  31.988  29.021  1.00  0.00     0.037 A 
ATOM     53  C   UNL A   1      41.620  25.642  27.911  1.00  0.00     0.037 A 
ATOM     54  C   UNL A   1      45.243  31.049  28.375  1.00  0.00     0.049 A 
ATOM     55  C   UNL A   1      43.017  25.982  27.474  1.00  0.00     0.074 A 
ATOM     56  C   UNL A   1      46.561  31.223  27.989  1.00  0.00     0.029 A 
ATOM     57  N   UNL A   1      44.894  29.750  28.029  1.00  0.00    -0.354 N 
ATOM     58  N   UNL A   1      43.676  27.105  27.624  1.00  0.00    -0.248 NA
ATOM     59  C   UNL A   1      43.763  24.937  26.762  1.00  0.00     0.031 C 
ATOM     60  C   UNL A   1      46.994  30.046  27.367  1.00  0.00     0.029 A 
ATOM     61  C   UNL A   1      45.964  29.120  27.413  1.00  0.00     0.049 A 
ATOM     62  H   UNL A   1      44.016  29.338  28.196  1.00  0.00     0.167 HD
ATOM     63  C   UNL A   1      44.917  26.901  27.039  1.00  0.00     0.074 A 
ATOM     64  C   UNL A   1      44.924  25.540  26.541  1.00  0.00     0.031 C 
ATOM     65  C   UNL A   1      45.956  27.764  26.926  1.00  0.00     0.037 A 
BRANCH  52  66
ATOM     66  C   UNL A   1      44.858  33.390  29.243  1.00  0.00     0.064 A 
ATOM     67  C   UNL A   1      44.678  34.410  28.298  1.00  0.00     0.173 A 
ATOM     68  C   UNL A   1      45.523  33.714  30.438  1.00  0.00     0.173 A 
ATOM     69  F   UNL A   1      44.060  34.152  27.137  1.00  0.00    -0.203 F 
ATOM     70  C   UNL A   1      45.177  35.691  28.524  1.00  0.00     0.198 A 
ATOM     71  C   UNL A   1      45.991  35.004  30.673  1.00  0.00     0.198 A 
ATOM     72  F   UNL A   1      45.716  32.780  31.381  1.00  0.00    -0.203 F 
ATOM     73  F   UNL A   1      45.046  36.635  27.580  1.00  0.00    -0.200 F 
ATOM     74  C   UNL A   1      45.829  35.989  29.712  1.00  0.00     0.200 A 
ATOM     75  F   UNL A   1      46.608  35.291  31.828  1.00  0.00    -0.200 F 
ATOM     76  F   UNL A   1      46.310  37.221  29.924  1.00  0.00    -0.200 F 
ENDBRANCH  52  66
BRANCH  53  77
ATOM     77  C   UNL A   1      41.007  24.327  27.592  1.00  0.00     0.064 A 
ATOM     78  C   UNL A   1      39.986  24.213  26.641  1.00  0.00     0.173 A 
ATOM     79  C   UNL A   1      41.472  23.147  28.197  1.00  0.00     0.173 A 
ATOM     80  F   UNL A   1      39.493  25.313  26.055  1.00  0.00    -0.203 F 
ATOM     81  C   UNL A   1      39.456  22.970  26.302  1.00  0.00     0.198 A 
ATOM     82  C   UNL A   1      40.963  21.904  27.835  1.00  0.00     0.198 A 
ATOM     83  F   UNL A   1      42.449  23.203  29.114  1.00  0.00    -0.203 F 
ATOM     84  F   UNL A   1      38.465  22.890  25.405  1.00  0.00    -0.200 F 
ATOM     85  C   UNL A   1      39.954  21.815  26.889  1.00  0.00     0.200 A 
ATOM     86  F   UNL A   1      41.460  20.790  28.392  1.00  0.00    -0.200 F 
ATOM     87  F   UNL A   1      39.461  20.618  26.543  1.00  0.00    -0.200 F 
ENDBRANCH  53  77
BRANCH  65  88
ATOM     88  C   UNL A   1      47.203  27.259  26.265  1.00  0.00     0.064 A 
ATOM     89  C   UNL A   1      47.422  27.414  24.889  1.00  0.00     0.173 A 
ATOM     90  C   UNL A   1      48.220  26.669  27.032  1.00  0.00     0.173 A 
ATOM     91  F   UNL A   1      46.472  27.956  24.112  1.00  0.00    -0.203 F 
ATOM     92  C   UNL A   1      48.611  26.987  24.303  1.00  0.00     0.198 A 
ATOM     93  C   UNL A   1      49.417  26.267  26.446  1.00  0.00     0.198 A 
ATOM     94  F   UNL A   1      48.060  26.502  28.353  1.00  0.00    -0.203 F 
ATOM     95  F   UNL A   1      48.787  27.116  22.980  1.00  0.00    -0.200 F 
ATOM     96  C   UNL A   1      49.610  26.424  25.082  1.00  0.00     0.200 A 
ATOM     97  F   UNL A   1      50.385  25.734  27.203  1.00  0.00    -0.200 F 
ATOM     98  F   UNL A   1      50.758  26.027  24.518  1.00  0.00    -0.200 F 
ENDBRANCH  65  88
ENDBRANCH  39  40
ENDBRANCH  32  34
ENDBRANCH  31  32
ENDBRANCH  30  31
ENDBRANCH   1  30
TORSDOF 13
ENDMDL
MODEL 3
REMARK VINA RESULT:     -13.6      4.649      8.949
REMARK SMILES Cc1[nH]c2ccccc2c1/C=C1/SC(=S)N(c2cccc(C(=O)OCCOC(=O)c3ccc(-c4c5nc(c(-c6c(F)c(F)c(F)c(F)c6F)c6ccc([nH]6)c(-c6c(F)c(F)c(F)c(F)c6F)c6nc(c(-c7c(F)c(F)c(F)c(F)c7F)c7ccc4[nH]7)C=C6)C=C5)cc3)c2)C1=O
REMARK SMILES IDX 25 1 24 2 22 3 23 4 21 5 17 6 18 7 93 8 19 9 20 10 16 11
REMARK SMILES IDX 11 12 12 13 13 14 94 15 14 16 95 17 15 18 10 19 1 20 2 21
REMARK SMILES IDX 3 22 4 23 9 25 5 26 8 27 6 28 7 29 26 30 27 31 28 32 29 33
REMARK SMILES IDX 30 34 31 35 92 36 32 37 91 38 33 39 34 40 35 41 85 42 36 43
REMARK SMILES IDX 90 44 84 45 86 46 37 47 89 48 83 49 82 50 38 52 70 53 50 54
REMARK SMILES IDX 69 55 51 56 54 57 68 58 87 59 52 60 53 61 67 63 88 64 55 65
REMARK SMILES IDX 39 66 40 67 48 68 41 69 42 70 46 71 49 72 43 73 44 74 47 75
REMARK SMILES IDX 45 76 71 77 72 78 80 79 73 80 74 81 78 82 81 83 75 84 76 85
REMARK SMILES IDX 79 86 77 87 56 88 57 89 65 90 58 91 59 92 63 93 66 94 60 95
REMARK SMILES IDX 61 96 64 97 62 98
REMARK H PARENT 3 24 86 51 54 62
REMARK Flexibility Score: inf
ROOT
ATOM      1  C   UNL A   1      38.119  20.706  25.370  1.00  0.00     0.275 C 
ENDROOT
BRANCH   1   2
ATOM      2  O   UNL A   1      38.790  21.974  25.526  1.00  0.00    -0.458 OA
BRANCH   2   3
ATOM      3  C   UNL A   1      38.005  23.027  25.872  1.00  0.00     0.338 C 
ATOM      4  O   UNL A   1      38.244  23.870  26.713  1.00  0.00    -0.246 OA
BRANCH   3   5
ATOM      5  C   UNL A   1      36.825  23.098  24.973  1.00  0.00     0.062 A 
ATOM      6  C   UNL A   1      34.440  23.304  24.597  1.00  0.00     0.051 A 
ATOM      7  C   UNL A   1      34.657  23.093  23.225  1.00  0.00     0.027 A 
ATOM      8  C   UNL A   1      35.532  23.266  25.475  1.00  0.00     0.042 A 
ATOM      9  C   UNL A   1      35.946  22.951  22.721  1.00  0.00     0.003 A 
ATOM     10  C   UNL A   1      37.028  23.001  23.590  1.00  0.00     0.016 A 
BRANCH   6  11
ATOM     11  N   UNL A   1      33.116  23.535  25.075  1.00  0.00    -0.261 N 
ATOM     12  C   UNL A   1      30.458  25.926  25.794  1.00  0.00     0.032 C 
ATOM     13  C   UNL A   1      31.254  24.852  25.688  1.00  0.00     0.081 C 
ATOM     14  S   UNL A   1      30.724  23.249  26.014  1.00  0.00    -0.054 SA
ATOM     15  C   UNL A   1      32.674  24.845  25.233  1.00  0.00     0.270 C 
ATOM     16  C   UNL A   1      32.240  22.532  25.463  1.00  0.00     0.152 C 
ATOM     17  O   UNL A   1      33.332  25.856  25.023  1.00  0.00    -0.268 OA
ATOM     18  S   UNL A   1      32.477  20.878  25.562  1.00  0.00    -0.051 S 
BRANCH  12  19
ATOM     19  C   UNL A   1      30.809  27.256  25.423  1.00  0.00     0.004 A 
ATOM     20  C   UNL A   1      29.551  27.440  23.125  1.00  0.00     0.065 C 
ATOM     21  C   UNL A   1      30.398  27.885  24.263  1.00  0.00     0.020 A 
ATOM     22  N   UNL A   1      31.000  29.121  24.248  1.00  0.00    -0.358 N 
ATOM     23  C   UNL A   1      31.778  29.298  25.369  1.00  0.00     0.046 A 
ATOM     24  H   UNL A   1      30.890  29.788  23.533  1.00  0.00     0.166 HD
ATOM     25  C   UNL A   1      31.665  28.139  26.139  1.00  0.00     0.007 A 
ATOM     26  C   UNL A   1      32.582  30.381  25.743  1.00  0.00     0.027 A 
ATOM     27  C   UNL A   1      32.390  28.059  27.346  1.00  0.00     0.011 A 
ATOM     28  C   UNL A   1      33.292  30.276  26.943  1.00  0.00     0.002 A 
ATOM     29  C   UNL A   1      33.199  29.134  27.735  1.00  0.00     0.001 A 
ENDBRANCH  12  19
ENDBRANCH   6  11
ENDBRANCH   3   5
ENDBRANCH   2   3
ENDBRANCH   1   2
BRANCH   1  30
ATOM     30  C   UNL A   1      39.117  19.547  25.370  1.00  0.00     0.275 C 
BRANCH  30  31
ATOM     31  O   UNL A   1      40.044  19.693  26.460  1.00  0.00    -0.458 OA
BRANCH  31  32
ATOM     32  C   UNL A   1      41.349  19.538  26.145  1.00  0.00     0.338 C 
ATOM     33  O   UNL A   1      41.889  18.576  25.626  1.00  0.00    -0.246 OA
BRANCH  32  34
ATOM     34  C   UNL A   1      42.073  20.776  26.465  1.00  0.00     0.060 A 
ATOM     35  C   UNL A   1      42.359  21.044  27.799  1.00  0.00     0.016 A 
ATOM     36  C   UNL A   1      42.340  21.728  25.486  1.00  0.00     0.016 A 
ATOM     37  C   UNL A   1      42.820  22.298  28.185  1.00  0.00     0.010 A 
ATOM     38  C   UNL A   1      42.904  22.952  25.863  1.00  0.00     0.010 A 
ATOM     39  C   UNL A   1      43.117  23.266  27.220  1.00  0.00    -0.014 A 
BRANCH  39  40
ATOM     40  C   UNL A   1      43.613  24.614  27.619  1.00  0.00     0.031 A 
ATOM     41  C   UNL A   1      42.641  25.658  28.097  1.00  0.00     0.074 A 
ATOM     42  C   UNL A   1      44.924  24.917  27.543  1.00  0.00     0.049 A 
ATOM     43  N   UNL A   1      42.811  26.947  28.249  1.00  0.00    -0.248 NA
ATOM     44  C   UNL A   1      41.287  25.188  28.430  1.00  0.00     0.031 C 
ATOM     45  C   UNL A   1      45.989  23.992  27.155  1.00  0.00     0.029 A 
ATOM     46  N   UNL A   1      45.584  26.101  27.776  1.00  0.00    -0.354 N 
ATOM     47  C   UNL A   1      41.571  27.451  28.619  1.00  0.00     0.074 A 
ATOM     48  C   UNL A   1      40.659  26.328  28.675  1.00  0.00     0.031 C 
ATOM     49  C   UNL A   1      47.165  24.634  27.185  1.00  0.00     0.029 A 
ATOM     50  C   UNL A   1      46.926  26.040  27.495  1.00  0.00     0.049 A 
ATOM     51  H   UNL A   1      45.137  26.912  28.110  1.00  0.00     0.167 HD
ATOM     52  C   UNL A   1      41.227  28.736  28.877  1.00  0.00     0.037 A 
ATOM     53  C   UNL A   1      47.857  27.011  27.426  1.00  0.00     0.037 A 
ATOM     54  C   UNL A   1      42.158  29.835  28.881  1.00  0.00     0.049 A 
ATOM     55  C   UNL A   1      47.455  28.434  27.692  1.00  0.00     0.074 A 
ATOM     56  C   UNL A   1      41.922  31.167  29.176  1.00  0.00     0.029 A 
ATOM     57  N   UNL A   1      43.510  29.725  28.587  1.00  0.00    -0.354 N 
ATOM     58  N   UNL A   1      46.273  28.913  27.995  1.00  0.00    -0.248 NA
ATOM     59  C   UNL A   1      48.509  29.452  27.589  1.00  0.00     0.031 C 
ATOM     60  C   UNL A   1      43.120  31.871  29.013  1.00  0.00     0.029 A 
ATOM     61  C   UNL A   1      44.115  30.970  28.670  1.00  0.00     0.049 A 
ATOM     62  H   UNL A   1      43.971  28.887  28.354  1.00  0.00     0.167 HD
ATOM     63  C   UNL A   1      46.440  30.283  28.132  1.00  0.00     0.074 A 
ATOM     64  C   UNL A   1      47.842  30.559  27.890  1.00  0.00     0.031 C 
ATOM     65  C   UNL A   1      45.513  31.227  28.429  1.00  0.00     0.037 A 
BRANCH  52  66
ATOM     66  C   UNL A   1      39.775  29.032  29.123  1.00  0.00     0.064 A 
ATOM     67  C   UNL A   1      39.219  29.052  30.411  1.00  0.00     0.173 A 
ATOM     68  C   UNL A   1      38.925  29.308  28.039  1.00  0.00     0.173 A 
ATOM     69  F   UNL A   1      39.983  28.784  31.480  1.00  0.00    -0.203 F 
ATOM     70  C   UNL A   1      37.860  29.298  30.600  1.00  0.00     0.198 A 
ATOM     71  C   UNL A   1      37.575  29.587  28.236  1.00  0.00     0.198 A 
ATOM     72  F   UNL A   1      39.405  29.311  26.787  1.00  0.00    -0.203 F 
ATOM     73  F   UNL A   1      37.339  29.252  31.835  1.00  0.00    -0.200 F 
ATOM     74  C   UNL A   1      37.041  29.570  29.515  1.00  0.00     0.200 A 
ATOM     75  F   UNL A   1      36.789  29.863  27.186  1.00  0.00    -0.200 F 
ATOM     76  F   UNL A   1      35.735  29.804  29.700  1.00  0.00    -0.200 F 
ENDBRANCH  52  66
BRANCH  53  77
ATOM     77  C   UNL A   1      49.244  26.659  27.027  1.00  0.00     0.064 A 
ATOM     78  C   UNL A   1      49.628  26.631  25.681  1.00  0.00     0.173 A 
ATOM     79  C   UNL A   1      50.230  26.397  27.994  1.00  0.00     0.173 A 
ATOM     80  F   UNL A   1      48.718  26.851  24.722  1.00  0.00    -0.203 F 
ATOM     81  C   UNL A   1      50.945  26.360  25.315  1.00  0.00     0.198 A 
ATOM     82  C   UNL A   1      51.551  26.156  27.628  1.00  0.00     0.198 A 
ATOM     83  F   UNL A   1      49.912  26.412  29.297  1.00  0.00    -0.203 F 
ATOM     84  F   UNL A   1      51.282  26.318  24.020  1.00  0.00    -0.200 F 
ATOM     85  C   UNL A   1      51.908  26.136  26.290  1.00  0.00     0.200 A 
ATOM     86  F   UNL A   1      52.480  25.958  28.574  1.00  0.00    -0.200 F 
ATOM     87  F   UNL A   1      53.179  25.900  25.937  1.00  0.00    -0.200 F 
ENDBRANCH  53  77
BRANCH  65  88
ATOM     88  C   UNL A   1      45.985  32.645  28.544  1.00  0.00     0.064 A 
ATOM     89  C   UNL A   1      45.915  33.533  27.463  1.00  0.00     0.173 A 
ATOM     90  C   UNL A   1      46.454  33.136  29.772  1.00  0.00     0.173 A 
ATOM     91  F   UNL A   1      45.490  33.106  26.264  1.00  0.00    -0.203 F 
ATOM     92  C   UNL A   1      46.307  34.862  27.604  1.00  0.00     0.198 A 
ATOM     93  C   UNL A   1      46.822  34.471  29.916  1.00  0.00     0.198 A 
ATOM     94  F   UNL A   1      46.537  32.326  30.838  1.00  0.00    -0.203 F 
ATOM     95  F   UNL A   1      46.262  35.688  26.548  1.00  0.00    -0.200 F 
ATOM     96  C   UNL A   1      46.750  35.332  28.831  1.00  0.00     0.200 A 
ATOM     97  F   UNL A   1      47.239  34.925  31.106  1.00  0.00    -0.200 F 
ATOM     98  F   UNL A   1      47.114  36.614  28.968  1.00  0.00    -0.200 F 
ENDBRANCH  65  88
ENDBRANCH  39  40
ENDBRANCH  32  34
ENDBRANCH  31  32
ENDBRANCH  30  31
ENDBRANCH   1  30
TORSDOF 13
ENDMDL
