MODEL 1
REMARK VINA RESULT:     -13.3      0.000      0.000
REMARK SMILES O=C1CC[C@@H](CC(=O)N2CCC(Oc3ccccc3)(C(=O)OCCOC(=O)c3ccc(-c4c5nc(c(-c6c(F)c(F)c(F)c(F)c6F)c6ccc([nH]6)c(-c6c(F)c(F)c(F)c(F)c6F)c6nc(c(-c7c(F)c(F)c(F)c(F)c7F)c7ccc4[nH]7)C=C6)C=C5)cc3)CC2)N1
REMARK SMILES IDX 23 1 22 2 20 3 21 4 12 5 7 6 8 7 9 8 10 9 92 10 11 11 91 12
REMARK SMILES IDX 6 13 5 14 1 15 2 16 3 17 93 18 4 19 13 21 14 22 15 23 19 24
REMARK SMILES IDX 16 25 18 26 17 27 24 28 25 29 26 30 27 31 28 32 29 33 90 34
REMARK SMILES IDX 30 35 89 36 31 37 32 38 33 39 83 40 34 41 88 42 82 43 84 44
REMARK SMILES IDX 35 45 87 46 81 47 80 48 36 50 68 51 48 52 67 53 49 54 52 55
REMARK SMILES IDX 66 56 85 57 50 58 51 59 65 61 86 62 53 63 37 64 38 65 46 66
REMARK SMILES IDX 39 67 40 68 44 69 47 70 41 71 42 72 45 73 43 74 69 75 70 76
REMARK SMILES IDX 78 77 71 78 72 79 76 80 79 81 73 82 74 83 77 84 75 85 54 86
REMARK SMILES IDX 55 87 63 88 56 89 57 90 61 91 64 92 58 93 59 94 62 95 60 96
REMARK H PARENT 93 20 84 49 52 60
REMARK Flexibility Score: inf
ROOT
ATOM      1  C   UNL A   1      36.071  19.952  25.001  1.00  0.00     0.274 C 
ENDROOT
BRANCH   1   2
ATOM      2  O   UNL A   1      35.397  21.188  24.673  1.00  0.00    -0.459 OA
BRANCH   2   3
ATOM      3  C   UNL A   1      34.401  21.564  25.521  1.00  0.00     0.350 C 
ATOM      4  O   UNL A   1      34.503  21.515  26.745  1.00  0.00    -0.247 OA
BRANCH   3   5
ATOM      5  C   UNL A   1      33.113  22.036  24.804  1.00  0.00     0.209 C 
ATOM      6  C   UNL A   1      33.226  25.678  22.781  1.00  0.00     0.224 C 
ATOM      7  O   UNL A   1      32.761  25.569  21.641  1.00  0.00    -0.275 OA
ATOM      8  N   UNL A   1      33.683  24.569  23.474  1.00  0.00    -0.342 N 
ATOM      9  C   UNL A   1      34.026  23.337  22.766  1.00  0.00     0.124 C 
ATOM     10  C   UNL A   1      33.760  24.459  24.911  1.00  0.00     0.124 C 
ATOM     11  C   UNL A   1      33.233  22.130  23.266  1.00  0.00     0.082 C 
ATOM     12  C   UNL A   1      32.764  23.420  25.399  1.00  0.00     0.082 C 
BRANCH   6  13
ATOM     13  C   UNL A   1      33.485  27.080  23.335  1.00  0.00     0.125 C 
BRANCH  13  14
ATOM     14  C   UNL A   1      32.373  28.114  23.541  1.00  0.00     0.091 C 
ATOM     15  O   UNL A   1      29.901  29.603  21.550  1.00  0.00    -0.275 OA
ATOM     16  C   UNL A   1      30.521  28.973  22.377  1.00  0.00     0.220 C 
ATOM     17  C   UNL A   1      29.931  28.230  23.546  1.00  0.00     0.102 C 
ATOM     18  N   UNL A   1      31.892  28.809  22.390  1.00  0.00    -0.353 N 
ATOM     19  C   UNL A   1      31.119  27.513  24.172  1.00  0.00     0.035 C 
ATOM     20  H   UNL A   1      32.482  29.140  21.675  1.00  0.00     0.163 HD
ENDBRANCH  13  14
ENDBRANCH   6  13
BRANCH   5  21
ATOM     21  O   UNL A   1      32.202  20.960  25.183  1.00  0.00    -0.475 OA
BRANCH  21  22
ATOM     22  C   UNL A   1      32.449  19.751  24.598  1.00  0.00     0.121 A 
ATOM     23  C   UNL A   1      32.211  19.589  23.235  1.00  0.00     0.046 A 
ATOM     24  C   UNL A   1      32.893  18.676  25.366  1.00  0.00     0.046 A 
ATOM     25  C   UNL A   1      32.528  18.379  22.618  1.00  0.00     0.004 A 
ATOM     26  C   UNL A   1      33.219  17.470  24.748  1.00  0.00     0.004 A 
ATOM     27  C   UNL A   1      33.050  17.327  23.371  1.00  0.00     0.000 A 
ENDBRANCH  21  22
ENDBRANCH   5  21
ENDBRANCH   3   5
ENDBRANCH   2   3
ENDBRANCH   1   2
BRANCH   1  28
ATOM     28  C   UNL A   1      37.586  20.087  24.847  1.00  0.00     0.275 C 
BRANCH  28  29
ATOM     29  O   UNL A   1      38.052  21.252  25.555  1.00  0.00    -0.458 OA
BRANCH  29  30
ATOM     30  C   UNL A   1      39.274  21.163  26.126  1.00  0.00     0.338 C 
ATOM     31  O   UNL A   1      40.021  20.198  26.120  1.00  0.00    -0.246 OA
BRANCH  30  32
ATOM     32  C   UNL A   1      39.659  22.457  26.735  1.00  0.00     0.060 A 
ATOM     33  C   UNL A   1      39.052  23.629  26.307  1.00  0.00     0.016 A 
ATOM     34  C   UNL A   1      40.759  22.535  27.595  1.00  0.00     0.016 A 
ATOM     35  C   UNL A   1      39.646  24.856  26.598  1.00  0.00     0.010 A 
ATOM     36  C   UNL A   1      41.257  23.789  28.006  1.00  0.00     0.010 A 
ATOM     37  C   UNL A   1      40.755  24.982  27.463  1.00  0.00    -0.014 A 
BRANCH  37  38
ATOM     38  C   UNL A   1      41.389  26.336  27.705  1.00  0.00     0.031 A 
ATOM     39  C   UNL A   1      40.687  27.436  28.496  1.00  0.00     0.074 A 
ATOM     40  C   UNL A   1      42.679  26.564  27.364  1.00  0.00     0.049 A 
ATOM     41  N   UNL A   1      41.128  28.635  28.813  1.00  0.00    -0.248 NA
ATOM     42  C   UNL A   1      39.359  27.141  29.062  1.00  0.00     0.031 C 
ATOM     43  C   UNL A   1      43.556  25.612  26.679  1.00  0.00     0.029 A 
ATOM     44  N   UNL A   1      43.502  27.649  27.590  1.00  0.00    -0.354 N 
ATOM     45  C   UNL A   1      40.152  29.219  29.616  1.00  0.00     0.074 A 
ATOM     46  C   UNL A   1      39.081  28.255  29.730  1.00  0.00     0.031 C 
ATOM     47  C   UNL A   1      44.803  26.098  26.647  1.00  0.00     0.029 A 
ATOM     48  C   UNL A   1      44.786  27.475  27.124  1.00  0.00     0.049 A 
ATOM     49  H   UNL A   1      43.200  28.470  28.040  1.00  0.00     0.167 HD
ATOM     50  C   UNL A   1      40.142  30.436  30.216  1.00  0.00     0.037 A 
ATOM     51  C   UNL A   1      45.824  28.327  26.993  1.00  0.00     0.037 A 
ATOM     52  C   UNL A   1      41.166  31.443  30.091  1.00  0.00     0.049 A 
ATOM     53  C   UNL A   1      45.669  29.760  27.408  1.00  0.00     0.074 A 
ATOM     54  C   UNL A   1      41.173  32.732  30.602  1.00  0.00     0.029 A 
ATOM     55  N   UNL A   1      42.350  31.290  29.395  1.00  0.00    -0.354 N 
ATOM     56  N   UNL A   1      44.699  30.324  28.080  1.00  0.00    -0.248 NA
ATOM     57  C   UNL A   1      46.734  30.688  26.997  1.00  0.00     0.031 C 
ATOM     58  C   UNL A   1      42.324  33.384  30.146  1.00  0.00     0.029 A 
ATOM     59  C   UNL A   1      43.063  32.482  29.404  1.00  0.00     0.049 A 
ATOM     60  H   UNL A   1      42.645  30.459  28.958  1.00  0.00     0.167 HD
ATOM     61  C   UNL A   1      45.029  31.670  28.164  1.00  0.00     0.074 A 
ATOM     62  C   UNL A   1      46.307  31.835  27.508  1.00  0.00     0.031 C 
ATOM     63  C   UNL A   1      44.318  32.676  28.728  1.00  0.00     0.037 A 
BRANCH  50  64
ATOM     64  C   UNL A   1      38.935  30.801  31.034  1.00  0.00     0.064 A 
ATOM     65  C   UNL A   1      38.897  30.606  32.422  1.00  0.00     0.173 A 
ATOM     66  C   UNL A   1      37.846  31.445  30.427  1.00  0.00     0.173 A 
ATOM     67  F   UNL A   1      39.909  29.985  33.045  1.00  0.00    -0.203 F 
ATOM     68  C   UNL A   1      37.807  31.045  33.173  1.00  0.00     0.198 A 
ATOM     69  C   UNL A   1      36.769  31.897  31.183  1.00  0.00     0.198 A 
ATOM     70  F   UNL A   1      37.844  31.661  29.103  1.00  0.00    -0.203 F 
ATOM     71  F   UNL A   1      37.780  30.837  34.497  1.00  0.00    -0.200 F 
ATOM     72  C   UNL A   1      36.749  31.696  32.555  1.00  0.00     0.200 A 
ATOM     73  F   UNL A   1      35.755  32.536  30.584  1.00  0.00    -0.200 F 
ATOM     74  F   UNL A   1      35.709  32.129  33.280  1.00  0.00    -0.200 F 
ENDBRANCH  50  64
BRANCH  51  75
ATOM     75  C   UNL A   1      47.057  27.877  26.288  1.00  0.00     0.064 A 
ATOM     76  C   UNL A   1      48.216  27.510  26.984  1.00  0.00     0.173 A 
ATOM     77  C   UNL A   1      47.096  27.818  24.883  1.00  0.00     0.173 A 
ATOM     78  F   UNL A   1      48.251  27.599  28.321  1.00  0.00    -0.203 F 
ATOM     79  C   UNL A   1      49.358  27.090  26.303  1.00  0.00     0.198 A 
ATOM     80  C   UNL A   1      48.218  27.352  24.208  1.00  0.00     0.198 A 
ATOM     81  F   UNL A   1      46.025  28.188  24.165  1.00  0.00    -0.203 F 
ATOM     82  F   UNL A   1      50.470  26.791  26.986  1.00  0.00    -0.200 F 
ATOM     83  C   UNL A   1      49.352  26.995  24.918  1.00  0.00     0.200 A 
ATOM     84  F   UNL A   1      48.195  27.247  22.873  1.00  0.00    -0.200 F 
ATOM     85  F   UNL A   1      50.442  26.570  24.267  1.00  0.00    -0.200 F 
ENDBRANCH  51  75
BRANCH  63  86
ATOM     86  C   UNL A   1      44.893  34.060  28.645  1.00  0.00     0.064 A 
ATOM     87  C   UNL A   1      44.528  34.939  27.613  1.00  0.00     0.173 A 
ATOM     88  C   UNL A   1      45.801  34.525  29.607  1.00  0.00     0.173 A 
ATOM     89  F   UNL A   1      43.676  34.538  26.657  1.00  0.00    -0.203 F 
ATOM     90  C   UNL A   1      45.073  36.218  27.531  1.00  0.00     0.198 A 
ATOM     91  C   UNL A   1      46.323  35.815  29.539  1.00  0.00     0.198 A 
ATOM     92  F   UNL A   1      46.182  33.730  30.619  1.00  0.00    -0.203 F 
ATOM     93  F   UNL A   1      44.749  37.018  26.506  1.00  0.00    -0.200 F 
ATOM     94  C   UNL A   1      45.965  36.657  28.497  1.00  0.00     0.200 A 
ATOM     95  F   UNL A   1      47.176  36.242  30.480  1.00  0.00    -0.200 F 
ATOM     96  F   UNL A   1      46.487  37.888  28.419  1.00  0.00    -0.200 F 
ENDBRANCH  63  86
ENDBRANCH  37  38
ENDBRANCH  30  32
ENDBRANCH  29  30
ENDBRANCH  28  29
ENDBRANCH   1  28
TORSDOF 15
ENDMDL
MODEL 2
REMARK VINA RESULT:     -13.2      4.315     10.295
REMARK SMILES O=C1CC[C@@H](CC(=O)N2CCC(Oc3ccccc3)(C(=O)OCCOC(=O)c3ccc(-c4c5nc(c(-c6c(F)c(F)c(F)c(F)c6F)c6ccc([nH]6)c(-c6c(F)c(F)c(F)c(F)c6F)c6nc(c(-c7c(F)c(F)c(F)c(F)c7F)c7ccc4[nH]7)C=C6)C=C5)cc3)CC2)N1
REMARK SMILES IDX 23 1 22 2 20 3 21 4 12 5 7 6 8 7 9 8 10 9 92 10 11 11 91 12
REMARK SMILES IDX 6 13 5 14 1 15 2 16 3 17 93 18 4 19 13 21 14 22 15 23 19 24
REMARK SMILES IDX 16 25 18 26 17 27 24 28 25 29 26 30 27 31 28 32 29 33 90 34
REMARK SMILES IDX 30 35 89 36 31 37 32 38 33 39 83 40 34 41 88 42 82 43 84 44
REMARK SMILES IDX 35 45 87 46 81 47 80 48 36 50 68 51 48 52 67 53 49 54 52 55
REMARK SMILES IDX 66 56 85 57 50 58 51 59 65 61 86 62 53 63 37 64 38 65 46 66
REMARK SMILES IDX 39 67 40 68 44 69 47 70 41 71 42 72 45 73 43 74 69 75 70 76
REMARK SMILES IDX 78 77 71 78 72 79 76 80 79 81 73 82 74 83 77 84 75 85 54 86
REMARK SMILES IDX 55 87 63 88 56 89 57 90 61 91 64 92 58 93 59 94 62 95 60 96
REMARK H PARENT 93 20 84 49 52 60
REMARK Flexibility Score: inf
ROOT
ATOM      1  C   UNL A   1      31.028  30.639  25.305  1.00  0.00     0.274 C 
ENDROOT
BRANCH   1   2
ATOM      2  O   UNL A   1      31.513  29.287  25.467  1.00  0.00    -0.459 OA
BRANCH   2   3
ATOM      3  C   UNL A   1      32.192  28.768  24.408  1.00  0.00     0.350 C 
ATOM      4  O   UNL A   1      33.162  29.320  23.894  1.00  0.00    -0.247 OA
BRANCH   3   5
ATOM      5  C   UNL A   1      31.613  27.429  23.889  1.00  0.00     0.209 C 
ATOM      6  C   UNL A   1      31.994  24.065  26.319  1.00  0.00     0.224 C 
ATOM      7  O   UNL A   1      30.918  23.469  26.428  1.00  0.00    -0.275 OA
ATOM      8  N   UNL A   1      32.039  25.396  25.937  1.00  0.00    -0.342 N 
ATOM      9  C   UNL A   1      30.855  26.245  26.058  1.00  0.00     0.124 C 
ATOM     10  C   UNL A   1      33.160  26.041  25.299  1.00  0.00     0.124 C 
ATOM     11  C   UNL A   1      30.441  26.869  24.726  1.00  0.00     0.082 C 
ATOM     12  C   UNL A   1      32.788  26.423  23.875  1.00  0.00     0.082 C 
BRANCH   6  13
ATOM     13  C   UNL A   1      33.267  23.375  26.817  1.00  0.00     0.125 C 
BRANCH  13  14
ATOM     14  C   UNL A   1      33.745  22.022  26.280  1.00  0.00     0.091 C 
ATOM     15  O   UNL A   1      32.248  18.983  25.376  1.00  0.00    -0.275 OA
ATOM     16  C   UNL A   1      32.829  20.045  25.400  1.00  0.00     0.220 C 
ATOM     17  C   UNL A   1      33.574  20.670  24.251  1.00  0.00     0.102 C 
ATOM     18  N   UNL A   1      32.902  20.889  26.491  1.00  0.00    -0.353 N 
ATOM     19  C   UNL A   1      33.989  22.038  24.773  1.00  0.00     0.035 C 
ATOM     20  H   UNL A   1      32.420  20.725  27.333  1.00  0.00     0.163 HD
ENDBRANCH  13  14
ENDBRANCH   6  13
BRANCH   5  21
ATOM     21  O   UNL A   1      31.150  27.846  22.570  1.00  0.00    -0.475 OA
BRANCH  21  22
ATOM     22  C   UNL A   1      29.992  28.572  22.559  1.00  0.00     0.121 A 
ATOM     23  C   UNL A   1      28.826  28.007  23.070  1.00  0.00     0.046 A 
ATOM     24  C   UNL A   1      29.969  29.849  22.001  1.00  0.00     0.046 A 
ATOM     25  C   UNL A   1      27.658  28.768  23.127  1.00  0.00     0.004 A 
ATOM     26  C   UNL A   1      28.804  30.612  22.067  1.00  0.00     0.004 A 
ATOM     27  C   UNL A   1      27.653  30.076  22.643  1.00  0.00     0.000 A 
ENDBRANCH  21  22
ENDBRANCH   5  21
ENDBRANCH   3   5
ENDBRANCH   2   3
ENDBRANCH   1   2
BRANCH   1  28
ATOM     28  C   UNL A   1      31.406  31.513  26.501  1.00  0.00     0.275 C 
BRANCH  28  29
ATOM     29  O   UNL A   1      32.681  31.099  27.031  1.00  0.00    -0.458 OA
BRANCH  29  30
ATOM     30  C   UNL A   1      33.494  32.081  27.484  1.00  0.00     0.338 C 
ATOM     31  O   UNL A   1      33.215  33.260  27.626  1.00  0.00    -0.246 OA
BRANCH  30  32
ATOM     32  C   UNL A   1      34.811  31.527  27.874  1.00  0.00     0.060 A 
ATOM     33  C   UNL A   1      34.939  30.168  28.129  1.00  0.00     0.016 A 
ATOM     34  C   UNL A   1      35.876  32.380  28.176  1.00  0.00     0.016 A 
ATOM     35  C   UNL A   1      36.050  29.705  28.833  1.00  0.00     0.010 A 
ATOM     36  C   UNL A   1      37.059  31.870  28.749  1.00  0.00     0.010 A 
ATOM     37  C   UNL A   1      37.149  30.530  29.155  1.00  0.00    -0.014 A 
BRANCH  37  38
ATOM     38  C   UNL A   1      38.307  29.982  29.964  1.00  0.00     0.031 A 
ATOM     39  C   UNL A   1      39.334  29.023  29.372  1.00  0.00     0.074 A 
ATOM     40  C   UNL A   1      38.565  30.457  31.206  1.00  0.00     0.049 A 
ATOM     41  N   UNL A   1      40.402  28.502  29.940  1.00  0.00    -0.248 NA
ATOM     42  C   UNL A   1      39.196  28.651  27.953  1.00  0.00     0.031 C 
ATOM     43  C   UNL A   1      37.756  31.445  31.922  1.00  0.00     0.029 A 
ATOM     44  N   UNL A   1      39.611  30.214  32.073  1.00  0.00    -0.354 N 
ATOM     45  C   UNL A   1      41.058  27.767  28.957  1.00  0.00     0.074 A 
ATOM     46  C   UNL A   1      40.265  27.889  27.753  1.00  0.00     0.031 C 
ATOM     47  C   UNL A   1      38.386  31.806  33.046  1.00  0.00     0.029 A 
ATOM     48  C   UNL A   1      39.541  30.939  33.241  1.00  0.00     0.049 A 
ATOM     49  H   UNL A   1      40.339  29.581  31.876  1.00  0.00     0.167 HD
ATOM     50  C   UNL A   1      42.216  27.063  29.032  1.00  0.00     0.037 A 
ATOM     51  C   UNL A   1      40.245  30.875  34.390  1.00  0.00     0.037 A 
ATOM     52  C   UNL A   1      43.011  26.878  30.220  1.00  0.00     0.049 A 
ATOM     53  C   UNL A   1      41.345  29.865  34.535  1.00  0.00     0.074 A 
ATOM     54  C   UNL A   1      44.148  26.102  30.384  1.00  0.00     0.029 A 
ATOM     55  N   UNL A   1      42.748  27.453  31.450  1.00  0.00    -0.354 N 
ATOM     56  N   UNL A   1      41.892  29.105  33.622  1.00  0.00    -0.248 NA
ATOM     57  C   UNL A   1      41.889  29.667  35.887  1.00  0.00     0.031 C 
ATOM     58  C   UNL A   1      44.523  26.143  31.731  1.00  0.00     0.029 A 
ATOM     59  C   UNL A   1      43.658  26.995  32.393  1.00  0.00     0.049 A 
ATOM     60  H   UNL A   1      42.022  28.094  31.630  1.00  0.00     0.167 HD
ATOM     61  C   UNL A   1      42.834  28.333  34.288  1.00  0.00     0.074 A 
ATOM     62  C   UNL A   1      42.814  28.741  35.675  1.00  0.00     0.031 C 
ATOM     63  C   UNL A   1      43.633  27.361  33.784  1.00  0.00     0.037 A 
BRANCH  50  64
ATOM     64  C   UNL A   1      42.687  26.359  27.791  1.00  0.00     0.064 A 
ATOM     65  C   UNL A   1      43.620  26.941  26.921  1.00  0.00     0.173 A 
ATOM     66  C   UNL A   1      42.269  25.045  27.529  1.00  0.00     0.173 A 
ATOM     67  F   UNL A   1      44.040  28.198  27.124  1.00  0.00    -0.203 F 
ATOM     68  C   UNL A   1      44.118  26.228  25.831  1.00  0.00     0.198 A 
ATOM     69  C   UNL A   1      42.782  24.332  26.450  1.00  0.00     0.198 A 
ATOM     70  F   UNL A   1      41.385  24.446  28.340  1.00  0.00    -0.203 F 
ATOM     71  F   UNL A   1      44.998  26.805  25.001  1.00  0.00    -0.200 F 
ATOM     72  C   UNL A   1      43.705  24.924  25.601  1.00  0.00     0.200 A 
ATOM     73  F   UNL A   1      42.390  23.068  26.239  1.00  0.00    -0.200 F 
ATOM     74  F   UNL A   1      44.195  24.236  24.561  1.00  0.00    -0.200 F 
ENDBRANCH  50  64
BRANCH  51  75
ATOM     75  C   UNL A   1      39.818  31.695  35.558  1.00  0.00     0.064 A 
ATOM     76  C   UNL A   1      40.444  32.905  35.882  1.00  0.00     0.173 A 
ATOM     77  C   UNL A   1      38.767  31.264  36.388  1.00  0.00     0.173 A 
ATOM     78  F   UNL A   1      41.486  33.336  35.157  1.00  0.00    -0.203 F 
ATOM     79  C   UNL A   1      40.025  33.658  36.980  1.00  0.00     0.198 A 
ATOM     80  C   UNL A   1      38.319  32.039  37.451  1.00  0.00     0.198 A 
ATOM     81  F   UNL A   1      38.152  30.097  36.143  1.00  0.00    -0.203 F 
ATOM     82  F   UNL A   1      40.670  34.787  37.299  1.00  0.00    -0.200 F 
ATOM     83  C   UNL A   1      38.953  33.232  37.752  1.00  0.00     0.200 A 
ATOM     84  F   UNL A   1      37.271  31.628  38.179  1.00  0.00    -0.200 F 
ATOM     85  F   UNL A   1      38.539  33.967  38.792  1.00  0.00    -0.200 F 
ENDBRANCH  51  75
BRANCH  63  86
ATOM     86  C   UNL A   1      44.544  26.649  34.740  1.00  0.00     0.064 A 
ATOM     87  C   UNL A   1      44.167  25.436  35.337  1.00  0.00     0.173 A 
ATOM     88  C   UNL A   1      45.810  27.166  35.054  1.00  0.00     0.173 A 
ATOM     89  F   UNL A   1      42.960  24.907  35.084  1.00  0.00    -0.203 F 
ATOM     90  C   UNL A   1      45.009  24.784  36.235  1.00  0.00     0.198 A 
ATOM     91  C   UNL A   1      46.662  26.497  35.930  1.00  0.00     0.198 A 
ATOM     92  F   UNL A   1      46.224  28.320  34.509  1.00  0.00    -0.203 F 
ATOM     93  F   UNL A   1      44.604  23.654  36.832  1.00  0.00    -0.200 F 
ATOM     94  C   UNL A   1      46.258  25.311  36.526  1.00  0.00     0.200 A 
ATOM     95  F   UNL A   1      47.873  27.002  36.201  1.00  0.00    -0.200 F 
ATOM     96  F   UNL A   1      47.069  24.682  37.387  1.00  0.00    -0.200 F 
ENDBRANCH  63  86
ENDBRANCH  37  38
ENDBRANCH  30  32
ENDBRANCH  29  30
ENDBRANCH  28  29
ENDBRANCH   1  28
TORSDOF 15
ENDMDL
MODEL 3
REMARK VINA RESULT:     -12.5      1.557      4.548
REMARK SMILES O=C1CC[C@@H](CC(=O)N2CCC(Oc3ccccc3)(C(=O)OCCOC(=O)c3ccc(-c4c5nc(c(-c6c(F)c(F)c(F)c(F)c6F)c6ccc([nH]6)c(-c6c(F)c(F)c(F)c(F)c6F)c6nc(c(-c7c(F)c(F)c(F)c(F)c7F)c7ccc4[nH]7)C=C6)C=C5)cc3)CC2)N1
REMARK SMILES IDX 23 1 22 2 20 3 21 4 12 5 7 6 8 7 9 8 10 9 92 10 11 11 91 12
REMARK SMILES IDX 6 13 5 14 1 15 2 16 3 17 93 18 4 19 13 21 14 22 15 23 19 24
REMARK SMILES IDX 16 25 18 26 17 27 24 28 25 29 26 30 27 31 28 32 29 33 90 34
REMARK SMILES IDX 30 35 89 36 31 37 32 38 33 39 83 40 34 41 88 42 82 43 84 44
REMARK SMILES IDX 35 45 87 46 81 47 80 48 36 50 68 51 48 52 67 53 49 54 52 55
REMARK SMILES IDX 66 56 85 57 50 58 51 59 65 61 86 62 53 63 37 64 38 65 46 66
REMARK SMILES IDX 39 67 40 68 44 69 47 70 41 71 42 72 45 73 43 74 69 75 70 76
REMARK SMILES IDX 78 77 71 78 72 79 76 80 79 81 73 82 74 83 77 84 75 85 54 86
REMARK SMILES IDX 55 87 63 88 56 89 57 90 61 91 64 92 58 93 59 94 62 95 60 96
REMARK H PARENT 93 20 84 49 52 60
REMARK Flexibility Score: inf
ROOT
ATOM      1  C   UNL A   1      36.991  22.530  23.655  1.00  0.00     0.274 C 
ENDROOT
BRANCH   1   2
ATOM      2  O   UNL A   1      36.279  23.413  24.552  1.00  0.00    -0.459 OA
BRANCH   2   3
ATOM      3  C   UNL A   1      35.107  23.920  24.081  1.00  0.00     0.350 C 
ATOM      4  O   UNL A   1      35.029  24.603  23.062  1.00  0.00    -0.247 OA
BRANCH   3   5
ATOM      5  C   UNL A   1      33.880  23.580  24.962  1.00  0.00     0.209 C 
ATOM      6  C   UNL A   1      32.779  19.577  25.320  1.00  0.00     0.224 C 
ATOM      7  O   UNL A   1      32.602  19.267  26.502  1.00  0.00    -0.275 OA
ATOM      8  N   UNL A   1      33.539  20.684  24.977  1.00  0.00    -0.342 N 
ATOM      9  C   UNL A   1      34.484  21.262  25.932  1.00  0.00     0.124 C 
ATOM     10  C   UNL A   1      33.415  21.431  23.750  1.00  0.00     0.124 C 
ATOM     11  C   UNL A   1      34.204  22.737  26.216  1.00  0.00     0.082 C 
ATOM     12  C   UNL A   1      32.885  22.824  24.051  1.00  0.00     0.082 C 
BRANCH   6  13
ATOM     13  C   UNL A   1      32.325  18.601  24.231  1.00  0.00     0.125 C 
BRANCH  13  14
ATOM     14  C   UNL A   1      32.882  17.180  24.102  1.00  0.00     0.091 C 
ATOM     15  O   UNL A   1      35.628  15.410  25.376  1.00  0.00    -0.275 OA
ATOM     16  C   UNL A   1      34.527  15.828  25.098  1.00  0.00     0.220 C 
ATOM     17  C   UNL A   1      33.218  15.190  25.481  1.00  0.00     0.102 C 
ATOM     18  N   UNL A   1      34.268  16.982  24.385  1.00  0.00    -0.353 N 
ATOM     19  C   UNL A   1      32.165  16.181  25.005  1.00  0.00     0.035 C 
ATOM     20  H   UNL A   1      34.971  17.608  24.098  1.00  0.00     0.163 HD
ENDBRANCH  13  14
ENDBRANCH   6  13
BRANCH   5  21
ATOM     21  O   UNL A   1      33.460  24.926  25.342  1.00  0.00    -0.475 OA
BRANCH  21  22
ATOM     22  C   UNL A   1      32.159  25.234  25.058  1.00  0.00     0.121 A 
ATOM     23  C   UNL A   1      31.183  25.048  26.035  1.00  0.00     0.046 A 
ATOM     24  C   UNL A   1      31.805  25.690  23.790  1.00  0.00     0.046 A 
ATOM     25  C   UNL A   1      29.866  25.427  25.776  1.00  0.00     0.004 A 
ATOM     26  C   UNL A   1      30.491  26.078  23.535  1.00  0.00     0.004 A 
ATOM     27  C   UNL A   1      29.525  25.960  24.533  1.00  0.00     0.000 A 
ENDBRANCH  21  22
ENDBRANCH   5  21
ENDBRANCH   3   5
ENDBRANCH   2   3
ENDBRANCH   1   2
BRANCH   1  28
ATOM     28  C   UNL A   1      37.459  21.266  24.374  1.00  0.00     0.275 C 
BRANCH  28  29
ATOM     29  O   UNL A   1      37.757  21.564  25.753  1.00  0.00    -0.458 OA
BRANCH  29  30
ATOM     30  C   UNL A   1      39.052  21.454  26.128  1.00  0.00     0.338 C 
ATOM     31  O   UNL A   1      39.795  20.505  25.939  1.00  0.00    -0.246 OA
BRANCH  30  32
ATOM     32  C   UNL A   1      39.516  22.707  26.767  1.00  0.00     0.060 A 
ATOM     33  C   UNL A   1      38.868  23.903  26.491  1.00  0.00     0.016 A 
ATOM     34  C   UNL A   1      40.713  22.732  27.488  1.00  0.00     0.016 A 
ATOM     35  C   UNL A   1      39.501  25.110  26.785  1.00  0.00     0.010 A 
ATOM     36  C   UNL A   1      41.264  23.958  27.915  1.00  0.00     0.010 A 
ATOM     37  C   UNL A   1      40.707  25.182  27.515  1.00  0.00    -0.014 A 
BRANCH  37  38
ATOM     38  C   UNL A   1      41.374  26.520  27.763  1.00  0.00     0.031 A 
ATOM     39  C   UNL A   1      40.707  27.625  28.576  1.00  0.00     0.074 A 
ATOM     40  C   UNL A   1      42.664  26.723  27.406  1.00  0.00     0.049 A 
ATOM     41  N   UNL A   1      41.179  28.810  28.901  1.00  0.00    -0.248 NA
ATOM     42  C   UNL A   1      39.381  27.352  29.158  1.00  0.00     0.031 C 
ATOM     43  C   UNL A   1      43.510  25.761  26.698  1.00  0.00     0.029 A 
ATOM     44  N   UNL A   1      43.514  27.787  27.633  1.00  0.00    -0.354 N 
ATOM     45  C   UNL A   1      40.228  29.406  29.724  1.00  0.00     0.074 A 
ATOM     46  C   UNL A   1      39.137  28.463  29.842  1.00  0.00     0.031 C 
ATOM     47  C   UNL A   1      44.767  26.220  26.654  1.00  0.00     0.029 A 
ATOM     48  C   UNL A   1      44.786  27.591  27.147  1.00  0.00     0.049 A 
ATOM     49  H   UNL A   1      43.235  28.610  28.097  1.00  0.00     0.167 HD
ATOM     50  C   UNL A   1      40.252  30.615  30.339  1.00  0.00     0.037 A 
ATOM     51  C   UNL A   1      45.841  28.422  27.011  1.00  0.00     0.037 A 
ATOM     52  C   UNL A   1      41.296  31.602  30.211  1.00  0.00     0.049 A 
ATOM     53  C   UNL A   1      45.724  29.853  27.445  1.00  0.00     0.074 A 
ATOM     54  C   UNL A   1      41.339  32.884  30.737  1.00  0.00     0.029 A 
ATOM     55  N   UNL A   1      42.467  31.431  29.496  1.00  0.00    -0.354 N 
ATOM     56  N   UNL A   1      44.776  30.430  28.137  1.00  0.00    -0.248 NA
ATOM     57  C   UNL A   1      46.803  30.762  27.029  1.00  0.00     0.031 C 
ATOM     58  C   UNL A   1      42.497  33.516  30.271  1.00  0.00     0.029 A 
ATOM     59  C   UNL A   1      43.206  32.607  29.508  1.00  0.00     0.049 A 
ATOM     60  H   UNL A   1      42.737  30.599  29.045  1.00  0.00     0.167 HD
ATOM     61  C   UNL A   1      45.136  31.767  28.232  1.00  0.00     0.074 A 
ATOM     62  C   UNL A   1      46.408  31.912  27.559  1.00  0.00     0.031 C 
ATOM     63  C   UNL A   1      44.455  32.782  28.817  1.00  0.00     0.037 A 
BRANCH  50  64
ATOM     64  C   UNL A   1      39.066  30.997  31.177  1.00  0.00     0.064 A 
ATOM     65  C   UNL A   1      39.029  30.758  32.558  1.00  0.00     0.173 A 
ATOM     66  C   UNL A   1      37.996  31.701  30.601  1.00  0.00     0.173 A 
ATOM     67  F   UNL A   1      40.022  30.080  33.153  1.00  0.00    -0.203 F 
ATOM     68  C   UNL A   1      37.961  31.210  33.332  1.00  0.00     0.198 A 
ATOM     69  C   UNL A   1      36.941  32.166  31.380  1.00  0.00     0.198 A 
ATOM     70  F   UNL A   1      37.994  31.960  29.285  1.00  0.00    -0.203 F 
ATOM     71  F   UNL A   1      37.936  30.960  34.649  1.00  0.00    -0.200 F 
ATOM     72  C   UNL A   1      36.924  31.920  32.745  1.00  0.00     0.200 A 
ATOM     73  F   UNL A   1      35.948  32.861  30.811  1.00  0.00    -0.200 F 
ATOM     74  F   UNL A   1      35.905  32.367  33.492  1.00  0.00    -0.200 F 
ENDBRANCH  50  64
BRANCH  51  75
ATOM     75  C   UNL A   1      47.054  27.954  26.283  1.00  0.00     0.064 A 
ATOM     76  C   UNL A   1      47.098  27.882  24.885  1.00  0.00     0.173 A 
ATOM     77  C   UNL A   1      48.201  27.553  26.991  1.00  0.00     0.173 A 
ATOM     78  F   UNL A   1      46.014  28.201  24.163  1.00  0.00    -0.203 F 
ATOM     79  C   UNL A   1      48.246  27.442  24.226  1.00  0.00     0.198 A 
ATOM     80  C   UNL A   1      49.361  27.163  26.332  1.00  0.00     0.198 A 
ATOM     81  F   UNL A   1      48.204  27.572  28.333  1.00  0.00    -0.203 F 
ATOM     82  F   UNL A   1      48.249  27.335  22.891  1.00  0.00    -0.200 F 
ATOM     83  C   UNL A   1      49.380  27.099  24.949  1.00  0.00     0.200 A 
ATOM     84  F   UNL A   1      50.456  26.852  27.038  1.00  0.00    -0.200 F 
ATOM     85  F   UNL A   1      50.489  26.699  24.313  1.00  0.00    -0.200 F 
ENDBRANCH  51  75
BRANCH  63  86
ATOM     86  C   UNL A   1      45.059  34.154  28.742  1.00  0.00     0.064 A 
ATOM     87  C   UNL A   1      46.006  34.584  29.684  1.00  0.00     0.173 A 
ATOM     88  C   UNL A   1      44.705  35.045  27.718  1.00  0.00     0.173 A 
ATOM     89  F   UNL A   1      46.366  33.777  30.694  1.00  0.00    -0.203 F 
ATOM     90  C   UNL A   1      46.555  35.863  29.620  1.00  0.00     0.198 A 
ATOM     91  C   UNL A   1      45.277  36.313  27.639  1.00  0.00     0.198 A 
ATOM     92  F   UNL A   1      43.807  34.685  26.788  1.00  0.00    -0.203 F 
ATOM     93  F   UNL A   1      47.418  36.268  30.561  1.00  0.00    -0.200 F 
ATOM     94  C   UNL A   1      46.194  36.724  28.595  1.00  0.00     0.200 A 
ATOM     95  F   UNL A   1      44.936  37.140  26.641  1.00  0.00    -0.200 F 
ATOM     96  F   UNL A   1      46.724  37.953  28.533  1.00  0.00    -0.200 F 
ENDBRANCH  63  86
ENDBRANCH  37  38
ENDBRANCH  30  32
ENDBRANCH  29  30
ENDBRANCH  28  29
ENDBRANCH   1  28
TORSDOF 15
ENDMDL
