MODEL 1
REMARK VINA RESULT:      -9.7      0.000      0.000
REMARK SMILES O=C(OCCOC(=O)[C@@H]1CC(=O)N(CCCCc2ccccn2)C1)c1ccc(-c2c3nc(c(-c4c(F)c(F)c(F)c(F)c4F)c4ccc([nH]4)c(-c4c(F)c(F)c(F)c(F)c4F)c4nc(c(-c5c(F)c(F)c(F)c(F)c5F)c5ccc2[nH]5)C=C4)C=C3)cc1
REMARK SMILES IDX 6 1 5 2 4 3 3 4 2 5 1 6 25 7 26 8 87 9 27 10 86 11 28 12
REMARK SMILES IDX 29 13 30 14 80 15 31 16 85 17 79 18 81 19 32 20 84 21 78 22
REMARK SMILES IDX 77 23 33 25 65 26 45 27 64 28 46 29 49 30 63 31 82 32 47 33
REMARK SMILES IDX 48 34 62 36 83 37 50 38 34 39 35 40 43 41 36 42 37 43 41 44
REMARK SMILES IDX 44 45 38 46 39 47 42 48 40 49 66 50 67 51 75 52 68 53 69 54
REMARK SMILES IDX 73 55 76 56 70 57 71 58 74 59 72 60 51 61 52 62 60 63 53 64
REMARK SMILES IDX 54 65 58 66 61 67 55 68 56 69 59 70 57 71 7 72 8 73 9 74
REMARK SMILES IDX 10 75 24 76 11 77 13 78 12 79 14 80 15 81 16 82 17 83 18 84
REMARK SMILES IDX 19 85 23 86 20 87 22 88 21 89
REMARK H PARENT 81 24 49 35
REMARK Flexibility Score: inf
ROOT
ATOM      1  O   UNL A   1      32.776  35.026  30.245  1.00  0.00    -0.462 OA
ENDROOT
BRANCH   1   2
ATOM      2  C   UNL A   1      33.261  35.580  29.005  1.00  0.00     0.274 C 
BRANCH   2   3
ATOM      3  C   UNL A   1      33.755  34.567  27.968  1.00  0.00     0.275 C 
BRANCH   3   4
ATOM      4  O   UNL A   1      33.364  33.221  28.222  1.00  0.00    -0.458 OA
BRANCH   4   5
ATOM      5  C   UNL A   1      33.901  32.099  27.707  1.00  0.00     0.338 C 
ATOM      6  O   UNL A   1      33.249  31.505  26.845  1.00  0.00    -0.246 OA
BRANCH   5   7
ATOM      7  C   UNL A   1      35.223  31.500  28.118  1.00  0.00     0.060 A 
ATOM      8  C   UNL A   1      36.495  32.084  28.198  1.00  0.00     0.016 A 
ATOM      9  C   UNL A   1      35.129  30.178  28.542  1.00  0.00     0.016 A 
ATOM     10  C   UNL A   1      37.598  31.411  28.787  1.00  0.00     0.010 A 
ATOM     11  C   UNL A   1      36.193  29.545  29.178  1.00  0.00     0.010 A 
ATOM     12  C   UNL A   1      37.449  30.149  29.356  1.00  0.00    -0.014 A 
BRANCH  12  13
ATOM     13  C   UNL A   1      38.500  29.388  30.127  1.00  0.00     0.031 A 
ATOM     14  C   UNL A   1      38.878  29.897  31.499  1.00  0.00     0.074 A 
ATOM     15  C   UNL A   1      39.281  28.425  29.587  1.00  0.00     0.049 A 
ATOM     16  N   UNL A   1      39.988  29.742  32.177  1.00  0.00    -0.248 NA
ATOM     17  C   UNL A   1      37.903  30.794  32.144  1.00  0.00     0.031 C 
ATOM     18  C   UNL A   1      39.109  27.794  28.283  1.00  0.00     0.029 A 
ATOM     19  N   UNL A   1      40.467  27.880  30.050  1.00  0.00    -0.354 N 
ATOM     20  C   UNL A   1      39.850  30.570  33.281  1.00  0.00     0.074 A 
ATOM     21  C   UNL A   1      38.660  31.363  33.065  1.00  0.00     0.031 C 
ATOM     22  C   UNL A   1      40.201  27.065  27.989  1.00  0.00     0.029 A 
ATOM     23  C   UNL A   1      41.144  27.150  29.094  1.00  0.00     0.049 A 
ATOM     24  H   UNL A   1      40.795  28.003  30.970  1.00  0.00     0.167 HD
ATOM     25  C   UNL A   1      40.558  30.588  34.436  1.00  0.00     0.037 A 
ATOM     26  C   UNL A   1      42.386  26.622  29.091  1.00  0.00     0.037 A 
ATOM     27  C   UNL A   1      41.644  29.698  34.719  1.00  0.00     0.049 A 
ATOM     28  C   UNL A   1      43.188  26.630  30.361  1.00  0.00     0.074 A 
ATOM     29  C   UNL A   1      42.302  29.486  35.916  1.00  0.00     0.029 A 
ATOM     30  N   UNL A   1      42.214  28.845  33.788  1.00  0.00    -0.354 N 
ATOM     31  N   UNL A   1      42.966  27.284  31.473  1.00  0.00    -0.248 NA
ATOM     32  C   UNL A   1      44.361  25.743  30.414  1.00  0.00     0.031 C 
ATOM     33  C   UNL A   1      43.282  28.509  35.705  1.00  0.00     0.029 A 
ATOM     34  C   UNL A   1      43.214  28.100  34.383  1.00  0.00     0.049 A 
ATOM     35  H   UNL A   1      41.945  28.780  32.843  1.00  0.00     0.167 HD
ATOM     36  C   UNL A   1      43.894  26.806  32.387  1.00  0.00     0.074 A 
ATOM     37  C   UNL A   1      44.724  25.851  31.685  1.00  0.00     0.031 C 
ATOM     38  C   UNL A   1      44.003  27.105  33.703  1.00  0.00     0.037 A 
BRANCH  25  39
ATOM     39  C   UNL A   1      40.080  31.540  35.494  1.00  0.00     0.064 A 
ATOM     40  C   UNL A   1      38.925  31.265  36.249  1.00  0.00     0.173 A 
ATOM     41  C   UNL A   1      40.724  32.765  35.704  1.00  0.00     0.173 A 
ATOM     42  F   UNL A   1      38.271  30.104  36.084  1.00  0.00    -0.203 F 
ATOM     43  C   UNL A   1      38.374  32.223  37.091  1.00  0.00     0.198 A 
ATOM     44  C   UNL A   1      40.197  33.702  36.589  1.00  0.00     0.198 A 
ATOM     45  F   UNL A   1      41.843  33.070  35.030  1.00  0.00    -0.203 F 
ATOM     46  F   UNL A   1      37.203  31.985  37.697  1.00  0.00    -0.200 F 
ATOM     47  C   UNL A   1      39.009  33.442  37.260  1.00  0.00     0.200 A 
ATOM     48  F   UNL A   1      40.819  34.875  36.769  1.00  0.00    -0.200 F 
ATOM     49  F   UNL A   1      38.467  34.375  38.053  1.00  0.00    -0.200 F 
ENDBRANCH  25  39
BRANCH  26  50
ATOM     50  C   UNL A   1      42.902  25.916  27.889  1.00  0.00     0.064 A 
ATOM     51  C   UNL A   1      43.714  26.590  26.965  1.00  0.00     0.173 A 
ATOM     52  C   UNL A   1      42.572  24.580  27.615  1.00  0.00     0.173 A 
ATOM     53  F   UNL A   1      44.026  27.878  27.168  1.00  0.00    -0.203 F 
ATOM     54  C   UNL A   1      44.163  25.962  25.804  1.00  0.00     0.198 A 
ATOM     55  C   UNL A   1      43.034  23.949  26.458  1.00  0.00     0.198 A 
ATOM     56  F   UNL A   1      41.780  23.896  28.453  1.00  0.00    -0.203 F 
ATOM     57  F   UNL A   1      44.900  26.647  24.919  1.00  0.00    -0.200 F 
ATOM     58  C   UNL A   1      43.824  24.643  25.552  1.00  0.00     0.200 A 
ATOM     59  F   UNL A   1      42.698  22.675  26.207  1.00  0.00    -0.200 F 
ATOM     60  F   UNL A   1      44.244  24.045  24.428  1.00  0.00    -0.200 F 
ENDBRANCH  26  50
BRANCH  38  61
ATOM     61  C   UNL A   1      44.971  26.316  34.529  1.00  0.00     0.064 A 
ATOM     62  C   UNL A   1      46.267  26.771  34.794  1.00  0.00     0.173 A 
ATOM     63  C   UNL A   1      44.546  25.128  35.149  1.00  0.00     0.173 A 
ATOM     64  F   UNL A   1      46.723  27.889  34.210  1.00  0.00    -0.203 F 
ATOM     65  C   UNL A   1      47.105  26.068  35.656  1.00  0.00     0.198 A 
ATOM     66  C   UNL A   1      45.376  24.443  36.028  1.00  0.00     0.198 A 
ATOM     67  F   UNL A   1      43.311  24.653  34.923  1.00  0.00    -0.203 F 
ATOM     68  F   UNL A   1      48.348  26.510  35.887  1.00  0.00    -0.200 F 
ATOM     69  C   UNL A   1      46.655  24.914  36.283  1.00  0.00     0.200 A 
ATOM     70  F   UNL A   1      44.934  23.337  36.641  1.00  0.00    -0.200 F 
ATOM     71  F   UNL A   1      47.453  24.257  37.135  1.00  0.00    -0.200 F 
ENDBRANCH  38  61
ENDBRANCH  12  13
ENDBRANCH   5   7
ENDBRANCH   4   5
ENDBRANCH   3   4
ENDBRANCH   2   3
ENDBRANCH   1   2
BRANCH   1  72
ATOM     72  C   UNL A   1      33.519  35.316  31.351  1.00  0.00     0.311 C 
ATOM     73  O   UNL A   1      33.528  36.408  31.906  1.00  0.00    -0.252 OA
BRANCH  72  74
ATOM     74  C   UNL A   1      34.426  34.181  31.793  1.00  0.00     0.128 C 
ATOM     75  C   UNL A   1      34.638  34.116  33.296  1.00  0.00     0.117 C 
ATOM     76  C   UNL A   1      35.815  34.178  31.162  1.00  0.00     0.135 C 
ATOM     77  C   UNL A   1      36.091  34.425  33.474  1.00  0.00     0.223 C 
ATOM     78  N   UNL A   1      36.750  34.278  32.261  1.00  0.00    -0.342 N 
ATOM     79  O   UNL A   1      36.581  34.707  34.551  1.00  0.00    -0.275 OA
BRANCH  78  80
ATOM     80  C   UNL A   1      38.176  34.575  32.141  1.00  0.00     0.119 C 
BRANCH  80  81
ATOM     81  C   UNL A   1      38.876  34.721  30.784  1.00  0.00     0.022 C 
BRANCH  81  82
ATOM     82  C   UNL A   1      39.750  33.580  30.254  1.00  0.00     0.008 C 
BRANCH  82  83
ATOM     83  C   UNL A   1      41.271  33.750  30.364  1.00  0.00     0.056 C 
BRANCH  83  84
ATOM     84  C   UNL A   1      42.219  32.684  29.864  1.00  0.00     0.040 A 
ATOM     85  C   UNL A   1      41.920  31.326  29.820  1.00  0.00     0.024 A 
ATOM     86  N   UNL A   1      43.382  33.164  29.345  1.00  0.00    -0.261 NA
ATOM     87  C   UNL A   1      42.818  30.449  29.206  1.00  0.00     0.003 A 
ATOM     88  C   UNL A   1      44.226  32.297  28.740  1.00  0.00     0.111 A 
ATOM     89  C   UNL A   1      43.989  30.941  28.643  1.00  0.00     0.020 A 
ENDBRANCH  83  84
ENDBRANCH  82  83
ENDBRANCH  81  82
ENDBRANCH  80  81
ENDBRANCH  78  80
ENDBRANCH  72  74
ENDBRANCH   1  72
TORSDOF 16
ENDMDL
MODEL 2
REMARK VINA RESULT:      -9.7      3.744      6.911
REMARK SMILES O=C(OCCOC(=O)[C@@H]1CC(=O)N(CCCCc2ccccn2)C1)c1ccc(-c2c3nc(c(-c4c(F)c(F)c(F)c(F)c4F)c4ccc([nH]4)c(-c4c(F)c(F)c(F)c(F)c4F)c4nc(c(-c5c(F)c(F)c(F)c(F)c5F)c5ccc2[nH]5)C=C4)C=C3)cc1
REMARK SMILES IDX 6 1 5 2 4 3 3 4 2 5 1 6 25 7 26 8 87 9 27 10 86 11 28 12
REMARK SMILES IDX 29 13 30 14 80 15 31 16 85 17 79 18 81 19 32 20 84 21 78 22
REMARK SMILES IDX 77 23 33 25 65 26 45 27 64 28 46 29 49 30 63 31 82 32 47 33
REMARK SMILES IDX 48 34 62 36 83 37 50 38 34 39 35 40 43 41 36 42 37 43 41 44
REMARK SMILES IDX 44 45 38 46 39 47 42 48 40 49 66 50 67 51 75 52 68 53 69 54
REMARK SMILES IDX 73 55 76 56 70 57 71 58 74 59 72 60 51 61 52 62 60 63 53 64
REMARK SMILES IDX 54 65 58 66 61 67 55 68 56 69 59 70 57 71 7 72 8 73 9 74
REMARK SMILES IDX 10 75 24 76 11 77 13 78 12 79 14 80 15 81 16 82 17 83 18 84
REMARK SMILES IDX 19 85 23 86 20 87 22 88 21 89
REMARK H PARENT 81 24 49 35
REMARK Flexibility Score: inf
ROOT
ATOM      1  O   UNL A   1      32.025  29.225  26.653  1.00  0.00    -0.462 OA
ENDROOT
BRANCH   1   2
ATOM      2  C   UNL A   1      31.830  30.469  25.950  1.00  0.00     0.274 C 
BRANCH   2   3
ATOM      3  C   UNL A   1      31.469  31.677  26.819  1.00  0.00     0.275 C 
BRANCH   3   4
ATOM      4  O   UNL A   1      32.394  32.758  26.747  1.00  0.00    -0.458 OA
BRANCH   4   5
ATOM      5  C   UNL A   1      33.221  33.198  27.713  1.00  0.00     0.338 C 
ATOM      6  O   UNL A   1      32.896  34.226  28.310  1.00  0.00    -0.246 OA
BRANCH   5   7
ATOM      7  C   UNL A   1      34.523  32.545  28.107  1.00  0.00     0.060 A 
ATOM      8  C   UNL A   1      35.821  33.070  28.154  1.00  0.00     0.016 A 
ATOM      9  C   UNL A   1      34.376  31.235  28.553  1.00  0.00     0.016 A 
ATOM     10  C   UNL A   1      36.904  32.356  28.732  1.00  0.00     0.010 A 
ATOM     11  C   UNL A   1      35.423  30.562  29.178  1.00  0.00     0.010 A 
ATOM     12  C   UNL A   1      36.709  31.110  29.322  1.00  0.00    -0.014 A 
BRANCH  12  13
ATOM     13  C   UNL A   1      37.739  30.313  30.084  1.00  0.00     0.031 A 
ATOM     14  C   UNL A   1      38.088  30.761  31.484  1.00  0.00     0.074 A 
ATOM     15  C   UNL A   1      38.528  29.369  29.521  1.00  0.00     0.049 A 
ATOM     16  N   UNL A   1      39.181  30.573  32.181  1.00  0.00    -0.248 NA
ATOM     17  C   UNL A   1      37.102  31.635  32.144  1.00  0.00     0.031 C 
ATOM     18  C   UNL A   1      38.384  28.794  28.189  1.00  0.00     0.029 A 
ATOM     19  N   UNL A   1      39.702  28.800  29.988  1.00  0.00    -0.354 N 
ATOM     20  C   UNL A   1      39.020  31.354  33.315  1.00  0.00     0.074 A 
ATOM     21  C   UNL A   1      37.839  32.161  33.106  1.00  0.00     0.031 C 
ATOM     22  C   UNL A   1      39.480  28.074  27.889  1.00  0.00     0.029 A 
ATOM     23  C   UNL A   1      40.398  28.108  29.018  1.00  0.00     0.049 A 
ATOM     24  H   UNL A   1      40.010  28.882  30.919  1.00  0.00     0.167 HD
ATOM     25  C   UNL A   1      39.703  31.320  34.485  1.00  0.00     0.037 A 
ATOM     26  C   UNL A   1      41.637  27.575  29.020  1.00  0.00     0.037 A 
ATOM     27  C   UNL A   1      40.778  30.414  34.755  1.00  0.00     0.049 A 
ATOM     28  C   UNL A   1      42.410  27.525  30.308  1.00  0.00     0.074 A 
ATOM     29  C   UNL A   1      41.408  30.148  35.957  1.00  0.00     0.029 A 
ATOM     30  N   UNL A   1      41.366  29.599  33.802  1.00  0.00    -0.354 N 
ATOM     31  N   UNL A   1      42.165  28.133  31.441  1.00  0.00    -0.248 NA
ATOM     32  C   UNL A   1      43.578  26.631  30.349  1.00  0.00     0.031 C 
ATOM     33  C   UNL A   1      42.389  29.177  35.727  1.00  0.00     0.029 A 
ATOM     34  C   UNL A   1      42.350  28.824  34.388  1.00  0.00     0.049 A 
ATOM     35  H   UNL A   1      41.119  29.575  32.849  1.00  0.00     0.167 HD
ATOM     36  C   UNL A   1      43.070  27.612  32.354  1.00  0.00     0.074 A 
ATOM     37  C   UNL A   1      43.913  26.684  31.632  1.00  0.00     0.031 C 
ATOM     38  C   UNL A   1      43.150  27.855  33.685  1.00  0.00     0.037 A 
BRANCH  25  39
ATOM     39  C   UNL A   1      39.204  32.229  35.571  1.00  0.00     0.064 A 
ATOM     40  C   UNL A   1      39.634  33.566  35.654  1.00  0.00     0.173 A 
ATOM     41  C   UNL A   1      38.360  31.749  36.580  1.00  0.00     0.173 A 
ATOM     42  F   UNL A   1      40.446  34.074  34.712  1.00  0.00    -0.203 F 
ATOM     43  C   UNL A   1      39.327  34.352  36.758  1.00  0.00     0.198 A 
ATOM     44  C   UNL A   1      38.011  32.557  37.659  1.00  0.00     0.198 A 
ATOM     45  F   UNL A   1      37.899  30.490  36.539  1.00  0.00    -0.203 F 
ATOM     46  F   UNL A   1      39.858  35.576  36.875  1.00  0.00    -0.200 F 
ATOM     47  C   UNL A   1      38.516  33.846  37.761  1.00  0.00     0.200 A 
ATOM     48  F   UNL A   1      37.211  32.078  38.621  1.00  0.00    -0.200 F 
ATOM     49  F   UNL A   1      38.238  34.594  38.837  1.00  0.00    -0.200 F 
ENDBRANCH  25  39
BRANCH  26  50
ATOM     50  C   UNL A   1      42.179  26.917  27.801  1.00  0.00     0.064 A 
ATOM     51  C   UNL A   1      41.908  25.566  27.546  1.00  0.00     0.173 A 
ATOM     52  C   UNL A   1      43.000  27.602  26.894  1.00  0.00     0.173 A 
ATOM     53  F   UNL A   1      41.157  24.863  28.405  1.00  0.00    -0.203 F 
ATOM     54  C   UNL A   1      42.452  24.917  26.438  1.00  0.00     0.198 A 
ATOM     55  C   UNL A   1      43.533  26.954  25.778  1.00  0.00     0.198 A 
ATOM     56  F   UNL A   1      43.310  28.890  27.103  1.00  0.00    -0.203 F 
ATOM     57  F   UNL A   1      42.211  23.613  26.245  1.00  0.00    -0.200 F 
ATOM     58  C   UNL A   1      43.262  25.611  25.554  1.00  0.00     0.200 A 
ATOM     59  F   UNL A   1      44.326  27.621  24.926  1.00  0.00    -0.200 F 
ATOM     60  F   UNL A   1      43.796  24.982  24.498  1.00  0.00    -0.200 F 
ENDBRANCH  26  50
BRANCH  38  61
ATOM     61  C   UNL A   1      44.096  27.028  34.497  1.00  0.00     0.064 A 
ATOM     62  C   UNL A   1      43.730  25.789  35.034  1.00  0.00     0.173 A 
ATOM     63  C   UNL A   1      45.429  27.447  34.649  1.00  0.00     0.173 A 
ATOM     64  F   UNL A   1      42.464  25.356  34.931  1.00  0.00    -0.203 F 
ATOM     65  C   UNL A   1      44.665  24.993  35.691  1.00  0.00     0.198 A 
ATOM     66  C   UNL A   1      46.366  26.638  35.282  1.00  0.00     0.198 A 
ATOM     67  F   UNL A   1      45.827  28.628  34.151  1.00  0.00    -0.203 F 
ATOM     68  F   UNL A   1      44.293  23.816  36.212  1.00  0.00    -0.200 F 
ATOM     69  C   UNL A   1      45.984  25.411  35.801  1.00  0.00     0.200 A 
ATOM     70  F   UNL A   1      47.641  27.040  35.376  1.00  0.00    -0.200 F 
ATOM     71  F   UNL A   1      46.888  24.630  36.408  1.00  0.00    -0.200 F 
ENDBRANCH  38  61
ENDBRANCH  12  13
ENDBRANCH   5   7
ENDBRANCH   4   5
ENDBRANCH   3   4
ENDBRANCH   2   3
ENDBRANCH   1   2
BRANCH   1  72
ATOM     72  C   UNL A   1      33.116  28.499  26.274  1.00  0.00     0.311 C 
ATOM     73  O   UNL A   1      34.183  28.992  25.929  1.00  0.00    -0.252 OA
BRANCH  72  74
ATOM     74  C   UNL A   1      32.865  27.002  26.221  1.00  0.00     0.128 C 
ATOM     75  C   UNL A   1      33.666  26.286  25.146  1.00  0.00     0.117 C 
ATOM     76  C   UNL A   1      31.410  26.594  26.017  1.00  0.00     0.135 C 
ATOM     77  C   UNL A   1      32.631  25.794  24.185  1.00  0.00     0.223 C 
ATOM     78  N   UNL A   1      31.381  25.827  24.790  1.00  0.00    -0.342 N 
ATOM     79  O   UNL A   1      32.901  25.387  23.072  1.00  0.00    -0.275 OA
BRANCH  78  80
ATOM     80  C   UNL A   1      30.179  25.451  24.050  1.00  0.00     0.119 C 
BRANCH  80  81
ATOM     81  C   UNL A   1      28.913  26.316  24.040  1.00  0.00     0.022 C 
BRANCH  81  82
ATOM     82  C   UNL A   1      28.826  27.524  23.100  1.00  0.00     0.008 C 
BRANCH  82  83
ATOM     83  C   UNL A   1      27.783  28.600  23.432  1.00  0.00     0.056 C 
BRANCH  83  84
ATOM     84  C   UNL A   1      27.840  29.971  22.798  1.00  0.00     0.040 A 
ATOM     85  C   UNL A   1      27.695  31.165  23.496  1.00  0.00     0.024 A 
ATOM     86  N   UNL A   1      28.156  29.965  21.475  1.00  0.00    -0.261 NA
ATOM     87  C   UNL A   1      27.907  32.375  22.830  1.00  0.00     0.003 A 
ATOM     88  C   UNL A   1      28.373  31.149  20.857  1.00  0.00     0.111 A 
ATOM     89  C   UNL A   1      28.265  32.372  21.489  1.00  0.00     0.020 A 
ENDBRANCH  83  84
ENDBRANCH  82  83
ENDBRANCH  81  82
ENDBRANCH  80  81
ENDBRANCH  78  80
ENDBRANCH  72  74
ENDBRANCH   1  72
TORSDOF 16
ENDMDL
MODEL 3
REMARK VINA RESULT:      -9.7      5.113     11.142
REMARK SMILES O=C(OCCOC(=O)[C@@H]1CC(=O)N(CCCCc2ccccn2)C1)c1ccc(-c2c3nc(c(-c4c(F)c(F)c(F)c(F)c4F)c4ccc([nH]4)c(-c4c(F)c(F)c(F)c(F)c4F)c4nc(c(-c5c(F)c(F)c(F)c(F)c5F)c5ccc2[nH]5)C=C4)C=C3)cc1
REMARK SMILES IDX 6 1 5 2 4 3 3 4 2 5 1 6 25 7 26 8 87 9 27 10 86 11 28 12
REMARK SMILES IDX 29 13 30 14 80 15 31 16 85 17 79 18 81 19 32 20 84 21 78 22
REMARK SMILES IDX 77 23 33 25 65 26 45 27 64 28 46 29 49 30 63 31 82 32 47 33
REMARK SMILES IDX 48 34 62 36 83 37 50 38 34 39 35 40 43 41 36 42 37 43 41 44
REMARK SMILES IDX 44 45 38 46 39 47 42 48 40 49 66 50 67 51 75 52 68 53 69 54
REMARK SMILES IDX 73 55 76 56 70 57 71 58 74 59 72 60 51 61 52 62 60 63 53 64
REMARK SMILES IDX 54 65 58 66 61 67 55 68 56 69 59 70 57 71 7 72 8 73 9 74
REMARK SMILES IDX 10 75 24 76 11 77 13 78 12 79 14 80 15 81 16 82 17 83 18 84
REMARK SMILES IDX 19 85 23 86 20 87 22 88 21 89
REMARK H PARENT 81 24 49 35
REMARK Flexibility Score: inf
ROOT
ATOM      1  O   UNL A   1      35.637  22.953  24.674  1.00  0.00    -0.462 OA
ENDROOT
BRANCH   1   2
ATOM      2  C   UNL A   1      36.563  21.907  24.316  1.00  0.00     0.274 C 
BRANCH   2   3
ATOM      3  C   UNL A   1      37.289  21.230  25.482  1.00  0.00     0.275 C 
BRANCH   3   4
ATOM      4  O   UNL A   1      38.710  21.262  25.394  1.00  0.00    -0.458 OA
BRANCH   4   5
ATOM      5  C   UNL A   1      39.592  21.448  26.395  1.00  0.00     0.338 C 
ATOM      6  O   UNL A   1      40.102  20.443  26.892  1.00  0.00    -0.246 OA
BRANCH   5   7
ATOM      7  C   UNL A   1      39.986  22.787  26.967  1.00  0.00     0.060 A 
ATOM      8  C   UNL A   1      40.857  23.100  28.020  1.00  0.00     0.016 A 
ATOM      9  C   UNL A   1      39.438  23.868  26.284  1.00  0.00     0.016 A 
ATOM     10  C   UNL A   1      41.253  24.434  28.300  1.00  0.00     0.010 A 
ATOM     11  C   UNL A   1      39.878  25.169  26.518  1.00  0.00     0.010 A 
ATOM     12  C   UNL A   1      40.824  25.493  27.504  1.00  0.00    -0.014 A 
BRANCH  12  13
ATOM     13  C   UNL A   1      41.275  26.929  27.611  1.00  0.00     0.031 A 
ATOM     14  C   UNL A   1      42.724  27.240  27.318  1.00  0.00     0.074 A 
ATOM     15  C   UNL A   1      40.530  27.914  28.165  1.00  0.00     0.049 A 
ATOM     16  N   UNL A   1      43.473  28.232  27.731  1.00  0.00    -0.248 NA
ATOM     17  C   UNL A   1      43.454  26.227  26.536  1.00  0.00     0.031 C 
ATOM     18  C   UNL A   1      39.122  27.837  28.534  1.00  0.00     0.029 A 
ATOM     19  N   UNL A   1      40.911  29.165  28.620  1.00  0.00    -0.354 N 
ATOM     20  C   UNL A   1      44.753  27.915  27.306  1.00  0.00     0.074 A 
ATOM     21  C   UNL A   1      44.705  26.561  26.800  1.00  0.00     0.031 C 
ATOM     22  C   UNL A   1      38.791  28.913  29.271  1.00  0.00     0.029 A 
ATOM     23  C   UNL A   1      39.955  29.776  29.406  1.00  0.00     0.049 A 
ATOM     24  H   UNL A   1      41.778  29.578  28.404  1.00  0.00     0.167 HD
ATOM     25  C   UNL A   1      45.849  28.706  27.213  1.00  0.00     0.037 A 
ATOM     26  C   UNL A   1      40.005  30.890  30.165  1.00  0.00     0.037 A 
ATOM     27  C   UNL A   1      45.863  30.094  27.569  1.00  0.00     0.049 A 
ATOM     28  C   UNL A   1      41.210  31.783  30.075  1.00  0.00     0.074 A 
ATOM     29  C   UNL A   1      46.843  31.040  27.334  1.00  0.00     0.029 A 
ATOM     30  N   UNL A   1      44.824  30.740  28.218  1.00  0.00    -0.354 N 
ATOM     31  N   UNL A   1      42.372  31.548  29.521  1.00  0.00    -0.248 NA
ATOM     32  C   UNL A   1      41.075  33.141  30.627  1.00  0.00     0.031 C 
ATOM     33  C   UNL A   1      46.400  32.262  27.854  1.00  0.00     0.029 A 
ATOM     34  C   UNL A   1      45.135  32.076  28.389  1.00  0.00     0.049 A 
ATOM     35  H   UNL A   1      43.988  30.311  28.513  1.00  0.00     0.167 HD
ATOM     36  C   UNL A   1      43.060  32.752  29.554  1.00  0.00     0.074 A 
ATOM     37  C   UNL A   1      42.212  33.704  30.239  1.00  0.00     0.031 C 
ATOM     38  C   UNL A   1      44.269  33.041  29.015  1.00  0.00     0.037 A 
BRANCH  25  39
ATOM     39  C   UNL A   1      47.069  28.083  26.598  1.00  0.00     0.064 A 
ATOM     40  C   UNL A   1      47.218  28.004  25.201  1.00  0.00     0.173 A 
ATOM     41  C   UNL A   1      48.055  27.491  27.396  1.00  0.00     0.173 A 
ATOM     42  F   UNL A   1      46.299  28.556  24.391  1.00  0.00    -0.203 F 
ATOM     43  C   UNL A   1      48.247  27.265  24.630  1.00  0.00     0.198 A 
ATOM     44  C   UNL A   1      49.114  26.795  26.819  1.00  0.00     0.198 A 
ATOM     45  F   UNL A   1      47.977  27.557  28.734  1.00  0.00    -0.203 F 
ATOM     46  F   UNL A   1      48.289  27.097  23.302  1.00  0.00    -0.200 F 
ATOM     47  C   UNL A   1      49.193  26.659  25.439  1.00  0.00     0.200 A 
ATOM     48  F   UNL A   1      50.042  26.224  27.598  1.00  0.00    -0.200 F 
ATOM     49  F   UNL A   1      50.172  25.927  24.891  1.00  0.00    -0.200 F 
ENDBRANCH  25  39
BRANCH  26  50
ATOM     50  C   UNL A   1      38.829  31.306  30.974  1.00  0.00     0.064 A 
ATOM     51  C   UNL A   1      37.802  32.063  30.394  1.00  0.00     0.173 A 
ATOM     52  C   UNL A   1      38.721  30.995  32.338  1.00  0.00     0.173 A 
ATOM     53  F   UNL A   1      37.881  32.414  29.102  1.00  0.00    -0.203 F 
ATOM     54  C   UNL A   1      36.718  32.510  31.148  1.00  0.00     0.198 A 
ATOM     55  C   UNL A   1      37.628  31.433  33.089  1.00  0.00     0.198 A 
ATOM     56  F   UNL A   1      39.687  30.294  32.949  1.00  0.00    -0.203 F 
ATOM     57  F   UNL A   1      35.775  33.269  30.575  1.00  0.00    -0.200 F 
ATOM     58  C   UNL A   1      36.631  32.194  32.495  1.00  0.00     0.200 A 
ATOM     59  F   UNL A   1      37.547  31.136  34.395  1.00  0.00    -0.200 F 
ATOM     60  F   UNL A   1      35.596  32.636  33.222  1.00  0.00    -0.200 F 
ENDBRANCH  26  50
BRANCH  38  61
ATOM     61  C   UNL A   1      44.721  34.468  29.019  1.00  0.00     0.064 A 
ATOM     62  C   UNL A   1      45.563  34.980  30.012  1.00  0.00     0.173 A 
ATOM     63  C   UNL A   1      44.380  35.305  27.943  1.00  0.00     0.173 A 
ATOM     64  F   UNL A   1      45.900  34.223  31.068  1.00  0.00    -0.203 F 
ATOM     65  C   UNL A   1      46.056  36.279  29.927  1.00  0.00     0.198 A 
ATOM     66  C   UNL A   1      44.894  36.594  27.849  1.00  0.00     0.198 A 
ATOM     67  F   UNL A   1      43.574  34.859  26.968  1.00  0.00    -0.203 F 
ATOM     68  F   UNL A   1      46.850  36.758  30.894  1.00  0.00    -0.200 F 
ATOM     69  C   UNL A   1      45.733  37.079  28.840  1.00  0.00     0.200 A 
ATOM     70  F   UNL A   1      44.590  37.359  26.792  1.00  0.00    -0.200 F 
ATOM     71  F   UNL A   1      46.232  38.319  28.746  1.00  0.00    -0.200 F 
ENDBRANCH  38  61
ENDBRANCH  12  13
ENDBRANCH   5   7
ENDBRANCH   4   5
ENDBRANCH   3   4
ENDBRANCH   2   3
ENDBRANCH   1   2
BRANCH   1  72
ATOM     72  C   UNL A   1      34.485  22.539  25.276  1.00  0.00     0.311 C 
ATOM     73  O   UNL A   1      33.809  21.593  24.890  1.00  0.00    -0.252 OA
BRANCH  72  74
ATOM     74  C   UNL A   1      34.046  23.424  26.430  1.00  0.00     0.128 C 
ATOM     75  C   UNL A   1      32.903  22.843  27.246  1.00  0.00     0.117 C 
ATOM     76  C   UNL A   1      33.624  24.836  26.041  1.00  0.00     0.135 C 
ATOM     77  C   UNL A   1      31.765  23.783  27.000  1.00  0.00     0.223 C 
ATOM     78  N   UNL A   1      32.250  24.972  26.472  1.00  0.00    -0.342 N 
ATOM     79  O   UNL A   1      30.614  23.518  27.286  1.00  0.00    -0.275 OA
BRANCH  78  80
ATOM     80  C   UNL A   1      31.339  26.048  26.085  1.00  0.00     0.119 C 
BRANCH  80  81
ATOM     81  C   UNL A   1      31.585  26.935  24.859  1.00  0.00     0.022 C 
BRANCH  81  82
ATOM     82  C   UNL A   1      31.692  28.454  25.030  1.00  0.00     0.008 C 
BRANCH  82  83
ATOM     83  C   UNL A   1      31.788  28.996  26.462  1.00  0.00     0.056 C 
BRANCH  83  84
ATOM     84  C   UNL A   1      33.094  29.507  27.023  1.00  0.00     0.040 A 
ATOM     85  C   UNL A   1      34.268  28.763  27.082  1.00  0.00     0.024 A 
ATOM     86  N   UNL A   1      33.077  30.819  27.382  1.00  0.00    -0.261 NA
ATOM     87  C   UNL A   1      35.451  29.384  27.490  1.00  0.00     0.003 A 
ATOM     88  C   UNL A   1      34.239  31.402  27.756  1.00  0.00     0.111 A 
ATOM     89  C   UNL A   1      35.444  30.732  27.823  1.00  0.00     0.020 A 
ENDBRANCH  83  84
ENDBRANCH  82  83
ENDBRANCH  81  82
ENDBRANCH  80  81
ENDBRANCH  78  80
ENDBRANCH  72  74
ENDBRANCH   1  72
TORSDOF 16
ENDMDL
