MODEL 1
REMARK VINA RESULT:     -10.7      0.000      0.000
REMARK SMILES CCCCCC(=O)N1CCC[C@H](C(=O)OCCOC(=O)c2ccc(-c3c4nc(c(-c5c(F)c(F)c(F)c(F)c5F)c5ccc([nH]5)c(-c5c(F)c(F)c(F)c(F)c5F)c5nc(c(-c6c(F)c(F)c(F)c(F)c6F)c6ccc3[nH]6)C=C5)C=C4)cc2)C1
REMARK SMILES IDX 15 1 13 2 14 3 12 4 8 5 9 6 84 7 10 8 11 9 6 10 7 11 5 12
REMARK SMILES IDX 4 13 3 14 2 15 1 16 16 17 17 18 18 19 19 20 20 21 21 22
REMARK SMILES IDX 22 23 83 24 23 25 82 26 24 27 25 28 26 29 76 30 27 31 81 32
REMARK SMILES IDX 75 33 77 34 28 35 80 36 74 37 73 38 29 40 61 41 41 42 60 43
REMARK SMILES IDX 42 44 45 45 59 46 78 47 43 48 44 49 58 51 79 52 46 53 30 54
REMARK SMILES IDX 31 55 39 56 32 57 33 58 37 59 40 60 34 61 35 62 38 63 36 64
REMARK SMILES IDX 62 65 63 66 71 67 64 68 65 69 69 70 72 71 66 72 67 73 70 74
REMARK SMILES IDX 68 75 47 76 48 77 56 78 49 79 50 80 54 81 57 82 51 83 52 84
REMARK SMILES IDX 55 85 53 86
REMARK H PARENT 77 39 45 50
REMARK Flexibility Score: inf
ROOT
ATOM      1  O   UNL A   1      32.505  27.633  26.285  1.00  0.00    -0.462 OA
ENDROOT
BRANCH   1   2
ATOM      2  C   UNL A   1      32.096  26.350  26.153  1.00  0.00     0.310 C 
ATOM      3  O   UNL A   1      31.269  25.799  26.875  1.00  0.00    -0.252 OA
BRANCH   2   4
ATOM      4  C   UNL A   1      32.739  25.632  24.973  1.00  0.00     0.119 C 
ATOM      5  N   UNL A   1      30.991  26.053  23.293  1.00  0.00    -0.342 N 
ATOM      6  C   UNL A   1      30.691  24.636  23.134  1.00  0.00     0.119 C 
ATOM      7  C   UNL A   1      32.360  26.349  23.678  1.00  0.00     0.134 C 
ATOM      8  C   UNL A   1      31.053  23.818  24.369  1.00  0.00     0.022 C 
ATOM      9  C   UNL A   1      32.465  24.128  24.868  1.00  0.00     0.019 C 
BRANCH   5  10
ATOM     10  C   UNL A   1      29.968  26.941  23.592  1.00  0.00     0.222 C 
ATOM     11  O   UNL A   1      28.809  26.566  23.765  1.00  0.00    -0.275 OA
BRANCH  10  12
ATOM     12  C   UNL A   1      30.318  28.423  23.481  1.00  0.00     0.100 C 
BRANCH  12  13
ATOM     13  C   UNL A   1      30.165  29.118  22.129  1.00  0.00     0.010 C 
BRANCH  13  14
ATOM     14  C   UNL A   1      29.080  30.197  21.957  1.00  0.00     0.000 C 
BRANCH  14  15
ATOM     15  C   UNL A   1      27.918  30.203  22.955  1.00  0.00    -0.003 C 
ATOM     16  C   UNL A   1      27.608  31.583  23.507  1.00  0.00     0.004 C 
ENDBRANCH  14  15
ENDBRANCH  13  14
ENDBRANCH  12  13
ENDBRANCH  10  12
ENDBRANCH   5  10
ENDBRANCH   2   4
ENDBRANCH   1   2
BRANCH   1  17
ATOM     17  C   UNL A   1      31.742  28.488  27.154  1.00  0.00     0.274 C 
BRANCH  17  18
ATOM     18  C   UNL A   1      31.792  29.936  26.664  1.00  0.00     0.275 C 
BRANCH  18  19
ATOM     19  O   UNL A   1      33.147  30.355  26.415  1.00  0.00    -0.458 OA
BRANCH  19  20
ATOM     20  C   UNL A   1      33.568  31.401  27.158  1.00  0.00     0.338 C 
ATOM     21  O   UNL A   1      32.970  32.436  27.413  1.00  0.00    -0.246 OA
BRANCH  20  22
ATOM     22  C   UNL A   1      34.867  31.081  27.756  1.00  0.00     0.060 A 
ATOM     23  C   UNL A   1      35.094  29.768  28.175  1.00  0.00     0.016 A 
ATOM     24  C   UNL A   1      35.806  32.082  28.001  1.00  0.00     0.016 A 
ATOM     25  C   UNL A   1      36.251  29.449  28.874  1.00  0.00     0.010 A 
ATOM     26  C   UNL A   1      36.979  31.757  28.685  1.00  0.00     0.010 A 
ATOM     27  C   UNL A   1      37.198  30.444  29.141  1.00  0.00    -0.014 A 
BRANCH  27  28
ATOM     28  C   UNL A   1      38.395  30.117  29.948  1.00  0.00     0.031 A 
ATOM     29  C   UNL A   1      39.437  29.195  29.390  1.00  0.00     0.074 A 
ATOM     30  C   UNL A   1      38.540  30.653  31.172  1.00  0.00     0.049 A 
ATOM     31  N   UNL A   1      40.490  28.685  29.975  1.00  0.00    -0.248 NA
ATOM     32  C   UNL A   1      39.264  28.783  27.989  1.00  0.00     0.031 C 
ATOM     33  C   UNL A   1      37.609  31.591  31.796  1.00  0.00     0.029 A 
ATOM     34  N   UNL A   1      39.521  30.471  32.113  1.00  0.00    -0.354 N 
ATOM     35  C   UNL A   1      41.084  27.864  29.027  1.00  0.00     0.074 A 
ATOM     36  C   UNL A   1      40.273  27.940  27.831  1.00  0.00     0.031 C 
ATOM     37  C   UNL A   1      38.056  31.894  33.025  1.00  0.00     0.029 A 
ATOM     38  C   UNL A   1      39.274  31.133  33.288  1.00  0.00     0.049 A 
ATOM     39  H   UNL A   1      40.321  29.919  31.960  1.00  0.00     0.167 HD
ATOM     40  C   UNL A   1      42.204  27.113  29.153  1.00  0.00     0.037 A 
ATOM     41  C   UNL A   1      39.935  31.097  34.459  1.00  0.00     0.037 A 
ATOM     42  C   UNL A   1      43.019  27.068  30.338  1.00  0.00     0.049 A 
ATOM     43  C   UNL A   1      41.163  30.242  34.582  1.00  0.00     0.074 A 
ATOM     44  C   UNL A   1      44.196  26.374  30.553  1.00  0.00     0.029 A 
ATOM     45  N   UNL A   1      42.736  27.750  31.514  1.00  0.00    -0.354 N 
ATOM     46  N   UNL A   1      41.722  29.466  33.685  1.00  0.00    -0.248 NA
ATOM     47  C   UNL A   1      41.851  30.254  35.880  1.00  0.00     0.031 C 
ATOM     48  C   UNL A   1      44.605  26.605  31.872  1.00  0.00     0.029 A 
ATOM     49  C   UNL A   1      43.704  27.475  32.466  1.00  0.00     0.049 A 
ATOM     50  H   UNL A   1      41.961  28.343  31.650  1.00  0.00     0.167 HD
ATOM     51  C   UNL A   1      42.827  28.901  34.303  1.00  0.00     0.074 A 
ATOM     52  C   UNL A   1      42.872  29.439  35.648  1.00  0.00     0.031 C 
ATOM     53  C   UNL A   1      43.722  28.014  33.803  1.00  0.00     0.037 A 
BRANCH  40  54
ATOM     54  C   UNL A   1      42.582  26.246  27.989  1.00  0.00     0.064 A 
ATOM     55  C   UNL A   1      42.072  24.949  27.833  1.00  0.00     0.173 A 
ATOM     56  C   UNL A   1      43.467  26.726  27.013  1.00  0.00     0.173 A 
ATOM     57  F   UNL A   1      41.234  24.438  28.748  1.00  0.00    -0.203 F 
ATOM     58  C   UNL A   1      42.459  24.153  26.757  1.00  0.00     0.198 A 
ATOM     59  C   UNL A   1      43.833  25.937  25.926  1.00  0.00     0.198 A 
ATOM     60  F   UNL A   1      43.982  27.961  27.115  1.00  0.00    -0.203 F 
ATOM     61  F   UNL A   1      42.000  22.898  26.655  1.00  0.00    -0.200 F 
ATOM     62  C   UNL A   1      43.336  24.649  25.804  1.00  0.00     0.200 A 
ATOM     63  F   UNL A   1      44.673  26.421  25.001  1.00  0.00    -0.200 F 
ATOM     64  F   UNL A   1      43.710  23.880  24.771  1.00  0.00    -0.200 F 
ENDBRANCH  40  54
BRANCH  41  65
ATOM     65  C   UNL A   1      39.415  31.878  35.609  1.00  0.00     0.064 A 
ATOM     66  C   UNL A   1      38.488  31.323  36.500  1.00  0.00     0.173 A 
ATOM     67  C   UNL A   1      39.871  33.180  35.863  1.00  0.00     0.173 A 
ATOM     68  F   UNL A   1      38.009  30.089  36.284  1.00  0.00    -0.203 F 
ATOM     69  C   UNL A   1      38.036  32.042  37.604  1.00  0.00     0.198 A 
ATOM     70  C   UNL A   1      39.436  33.888  36.980  1.00  0.00     0.198 A 
ATOM     71  F   UNL A   1      40.759  33.753  35.038  1.00  0.00    -0.203 F 
ATOM     72  F   UNL A   1      37.133  31.497  38.431  1.00  0.00    -0.200 F 
ATOM     73  C   UNL A   1      38.518  33.320  37.849  1.00  0.00     0.200 A 
ATOM     74  F   UNL A   1      39.915  35.117  37.219  1.00  0.00    -0.200 F 
ATOM     75  F   UNL A   1      38.096  34.003  38.922  1.00  0.00    -0.200 F 
ENDBRANCH  41  65
BRANCH  53  76
ATOM     76  C   UNL A   1      44.830  27.578  34.714  1.00  0.00     0.064 A 
ATOM     77  C   UNL A   1      44.709  26.432  35.514  1.00  0.00     0.173 A 
ATOM     78  C   UNL A   1      46.037  28.290  34.758  1.00  0.00     0.173 A 
ATOM     79  F   UNL A   1      43.567  25.729  35.517  1.00  0.00    -0.203 F 
ATOM     80  C   UNL A   1      45.752  26.026  36.340  1.00  0.00     0.198 A 
ATOM     81  C   UNL A   1      47.087  27.868  35.569  1.00  0.00     0.198 A 
ATOM     82  F   UNL A   1      46.202  29.390  34.008  1.00  0.00    -0.203 F 
ATOM     83  F   UNL A   1      45.603  24.951  37.126  1.00  0.00    -0.200 F 
ATOM     84  C   UNL A   1      46.942  26.740  36.363  1.00  0.00     0.200 A 
ATOM     85  F   UNL A   1      48.239  28.553  35.583  1.00  0.00    -0.200 F 
ATOM     86  F   UNL A   1      47.947  26.345  37.156  1.00  0.00    -0.200 F 
ENDBRANCH  53  76
ENDBRANCH  27  28
ENDBRANCH  20  22
ENDBRANCH  19  20
ENDBRANCH  18  19
ENDBRANCH  17  18
ENDBRANCH   1  17
TORSDOF 16
ENDMDL
MODEL 2
REMARK VINA RESULT:     -10.5      4.844     10.046
REMARK SMILES CCCCCC(=O)N1CCC[C@H](C(=O)OCCOC(=O)c2ccc(-c3c4nc(c(-c5c(F)c(F)c(F)c(F)c5F)c5ccc([nH]5)c(-c5c(F)c(F)c(F)c(F)c5F)c5nc(c(-c6c(F)c(F)c(F)c(F)c6F)c6ccc3[nH]6)C=C5)C=C4)cc2)C1
REMARK SMILES IDX 15 1 13 2 14 3 12 4 8 5 9 6 84 7 10 8 11 9 6 10 7 11 5 12
REMARK SMILES IDX 4 13 3 14 2 15 1 16 16 17 17 18 18 19 19 20 20 21 21 22
REMARK SMILES IDX 22 23 83 24 23 25 82 26 24 27 25 28 26 29 76 30 27 31 81 32
REMARK SMILES IDX 75 33 77 34 28 35 80 36 74 37 73 38 29 40 61 41 41 42 60 43
REMARK SMILES IDX 42 44 45 45 59 46 78 47 43 48 44 49 58 51 79 52 46 53 30 54
REMARK SMILES IDX 31 55 39 56 32 57 33 58 37 59 40 60 34 61 35 62 38 63 36 64
REMARK SMILES IDX 62 65 63 66 71 67 64 68 65 69 69 70 72 71 66 72 67 73 70 74
REMARK SMILES IDX 68 75 47 76 48 77 56 78 49 79 50 80 54 81 57 82 51 83 52 84
REMARK SMILES IDX 55 85 53 86
REMARK H PARENT 77 39 45 50
REMARK Flexibility Score: inf
ROOT
ATOM      1  O   UNL A   1      35.761  23.440  24.217  1.00  0.00    -0.462 OA
ENDROOT
BRANCH   1   2
ATOM      2  C   UNL A   1      34.647  23.745  23.511  1.00  0.00     0.310 C 
ATOM      3  O   UNL A   1      34.421  23.375  22.363  1.00  0.00    -0.252 OA
BRANCH   2   4
ATOM      4  C   UNL A   1      33.648  24.584  24.297  1.00  0.00     0.119 C 
ATOM      5  N   UNL A   1      32.706  22.801  25.707  1.00  0.00    -0.342 N 
ATOM      6  C   UNL A   1      31.371  22.949  25.140  1.00  0.00     0.119 C 
ATOM      7  C   UNL A   1      33.507  24.012  25.707  1.00  0.00     0.134 C 
ATOM      8  C   UNL A   1      31.394  23.537  23.734  1.00  0.00     0.022 C 
ATOM      9  C   UNL A   1      32.275  24.784  23.647  1.00  0.00     0.019 C 
BRANCH   5  10
ATOM     10  C   UNL A   1      33.313  21.554  25.713  1.00  0.00     0.222 C 
ATOM     11  O   UNL A   1      34.198  21.263  26.516  1.00  0.00    -0.275 OA
BRANCH  10  12
ATOM     12  C   UNL A   1      32.973  20.642  24.536  1.00  0.00     0.100 C 
BRANCH  12  13
ATOM     13  C   UNL A   1      33.005  19.128  24.742  1.00  0.00     0.010 C 
BRANCH  13  14
ATOM     14  C   UNL A   1      34.300  18.354  24.430  1.00  0.00     0.000 C 
BRANCH  14  15
ATOM     15  C   UNL A   1      34.176  17.056  23.626  1.00  0.00    -0.003 C 
ATOM     16  C   UNL A   1      33.375  15.982  24.339  1.00  0.00     0.004 C 
ENDBRANCH  14  15
ENDBRANCH  13  14
ENDBRANCH  12  13
ENDBRANCH  10  12
ENDBRANCH   5  10
ENDBRANCH   2   4
ENDBRANCH   1   2
BRANCH   1  17
ATOM     17  C   UNL A   1      36.729  22.578  23.592  1.00  0.00     0.274 C 
BRANCH  17  18
ATOM     18  C   UNL A   1      37.041  21.380  24.490  1.00  0.00     0.275 C 
BRANCH  18  19
ATOM     19  O   UNL A   1      37.489  21.806  25.790  1.00  0.00    -0.458 OA
BRANCH  19  20
ATOM     20  C   UNL A   1      38.792  21.566  26.053  1.00  0.00     0.338 C 
ATOM     21  O   UNL A   1      39.443  20.566  25.792  1.00  0.00    -0.246 OA
BRANCH  20  22
ATOM     22  C   UNL A   1      39.402  22.770  26.624  1.00  0.00     0.060 A 
ATOM     23  C   UNL A   1      38.996  24.012  26.132  1.00  0.00     0.016 A 
ATOM     24  C   UNL A   1      40.437  22.673  27.553  1.00  0.00     0.016 A 
ATOM     25  C   UNL A   1      39.645  25.170  26.540  1.00  0.00     0.010 A 
ATOM     26  C   UNL A   1      41.076  23.839  27.980  1.00  0.00     0.010 A 
ATOM     27  C   UNL A   1      40.696  25.091  27.460  1.00  0.00    -0.014 A 
BRANCH  27  28
ATOM     28  C   UNL A   1      41.432  26.317  27.838  1.00  0.00     0.031 A 
ATOM     29  C   UNL A   1      40.731  27.398  28.605  1.00  0.00     0.074 A 
ATOM     30  C   UNL A   1      42.724  26.451  27.495  1.00  0.00     0.049 A 
ATOM     31  N   UNL A   1      41.153  28.594  28.924  1.00  0.00    -0.248 NA
ATOM     32  C   UNL A   1      39.367  27.094  29.065  1.00  0.00     0.031 C 
ATOM     33  C   UNL A   1      43.516  25.447  26.785  1.00  0.00     0.029 A 
ATOM     34  N   UNL A   1      43.593  27.494  27.688  1.00  0.00    -0.354 N 
ATOM     35  C   UNL A   1      40.095  29.200  29.587  1.00  0.00     0.074 A 
ATOM     36  C   UNL A   1      39.011  28.242  29.623  1.00  0.00     0.031 C 
ATOM     37  C   UNL A   1      44.752  25.928  26.588  1.00  0.00     0.029 A 
ATOM     38  C   UNL A   1      44.822  27.289  27.114  1.00  0.00     0.049 A 
ATOM     39  H   UNL A   1      43.359  28.309  28.187  1.00  0.00     0.167 HD
ATOM     40  C   UNL A   1      40.039  30.446  30.114  1.00  0.00     0.037 A 
ATOM     41  C   UNL A   1      45.872  28.121  26.991  1.00  0.00     0.037 A 
ATOM     42  C   UNL A   1      41.134  31.380  30.099  1.00  0.00     0.049 A 
ATOM     43  C   UNL A   1      45.781  29.505  27.565  1.00  0.00     0.074 A 
ATOM     44  C   UNL A   1      41.195  32.651  30.642  1.00  0.00     0.029 A 
ATOM     45  N   UNL A   1      42.366  31.139  29.504  1.00  0.00    -0.354 N 
ATOM     46  N   UNL A   1      44.780  30.075  28.191  1.00  0.00    -0.248 NA
ATOM     47  C   UNL A   1      46.963  30.364  27.413  1.00  0.00     0.031 C 
ATOM     48  C   UNL A   1      42.450  33.194  30.343  1.00  0.00     0.029 A 
ATOM     49  C   UNL A   1      43.185  32.247  29.648  1.00  0.00     0.049 A 
ATOM     50  H   UNL A   1      42.619  30.304  29.048  1.00  0.00     0.167 HD
ATOM     51  C   UNL A   1      45.208  31.355  28.512  1.00  0.00     0.074 A 
ATOM     52  C   UNL A   1      46.570  31.472  28.029  1.00  0.00     0.031 C 
ATOM     53  C   UNL A   1      44.534  32.344  29.148  1.00  0.00     0.037 A 
BRANCH  40  54
ATOM     54  C   UNL A   1      38.734  30.882  30.709  1.00  0.00     0.064 A 
ATOM     55  C   UNL A   1      37.688  31.381  29.920  1.00  0.00     0.173 A 
ATOM     56  C   UNL A   1      38.527  30.791  32.093  1.00  0.00     0.173 A 
ATOM     57  F   UNL A   1      37.841  31.502  28.593  1.00  0.00    -0.203 F 
ATOM     58  C   UNL A   1      36.493  31.804  30.500  1.00  0.00     0.198 A 
ATOM     59  C   UNL A   1      37.324  31.192  32.668  1.00  0.00     0.198 A 
ATOM     60  F   UNL A   1      39.496  30.319  32.893  1.00  0.00    -0.203 F 
ATOM     61  F   UNL A   1      35.527  32.327  29.733  1.00  0.00    -0.200 F 
ATOM     62  C   UNL A   1      36.311  31.706  31.871  1.00  0.00     0.200 A 
ATOM     63  F   UNL A   1      37.147  31.089  33.992  1.00  0.00    -0.200 F 
ATOM     64  F   UNL A   1      35.164  32.117  32.428  1.00  0.00    -0.200 F 
ENDBRANCH  40  54
BRANCH  41  65
ATOM     65  C   UNL A   1      47.080  27.660  26.263  1.00  0.00     0.064 A 
ATOM     66  C   UNL A   1      48.179  27.128  26.947  1.00  0.00     0.173 A 
ATOM     67  C   UNL A   1      47.137  27.702  24.861  1.00  0.00     0.173 A 
ATOM     68  F   UNL A   1      48.176  27.087  28.288  1.00  0.00    -0.203 F 
ATOM     69  C   UNL A   1      49.292  26.653  26.258  1.00  0.00     0.198 A 
ATOM     70  C   UNL A   1      48.241  27.206  24.172  1.00  0.00     0.198 A 
ATOM     71  F   UNL A   1      46.108  28.202  24.162  1.00  0.00    -0.203 F 
ATOM     72  F   UNL A   1      50.341  26.167  26.936  1.00  0.00    -0.200 F 
ATOM     73  C   UNL A   1      49.318  26.684  24.870  1.00  0.00     0.200 A 
ATOM     74  F   UNL A   1      48.255  27.225  22.832  1.00  0.00    -0.200 F 
ATOM     75  F   UNL A   1      50.382  26.210  24.207  1.00  0.00    -0.200 F 
ENDBRANCH  41  65
BRANCH  53  76
ATOM     76  C   UNL A   1      45.264  33.636  29.362  1.00  0.00     0.064 A 
ATOM     77  C   UNL A   1      45.124  34.711  28.473  1.00  0.00     0.173 A 
ATOM     78  C   UNL A   1      46.080  33.813  30.489  1.00  0.00     0.173 A 
ATOM     79  F   UNL A   1      44.367  34.582  27.373  1.00  0.00    -0.203 F 
ATOM     80  C   UNL A   1      45.791  35.912  28.694  1.00  0.00     0.198 A 
ATOM     81  C   UNL A   1      46.728  35.024  30.719  1.00  0.00     0.198 A 
ATOM     82  F   UNL A   1      46.242  32.816  31.371  1.00  0.00    -0.203 F 
ATOM     83  F   UNL A   1      45.675  36.913  27.811  1.00  0.00    -0.200 F 
ATOM     84  C   UNL A   1      46.587  36.070  29.819  1.00  0.00     0.200 A 
ATOM     85  F   UNL A   1      47.489  35.178  31.812  1.00  0.00    -0.200 F 
ATOM     86  F   UNL A   1      47.225  37.229  30.034  1.00  0.00    -0.200 F 
ENDBRANCH  53  76
ENDBRANCH  27  28
ENDBRANCH  20  22
ENDBRANCH  19  20
ENDBRANCH  18  19
ENDBRANCH  17  18
ENDBRANCH   1  17
TORSDOF 16
ENDMDL
MODEL 3
REMARK VINA RESULT:     -10.5      4.816     10.090
REMARK SMILES CCCCCC(=O)N1CCC[C@H](C(=O)OCCOC(=O)c2ccc(-c3c4nc(c(-c5c(F)c(F)c(F)c(F)c5F)c5ccc([nH]5)c(-c5c(F)c(F)c(F)c(F)c5F)c5nc(c(-c6c(F)c(F)c(F)c(F)c6F)c6ccc3[nH]6)C=C5)C=C4)cc2)C1
REMARK SMILES IDX 15 1 13 2 14 3 12 4 8 5 9 6 84 7 10 8 11 9 6 10 7 11 5 12
REMARK SMILES IDX 4 13 3 14 2 15 1 16 16 17 17 18 18 19 19 20 20 21 21 22
REMARK SMILES IDX 22 23 83 24 23 25 82 26 24 27 25 28 26 29 76 30 27 31 81 32
REMARK SMILES IDX 75 33 77 34 28 35 80 36 74 37 73 38 29 40 61 41 41 42 60 43
REMARK SMILES IDX 42 44 45 45 59 46 78 47 43 48 44 49 58 51 79 52 46 53 30 54
REMARK SMILES IDX 31 55 39 56 32 57 33 58 37 59 40 60 34 61 35 62 38 63 36 64
REMARK SMILES IDX 62 65 63 66 71 67 64 68 65 69 69 70 72 71 66 72 67 73 70 74
REMARK SMILES IDX 68 75 47 76 48 77 56 78 49 79 50 80 54 81 57 82 51 83 52 84
REMARK SMILES IDX 55 85 53 86
REMARK H PARENT 77 39 45 50
REMARK Flexibility Score: inf
ROOT
ATOM      1  O   UNL A   1      35.450  22.584  23.507  1.00  0.00    -0.462 OA
ENDROOT
BRANCH   1   2
ATOM      2  C   UNL A   1      34.905  23.796  23.767  1.00  0.00     0.310 C 
ATOM      3  O   UNL A   1      34.403  24.535  22.925  1.00  0.00    -0.252 OA
BRANCH   2   4
ATOM      4  C   UNL A   1      34.935  24.163  25.245  1.00  0.00     0.119 C 
ATOM      5  N   UNL A   1      32.833  23.083  25.931  1.00  0.00    -0.342 N 
ATOM      6  C   UNL A   1      32.216  24.346  26.315  1.00  0.00     0.119 C 
ATOM      7  C   UNL A   1      34.279  23.046  26.056  1.00  0.00     0.134 C 
ATOM      8  C   UNL A   1      32.814  25.538  25.576  1.00  0.00     0.022 C 
ATOM      9  C   UNL A   1      34.343  25.528  25.613  1.00  0.00     0.019 C 
BRANCH   5  10
ATOM     10  C   UNL A   1      32.182  22.245  25.038  1.00  0.00     0.222 C 
ATOM     11  O   UNL A   1      31.247  22.636  24.340  1.00  0.00    -0.275 OA
BRANCH  10  12
ATOM     12  C   UNL A   1      32.546  20.765  25.125  1.00  0.00     0.100 C 
BRANCH  12  13
ATOM     13  C   UNL A   1      32.534  19.925  23.849  1.00  0.00     0.010 C 
BRANCH  13  14
ATOM     14  C   UNL A   1      32.528  18.389  23.960  1.00  0.00     0.000 C 
BRANCH  14  15
ATOM     15  C   UNL A   1      33.846  17.697  24.321  1.00  0.00    -0.003 C 
ATOM     16  C   UNL A   1      33.677  16.569  25.323  1.00  0.00     0.004 C 
ENDBRANCH  14  15
ENDBRANCH  13  14
ENDBRANCH  12  13
ENDBRANCH  10  12
ENDBRANCH   5  10
ENDBRANCH   2   4
ENDBRANCH   1   2
BRANCH   1  17
ATOM     17  C   UNL A   1      36.883  22.473  23.568  1.00  0.00     0.274 C 
BRANCH  17  18
ATOM     18  C   UNL A   1      37.293  21.288  24.444  1.00  0.00     0.275 C 
BRANCH  18  19
ATOM     19  O   UNL A   1      37.656  21.720  25.769  1.00  0.00    -0.458 OA
BRANCH  19  20
ATOM     20  C   UNL A   1      38.932  21.458  26.126  1.00  0.00     0.338 C 
ATOM     21  O   UNL A   1      39.561  20.422  25.972  1.00  0.00    -0.246 OA
BRANCH  20  22
ATOM     22  C   UNL A   1      39.550  22.677  26.653  1.00  0.00     0.060 A 
ATOM     23  C   UNL A   1      39.128  23.905  26.139  1.00  0.00     0.016 A 
ATOM     24  C   UNL A   1      40.605  22.608  27.561  1.00  0.00     0.016 A 
ATOM     25  C   UNL A   1      39.781  25.076  26.503  1.00  0.00     0.010 A 
ATOM     26  C   UNL A   1      41.248  23.787  27.944  1.00  0.00     0.010 A 
ATOM     27  C   UNL A   1      40.852  25.023  27.402  1.00  0.00    -0.014 A 
BRANCH  27  28
ATOM     28  C   UNL A   1      41.592  26.261  27.732  1.00  0.00     0.031 A 
ATOM     29  C   UNL A   1      40.918  27.339  28.526  1.00  0.00     0.074 A 
ATOM     30  C   UNL A   1      42.863  26.408  27.322  1.00  0.00     0.049 A 
ATOM     31  N   UNL A   1      41.341  28.543  28.814  1.00  0.00    -0.248 NA
ATOM     32  C   UNL A   1      39.583  27.023  29.058  1.00  0.00     0.031 C 
ATOM     33  C   UNL A   1      43.629  25.408  26.579  1.00  0.00     0.029 A 
ATOM     34  N   UNL A   1      43.728  27.462  27.462  1.00  0.00    -0.354 N 
ATOM     35  C   UNL A   1      40.311  29.141  29.527  1.00  0.00     0.074 A 
ATOM     36  C   UNL A   1      39.242  28.171  29.625  1.00  0.00     0.031 C 
ATOM     37  C   UNL A   1      44.848  25.902  26.315  1.00  0.00     0.029 A 
ATOM     38  C   UNL A   1      44.928  27.268  26.826  1.00  0.00     0.049 A 
ATOM     39  H   UNL A   1      43.509  28.278  27.966  1.00  0.00     0.167 HD
ATOM     40  C   UNL A   1      40.267  30.391  30.046  1.00  0.00     0.037 A 
ATOM     41  C   UNL A   1      45.960  28.111  26.644  1.00  0.00     0.037 A 
ATOM     42  C   UNL A   1      41.349  31.338  29.968  1.00  0.00     0.049 A 
ATOM     43  C   UNL A   1      45.881  29.499  27.211  1.00  0.00     0.074 A 
ATOM     44  C   UNL A   1      41.422  32.613  30.498  1.00  0.00     0.029 A 
ATOM     45  N   UNL A   1      42.551  31.107  29.312  1.00  0.00    -0.354 N 
ATOM     46  N   UNL A   1      44.907  30.062  27.884  1.00  0.00    -0.248 NA
ATOM     47  C   UNL A   1      47.043  30.371  26.992  1.00  0.00     0.031 C 
ATOM     48  C   UNL A   1      42.653  33.169  30.131  1.00  0.00     0.029 A 
ATOM     49  C   UNL A   1      43.363  32.225  29.405  1.00  0.00     0.049 A 
ATOM     50  H   UNL A   1      42.790  30.271  28.850  1.00  0.00     0.167 HD
ATOM     51  C   UNL A   1      45.335  31.349  28.173  1.00  0.00     0.074 A 
ATOM     52  C   UNL A   1      46.669  31.478  27.620  1.00  0.00     0.031 C 
ATOM     53  C   UNL A   1      44.683  32.335  28.836  1.00  0.00     0.037 A 
BRANCH  40  54
ATOM     54  C   UNL A   1      38.989  30.816  30.705  1.00  0.00     0.064 A 
ATOM     55  C   UNL A   1      38.797  30.711  32.090  1.00  0.00     0.173 A 
ATOM     56  C   UNL A   1      37.941  31.340  29.934  1.00  0.00     0.173 A 
ATOM     57  F   UNL A   1      39.763  30.201  32.870  1.00  0.00    -0.203 F 
ATOM     58  C   UNL A   1      37.590  31.087  32.675  1.00  0.00     0.198 A 
ATOM     59  C   UNL A   1      36.745  31.738  30.524  1.00  0.00     0.198 A 
ATOM     60  F   UNL A   1      38.075  31.462  28.604  1.00  0.00    -0.203 F 
ATOM     61  F   UNL A   1      37.408  30.930  33.993  1.00  0.00    -0.200 F 
ATOM     62  C   UNL A   1      36.567  31.604  31.893  1.00  0.00     0.200 A 
ATOM     63  F   UNL A   1      35.761  32.245  29.769  1.00  0.00    -0.200 F 
ATOM     64  F   UNL A   1      35.405  31.962  32.457  1.00  0.00    -0.200 F 
ENDBRANCH  40  54
BRANCH  41  65
ATOM     65  C   UNL A   1      47.134  27.660  25.857  1.00  0.00     0.064 A 
ATOM     66  C   UNL A   1      47.150  27.755  24.460  1.00  0.00     0.173 A 
ATOM     67  C   UNL A   1      48.282  27.165  26.494  1.00  0.00     0.173 A 
ATOM     68  F   UNL A   1      46.066  28.203  23.808  1.00  0.00    -0.203 F 
ATOM     69  C   UNL A   1      48.271  27.373  23.728  1.00  0.00     0.198 A 
ATOM     70  C   UNL A   1      49.411  26.806  25.762  1.00  0.00     0.198 A 
ATOM     71  F   UNL A   1      48.315  27.056  27.830  1.00  0.00    -0.203 F 
ATOM     72  F   UNL A   1      48.254  27.454  22.390  1.00  0.00    -0.200 F 
ATOM     73  C   UNL A   1      49.405  26.908  24.380  1.00  0.00     0.200 A 
ATOM     74  F   UNL A   1      50.508  26.370  26.397  1.00  0.00    -0.200 F 
ATOM     75  F   UNL A   1      50.489  26.558  23.675  1.00  0.00    -0.200 F 
ENDBRANCH  41  65
BRANCH  53  76
ATOM     76  C   UNL A   1      45.407  33.637  29.003  1.00  0.00     0.064 A 
ATOM     77  C   UNL A   1      46.265  33.861  30.090  1.00  0.00     0.173 A 
ATOM     78  C   UNL A   1      45.273  34.654  28.047  1.00  0.00     0.173 A 
ATOM     79  F   UNL A   1      46.412  32.923  31.038  1.00  0.00    -0.203 F 
ATOM     80  C   UNL A   1      46.948  35.066  30.224  1.00  0.00     0.198 A 
ATOM     81  C   UNL A   1      45.975  35.849  28.172  1.00  0.00     0.198 A 
ATOM     82  F   UNL A   1      44.467  34.486  26.988  1.00  0.00    -0.203 F 
ATOM     83  F   UNL A   1      47.733  35.275  31.290  1.00  0.00    -0.200 F 
ATOM     84  C   UNL A   1      46.808  36.056  29.262  1.00  0.00     0.200 A 
ATOM     85  F   UNL A   1      45.846  36.802  27.238  1.00  0.00    -0.200 F 
ATOM     86  F   UNL A   1      47.470  37.214  29.390  1.00  0.00    -0.200 F 
ENDBRANCH  53  76
ENDBRANCH  27  28
ENDBRANCH  20  22
ENDBRANCH  19  20
ENDBRANCH  18  19
ENDBRANCH  17  18
ENDBRANCH   1  17
TORSDOF 16
ENDMDL
