MODEL 1
REMARK VINA RESULT:     -12.1      0.000      0.000
REMARK SMILES Cc1ccc(NC(=O)c2cccn2CC(=O)OCCOC(=O)c2ccc(-c3c4nc(c(-c5c(F)c(F)c(F)c(F)c5F)c5ccc([nH]5)c(-c5c(F)c(F)c(F)c(F)c5F)c5nc(c(-c6c(F)c(F)c(F)c(F)c6F)c6ccc3[nH]6)C=C5)C=C4)cc2)cc1
REMARK SMILES IDX 18 1 17 2 15 3 16 4 14 5 13 6 9 7 10 8 11 9 12 10 7 11 6 12
REMARK SMILES IDX 8 14 5 15 1 16 2 17 3 18 87 19 4 20 86 21 19 22 20 23 21 24
REMARK SMILES IDX 22 25 23 26 24 27 85 28 25 29 84 30 26 31 27 32 28 33 78 34
REMARK SMILES IDX 29 35 83 36 77 37 79 38 30 39 82 40 76 41 75 42 31 44 63 45
REMARK SMILES IDX 43 46 62 47 44 48 47 49 61 50 80 51 45 52 46 53 60 55 81 56
REMARK SMILES IDX 48 57 32 58 33 59 41 60 34 61 35 62 39 63 42 64 36 65 37 66
REMARK SMILES IDX 40 67 38 68 64 69 65 70 73 71 66 72 67 73 71 74 74 75 68 76
REMARK SMILES IDX 69 77 72 78 70 79 49 80 50 81 58 82 51 83 52 84 56 85 59 86
REMARK SMILES IDX 53 87 54 88 57 89 55 90
REMARK H PARENT 6 13 79 43 47 54
REMARK Flexibility Score: inf
ROOT
ATOM      1  C   UNL A   1      34.140  29.559  26.961  1.00  0.00     0.274 C 
ENDROOT
BRANCH   1   2
ATOM      2  O   UNL A   1      32.820  29.540  27.531  1.00  0.00    -0.461 OA
BRANCH   2   3
ATOM      3  C   UNL A   1      32.146  28.361  27.445  1.00  0.00     0.326 C 
ATOM      4  O   UNL A   1      31.114  28.098  28.051  1.00  0.00    -0.250 OA
BRANCH   3   5
ATOM      5  C   UNL A   1      32.715  27.493  26.357  1.00  0.00     0.244 C 
BRANCH   5   6
ATOM      6  N   UNL A   1      31.855  27.363  25.198  1.00  0.00    -0.332 N 
ATOM      7  C   UNL A   1      30.996  26.313  24.970  1.00  0.00     0.107 A 
ATOM      8  C   UNL A   1      30.310  26.605  23.803  1.00  0.00     0.033 A 
ATOM      9  C   UNL A   1      30.817  27.825  23.291  1.00  0.00     0.020 A 
ATOM     10  C   UNL A   1      31.772  28.273  24.174  1.00  0.00     0.087 A 
BRANCH   7  11
ATOM     11  C   UNL A   1      30.894  25.171  25.844  1.00  0.00     0.272 C 
ATOM     12  N   UNL A   1      31.827  24.166  25.785  1.00  0.00    -0.321 N 
ATOM     13  H   UNL A   1      31.641  23.420  26.399  1.00  0.00     0.170 HD
ATOM     14  O   UNL A   1      29.995  25.075  26.682  1.00  0.00    -0.267 OA
BRANCH  12  15
ATOM     15  C   UNL A   1      32.995  23.989  25.022  1.00  0.00     0.041 A 
ATOM     16  C   UNL A   1      36.729  22.900  23.167  1.00  0.00     0.044 C 
ATOM     17  C   UNL A   1      35.452  23.391  23.778  1.00  0.00    -0.051 A 
ATOM     18  C   UNL A   1      34.250  23.244  23.084  1.00  0.00     0.005 A 
ATOM     19  C   UNL A   1      35.424  23.927  25.066  1.00  0.00     0.005 A 
ATOM     20  C   UNL A   1      33.036  23.562  23.695  1.00  0.00     0.026 A 
ATOM     21  C   UNL A   1      34.206  24.239  25.676  1.00  0.00     0.026 A 
ENDBRANCH  12  15
ENDBRANCH   7  11
ENDBRANCH   5   6
ENDBRANCH   3   5
ENDBRANCH   2   3
ENDBRANCH   1   2
BRANCH   1  22
ATOM     22  C   UNL A   1      35.093  30.185  27.986  1.00  0.00     0.275 C 
BRANCH  22  23
ATOM     23  O   UNL A   1      36.278  29.364  28.114  1.00  0.00    -0.458 OA
BRANCH  23  24
ATOM     24  C   UNL A   1      36.930  29.327  29.306  1.00  0.00     0.338 C 
ATOM     25  O   UNL A   1      36.424  29.488  30.406  1.00  0.00    -0.246 OA
BRANCH  24  26
ATOM     26  C   UNL A   1      38.321  28.811  29.100  1.00  0.00     0.060 A 
ATOM     27  C   UNL A   1      38.990  28.997  27.877  1.00  0.00     0.016 A 
ATOM     28  C   UNL A   1      39.037  28.293  30.168  1.00  0.00     0.016 A 
ATOM     29  C   UNL A   1      40.397  28.849  27.783  1.00  0.00     0.010 A 
ATOM     30  C   UNL A   1      40.411  28.064  30.046  1.00  0.00     0.010 A 
ATOM     31  C   UNL A   1      41.137  28.444  28.897  1.00  0.00    -0.014 A 
BRANCH  31  32
ATOM     32  C   UNL A   1      42.573  28.822  29.134  1.00  0.00     0.031 A 
ATOM     33  C   UNL A   1      43.072  28.381  30.440  1.00  0.00     0.074 A 
ATOM     34  C   UNL A   1      43.613  28.902  28.259  1.00  0.00     0.049 A 
ATOM     35  N   UNL A   1      43.286  27.128  30.642  1.00  0.00    -0.248 NA
ATOM     36  C   UNL A   1      43.436  29.251  31.530  1.00  0.00     0.031 C 
ATOM     37  C   UNL A   1      43.502  29.117  26.832  1.00  0.00     0.029 A 
ATOM     38  N   UNL A   1      44.995  28.616  28.470  1.00  0.00    -0.354 N 
ATOM     39  C   UNL A   1      44.032  27.011  31.776  1.00  0.00     0.074 A 
ATOM     40  C   UNL A   1      44.010  28.352  32.344  1.00  0.00     0.031 C 
ATOM     41  C   UNL A   1      44.695  28.862  26.264  1.00  0.00     0.029 A 
ATOM     42  C   UNL A   1      45.672  28.369  27.266  1.00  0.00     0.049 A 
ATOM     43  H   UNL A   1      45.424  28.595  29.355  1.00  0.00     0.167 HD
ATOM     44  C   UNL A   1      44.696  25.831  31.962  1.00  0.00     0.037 A 
ATOM     45  C   UNL A   1      46.516  27.330  26.955  1.00  0.00     0.037 A 
ATOM     46  C   UNL A   1      44.230  24.736  31.062  1.00  0.00     0.049 A 
ATOM     47  C   UNL A   1      45.569  26.264  26.534  1.00  0.00     0.074 A 
ATOM     48  C   UNL A   1      43.779  23.439  31.232  1.00  0.00     0.029 A 
ATOM     49  N   UNL A   1      44.115  24.952  29.694  1.00  0.00    -0.354 N 
ATOM     50  N   UNL A   1      44.948  25.572  27.429  1.00  0.00    -0.248 NA
ATOM     51  C   UNL A   1      45.160  26.007  25.169  1.00  0.00     0.031 C 
ATOM     52  C   UNL A   1      43.320  22.939  29.963  1.00  0.00     0.029 A 
ATOM     53  C   UNL A   1      43.484  23.923  29.002  1.00  0.00     0.049 A 
ATOM     54  H   UNL A   1      44.453  25.765  29.251  1.00  0.00     0.167 HD
ATOM     55  C   UNL A   1      43.990  24.830  26.805  1.00  0.00     0.074 A 
ATOM     56  C   UNL A   1      44.117  25.195  25.398  1.00  0.00     0.031 C 
ATOM     57  C   UNL A   1      43.145  24.069  27.560  1.00  0.00     0.037 A 
BRANCH  44  58
ATOM     58  C   UNL A   1      45.917  25.689  32.856  1.00  0.00     0.064 A 
ATOM     59  C   UNL A   1      45.745  25.587  34.255  1.00  0.00     0.173 A 
ATOM     60  C   UNL A   1      47.252  25.546  32.426  1.00  0.00     0.173 A 
ATOM     61  F   UNL A   1      44.532  25.684  34.817  1.00  0.00    -0.203 F 
ATOM     62  C   UNL A   1      46.808  25.340  35.132  1.00  0.00     0.198 A 
ATOM     63  C   UNL A   1      48.305  25.238  33.295  1.00  0.00     0.198 A 
ATOM     64  F   UNL A   1      47.617  25.729  31.156  1.00  0.00    -0.203 F 
ATOM     65  F   UNL A   1      46.580  25.268  36.451  1.00  0.00    -0.200 F 
ATOM     66  C   UNL A   1      48.085  25.142  34.650  1.00  0.00     0.200 A 
ATOM     67  F   UNL A   1      49.534  25.032  32.800  1.00  0.00    -0.200 F 
ATOM     68  F   UNL A   1      49.097  24.864  35.483  1.00  0.00    -0.200 F 
ENDBRANCH  44  58
BRANCH  45  69
ATOM     69  C   UNL A   1      47.782  26.777  27.576  1.00  0.00     0.064 A 
ATOM     70  C   UNL A   1      48.342  27.478  28.655  1.00  0.00     0.173 A 
ATOM     71  C   UNL A   1      48.652  25.842  26.955  1.00  0.00     0.173 A 
ATOM     72  F   UNL A   1      47.613  28.397  29.305  1.00  0.00    -0.203 F 
ATOM     73  C   UNL A   1      49.690  27.323  29.023  1.00  0.00     0.198 A 
ATOM     74  C   UNL A   1      50.001  25.713  27.300  1.00  0.00     0.198 A 
ATOM     75  F   UNL A   1      48.247  25.038  25.969  1.00  0.00    -0.203 F 
ATOM     76  F   UNL A   1      50.199  28.058  30.023  1.00  0.00    -0.200 F 
ATOM     77  C   UNL A   1      50.526  26.468  28.324  1.00  0.00     0.200 A 
ATOM     78  F   UNL A   1      50.794  24.893  26.594  1.00  0.00    -0.200 F 
ATOM     79  F   UNL A   1      51.832  26.389  28.617  1.00  0.00    -0.200 F 
ENDBRANCH  45  69
BRANCH  57  80
ATOM     80  C   UNL A   1      41.831  23.591  26.981  1.00  0.00     0.064 A 
ATOM     81  C   UNL A   1      40.663  24.364  26.862  1.00  0.00     0.173 A 
ATOM     82  C   UNL A   1      41.684  22.235  26.631  1.00  0.00     0.173 A 
ATOM     83  F   UNL A   1      40.704  25.699  26.972  1.00  0.00    -0.203 F 
ATOM     84  C   UNL A   1      39.414  23.791  26.599  1.00  0.00     0.198 A 
ATOM     85  C   UNL A   1      40.446  21.667  26.319  1.00  0.00     0.198 A 
ATOM     86  F   UNL A   1      42.741  21.412  26.608  1.00  0.00    -0.203 F 
ATOM     87  F   UNL A   1      38.314  24.558  26.611  1.00  0.00    -0.200 F 
ATOM     88  C   UNL A   1      39.304  22.439  26.341  1.00  0.00     0.200 A 
ATOM     89  F   UNL A   1      40.368  20.361  26.025  1.00  0.00    -0.200 F 
ATOM     90  F   UNL A   1      38.108  21.888  26.093  1.00  0.00    -0.200 F 
ENDBRANCH  57  80
ENDBRANCH  31  32
ENDBRANCH  24  26
ENDBRANCH  23  24
ENDBRANCH  22  23
ENDBRANCH   1  22
TORSDOF 14
ENDMDL
MODEL 2
REMARK VINA RESULT:     -11.8      5.662      9.643
REMARK SMILES Cc1ccc(NC(=O)c2cccn2CC(=O)OCCOC(=O)c2ccc(-c3c4nc(c(-c5c(F)c(F)c(F)c(F)c5F)c5ccc([nH]5)c(-c5c(F)c(F)c(F)c(F)c5F)c5nc(c(-c6c(F)c(F)c(F)c(F)c6F)c6ccc3[nH]6)C=C5)C=C4)cc2)cc1
REMARK SMILES IDX 18 1 17 2 15 3 16 4 14 5 13 6 9 7 10 8 11 9 12 10 7 11 6 12
REMARK SMILES IDX 8 14 5 15 1 16 2 17 3 18 87 19 4 20 86 21 19 22 20 23 21 24
REMARK SMILES IDX 22 25 23 26 24 27 85 28 25 29 84 30 26 31 27 32 28 33 78 34
REMARK SMILES IDX 29 35 83 36 77 37 79 38 30 39 82 40 76 41 75 42 31 44 63 45
REMARK SMILES IDX 43 46 62 47 44 48 47 49 61 50 80 51 45 52 46 53 60 55 81 56
REMARK SMILES IDX 48 57 32 58 33 59 41 60 34 61 35 62 39 63 42 64 36 65 37 66
REMARK SMILES IDX 40 67 38 68 64 69 65 70 73 71 66 72 67 73 71 74 74 75 68 76
REMARK SMILES IDX 69 77 72 78 70 79 49 80 50 81 58 82 51 83 52 84 56 85 59 86
REMARK SMILES IDX 53 87 54 88 57 89 55 90
REMARK H PARENT 6 13 79 43 47 54
REMARK Flexibility Score: inf
ROOT
ATOM      1  C   UNL A   1      39.244  22.555  26.042  1.00  0.00     0.274 C 
ENDROOT
BRANCH   1   2
ATOM      2  O   UNL A   1      37.819  22.576  26.232  1.00  0.00    -0.461 OA
BRANCH   2   3
ATOM      3  C   UNL A   1      37.067  22.724  25.107  1.00  0.00     0.326 C 
ATOM      4  O   UNL A   1      37.316  22.210  24.024  1.00  0.00    -0.250 OA
BRANCH   3   5
ATOM      5  C   UNL A   1      35.777  23.437  25.411  1.00  0.00     0.244 C 
BRANCH   5   6
ATOM      6  N   UNL A   1      34.603  22.594  25.315  1.00  0.00    -0.332 N 
ATOM      7  C   UNL A   1      33.674  22.654  24.301  1.00  0.00     0.107 A 
ATOM      8  C   UNL A   1      32.759  21.641  24.539  1.00  0.00     0.033 A 
ATOM      9  C   UNL A   1      33.115  21.006  25.755  1.00  0.00     0.020 A 
ATOM     10  C   UNL A   1      34.260  21.615  26.212  1.00  0.00     0.087 A 
BRANCH   7  11
ATOM     11  C   UNL A   1      33.732  23.619  23.232  1.00  0.00     0.272 C 
ATOM     12  N   UNL A   1      33.309  24.909  23.438  1.00  0.00    -0.321 N 
ATOM     13  H   UNL A   1      33.359  25.472  22.633  1.00  0.00     0.170 HD
ATOM     14  O   UNL A   1      34.182  23.329  22.122  1.00  0.00    -0.267 OA
BRANCH  12  15
ATOM     15  C   UNL A   1      32.819  25.586  24.569  1.00  0.00     0.041 A 
ATOM     16  C   UNL A   1      31.409  28.277  27.625  1.00  0.00     0.044 C 
ATOM     17  C   UNL A   1      31.942  27.272  26.649  1.00  0.00    -0.051 A 
ATOM     18  C   UNL A   1      31.086  26.316  26.102  1.00  0.00     0.005 A 
ATOM     19  C   UNL A   1      33.268  27.316  26.215  1.00  0.00     0.005 A 
ATOM     20  C   UNL A   1      31.530  25.467  25.087  1.00  0.00     0.026 A 
ATOM     21  C   UNL A   1      33.706  26.468  25.194  1.00  0.00     0.026 A 
ENDBRANCH  12  15
ENDBRANCH   7  11
ENDBRANCH   5   6
ENDBRANCH   3   5
ENDBRANCH   2   3
ENDBRANCH   1   2
BRANCH   1  22
ATOM     22  C   UNL A   1      39.874  23.518  27.056  1.00  0.00     0.275 C 
BRANCH  22  23
ATOM     23  O   UNL A   1      39.439  24.870  26.778  1.00  0.00    -0.458 OA
BRANCH  23  24
ATOM     24  C   UNL A   1      40.365  25.804  26.435  1.00  0.00     0.338 C 
ATOM     25  O   UNL A   1      41.001  25.834  25.392  1.00  0.00    -0.246 OA
BRANCH  24  26
ATOM     26  C   UNL A   1      40.316  26.939  27.410  1.00  0.00     0.060 A 
ATOM     27  C   UNL A   1      39.596  26.831  28.613  1.00  0.00     0.016 A 
ATOM     28  C   UNL A   1      41.121  28.052  27.225  1.00  0.00     0.016 A 
ATOM     29  C   UNL A   1      39.830  27.725  29.689  1.00  0.00     0.010 A 
ATOM     30  C   UNL A   1      41.283  28.981  28.257  1.00  0.00     0.010 A 
ATOM     31  C   UNL A   1      40.736  28.778  29.543  1.00  0.00    -0.014 A 
BRANCH  31  32
ATOM     32  C   UNL A   1      41.517  29.378  30.680  1.00  0.00     0.031 A 
ATOM     33  C   UNL A   1      42.315  30.539  30.275  1.00  0.00     0.074 A 
ATOM     34  C   UNL A   1      41.196  29.491  31.998  1.00  0.00     0.049 A 
ATOM     35  N   UNL A   1      41.721  31.646  29.995  1.00  0.00    -0.248 NA
ATOM     36  C   UNL A   1      43.756  30.588  30.238  1.00  0.00     0.031 C 
ATOM     37  C   UNL A   1      40.266  28.648  32.717  1.00  0.00     0.029 A 
ATOM     38  N   UNL A   1      41.521  30.530  32.922  1.00  0.00    -0.354 N 
ATOM     39  C   UNL A   1      42.662  32.629  29.968  1.00  0.00     0.074 A 
ATOM     40  C   UNL A   1      43.923  31.902  30.024  1.00  0.00     0.031 C 
ATOM     41  C   UNL A   1      39.994  29.219  33.905  1.00  0.00     0.029 A 
ATOM     42  C   UNL A   1      40.660  30.539  34.029  1.00  0.00     0.049 A 
ATOM     43  H   UNL A   1      42.262  31.165  32.797  1.00  0.00     0.167 HD
ATOM     44  C   UNL A   1      42.217  33.917  30.078  1.00  0.00     0.037 A 
ATOM     45  C   UNL A   1      39.989  31.602  34.584  1.00  0.00     0.037 A 
ATOM     46  C   UNL A   1      40.747  34.060  29.872  1.00  0.00     0.049 A 
ATOM     47  C   UNL A   1      38.762  31.678  33.747  1.00  0.00     0.074 A 
ATOM     48  C   UNL A   1      39.931  34.828  29.061  1.00  0.00     0.029 A 
ATOM     49  N   UNL A   1      39.858  33.239  30.556  1.00  0.00    -0.354 N 
ATOM     50  N   UNL A   1      38.815  32.239  32.586  1.00  0.00    -0.248 NA
ATOM     51  C   UNL A   1      37.500  31.042  34.062  1.00  0.00     0.031 C 
ATOM     52  C   UNL A   1      38.572  34.383  29.217  1.00  0.00     0.029 A 
ATOM     53  C   UNL A   1      38.539  33.337  30.126  1.00  0.00     0.049 A 
ATOM     54  H   UNL A   1      40.139  32.639  31.285  1.00  0.00     0.167 HD
ATOM     55  C   UNL A   1      37.645  31.985  31.936  1.00  0.00     0.074 A 
ATOM     56  C   UNL A   1      36.884  31.170  32.877  1.00  0.00     0.031 C 
ATOM     57  C   UNL A   1      37.495  32.415  30.649  1.00  0.00     0.037 A 
BRANCH  44  58
ATOM     58  C   UNL A   1      43.091  35.067  30.553  1.00  0.00     0.064 A 
ATOM     59  C   UNL A   1      43.094  36.281  29.830  1.00  0.00     0.173 A 
ATOM     60  C   UNL A   1      43.858  35.097  31.737  1.00  0.00     0.173 A 
ATOM     61  F   UNL A   1      42.398  36.416  28.693  1.00  0.00    -0.203 F 
ATOM     62  C   UNL A   1      43.781  37.420  30.267  1.00  0.00     0.198 A 
ATOM     63  C   UNL A   1      44.493  36.252  32.205  1.00  0.00     0.198 A 
ATOM     64  F   UNL A   1      44.064  34.010  32.481  1.00  0.00    -0.203 F 
ATOM     65  F   UNL A   1      43.756  38.538  29.528  1.00  0.00    -0.200 F 
ATOM     66  C   UNL A   1      44.462  37.413  31.467  1.00  0.00     0.200 A 
ATOM     67  F   UNL A   1      45.134  36.225  33.383  1.00  0.00    -0.200 F 
ATOM     68  F   UNL A   1      45.085  38.514  31.908  1.00  0.00    -0.200 F 
ENDBRANCH  44  58
BRANCH  45  69
ATOM     69  C   UNL A   1      40.413  32.952  35.124  1.00  0.00     0.064 A 
ATOM     70  C   UNL A   1      39.746  33.441  36.258  1.00  0.00     0.173 A 
ATOM     71  C   UNL A   1      41.148  33.925  34.398  1.00  0.00     0.173 A 
ATOM     72  F   UNL A   1      39.008  32.610  37.009  1.00  0.00    -0.203 F 
ATOM     73  C   UNL A   1      39.741  34.809  36.586  1.00  0.00     0.198 A 
ATOM     74  C   UNL A   1      41.116  35.289  34.705  1.00  0.00     0.198 A 
ATOM     75  F   UNL A   1      41.903  33.607  33.343  1.00  0.00    -0.203 F 
ATOM     76  F   UNL A   1      39.040  35.239  37.645  1.00  0.00    -0.200 F 
ATOM     77  C   UNL A   1      40.396  35.734  35.790  1.00  0.00     0.200 A 
ATOM     78  F   UNL A   1      41.740  36.168  33.908  1.00  0.00    -0.200 F 
ATOM     79  F   UNL A   1      40.314  37.046  36.052  1.00  0.00    -0.200 F 
ENDBRANCH  45  69
BRANCH  57  80
ATOM     80  C   UNL A   1      36.433  31.801  29.762  1.00  0.00     0.064 A 
ATOM     81  C   UNL A   1      36.495  30.522  29.182  1.00  0.00     0.173 A 
ATOM     82  C   UNL A   1      35.333  32.583  29.361  1.00  0.00     0.173 A 
ATOM     83  F   UNL A   1      37.372  29.607  29.619  1.00  0.00    -0.203 F 
ATOM     84  C   UNL A   1      35.638  30.131  28.148  1.00  0.00     0.198 A 
ATOM     85  C   UNL A   1      34.444  32.176  28.362  1.00  0.00     0.198 A 
ATOM     86  F   UNL A   1      35.104  33.782  29.911  1.00  0.00    -0.203 F 
ATOM     87  F   UNL A   1      35.815  28.943  27.550  1.00  0.00    -0.200 F 
ATOM     88  C   UNL A   1      34.621  30.964  27.728  1.00  0.00     0.200 A 
ATOM     89  F   UNL A   1      33.434  32.980  28.003  1.00  0.00    -0.200 F 
ATOM     90  F   UNL A   1      33.801  30.593  26.735  1.00  0.00    -0.200 F 
ENDBRANCH  57  80
ENDBRANCH  31  32
ENDBRANCH  24  26
ENDBRANCH  23  24
ENDBRANCH  22  23
ENDBRANCH   1  22
TORSDOF 14
ENDMDL
MODEL 3
REMARK VINA RESULT:     -11.7      5.790      9.742
REMARK SMILES Cc1ccc(NC(=O)c2cccn2CC(=O)OCCOC(=O)c2ccc(-c3c4nc(c(-c5c(F)c(F)c(F)c(F)c5F)c5ccc([nH]5)c(-c5c(F)c(F)c(F)c(F)c5F)c5nc(c(-c6c(F)c(F)c(F)c(F)c6F)c6ccc3[nH]6)C=C5)C=C4)cc2)cc1
REMARK SMILES IDX 18 1 17 2 15 3 16 4 14 5 13 6 9 7 10 8 11 9 12 10 7 11 6 12
REMARK SMILES IDX 8 14 5 15 1 16 2 17 3 18 87 19 4 20 86 21 19 22 20 23 21 24
REMARK SMILES IDX 22 25 23 26 24 27 85 28 25 29 84 30 26 31 27 32 28 33 78 34
REMARK SMILES IDX 29 35 83 36 77 37 79 38 30 39 82 40 76 41 75 42 31 44 63 45
REMARK SMILES IDX 43 46 62 47 44 48 47 49 61 50 80 51 45 52 46 53 60 55 81 56
REMARK SMILES IDX 48 57 32 58 33 59 41 60 34 61 35 62 39 63 42 64 36 65 37 66
REMARK SMILES IDX 40 67 38 68 64 69 65 70 73 71 66 72 67 73 71 74 74 75 68 76
REMARK SMILES IDX 69 77 72 78 70 79 49 80 50 81 58 82 51 83 52 84 56 85 59 86
REMARK SMILES IDX 53 87 54 88 57 89 55 90
REMARK H PARENT 6 13 79 43 47 54
REMARK Flexibility Score: inf
ROOT
ATOM      1  C   UNL A   1      37.429  24.016  25.753  1.00  0.00     0.274 C 
ENDROOT
BRANCH   1   2
ATOM      2  O   UNL A   1      37.337  23.041  24.700  1.00  0.00    -0.461 OA
BRANCH   2   3
ATOM      3  C   UNL A   1      36.411  23.288  23.734  1.00  0.00     0.326 C 
ATOM      4  O   UNL A   1      36.415  22.789  22.615  1.00  0.00    -0.250 OA
BRANCH   3   5
ATOM      5  C   UNL A   1      35.265  24.096  24.278  1.00  0.00     0.244 C 
BRANCH   5   6
ATOM      6  N   UNL A   1      33.992  23.405  24.249  1.00  0.00    -0.332 N 
ATOM      7  C   UNL A   1      33.008  23.610  23.309  1.00  0.00     0.107 A 
ATOM      8  C   UNL A   1      31.994  22.708  23.590  1.00  0.00     0.033 A 
ATOM      9  C   UNL A   1      32.355  21.994  24.760  1.00  0.00     0.020 A 
ATOM     10  C   UNL A   1      33.596  22.445  25.146  1.00  0.00     0.087 A 
BRANCH   7  11
ATOM     11  C   UNL A   1      33.108  24.595  22.262  1.00  0.00     0.272 C 
ATOM     12  N   UNL A   1      32.919  25.926  22.541  1.00  0.00    -0.321 N 
ATOM     13  H   UNL A   1      32.974  26.506  21.748  1.00  0.00     0.170 HD
ATOM     14  O   UNL A   1      33.391  24.283  21.104  1.00  0.00    -0.267 OA
BRANCH  12  15
ATOM     15  C   UNL A   1      32.662  26.626  23.734  1.00  0.00     0.041 A 
ATOM     16  C   UNL A   1      31.649  28.109  27.651  1.00  0.00     0.044 C 
ATOM     17  C   UNL A   1      31.970  27.699  26.245  1.00  0.00    -0.051 A 
ATOM     18  C   UNL A   1      33.291  27.735  25.797  1.00  0.00     0.005 A 
ATOM     19  C   UNL A   1      30.982  27.208  25.390  1.00  0.00     0.005 A 
ATOM     20  C   UNL A   1      33.627  27.223  24.544  1.00  0.00     0.026 A 
ATOM     21  C   UNL A   1      31.325  26.690  24.138  1.00  0.00     0.026 A 
ENDBRANCH  12  15
ENDBRANCH   7  11
ENDBRANCH   5   6
ENDBRANCH   3   5
ENDBRANCH   2   3
ENDBRANCH   1   2
BRANCH   1  22
ATOM     22  C   UNL A   1      38.736  23.770  26.517  1.00  0.00     0.275 C 
BRANCH  22  23
ATOM     23  O   UNL A   1      39.038  24.917  27.347  1.00  0.00    -0.458 OA
BRANCH  23  24
ATOM     24  C   UNL A   1      40.034  25.761  26.967  1.00  0.00     0.338 C 
ATOM     25  O   UNL A   1      40.697  25.675  25.945  1.00  0.00    -0.246 OA
BRANCH  24  26
ATOM     26  C   UNL A   1      40.038  26.963  27.860  1.00  0.00     0.060 A 
ATOM     27  C   UNL A   1      39.326  26.968  29.073  1.00  0.00     0.016 A 
ATOM     28  C   UNL A   1      40.883  28.029  27.591  1.00  0.00     0.016 A 
ATOM     29  C   UNL A   1      39.604  27.926  30.081  1.00  0.00     0.010 A 
ATOM     30  C   UNL A   1      41.089  29.021  28.553  1.00  0.00     0.010 A 
ATOM     31  C   UNL A   1      40.548  28.930  29.854  1.00  0.00    -0.014 A 
BRANCH  31  32
ATOM     32  C   UNL A   1      41.362  29.579  30.940  1.00  0.00     0.031 A 
ATOM     33  C   UNL A   1      42.189  30.686  30.451  1.00  0.00     0.074 A 
ATOM     34  C   UNL A   1      41.063  29.788  32.252  1.00  0.00     0.049 A 
ATOM     35  N   UNL A   1      41.624  31.790  30.106  1.00  0.00    -0.248 NA
ATOM     36  C   UNL A   1      43.629  30.688  30.393  1.00  0.00     0.031 C 
ATOM     37  C   UNL A   1      40.117  29.021  33.035  1.00  0.00     0.029 A 
ATOM     38  N   UNL A   1      41.431  30.874  33.101  1.00  0.00    -0.354 N 
ATOM     39  C   UNL A   1      42.594  32.740  30.004  1.00  0.00     0.074 A 
ATOM     40  C   UNL A   1      43.833  31.980  30.092  1.00  0.00     0.031 C 
ATOM     41  C   UNL A   1      39.879  29.677  34.186  1.00  0.00     0.029 A 
ATOM     42  C   UNL A   1      40.586  30.981  34.216  1.00  0.00     0.049 A 
ATOM     43  H   UNL A   1      42.189  31.476  32.927  1.00  0.00     0.167 HD
ATOM     44  C   UNL A   1      42.190  34.045  30.034  1.00  0.00     0.037 A 
ATOM     45  C   UNL A   1      39.955  32.098  34.708  1.00  0.00     0.037 A 
ATOM     46  C   UNL A   1      40.721  34.220  29.837  1.00  0.00     0.049 A 
ATOM     47  C   UNL A   1      38.719  32.157  33.882  1.00  0.00     0.074 A 
ATOM     48  C   UNL A   1      39.918  34.958  28.986  1.00  0.00     0.029 A 
ATOM     49  N   UNL A   1      39.818  33.473  30.583  1.00  0.00    -0.354 N 
ATOM     50  N   UNL A   1      38.774  32.640  32.686  1.00  0.00    -0.248 NA
ATOM     51  C   UNL A   1      37.444  31.582  34.253  1.00  0.00     0.031 C 
ATOM     52  C   UNL A   1      38.548  34.566  29.187  1.00  0.00     0.029 A 
ATOM     53  C   UNL A   1      38.497  33.583  30.163  1.00  0.00     0.049 A 
ATOM     54  H   UNL A   1      40.090  32.913  31.347  1.00  0.00     0.167 HD
ATOM     55  C   UNL A   1      37.587  32.380  32.068  1.00  0.00     0.074 A 
ATOM     56  C   UNL A   1      36.815  31.652  33.069  1.00  0.00     0.031 C 
ATOM     57  C   UNL A   1      37.432  32.730  30.757  1.00  0.00     0.037 A 
BRANCH  44  58
ATOM     58  C   UNL A   1      43.103  35.196  30.423  1.00  0.00     0.064 A 
ATOM     59  C   UNL A   1      43.390  36.206  29.477  1.00  0.00     0.173 A 
ATOM     60  C   UNL A   1      43.646  35.434  31.703  1.00  0.00     0.173 A 
ATOM     61  F   UNL A   1      42.930  36.133  28.220  1.00  0.00    -0.203 F 
ATOM     62  C   UNL A   1      44.127  37.353  29.793  1.00  0.00     0.198 A 
ATOM     63  C   UNL A   1      44.329  36.608  32.036  1.00  0.00     0.198 A 
ATOM     64  F   UNL A   1      43.576  34.535  32.686  1.00  0.00    -0.203 F 
ATOM     65  F   UNL A   1      44.376  38.268  28.846  1.00  0.00    -0.200 F 
ATOM     66  C   UNL A   1      44.577  37.566  31.079  1.00  0.00     0.200 A 
ATOM     67  F   UNL A   1      44.741  36.800  33.298  1.00  0.00    -0.200 F 
ATOM     68  F   UNL A   1      45.247  38.683  31.396  1.00  0.00    -0.200 F 
ENDBRANCH  44  58
BRANCH  45  69
ATOM     69  C   UNL A   1      40.426  33.467  35.154  1.00  0.00     0.064 A 
ATOM     70  C   UNL A   1      41.809  33.680  35.257  1.00  0.00     0.173 A 
ATOM     71  C   UNL A   1      39.621  34.427  35.823  1.00  0.00     0.173 A 
ATOM     72  F   UNL A   1      42.663  32.824  34.676  1.00  0.00    -0.203 F 
ATOM     73  C   UNL A   1      42.345  34.717  36.043  1.00  0.00     0.198 A 
ATOM     74  C   UNL A   1      40.155  35.436  36.630  1.00  0.00     0.198 A 
ATOM     75  F   UNL A   1      38.288  34.412  35.753  1.00  0.00    -0.203 F 
ATOM     76  F   UNL A   1      43.674  34.847  36.161  1.00  0.00    -0.200 F 
ATOM     77  C   UNL A   1      41.519  35.571  36.755  1.00  0.00     0.200 A 
ATOM     78  F   UNL A   1      39.335  36.238  37.326  1.00  0.00    -0.200 F 
ATOM     79  F   UNL A   1      42.031  36.500  37.574  1.00  0.00    -0.200 F 
ENDBRANCH  45  69
BRANCH  57  80
ATOM     80  C   UNL A   1      36.341  32.092  29.925  1.00  0.00     0.064 A 
ATOM     81  C   UNL A   1      36.365  30.783  29.414  1.00  0.00     0.173 A 
ATOM     82  C   UNL A   1      35.249  32.875  29.503  1.00  0.00     0.173 A 
ATOM     83  F   UNL A   1      37.231  29.874  29.882  1.00  0.00    -0.203 F 
ATOM     84  C   UNL A   1      35.480  30.356  28.418  1.00  0.00     0.198 A 
ATOM     85  C   UNL A   1      34.332  32.435  28.545  1.00  0.00     0.198 A 
ATOM     86  F   UNL A   1      35.056  34.106  29.993  1.00  0.00    -0.203 F 
ATOM     87  F   UNL A   1      35.620  29.135  27.882  1.00  0.00    -0.200 F 
ATOM     88  C   UNL A   1      34.471  31.188  27.974  1.00  0.00     0.200 A 
ATOM     89  F   UNL A   1      33.332  33.240  28.162  1.00  0.00    -0.200 F 
ATOM     90  F   UNL A   1      33.625  30.781  27.017  1.00  0.00    -0.200 F 
ENDBRANCH  57  80
ENDBRANCH  31  32
ENDBRANCH  24  26
ENDBRANCH  23  24
ENDBRANCH  22  23
ENDBRANCH   1  22
TORSDOF 14
ENDMDL
