MODEL 1
REMARK VINA RESULT:     -12.8      0.000      0.000
REMARK SMILES Cc1ccc(NC(=O)[C@H]2CC=CC[C@H]2C(=O)OCCOC(=O)c2ccc(-c3c4nc(c(-c5c(F)c(F)c(F)c(F)c5F)c5ccc([nH]5)c(-c5c(F)c(F)c(F)c(F)c5F)c5nc(c(-c6c(F)c(F)c(F)c(F)c6F)c6ccc3[nH]6)C=C5)C=C4)cc2)cc1F
REMARK SMILES IDX 18 1 17 2 15 3 16 4 14 5 9 6 10 7 11 8 13 9 12 10 7 11 6 12
REMARK SMILES IDX 8 14 5 15 1 16 2 17 3 18 87 19 4 20 86 21 88 22 19 23 20 24
REMARK SMILES IDX 21 25 22 26 23 27 24 28 85 29 25 30 84 31 26 32 27 33 28 34
REMARK SMILES IDX 78 35 29 36 83 37 77 38 79 39 30 40 82 41 76 42 75 43 31 45
REMARK SMILES IDX 63 46 43 47 62 48 44 49 47 50 61 51 80 52 45 53 46 54 60 56
REMARK SMILES IDX 81 57 48 58 32 59 33 60 41 61 34 62 35 63 39 64 42 65 36 66
REMARK SMILES IDX 37 67 40 68 38 69 64 70 65 71 73 72 66 73 67 74 71 75 74 76
REMARK SMILES IDX 68 77 69 78 72 79 70 80 49 81 50 82 58 83 51 84 52 85 56 86
REMARK SMILES IDX 59 87 53 88 54 89 57 90 55 91
REMARK H PARENT 6 13 79 44 47 55
REMARK Flexibility Score: inf
ROOT
ATOM      1  C   UNL A   1      32.247  30.269  26.616  1.00  0.00     0.274 C 
ENDROOT
BRANCH   1   2
ATOM      2  O   UNL A   1      32.409  30.043  25.200  1.00  0.00    -0.462 OA
BRANCH   2   3
ATOM      3  C   UNL A   1      32.713  28.774  24.833  1.00  0.00     0.310 C 
ATOM      4  O   UNL A   1      33.769  28.464  24.284  1.00  0.00    -0.252 OA
BRANCH   3   5
ATOM      5  C   UNL A   1      31.695  27.717  25.265  1.00  0.00     0.116 C 
ATOM      6  C   UNL A   1      30.510  27.321  24.336  1.00  0.00     0.097 C 
ATOM      7  C   UNL A   1      29.745  26.078  24.877  1.00  0.00     0.041 C 
ATOM      8  C   UNL A   1      30.398  25.238  25.929  1.00  0.00    -0.030 C 
ATOM      9  C   UNL A   1      32.491  26.558  25.866  1.00  0.00     0.043 C 
ATOM     10  C   UNL A   1      31.640  25.442  26.369  1.00  0.00    -0.030 C 
BRANCH   6  11
ATOM     11  C   UNL A   1      30.830  27.168  22.839  1.00  0.00     0.228 C 
ATOM     12  N   UNL A   1      31.566  26.155  22.259  1.00  0.00    -0.326 N 
ATOM     13  H   UNL A   1      31.578  26.232  21.278  1.00  0.00     0.169 HD
ATOM     14  O   UNL A   1      30.358  27.996  22.047  1.00  0.00    -0.274 OA
BRANCH  12  15
ATOM     15  C   UNL A   1      32.307  25.038  22.701  1.00  0.00     0.044 A 
ATOM     16  C   UNL A   1      34.404  21.711  24.591  1.00  0.00     0.047 C 
ATOM     17  C   UNL A   1      33.632  22.767  23.851  1.00  0.00    -0.015 A 
ATOM     18  C   UNL A   1      32.299  22.680  23.497  1.00  0.00     0.008 A 
ATOM     19  C   UNL A   1      34.250  23.965  23.544  1.00  0.00     0.128 A 
ATOM     20  C   UNL A   1      31.650  23.800  22.911  1.00  0.00     0.026 A 
ATOM     21  C   UNL A   1      33.649  25.068  22.961  1.00  0.00     0.065 A 
ATOM     22  F   UNL A   1      35.534  24.086  23.806  1.00  0.00    -0.207 F 
ENDBRANCH  12  15
ENDBRANCH   6  11
ENDBRANCH   3   5
ENDBRANCH   2   3
ENDBRANCH   1   2
BRANCH   1  23
ATOM     23  C   UNL A   1      33.579  30.199  27.388  1.00  0.00     0.275 C 
BRANCH  23  24
ATOM     24  O   UNL A   1      34.414  31.385  27.428  1.00  0.00    -0.458 OA
BRANCH  24  25
ATOM     25  C   UNL A   1      35.452  31.306  28.278  1.00  0.00     0.338 C 
ATOM     26  O   UNL A   1      35.989  32.263  28.826  1.00  0.00    -0.246 OA
BRANCH  25  27
ATOM     27  C   UNL A   1      36.238  30.071  28.313  1.00  0.00     0.060 A 
ATOM     28  C   UNL A   1      36.353  29.476  29.598  1.00  0.00     0.016 A 
ATOM     29  C   UNL A   1      37.225  29.916  27.354  1.00  0.00     0.016 A 
ATOM     30  C   UNL A   1      37.564  28.943  30.018  1.00  0.00     0.010 A 
ATOM     31  C   UNL A   1      38.424  29.371  27.771  1.00  0.00     0.010 A 
ATOM     32  C   UNL A   1      38.618  28.973  29.121  1.00  0.00    -0.014 A 
BRANCH  32  33
ATOM     33  C   UNL A   1      39.991  28.616  29.456  1.00  0.00     0.031 A 
ATOM     34  C   UNL A   1      40.378  27.248  29.085  1.00  0.00     0.074 A 
ATOM     35  C   UNL A   1      40.938  29.510  29.842  1.00  0.00     0.049 A 
ATOM     36  N   UNL A   1      41.508  26.719  29.387  1.00  0.00    -0.248 NA
ATOM     37  C   UNL A   1      39.474  26.318  28.405  1.00  0.00     0.031 C 
ATOM     38  C   UNL A   1      42.357  29.458  29.488  1.00  0.00     0.029 A 
ATOM     39  N   UNL A   1      40.847  30.677  30.606  1.00  0.00    -0.354 N 
ATOM     40  C   UNL A   1      41.623  25.578  28.638  1.00  0.00     0.074 A 
ATOM     41  C   UNL A   1      40.287  25.280  28.199  1.00  0.00     0.031 C 
ATOM     42  C   UNL A   1      43.028  30.417  30.143  1.00  0.00     0.029 A 
ATOM     43  C   UNL A   1      42.118  31.033  31.086  1.00  0.00     0.049 A 
ATOM     44  H   UNL A   1      40.016  31.176  30.781  1.00  0.00     0.167 HD
ATOM     45  C   UNL A   1      42.877  25.137  28.360  1.00  0.00     0.037 A 
ATOM     46  C   UNL A   1      42.358  31.177  32.421  1.00  0.00     0.037 A 
ATOM     47  C   UNL A   1      43.862  25.852  29.177  1.00  0.00     0.049 A 
ATOM     48  C   UNL A   1      43.231  30.093  32.982  1.00  0.00     0.074 A 
ATOM     49  C   UNL A   1      44.779  26.852  28.906  1.00  0.00     0.029 A 
ATOM     50  N   UNL A   1      43.755  25.781  30.566  1.00  0.00    -0.354 N 
ATOM     51  N   UNL A   1      43.600  29.060  32.284  1.00  0.00    -0.248 NA
ATOM     52  C   UNL A   1      43.708  30.036  34.360  1.00  0.00     0.031 C 
ATOM     53  C   UNL A   1      45.162  27.433  30.148  1.00  0.00     0.029 A 
ATOM     54  C   UNL A   1      44.518  26.760  31.175  1.00  0.00     0.049 A 
ATOM     55  H   UNL A   1      43.210  25.120  31.049  1.00  0.00     0.167 HD
ATOM     56  C   UNL A   1      44.220  28.158  33.091  1.00  0.00     0.074 A 
ATOM     57  C   UNL A   1      44.326  28.841  34.367  1.00  0.00     0.031 C 
ATOM     58  C   UNL A   1      44.521  26.910  32.631  1.00  0.00     0.037 A 
BRANCH  45  59
ATOM     59  C   UNL A   1      43.250  24.205  27.233  1.00  0.00     0.064 A 
ATOM     60  C   UNL A   1      42.898  22.841  27.319  1.00  0.00     0.173 A 
ATOM     61  C   UNL A   1      44.031  24.539  26.104  1.00  0.00     0.173 A 
ATOM     62  F   UNL A   1      42.176  22.375  28.348  1.00  0.00    -0.203 F 
ATOM     63  C   UNL A   1      43.293  21.900  26.364  1.00  0.00     0.198 A 
ATOM     64  C   UNL A   1      44.380  23.608  25.123  1.00  0.00     0.198 A 
ATOM     65  F   UNL A   1      44.548  25.756  25.920  1.00  0.00    -0.203 F 
ATOM     66  F   UNL A   1      42.973  20.610  26.531  1.00  0.00    -0.200 F 
ATOM     67  C   UNL A   1      44.022  22.286  25.258  1.00  0.00     0.200 A 
ATOM     68  F   UNL A   1      45.096  24.005  24.060  1.00  0.00    -0.200 F 
ATOM     69  F   UNL A   1      44.394  21.387  24.337  1.00  0.00    -0.200 F 
ENDBRANCH  45  59
BRANCH  46  70
ATOM     70  C   UNL A   1      41.248  31.837  33.143  1.00  0.00     0.064 A 
ATOM     71  C   UNL A   1      41.032  33.196  32.859  1.00  0.00     0.173 A 
ATOM     72  C   UNL A   1      40.182  31.080  33.654  1.00  0.00     0.173 A 
ATOM     73  F   UNL A   1      42.029  33.951  32.375  1.00  0.00    -0.203 F 
ATOM     74  C   UNL A   1      39.762  33.744  32.945  1.00  0.00     0.198 A 
ATOM     75  C   UNL A   1      38.906  31.628  33.712  1.00  0.00     0.198 A 
ATOM     76  F   UNL A   1      40.345  29.779  33.935  1.00  0.00    -0.203 F 
ATOM     77  F   UNL A   1      39.538  35.002  32.541  1.00  0.00    -0.200 F 
ATOM     78  C   UNL A   1      38.702  32.947  33.334  1.00  0.00     0.200 A 
ATOM     79  F   UNL A   1      37.858  30.849  34.021  1.00  0.00    -0.200 F 
ATOM     80  F   UNL A   1      37.468  33.449  33.263  1.00  0.00    -0.200 F 
ENDBRANCH  46  70
BRANCH  58  81
ATOM     81  C   UNL A   1      44.910  25.758  33.518  1.00  0.00     0.064 A 
ATOM     82  C   UNL A   1      44.021  25.100  34.387  1.00  0.00     0.173 A 
ATOM     83  C   UNL A   1      46.206  25.201  33.441  1.00  0.00     0.173 A 
ATOM     84  F   UNL A   1      42.716  25.400  34.417  1.00  0.00    -0.203 F 
ATOM     85  C   UNL A   1      44.436  24.062  35.220  1.00  0.00     0.198 A 
ATOM     86  C   UNL A   1      46.594  24.111  34.216  1.00  0.00     0.198 A 
ATOM     87  F   UNL A   1      47.130  25.683  32.597  1.00  0.00    -0.203 F 
ATOM     88  F   UNL A   1      43.572  23.532  36.097  1.00  0.00    -0.200 F 
ATOM     89  C   UNL A   1      45.722  23.566  35.134  1.00  0.00     0.200 A 
ATOM     90  F   UNL A   1      47.817  23.586  34.056  1.00  0.00    -0.200 F 
ATOM     91  F   UNL A   1      46.111  22.551  35.916  1.00  0.00    -0.200 F 
ENDBRANCH  58  81
ENDBRANCH  32  33
ENDBRANCH  25  27
ENDBRANCH  24  25
ENDBRANCH  23  24
ENDBRANCH   1  23
TORSDOF 13
ENDMDL
MODEL 2
REMARK VINA RESULT:     -12.6      2.150      3.498
REMARK SMILES Cc1ccc(NC(=O)[C@H]2CC=CC[C@H]2C(=O)OCCOC(=O)c2ccc(-c3c4nc(c(-c5c(F)c(F)c(F)c(F)c5F)c5ccc([nH]5)c(-c5c(F)c(F)c(F)c(F)c5F)c5nc(c(-c6c(F)c(F)c(F)c(F)c6F)c6ccc3[nH]6)C=C5)C=C4)cc2)cc1F
REMARK SMILES IDX 18 1 17 2 15 3 16 4 14 5 9 6 10 7 11 8 13 9 12 10 7 11 6 12
REMARK SMILES IDX 8 14 5 15 1 16 2 17 3 18 87 19 4 20 86 21 88 22 19 23 20 24
REMARK SMILES IDX 21 25 22 26 23 27 24 28 85 29 25 30 84 31 26 32 27 33 28 34
REMARK SMILES IDX 78 35 29 36 83 37 77 38 79 39 30 40 82 41 76 42 75 43 31 45
REMARK SMILES IDX 63 46 43 47 62 48 44 49 47 50 61 51 80 52 45 53 46 54 60 56
REMARK SMILES IDX 81 57 48 58 32 59 33 60 41 61 34 62 35 63 39 64 42 65 36 66
REMARK SMILES IDX 37 67 40 68 38 69 64 70 65 71 73 72 66 73 67 74 71 75 74 76
REMARK SMILES IDX 68 77 69 78 72 79 70 80 49 81 50 82 58 83 51 84 52 85 56 86
REMARK SMILES IDX 59 87 53 88 54 89 57 90 55 91
REMARK H PARENT 6 13 79 44 47 55
REMARK Flexibility Score: inf
ROOT
ATOM      1  C   UNL A   1      33.754  27.114  25.626  1.00  0.00     0.274 C 
ENDROOT
BRANCH   1   2
ATOM      2  O   UNL A   1      33.447  25.788  26.104  1.00  0.00    -0.462 OA
BRANCH   2   3
ATOM      3  C   UNL A   1      32.796  24.979  25.233  1.00  0.00     0.310 C 
ATOM      4  O   UNL A   1      32.183  25.396  24.251  1.00  0.00    -0.252 OA
BRANCH   3   5
ATOM      5  C   UNL A   1      32.981  23.481  25.483  1.00  0.00     0.116 C 
ATOM      6  C   UNL A   1      33.249  22.500  24.304  1.00  0.00     0.097 C 
ATOM      7  C   UNL A   1      33.629  21.079  24.812  1.00  0.00     0.041 C 
ATOM      8  C   UNL A   1      34.034  20.916  26.244  1.00  0.00    -0.030 C 
ATOM      9  C   UNL A   1      33.911  23.348  26.690  1.00  0.00     0.043 C 
ATOM     10  C   UNL A   1      34.176  21.937  27.090  1.00  0.00    -0.030 C 
BRANCH   6  11
ATOM     11  C   UNL A   1      34.226  22.981  23.217  1.00  0.00     0.228 C 
ATOM     12  N   UNL A   1      35.603  22.987  23.300  1.00  0.00    -0.326 N 
ATOM     13  H   UNL A   1      36.016  23.275  22.454  1.00  0.00     0.169 HD
ATOM     14  O   UNL A   1      33.761  23.365  22.134  1.00  0.00    -0.274 OA
BRANCH  12  15
ATOM     15  C   UNL A   1      36.577  22.691  24.277  1.00  0.00     0.044 A 
ATOM     16  C   UNL A   1      39.966  21.999  26.937  1.00  0.00     0.047 C 
ATOM     17  C   UNL A   1      38.737  22.297  26.126  1.00  0.00    -0.015 A 
ATOM     18  C   UNL A   1      38.103  23.524  26.058  1.00  0.00     0.008 A 
ATOM     19  C   UNL A   1      38.207  21.311  25.315  1.00  0.00     0.128 A 
ATOM     20  C   UNL A   1      37.022  23.710  25.155  1.00  0.00     0.026 A 
ATOM     21  C   UNL A   1      37.147  21.458  24.437  1.00  0.00     0.065 A 
ATOM     22  F   UNL A   1      38.733  20.106  25.379  1.00  0.00    -0.207 F 
ENDBRANCH  12  15
ENDBRANCH   6  11
ENDBRANCH   3   5
ENDBRANCH   2   3
ENDBRANCH   1   2
BRANCH   1  23
ATOM     23  C   UNL A   1      33.682  28.181  26.735  1.00  0.00     0.275 C 
BRANCH  23  24
ATOM     24  O   UNL A   1      34.867  28.974  27.004  1.00  0.00    -0.458 OA
BRANCH  24  25
ATOM     25  C   UNL A   1      34.627  30.136  27.637  1.00  0.00     0.338 C 
ATOM     26  O   UNL A   1      33.878  31.019  27.232  1.00  0.00    -0.246 OA
BRANCH  25  27
ATOM     27  C   UNL A   1      35.546  30.561  28.694  1.00  0.00     0.060 A 
ATOM     28  C   UNL A   1      36.570  31.451  28.271  1.00  0.00     0.016 A 
ATOM     29  C   UNL A   1      35.735  29.698  29.761  1.00  0.00     0.016 A 
ATOM     30  C   UNL A   1      37.867  31.302  28.739  1.00  0.00     0.010 A 
ATOM     31  C   UNL A   1      37.026  29.562  30.235  1.00  0.00     0.010 A 
ATOM     32  C   UNL A   1      38.099  30.295  29.661  1.00  0.00    -0.014 A 
BRANCH  32  33
ATOM     33  C   UNL A   1      39.422  29.893  30.122  1.00  0.00     0.031 A 
ATOM     34  C   UNL A   1      39.918  28.635  29.545  1.00  0.00     0.074 A 
ATOM     35  C   UNL A   1      40.263  30.699  30.821  1.00  0.00     0.049 A 
ATOM     36  N   UNL A   1      41.013  28.069  29.902  1.00  0.00    -0.248 NA
ATOM     37  C   UNL A   1      39.165  27.856  28.561  1.00  0.00     0.031 C 
ATOM     38  C   UNL A   1      41.719  30.738  30.684  1.00  0.00     0.029 A 
ATOM     39  N   UNL A   1      40.010  31.681  31.783  1.00  0.00    -0.354 N 
ATOM     40  C   UNL A   1      41.286  27.109  28.964  1.00  0.00     0.074 A 
ATOM     41  C   UNL A   1      40.043  26.893  28.275  1.00  0.00     0.031 C 
ATOM     42  C   UNL A   1      42.245  31.550  31.615  1.00  0.00     0.029 A 
ATOM     43  C   UNL A   1      41.180  31.946  32.512  1.00  0.00     0.049 A 
ATOM     44  H   UNL A   1      39.141  32.123  31.926  1.00  0.00     0.167 HD
ATOM     45  C   UNL A   1      42.586  26.751  28.798  1.00  0.00     0.037 A 
ATOM     46  C   UNL A   1      41.215  31.814  33.870  1.00  0.00     0.037 A 
ATOM     47  C   UNL A   1      43.409  27.294  29.883  1.00  0.00     0.049 A 
ATOM     48  C   UNL A   1      42.042  30.648  34.326  1.00  0.00     0.074 A 
ATOM     49  C   UNL A   1      44.311  28.339  29.963  1.00  0.00     0.029 A 
ATOM     50  N   UNL A   1      43.102  26.936  31.195  1.00  0.00    -0.354 N 
ATOM     51  N   UNL A   1      42.554  29.786  33.498  1.00  0.00    -0.248 NA
ATOM     52  C   UNL A   1      42.314  30.313  35.720  1.00  0.00     0.031 C 
ATOM     53  C   UNL A   1      44.481  28.656  31.340  1.00  0.00     0.029 A 
ATOM     54  C   UNL A   1      43.723  27.776  32.100  1.00  0.00     0.049 A 
ATOM     55  H   UNL A   1      42.521  26.182  31.446  1.00  0.00     0.167 HD
ATOM     56  C   UNL A   1      43.088  28.745  34.191  1.00  0.00     0.074 A 
ATOM     57  C   UNL A   1      42.975  29.150  35.579  1.00  0.00     0.031 C 
ATOM     58  C   UNL A   1      43.507  27.622  33.538  1.00  0.00     0.037 A 
BRANCH  45  59
ATOM     59  C   UNL A   1      43.160  26.076  27.575  1.00  0.00     0.064 A 
ATOM     60  C   UNL A   1      42.964  24.691  27.394  1.00  0.00     0.173 A 
ATOM     61  C   UNL A   1      43.991  26.683  26.607  1.00  0.00     0.173 A 
ATOM     62  F   UNL A   1      42.215  23.980  28.248  1.00  0.00    -0.203 F 
ATOM     63  C   UNL A   1      43.546  23.979  26.341  1.00  0.00     0.198 A 
ATOM     64  C   UNL A   1      44.529  25.981  25.526  1.00  0.00     0.198 A 
ATOM     65  F   UNL A   1      44.376  27.959  26.685  1.00  0.00    -0.203 F 
ATOM     66  F   UNL A   1      43.365  22.655  26.254  1.00  0.00    -0.200 F 
ATOM     67  C   UNL A   1      44.317  24.627  25.398  1.00  0.00     0.200 A 
ATOM     68  F   UNL A   1      45.282  26.631  24.625  1.00  0.00    -0.200 F 
ATOM     69  F   UNL A   1      44.869  23.949  24.384  1.00  0.00    -0.200 F 
ENDBRANCH  45  59
BRANCH  46  70
ATOM     70  C   UNL A   1      39.984  32.296  34.532  1.00  0.00     0.064 A 
ATOM     71  C   UNL A   1      39.130  31.317  35.067  1.00  0.00     0.173 A 
ATOM     72  C   UNL A   1      39.918  33.599  35.052  1.00  0.00     0.173 A 
ATOM     73  F   UNL A   1      39.161  30.063  34.591  1.00  0.00    -0.203 F 
ATOM     74  C   UNL A   1      38.345  31.590  36.175  1.00  0.00     0.198 A 
ATOM     75  C   UNL A   1      39.149  33.860  36.180  1.00  0.00     0.198 A 
ATOM     76  F   UNL A   1      40.717  34.563  34.572  1.00  0.00    -0.203 F 
ATOM     77  F   UNL A   1      37.638  30.614  36.762  1.00  0.00    -0.200 F 
ATOM     78  C   UNL A   1      38.388  32.847  36.747  1.00  0.00     0.200 A 
ATOM     79  F   UNL A   1      39.233  35.053  36.785  1.00  0.00    -0.200 F 
ATOM     80  F   UNL A   1      37.745  33.046  37.898  1.00  0.00    -0.200 F 
ENDBRANCH  46  70
BRANCH  58  81
ATOM     81  C   UNL A   1      43.811  26.316  34.222  1.00  0.00     0.064 A 
ATOM     82  C   UNL A   1      45.111  25.820  34.426  1.00  0.00     0.173 A 
ATOM     83  C   UNL A   1      42.773  25.551  34.800  1.00  0.00     0.173 A 
ATOM     84  F   UNL A   1      46.196  26.536  34.100  1.00  0.00    -0.203 F 
ATOM     85  C   UNL A   1      45.344  24.584  35.030  1.00  0.00     0.198 A 
ATOM     86  C   UNL A   1      43.016  24.358  35.475  1.00  0.00     0.198 A 
ATOM     87  F   UNL A   1      41.494  25.949  34.746  1.00  0.00    -0.203 F 
ATOM     88  F   UNL A   1      46.596  24.115  35.115  1.00  0.00    -0.200 F 
ATOM     89  C   UNL A   1      44.297  23.855  35.555  1.00  0.00     0.200 A 
ATOM     90  F   UNL A   1      41.999  23.706  36.056  1.00  0.00    -0.200 F 
ATOM     91  F   UNL A   1      44.524  22.681  36.159  1.00  0.00    -0.200 F 
ENDBRANCH  58  81
ENDBRANCH  32  33
ENDBRANCH  25  27
ENDBRANCH  24  25
ENDBRANCH  23  24
ENDBRANCH   1  23
TORSDOF 13
ENDMDL
MODEL 3
REMARK VINA RESULT:     -12.6      3.484      9.245
REMARK SMILES Cc1ccc(NC(=O)[C@H]2CC=CC[C@H]2C(=O)OCCOC(=O)c2ccc(-c3c4nc(c(-c5c(F)c(F)c(F)c(F)c5F)c5ccc([nH]5)c(-c5c(F)c(F)c(F)c(F)c5F)c5nc(c(-c6c(F)c(F)c(F)c(F)c6F)c6ccc3[nH]6)C=C5)C=C4)cc2)cc1F
REMARK SMILES IDX 18 1 17 2 15 3 16 4 14 5 9 6 10 7 11 8 13 9 12 10 7 11 6 12
REMARK SMILES IDX 8 14 5 15 1 16 2 17 3 18 87 19 4 20 86 21 88 22 19 23 20 24
REMARK SMILES IDX 21 25 22 26 23 27 24 28 85 29 25 30 84 31 26 32 27 33 28 34
REMARK SMILES IDX 78 35 29 36 83 37 77 38 79 39 30 40 82 41 76 42 75 43 31 45
REMARK SMILES IDX 63 46 43 47 62 48 44 49 47 50 61 51 80 52 45 53 46 54 60 56
REMARK SMILES IDX 81 57 48 58 32 59 33 60 41 61 34 62 35 63 39 64 42 65 36 66
REMARK SMILES IDX 37 67 40 68 38 69 64 70 65 71 73 72 66 73 67 74 71 75 74 76
REMARK SMILES IDX 68 77 69 78 72 79 70 80 49 81 50 82 58 83 51 84 52 85 56 86
REMARK SMILES IDX 59 87 53 88 54 89 57 90 55 91
REMARK H PARENT 6 13 79 44 47 55
REMARK Flexibility Score: inf
ROOT
ATOM      1  C   UNL A   1      36.787  21.589  25.368  1.00  0.00     0.274 C 
ENDROOT
BRANCH   1   2
ATOM      2  O   UNL A   1      35.713  21.648  26.329  1.00  0.00    -0.462 OA
BRANCH   2   3
ATOM      3  C   UNL A   1      34.797  22.629  26.136  1.00  0.00     0.310 C 
ATOM      4  O   UNL A   1      34.393  23.363  27.036  1.00  0.00    -0.252 OA
BRANCH   3   5
ATOM      5  C   UNL A   1      34.386  22.848  24.678  1.00  0.00     0.116 C 
ATOM      6  C   UNL A   1      33.232  22.021  24.040  1.00  0.00     0.097 C 
ATOM      7  C   UNL A   1      32.841  22.568  22.637  1.00  0.00     0.041 C 
ATOM      8  C   UNL A   1      33.307  23.935  22.245  1.00  0.00    -0.030 C 
ATOM      9  C   UNL A   1      34.328  24.361  24.460  1.00  0.00     0.043 C 
ATOM     10  C   UNL A   1      33.966  24.752  23.068  1.00  0.00    -0.030 C 
BRANCH   6  11
ATOM     11  C   UNL A   1      31.986  21.790  24.913  1.00  0.00     0.228 C 
ATOM     12  N   UNL A   1      31.086  22.751  25.324  1.00  0.00    -0.326 N 
ATOM     13  H   UNL A   1      30.332  22.354  25.818  1.00  0.00     0.169 HD
ATOM     14  O   UNL A   1      31.716  20.631  25.260  1.00  0.00    -0.274 OA
BRANCH  12  15
ATOM     15  C   UNL A   1      30.960  24.153  25.225  1.00  0.00     0.044 A 
ATOM     16  C   UNL A   1      31.042  28.471  24.599  1.00  0.00     0.047 C 
ATOM     17  C   UNL A   1      30.885  26.987  24.774  1.00  0.00    -0.015 A 
ATOM     18  C   UNL A   1      30.348  26.125  23.835  1.00  0.00     0.008 A 
ATOM     19  C   UNL A   1      31.366  26.386  25.922  1.00  0.00     0.128 A 
ATOM     20  C   UNL A   1      30.370  24.724  24.070  1.00  0.00     0.026 A 
ATOM     21  C   UNL A   1      31.388  25.027  26.186  1.00  0.00     0.065 A 
ATOM     22  F   UNL A   1      31.838  27.161  26.876  1.00  0.00    -0.207 F 
ENDBRANCH  12  15
ENDBRANCH   6  11
ENDBRANCH   3   5
ENDBRANCH   2   3
ENDBRANCH   1   2
BRANCH   1  23
ATOM     23  C   UNL A   1      37.929  22.573  25.687  1.00  0.00     0.275 C 
BRANCH  23  24
ATOM     24  O   UNL A   1      39.181  22.034  26.187  1.00  0.00    -0.458 OA
BRANCH  24  25
ATOM     25  C   UNL A   1      39.937  22.918  26.862  1.00  0.00     0.338 C 
ATOM     26  O   UNL A   1      40.861  22.626  27.614  1.00  0.00    -0.246 OA
BRANCH  25  27
ATOM     27  C   UNL A   1      39.449  24.290  27.009  1.00  0.00     0.060 A 
ATOM     28  C   UNL A   1      40.071  25.239  26.153  1.00  0.00     0.016 A 
ATOM     29  C   UNL A   1      38.941  24.657  28.245  1.00  0.00     0.016 A 
ATOM     30  C   UNL A   1      40.419  26.494  26.631  1.00  0.00     0.010 A 
ATOM     31  C   UNL A   1      39.276  25.913  28.712  1.00  0.00     0.010 A 
ATOM     32  C   UNL A   1      40.089  26.789  27.944  1.00  0.00    -0.014 A 
BRANCH  32  33
ATOM     33  C   UNL A   1      40.529  27.985  28.651  1.00  0.00     0.031 A 
ATOM     34  C   UNL A   1      39.550  29.081  28.673  1.00  0.00     0.074 A 
ATOM     35  C   UNL A   1      41.626  28.037  29.450  1.00  0.00     0.049 A 
ATOM     36  N   UNL A   1      39.792  30.244  29.158  1.00  0.00    -0.248 NA
ATOM     37  C   UNL A   1      38.223  28.979  28.061  1.00  0.00     0.031 C 
ATOM     38  C   UNL A   1      41.745  28.805  30.690  1.00  0.00     0.029 A 
ATOM     39  N   UNL A   1      42.866  27.398  29.354  1.00  0.00    -0.354 N 
ATOM     40  C   UNL A   1      38.586  30.884  29.271  1.00  0.00     0.074 A 
ATOM     41  C   UNL A   1      37.689  30.148  28.421  1.00  0.00     0.031 C 
ATOM     42  C   UNL A   1      43.003  28.736  31.153  1.00  0.00     0.029 A 
ATOM     43  C   UNL A   1      43.809  28.067  30.154  1.00  0.00     0.049 A 
ATOM     44  H   UNL A   1      43.051  26.599  28.810  1.00  0.00     0.167 HD
ATOM     45  C   UNL A   1      38.483  31.860  30.209  1.00  0.00     0.037 A 
ATOM     46  C   UNL A   1      44.965  28.562  29.624  1.00  0.00     0.037 A 
ATOM     47  C   UNL A   1      39.808  32.212  30.729  1.00  0.00     0.049 A 
ATOM     48  C   UNL A   1      44.995  30.061  29.576  1.00  0.00     0.074 A 
ATOM     49  C   UNL A   1      40.467  31.945  31.915  1.00  0.00     0.029 A 
ATOM     50  N   UNL A   1      40.774  32.673  29.835  1.00  0.00    -0.354 N 
ATOM     51  N   UNL A   1      43.965  30.792  29.888  1.00  0.00    -0.248 NA
ATOM     52  C   UNL A   1      46.132  30.859  29.129  1.00  0.00     0.031 C 
ATOM     53  C   UNL A   1      41.855  32.177  31.697  1.00  0.00     0.029 A 
ATOM     54  C   UNL A   1      42.035  32.629  30.398  1.00  0.00     0.049 A 
ATOM     55  H   UNL A   1      40.582  32.989  28.923  1.00  0.00     0.167 HD
ATOM     56  C   UNL A   1      44.215  32.092  29.576  1.00  0.00     0.074 A 
ATOM     57  C   UNL A   1      45.607  32.096  29.167  1.00  0.00     0.031 C 
ATOM     58  C   UNL A   1      43.215  33.019  29.626  1.00  0.00     0.037 A 
BRANCH  45  59
ATOM     59  C   UNL A   1      37.193  32.374  30.802  1.00  0.00     0.064 A 
ATOM     60  C   UNL A   1      36.329  33.156  30.006  1.00  0.00     0.173 A 
ATOM     61  C   UNL A   1      36.787  32.239  32.149  1.00  0.00     0.173 A 
ATOM     62  F   UNL A   1      36.598  33.387  28.713  1.00  0.00    -0.203 F 
ATOM     63  C   UNL A   1      35.168  33.747  30.512  1.00  0.00     0.198 A 
ATOM     64  C   UNL A   1      35.600  32.787  32.640  1.00  0.00     0.198 A 
ATOM     65  F   UNL A   1      37.538  31.630  33.070  1.00  0.00    -0.203 F 
ATOM     66  F   UNL A   1      34.418  34.522  29.718  1.00  0.00    -0.200 F 
ATOM     67  C   UNL A   1      34.796  33.551  31.826  1.00  0.00     0.200 A 
ATOM     68  F   UNL A   1      35.261  32.588  33.923  1.00  0.00    -0.200 F 
ATOM     69  F   UNL A   1      33.679  34.109  32.310  1.00  0.00    -0.200 F 
ENDBRANCH  45  59
BRANCH  46  70
ATOM     70  C   UNL A   1      45.573  27.665  28.617  1.00  0.00     0.064 A 
ATOM     71  C   UNL A   1      46.047  26.426  29.081  1.00  0.00     0.173 A 
ATOM     72  C   UNL A   1      45.241  27.789  27.259  1.00  0.00     0.173 A 
ATOM     73  F   UNL A   1      46.379  26.271  30.371  1.00  0.00    -0.203 F 
ATOM     74  C   UNL A   1      46.051  25.314  28.254  1.00  0.00     0.198 A 
ATOM     75  C   UNL A   1      45.222  26.666  26.441  1.00  0.00     0.198 A 
ATOM     76  F   UNL A   1      44.782  28.953  26.776  1.00  0.00    -0.203 F 
ATOM     77  F   UNL A   1      46.373  24.108  28.741  1.00  0.00    -0.200 F 
ATOM     78  C   UNL A   1      45.603  25.433  26.951  1.00  0.00     0.200 A 
ATOM     79  F   UNL A   1      44.726  26.752  25.198  1.00  0.00    -0.200 F 
ATOM     80  F   UNL A   1      45.471  24.326  26.219  1.00  0.00    -0.200 F 
ENDBRANCH  46  70
BRANCH  58  81
ATOM     81  C   UNL A   1      43.307  34.389  29.009  1.00  0.00     0.064 A 
ATOM     82  C   UNL A   1      43.370  35.582  29.751  1.00  0.00     0.173 A 
ATOM     83  C   UNL A   1      43.441  34.538  27.610  1.00  0.00     0.173 A 
ATOM     84  F   UNL A   1      43.447  35.575  31.089  1.00  0.00    -0.203 F 
ATOM     85  C   UNL A   1      43.415  36.833  29.136  1.00  0.00     0.198 A 
ATOM     86  C   UNL A   1      43.568  35.784  27.004  1.00  0.00     0.198 A 
ATOM     87  F   UNL A   1      43.474  33.477  26.791  1.00  0.00    -0.203 F 
ATOM     88  F   UNL A   1      43.378  37.942  29.888  1.00  0.00    -0.200 F 
ATOM     89  C   UNL A   1      43.515  36.934  27.763  1.00  0.00     0.200 A 
ATOM     90  F   UNL A   1      43.753  35.861  25.679  1.00  0.00    -0.200 F 
ATOM     91  F   UNL A   1      43.585  38.135  27.175  1.00  0.00    -0.200 F 
ENDBRANCH  58  81
ENDBRANCH  32  33
ENDBRANCH  25  27
ENDBRANCH  24  25
ENDBRANCH  23  24
ENDBRANCH   1  23
TORSDOF 13
ENDMDL
