MODEL 1
REMARK VINA RESULT:     -12.1      0.000      0.000
REMARK SMILES CCc1cc(Nc2ccc(C(=O)OCCOC(=O)c3ccc(-c4c5nc(c(-c6c(F)c(F)c(F)c(F)c6F)c6ccc([nH]6)c(-c6c(F)c(F)c(F)c(F)c6F)c6nc(c(-c7c(F)c(F)c(F)c(F)c7F)c7ccc4[nH]7)C=C6)C=C5)cc3)cc2)nc(C(C)C)n1
REMARK SMILES IDX 14 1 13 2 11 3 12 4 10 5 7 6 8 7 83 8 9 9 82 10 6 11 5 13
REMARK SMILES IDX 3 14 4 15 89 16 85 17 84 18 2 19 1 20 86 21 87 22 88 23
REMARK SMILES IDX 15 24 16 25 17 26 18 27 19 28 20 29 81 30 21 31 80 32 22 33
REMARK SMILES IDX 23 34 24 35 74 36 25 37 79 38 73 39 75 40 26 41 78 42 72 43
REMARK SMILES IDX 71 44 27 46 59 47 39 48 58 49 40 50 43 51 57 52 76 53 41 54
REMARK SMILES IDX 42 55 56 57 77 58 44 59 28 60 29 61 37 62 30 63 31 64 35 65
REMARK SMILES IDX 38 66 32 67 33 68 36 69 34 70 60 71 61 72 69 73 62 74 63 75
REMARK SMILES IDX 67 76 70 77 64 78 65 79 68 80 66 81 45 82 46 83 54 84 47 85
REMARK SMILES IDX 48 86 52 87 55 88 49 89 50 90 53 91 51 92
REMARK H PARENT 6 12 75 45 43 56
REMARK Flexibility Score: inf
ROOT
ATOM      1  C   UNL A   1      42.729  21.061  26.036  1.00  0.00     0.275 C 
ENDROOT
BRANCH   1   2
ATOM      2  O   UNL A   1      41.382  21.397  25.647  1.00  0.00    -0.458 OA
BRANCH   2   3
ATOM      3  C   UNL A   1      40.449  21.251  26.619  1.00  0.00     0.338 C 
ATOM      4  O   UNL A   1      40.609  20.741  27.717  1.00  0.00    -0.246 OA
BRANCH   3   5
ATOM      5  C   UNL A   1      39.172  21.877  26.215  1.00  0.00     0.060 A 
ATOM      6  C   UNL A   1      36.854  23.060  25.168  1.00  0.00     0.040 A 
ATOM      7  C   UNL A   1      37.123  21.710  24.931  1.00  0.00     0.027 A 
ATOM      8  C   UNL A   1      37.741  23.800  25.965  1.00  0.00     0.027 A 
ATOM      9  C   UNL A   1      38.287  21.129  25.430  1.00  0.00     0.018 A 
ATOM     10  C   UNL A   1      38.887  23.210  26.508  1.00  0.00     0.018 A 
BRANCH   6  11
ATOM     11  N   UNL A   1      35.831  23.691  24.431  1.00  0.00    -0.340 N 
ATOM     12  H   UNL A   1      35.979  23.854  23.472  1.00  0.00     0.168 HD
BRANCH  11  13
ATOM     13  C   UNL A   1      34.603  24.101  24.998  1.00  0.00     0.134 A 
ATOM     14  C   UNL A   1      32.391  23.638  25.668  1.00  0.00     0.046 A 
ATOM     15  C   UNL A   1      33.588  23.178  25.150  1.00  0.00     0.071 A 
ATOM     16  N   UNL A   1      32.224  24.918  26.055  1.00  0.00    -0.238 NA
ATOM     17  C   UNL A   1      33.268  25.748  25.894  1.00  0.00     0.133 A 
ATOM     18  N   UNL A   1      34.450  25.378  25.383  1.00  0.00    -0.216 NA
BRANCH  14  19
ATOM     19  C   UNL A   1      31.242  22.675  25.843  1.00  0.00     0.053 C 
ATOM     20  C   UNL A   1      30.208  23.112  26.874  1.00  0.00     0.011 C 
ENDBRANCH  14  19
BRANCH  17  21
ATOM     21  C   UNL A   1      33.143  27.184  26.343  1.00  0.00     0.051 C 
ATOM     22  C   UNL A   1      33.601  28.156  25.258  1.00  0.00     0.016 C 
ATOM     23  C   UNL A   1      31.713  27.478  26.789  1.00  0.00     0.016 C 
ENDBRANCH  17  21
ENDBRANCH  11  13
ENDBRANCH   6  11
ENDBRANCH   3   5
ENDBRANCH   2   3
ENDBRANCH   1   2
BRANCH   1  24
ATOM     24  C   UNL A   1      43.739  21.889  25.243  1.00  0.00     0.275 C 
BRANCH  24  25
ATOM     25  O   UNL A   1      43.120  23.108  24.795  1.00  0.00    -0.458 OA
BRANCH  25  26
ATOM     26  C   UNL A   1      43.838  24.237  24.992  1.00  0.00     0.338 C 
ATOM     27  O   UNL A   1      44.935  24.498  24.530  1.00  0.00    -0.246 OA
BRANCH  26  28
ATOM     28  C   UNL A   1      43.102  25.169  25.876  1.00  0.00     0.060 A 
ATOM     29  C   UNL A   1      43.316  26.545  25.813  1.00  0.00     0.016 A 
ATOM     30  C   UNL A   1      42.274  24.647  26.870  1.00  0.00     0.016 A 
ATOM     31  C   UNL A   1      42.804  27.387  26.805  1.00  0.00     0.010 A 
ATOM     32  C   UNL A   1      41.686  25.501  27.809  1.00  0.00     0.010 A 
ATOM     33  C   UNL A   1      41.992  26.874  27.827  1.00  0.00    -0.014 A 
BRANCH  33  34
ATOM     34  C   UNL A   1      41.555  27.728  28.972  1.00  0.00     0.031 A 
ATOM     35  C   UNL A   1      42.381  27.759  30.235  1.00  0.00     0.074 A 
ATOM     36  C   UNL A   1      40.449  28.495  28.904  1.00  0.00     0.049 A 
ATOM     37  N   UNL A   1      42.085  28.250  31.413  1.00  0.00    -0.248 NA
ATOM     38  C   UNL A   1      43.714  27.136  30.168  1.00  0.00     0.031 C 
ATOM     39  C   UNL A   1      39.566  28.619  27.746  1.00  0.00     0.029 A 
ATOM     40  N   UNL A   1      39.885  29.331  29.840  1.00  0.00    -0.354 N 
ATOM     41  C   UNL A   1      43.149  27.914  32.243  1.00  0.00     0.074 A 
ATOM     42  C   UNL A   1      44.109  27.199  31.430  1.00  0.00     0.031 C 
ATOM     43  C   UNL A   1      38.604  29.516  28.019  1.00  0.00     0.029 A 
ATOM     44  C   UNL A   1      38.756  29.976  29.397  1.00  0.00     0.049 A 
ATOM     45  H   UNL A   1      40.257  29.455  30.743  1.00  0.00     0.167 HD
ATOM     46  C   UNL A   1      43.306  28.169  33.564  1.00  0.00     0.037 A 
ATOM     47  C   UNL A   1      37.924  30.821  30.033  1.00  0.00     0.037 A 
ATOM     48  C   UNL A   1      42.403  28.960  34.356  1.00  0.00     0.049 A 
ATOM     49  C   UNL A   1      38.158  31.155  31.480  1.00  0.00     0.074 A 
ATOM     50  C   UNL A   1      42.467  29.257  35.707  1.00  0.00     0.029 A 
ATOM     51  N   UNL A   1      41.293  29.620  33.855  1.00  0.00    -0.354 N 
ATOM     52  N   UNL A   1      39.105  30.735  32.282  1.00  0.00    -0.248 NA
ATOM     53  C   UNL A   1      37.194  32.067  32.116  1.00  0.00     0.031 C 
ATOM     54  C   UNL A   1      41.395  30.100  36.023  1.00  0.00     0.029 A 
ATOM     55  C   UNL A   1      40.679  30.344  34.864  1.00  0.00     0.049 A 
ATOM     56  H   UNL A   1      40.986  29.580  32.920  1.00  0.00     0.167 HD
ATOM     57  C   UNL A   1      38.852  31.327  33.511  1.00  0.00     0.074 A 
ATOM     58  C   UNL A   1      37.679  32.160  33.345  1.00  0.00     0.031 C 
ATOM     59  C   UNL A   1      39.523  31.180  34.679  1.00  0.00     0.037 A 
BRANCH  46  60
ATOM     60  C   UNL A   1      44.488  27.553  34.250  1.00  0.00     0.064 A 
ATOM     61  C   UNL A   1      44.443  26.262  34.793  1.00  0.00     0.173 A 
ATOM     62  C   UNL A   1      45.696  28.263  34.335  1.00  0.00     0.173 A 
ATOM     63  F   UNL A   1      43.306  25.553  34.752  1.00  0.00    -0.203 F 
ATOM     64  C   UNL A   1      45.560  25.710  35.414  1.00  0.00     0.198 A 
ATOM     65  C   UNL A   1      46.817  27.699  34.936  1.00  0.00     0.198 A 
ATOM     66  F   UNL A   1      45.790  29.502  33.827  1.00  0.00    -0.203 F 
ATOM     67  F   UNL A   1      45.485  24.489  35.961  1.00  0.00    -0.200 F 
ATOM     68  C   UNL A   1      46.747  26.426  35.480  1.00  0.00     0.200 A 
ATOM     69  F   UNL A   1      47.965  28.389  34.990  1.00  0.00    -0.200 F 
ATOM     70  F   UNL A   1      47.824  25.889  36.073  1.00  0.00    -0.200 F 
ENDBRANCH  46  60
BRANCH  47  71
ATOM     71  C   UNL A   1      36.773  31.411  29.303  1.00  0.00     0.064 A 
ATOM     72  C   UNL A   1      36.762  32.770  28.963  1.00  0.00     0.173 A 
ATOM     73  C   UNL A   1      35.667  30.633  28.929  1.00  0.00     0.173 A 
ATOM     74  F   UNL A   1      37.784  33.559  29.325  1.00  0.00    -0.203 F 
ATOM     75  C   UNL A   1      35.684  33.332  28.283  1.00  0.00     0.198 A 
ATOM     76  C   UNL A   1      34.602  31.190  28.228  1.00  0.00     0.198 A 
ATOM     77  F   UNL A   1      35.632  29.328  29.236  1.00  0.00    -0.203 F 
ATOM     78  F   UNL A   1      35.681  34.642  28.002  1.00  0.00    -0.200 F 
ATOM     79  C   UNL A   1      34.608  32.541  27.910  1.00  0.00     0.200 A 
ATOM     80  F   UNL A   1      33.568  30.421  27.862  1.00  0.00    -0.200 F 
ATOM     81  F   UNL A   1      33.574  33.081  27.250  1.00  0.00    -0.200 F 
ENDBRANCH  47  71
BRANCH  59  82
ATOM     82  C   UNL A   1      39.023  31.955  35.858  1.00  0.00     0.064 A 
ATOM     83  C   UNL A   1      39.381  33.296  36.055  1.00  0.00     0.173 A 
ATOM     84  C   UNL A   1      38.156  31.359  36.785  1.00  0.00     0.173 A 
ATOM     85  F   UNL A   1      40.218  33.903  35.200  1.00  0.00    -0.203 F 
ATOM     86  C   UNL A   1      38.906  34.008  37.152  1.00  0.00     0.198 A 
ATOM     87  C   UNL A   1      37.669  32.079  37.873  1.00  0.00     0.198 A 
ATOM     88  F   UNL A   1      37.784  30.079  36.636  1.00  0.00    -0.203 F 
ATOM     89  F   UNL A   1      39.288  35.279  37.342  1.00  0.00    -0.200 F 
ATOM     90  C   UNL A   1      38.048  33.401  38.058  1.00  0.00     0.200 A 
ATOM     91  F   UNL A   1      36.839  31.492  38.745  1.00  0.00    -0.200 F 
ATOM     92  F   UNL A   1      37.594  34.086  39.116  1.00  0.00    -0.200 F 
ENDBRANCH  59  82
ENDBRANCH  33  34
ENDBRANCH  26  28
ENDBRANCH  25  26
ENDBRANCH  24  25
ENDBRANCH   1  24
TORSDOF 15
ENDMDL
MODEL 2
REMARK VINA RESULT:     -12.0      3.861      8.597
REMARK SMILES CCc1cc(Nc2ccc(C(=O)OCCOC(=O)c3ccc(-c4c5nc(c(-c6c(F)c(F)c(F)c(F)c6F)c6ccc([nH]6)c(-c6c(F)c(F)c(F)c(F)c6F)c6nc(c(-c7c(F)c(F)c(F)c(F)c7F)c7ccc4[nH]7)C=C6)C=C5)cc3)cc2)nc(C(C)C)n1
REMARK SMILES IDX 14 1 13 2 11 3 12 4 10 5 7 6 8 7 83 8 9 9 82 10 6 11 5 13
REMARK SMILES IDX 3 14 4 15 89 16 85 17 84 18 2 19 1 20 86 21 87 22 88 23
REMARK SMILES IDX 15 24 16 25 17 26 18 27 19 28 20 29 81 30 21 31 80 32 22 33
REMARK SMILES IDX 23 34 24 35 74 36 25 37 79 38 73 39 75 40 26 41 78 42 72 43
REMARK SMILES IDX 71 44 27 46 59 47 39 48 58 49 40 50 43 51 57 52 76 53 41 54
REMARK SMILES IDX 42 55 56 57 77 58 44 59 28 60 29 61 37 62 30 63 31 64 35 65
REMARK SMILES IDX 38 66 32 67 33 68 36 69 34 70 60 71 61 72 69 73 62 74 63 75
REMARK SMILES IDX 67 76 70 77 64 78 65 79 68 80 66 81 45 82 46 83 54 84 47 85
REMARK SMILES IDX 48 86 52 87 55 88 49 89 50 90 53 91 51 92
REMARK H PARENT 6 12 75 45 43 56
REMARK Flexibility Score: inf
ROOT
ATOM      1  C   UNL A   1      31.165  29.169  24.898  1.00  0.00     0.275 C 
ENDROOT
BRANCH   1   2
ATOM      2  O   UNL A   1      31.460  27.846  24.406  1.00  0.00    -0.458 OA
BRANCH   2   3
ATOM      3  C   UNL A   1      30.390  27.149  23.952  1.00  0.00     0.338 C 
ATOM      4  O   UNL A   1      29.516  27.556  23.202  1.00  0.00    -0.246 OA
BRANCH   3   5
ATOM      5  C   UNL A   1      30.439  25.750  24.427  1.00  0.00     0.060 A 
ATOM      6  C   UNL A   1      30.790  23.166  25.461  1.00  0.00     0.040 A 
ATOM      7  C   UNL A   1      30.442  24.221  26.309  1.00  0.00     0.027 A 
ATOM      8  C   UNL A   1      30.923  23.413  24.087  1.00  0.00     0.027 A 
ATOM      9  C   UNL A   1      30.293  25.509  25.798  1.00  0.00     0.018 A 
ATOM     10  C   UNL A   1      30.728  24.695  23.562  1.00  0.00     0.018 A 
BRANCH   6  11
ATOM     11  N   UNL A   1      31.205  21.945  26.030  1.00  0.00    -0.340 N 
ATOM     12  H   UNL A   1      30.680  21.574  26.775  1.00  0.00     0.168 HD
BRANCH  11  13
ATOM     13  C   UNL A   1      32.337  21.224  25.586  1.00  0.00     0.134 A 
ATOM     14  C   UNL A   1      34.668  21.030  25.298  1.00  0.00     0.046 A 
ATOM     15  C   UNL A   1      33.596  21.752  25.789  1.00  0.00     0.071 A 
ATOM     16  N   UNL A   1      34.509  19.839  24.686  1.00  0.00    -0.238 NA
ATOM     17  C   UNL A   1      33.253  19.385  24.547  1.00  0.00     0.133 A 
ATOM     18  N   UNL A   1      32.165  20.038  24.982  1.00  0.00    -0.216 NA
BRANCH  14  19
ATOM     19  C   UNL A   1      36.067  21.567  25.478  1.00  0.00     0.053 C 
ATOM     20  C   UNL A   1      36.840  21.757  24.178  1.00  0.00     0.011 C 
ENDBRANCH  14  19
BRANCH  17  21
ATOM     21  C   UNL A   1      33.023  18.040  23.899  1.00  0.00     0.051 C 
ATOM     22  C   UNL A   1      32.431  18.184  22.498  1.00  0.00     0.016 C 
ATOM     23  C   UNL A   1      34.318  17.233  23.879  1.00  0.00     0.016 C 
ENDBRANCH  17  21
ENDBRANCH  11  13
ENDBRANCH   6  11
ENDBRANCH   3   5
ENDBRANCH   2   3
ENDBRANCH   1   2
BRANCH   1  24
ATOM     24  C   UNL A   1      32.443  29.867  25.361  1.00  0.00     0.275 C 
BRANCH  24  25
ATOM     25  O   UNL A   1      32.326  30.217  26.752  1.00  0.00    -0.458 OA
BRANCH  25  26
ATOM     26  C   UNL A   1      32.982  31.337  27.130  1.00  0.00     0.338 C 
ATOM     27  O   UNL A   1      32.552  32.479  27.115  1.00  0.00    -0.246 OA
BRANCH  26  28
ATOM     28  C   UNL A   1      34.348  31.005  27.594  1.00  0.00     0.060 A 
ATOM     29  C   UNL A   1      34.729  29.684  27.831  1.00  0.00     0.016 A 
ATOM     30  C   UNL A   1      35.225  32.041  27.914  1.00  0.00     0.016 A 
ATOM     31  C   UNL A   1      35.928  29.403  28.493  1.00  0.00     0.010 A 
ATOM     32  C   UNL A   1      36.466  31.753  28.493  1.00  0.00     0.010 A 
ATOM     33  C   UNL A   1      36.808  30.436  28.847  1.00  0.00    -0.014 A 
BRANCH  33  34
ATOM     34  C   UNL A   1      38.020  30.171  29.679  1.00  0.00     0.031 A 
ATOM     35  C   UNL A   1      39.154  29.359  29.103  1.00  0.00     0.074 A 
ATOM     36  C   UNL A   1      38.143  30.657  30.930  1.00  0.00     0.049 A 
ATOM     37  N   UNL A   1      40.191  28.830  29.705  1.00  0.00    -0.248 NA
ATOM     38  C   UNL A   1      39.105  29.088  27.656  1.00  0.00     0.031 C 
ATOM     39  C   UNL A   1      37.165  31.498  31.618  1.00  0.00     0.029 A 
ATOM     40  N   UNL A   1      39.161  30.518  31.844  1.00  0.00    -0.354 N 
ATOM     41  C   UNL A   1      40.860  28.093  28.735  1.00  0.00     0.074 A 
ATOM     42  C   UNL A   1      40.127  28.261  27.498  1.00  0.00     0.031 C 
ATOM     43  C   UNL A   1      37.651  31.842  32.822  1.00  0.00     0.029 A 
ATOM     44  C   UNL A   1      38.941  31.187  33.023  1.00  0.00     0.049 A 
ATOM     45  H   UNL A   1      39.974  29.990  31.668  1.00  0.00     0.167 HD
ATOM     46  C   UNL A   1      41.976  27.337  28.865  1.00  0.00     0.037 A 
ATOM     47  C   UNL A   1      39.679  31.247  34.147  1.00  0.00     0.037 A 
ATOM     48  C   UNL A   1      42.763  27.242  30.065  1.00  0.00     0.049 A 
ATOM     49  C   UNL A   1      40.958  30.462  34.246  1.00  0.00     0.074 A 
ATOM     50  C   UNL A   1      43.899  26.486  30.300  1.00  0.00     0.029 A 
ATOM     51  N   UNL A   1      42.518  27.964  31.222  1.00  0.00    -0.354 N 
ATOM     52  N   UNL A   1      41.515  29.677  33.358  1.00  0.00    -0.248 NA
ATOM     53  C   UNL A   1      41.699  30.557  35.513  1.00  0.00     0.031 C 
ATOM     54  C   UNL A   1      44.344  26.752  31.600  1.00  0.00     0.029 A 
ATOM     55  C   UNL A   1      43.497  27.691  32.164  1.00  0.00     0.049 A 
ATOM     56  H   UNL A   1      41.762  28.580  31.354  1.00  0.00     0.167 HD
ATOM     57  C   UNL A   1      42.668  29.186  33.955  1.00  0.00     0.074 A 
ATOM     58  C   UNL A   1      42.747  29.783  35.272  1.00  0.00     0.031 C 
ATOM     59  C   UNL A   1      43.571  28.305  33.462  1.00  0.00     0.037 A 
BRANCH  46  60
ATOM     60  C   UNL A   1      42.398  26.520  27.681  1.00  0.00     0.064 A 
ATOM     61  C   UNL A   1      43.375  26.965  26.781  1.00  0.00     0.173 A 
ATOM     62  C   UNL A   1      41.830  25.254  27.466  1.00  0.00     0.173 A 
ATOM     63  F   UNL A   1      43.933  28.175  26.935  1.00  0.00    -0.203 F 
ATOM     64  C   UNL A   1      43.757  26.180  25.696  1.00  0.00     0.198 A 
ATOM     65  C   UNL A   1      42.231  24.462  26.394  1.00  0.00     0.198 A 
ATOM     66  F   UNL A   1      40.892  24.782  28.302  1.00  0.00    -0.203 F 
ATOM     67  F   UNL A   1      44.666  26.639  24.826  1.00  0.00    -0.200 F 
ATOM     68  C   UNL A   1      43.189  24.928  25.506  1.00  0.00     0.200 A 
ATOM     69  F   UNL A   1      41.688  23.250  26.218  1.00  0.00    -0.200 F 
ATOM     70  F   UNL A   1      43.564  24.171  24.465  1.00  0.00    -0.200 F 
ENDBRANCH  46  60
BRANCH  47  71
ATOM     71  C   UNL A   1      39.220  32.081  35.287  1.00  0.00     0.064 A 
ATOM     72  C   UNL A   1      38.459  31.522  36.322  1.00  0.00     0.173 A 
ATOM     73  C   UNL A   1      39.532  33.446  35.366  1.00  0.00     0.173 A 
ATOM     74  F   UNL A   1      38.112  30.227  36.274  1.00  0.00    -0.203 F 
ATOM     75  C   UNL A   1      38.020  32.299  37.392  1.00  0.00     0.198 A 
ATOM     76  C   UNL A   1      39.113  34.216  36.448  1.00  0.00     0.198 A 
ATOM     77  F   UNL A   1      40.254  34.026  34.396  1.00  0.00    -0.203 F 
ATOM     78  F   UNL A   1      37.263  31.749  38.351  1.00  0.00    -0.200 F 
ATOM     79  C   UNL A   1      38.354  33.644  37.458  1.00  0.00     0.200 A 
ATOM     80  F   UNL A   1      39.444  35.513  36.512  1.00  0.00    -0.200 F 
ATOM     81  F   UNL A   1      37.937  34.389  38.490  1.00  0.00    -0.200 F 
ENDBRANCH  47  71
BRANCH  59  82
ATOM     82  C   UNL A   1      44.734  27.956  34.337  1.00  0.00     0.064 A 
ATOM     83  C   UNL A   1      44.683  26.868  35.220  1.00  0.00     0.173 A 
ATOM     84  C   UNL A   1      45.920  28.701  34.274  1.00  0.00     0.173 A 
ATOM     85  F   UNL A   1      43.564  26.135  35.322  1.00  0.00    -0.203 F 
ATOM     86  C   UNL A   1      45.772  26.550  36.026  1.00  0.00     0.198 A 
ATOM     87  C   UNL A   1      47.014  28.371  35.070  1.00  0.00     0.198 A 
ATOM     88  F   UNL A   1      46.017  29.750  33.444  1.00  0.00    -0.203 F 
ATOM     89  F   UNL A   1      45.691  25.527  36.888  1.00  0.00    -0.200 F 
ATOM     90  C   UNL A   1      46.938  27.299  35.948  1.00  0.00     0.200 A 
ATOM     91  F   UNL A   1      48.140  29.093  34.992  1.00  0.00    -0.200 F 
ATOM     92  F   UNL A   1      47.985  26.994  36.726  1.00  0.00    -0.200 F 
ENDBRANCH  59  82
ENDBRANCH  33  34
ENDBRANCH  26  28
ENDBRANCH  25  26
ENDBRANCH  24  25
ENDBRANCH   1  24
TORSDOF 15
ENDMDL
MODEL 3
REMARK VINA RESULT:     -12.0      3.886      8.451
REMARK SMILES CCc1cc(Nc2ccc(C(=O)OCCOC(=O)c3ccc(-c4c5nc(c(-c6c(F)c(F)c(F)c(F)c6F)c6ccc([nH]6)c(-c6c(F)c(F)c(F)c(F)c6F)c6nc(c(-c7c(F)c(F)c(F)c(F)c7F)c7ccc4[nH]7)C=C6)C=C5)cc3)cc2)nc(C(C)C)n1
REMARK SMILES IDX 14 1 13 2 11 3 12 4 10 5 7 6 8 7 83 8 9 9 82 10 6 11 5 13
REMARK SMILES IDX 3 14 4 15 89 16 85 17 84 18 2 19 1 20 86 21 87 22 88 23
REMARK SMILES IDX 15 24 16 25 17 26 18 27 19 28 20 29 81 30 21 31 80 32 22 33
REMARK SMILES IDX 23 34 24 35 74 36 25 37 79 38 73 39 75 40 26 41 78 42 72 43
REMARK SMILES IDX 71 44 27 46 59 47 39 48 58 49 40 50 43 51 57 52 76 53 41 54
REMARK SMILES IDX 42 55 56 57 77 58 44 59 28 60 29 61 37 62 30 63 31 64 35 65
REMARK SMILES IDX 38 66 32 67 33 68 36 69 34 70 60 71 61 72 69 73 62 74 63 75
REMARK SMILES IDX 67 76 70 77 64 78 65 79 68 80 66 81 45 82 46 83 54 84 47 85
REMARK SMILES IDX 48 86 52 87 55 88 49 89 50 90 53 91 51 92
REMARK H PARENT 6 12 75 45 43 56
REMARK Flexibility Score: inf
ROOT
ATOM      1  C   UNL A   1      31.374  29.050  24.085  1.00  0.00     0.275 C 
ENDROOT
BRANCH   1   2
ATOM      2  O   UNL A   1      30.419  27.975  24.203  1.00  0.00    -0.458 OA
BRANCH   2   3
ATOM      3  C   UNL A   1      30.548  26.988  23.284  1.00  0.00     0.338 C 
ATOM      4  O   UNL A   1      30.681  27.122  22.078  1.00  0.00    -0.246 OA
BRANCH   3   5
ATOM      5  C   UNL A   1      30.591  25.665  23.943  1.00  0.00     0.060 A 
ATOM      6  C   UNL A   1      30.938  23.237  25.304  1.00  0.00     0.040 A 
ATOM      7  C   UNL A   1      30.661  24.407  26.015  1.00  0.00     0.027 A 
ATOM      8  C   UNL A   1      31.003  23.291  23.904  1.00  0.00     0.027 A 
ATOM      9  C   UNL A   1      30.514  25.617  25.340  1.00  0.00     0.018 A 
ATOM     10  C   UNL A   1      30.809  24.494  23.218  1.00  0.00     0.018 A 
BRANCH   6  11
ATOM     11  N   UNL A   1      31.356  22.092  26.013  1.00  0.00    -0.340 N 
ATOM     12  H   UNL A   1      30.907  21.879  26.863  1.00  0.00     0.168 HD
BRANCH  11  13
ATOM     13  C   UNL A   1      32.386  21.233  25.569  1.00  0.00     0.134 A 
ATOM     14  C   UNL A   1      34.663  20.807  25.131  1.00  0.00     0.046 A 
ATOM     15  C   UNL A   1      33.695  21.667  25.618  1.00  0.00     0.071 A 
ATOM     16  N   UNL A   1      34.360  19.578  24.668  1.00  0.00    -0.238 NA
ATOM     17  C   UNL A   1      33.065  19.224  24.674  1.00  0.00     0.133 A 
ATOM     18  N   UNL A   1      32.072  20.010  25.114  1.00  0.00    -0.216 NA
BRANCH  14  19
ATOM     19  C   UNL A   1      36.110  21.235  25.147  1.00  0.00     0.053 C 
ATOM     20  C   UNL A   1      36.502  22.167  24.006  1.00  0.00     0.011 C 
ENDBRANCH  14  19
BRANCH  17  21
ATOM     21  C   UNL A   1      32.676  17.844  24.198  1.00  0.00     0.051 C 
ATOM     22  C   UNL A   1      33.652  17.315  23.148  1.00  0.00     0.016 C 
ATOM     23  C   UNL A   1      32.557  16.888  25.381  1.00  0.00     0.016 C 
ENDBRANCH  17  21
ENDBRANCH  11  13
ENDBRANCH   6  11
ENDBRANCH   3   5
ENDBRANCH   2   3
ENDBRANCH   1   2
BRANCH   1  24
ATOM     24  C   UNL A   1      31.502  29.801  25.410  1.00  0.00     0.275 C 
BRANCH  24  25
ATOM     25  O   UNL A   1      32.888  30.090  25.670  1.00  0.00    -0.458 OA
BRANCH  25  26
ATOM     26  C   UNL A   1      33.131  30.873  26.745  1.00  0.00     0.338 C 
ATOM     27  O   UNL A   1      32.361  31.661  27.267  1.00  0.00    -0.246 OA
BRANCH  26  28
ATOM     28  C   UNL A   1      34.506  30.649  27.246  1.00  0.00     0.060 A 
ATOM     29  C   UNL A   1      35.044  29.365  27.333  1.00  0.00     0.016 A 
ATOM     30  C   UNL A   1      35.226  31.731  27.754  1.00  0.00     0.016 A 
ATOM     31  C   UNL A   1      36.238  29.144  28.027  1.00  0.00     0.010 A 
ATOM     32  C   UNL A   1      36.465  31.520  28.367  1.00  0.00     0.010 A 
ATOM     33  C   UNL A   1      36.959  30.219  28.567  1.00  0.00    -0.014 A 
BRANCH  33  34
ATOM     34  C   UNL A   1      38.156  29.992  29.431  1.00  0.00     0.031 A 
ATOM     35  C   UNL A   1      39.324  29.203  28.892  1.00  0.00     0.074 A 
ATOM     36  C   UNL A   1      38.235  30.494  30.680  1.00  0.00     0.049 A 
ATOM     37  N   UNL A   1      40.358  28.707  29.526  1.00  0.00    -0.248 NA
ATOM     38  C   UNL A   1      39.318  28.917  27.448  1.00  0.00     0.031 C 
ATOM     39  C   UNL A   1      37.220  31.317  31.334  1.00  0.00     0.029 A 
ATOM     40  N   UNL A   1      39.233  30.390  31.620  1.00  0.00    -0.354 N 
ATOM     41  C   UNL A   1      41.070  27.977  28.580  1.00  0.00     0.074 A 
ATOM     42  C   UNL A   1      40.364  28.114  27.324  1.00  0.00     0.031 C 
ATOM     43  C   UNL A   1      37.666  31.685  32.546  1.00  0.00     0.029 A 
ATOM     44  C   UNL A   1      38.966  31.065  32.786  1.00  0.00     0.049 A 
ATOM     45  H   UNL A   1      40.062  29.880  31.470  1.00  0.00     0.167 HD
ATOM     46  C   UNL A   1      42.200  27.251  28.746  1.00  0.00     0.037 A 
ATOM     47  C   UNL A   1      39.674  31.154  33.928  1.00  0.00     0.037 A 
ATOM     48  C   UNL A   1      42.959  27.187  29.966  1.00  0.00     0.049 A 
ATOM     49  C   UNL A   1      40.969  30.402  34.067  1.00  0.00     0.074 A 
ATOM     50  C   UNL A   1      44.107  26.462  30.238  1.00  0.00     0.029 A 
ATOM     51  N   UNL A   1      42.667  27.915  31.109  1.00  0.00    -0.354 N 
ATOM     52  N   UNL A   1      41.568  29.623  33.202  1.00  0.00    -0.248 NA
ATOM     53  C   UNL A   1      41.676  30.528  35.351  1.00  0.00     0.031 C 
ATOM     54  C   UNL A   1      44.512  26.753  31.546  1.00  0.00     0.029 A 
ATOM     55  C   UNL A   1      43.628  27.675  32.078  1.00  0.00     0.049 A 
ATOM     56  H   UNL A   1      41.893  28.512  31.216  1.00  0.00     0.167 HD
ATOM     57  C   UNL A   1      42.717  29.167  33.833  1.00  0.00     0.074 A 
ATOM     58  C   UNL A   1      42.748  29.778  35.145  1.00  0.00     0.031 C 
ATOM     59  C   UNL A   1      43.654  28.304  33.372  1.00  0.00     0.037 A 
BRANCH  46  60
ATOM     60  C   UNL A   1      42.672  26.433  27.582  1.00  0.00     0.064 A 
ATOM     61  C   UNL A   1      43.647  26.901  26.691  1.00  0.00     0.173 A 
ATOM     62  C   UNL A   1      42.156  25.144  27.377  1.00  0.00     0.173 A 
ATOM     63  F   UNL A   1      44.157  28.133  26.836  1.00  0.00    -0.203 F 
ATOM     64  C   UNL A   1      44.076  26.115  25.625  1.00  0.00     0.198 A 
ATOM     65  C   UNL A   1      42.603  24.352  26.323  1.00  0.00     0.198 A 
ATOM     66  F   UNL A   1      41.222  24.649  28.204  1.00  0.00    -0.203 F 
ATOM     67  F   UNL A   1      44.982  26.595  24.763  1.00  0.00    -0.200 F 
ATOM     68  C   UNL A   1      43.559  24.840  25.445  1.00  0.00     0.200 A 
ATOM     69  F   UNL A   1      42.108  23.118  26.158  1.00  0.00    -0.200 F 
ATOM     70  F   UNL A   1      43.978  24.082  24.422  1.00  0.00    -0.200 F 
ENDBRANCH  46  60
BRANCH  47  71
ATOM     71  C   UNL A   1      39.166  31.987  35.047  1.00  0.00     0.064 A 
ATOM     72  C   UNL A   1      39.400  33.369  35.074  1.00  0.00     0.173 A 
ATOM     73  C   UNL A   1      38.438  31.425  36.106  1.00  0.00     0.173 A 
ATOM     74  F   UNL A   1      40.116  33.946  34.098  1.00  0.00    -0.203 F 
ATOM     75  C   UNL A   1      38.932  34.156  36.123  1.00  0.00     0.198 A 
ATOM     76  C   UNL A   1      37.949  32.217  37.141  1.00  0.00     0.198 A 
ATOM     77  F   UNL A   1      38.193  30.107  36.125  1.00  0.00    -0.203 F 
ATOM     78  F   UNL A   1      39.200  35.469  36.144  1.00  0.00    -0.200 F 
ATOM     79  C   UNL A   1      38.200  33.582  37.152  1.00  0.00     0.200 A 
ATOM     80  F   UNL A   1      37.236  31.660  38.129  1.00  0.00    -0.200 F 
ATOM     81  F   UNL A   1      37.744  34.341  38.158  1.00  0.00    -0.200 F 
ENDBRANCH  47  71
BRANCH  59  82
ATOM     82  C   UNL A   1      44.803  27.993  34.279  1.00  0.00     0.064 A 
ATOM     83  C   UNL A   1      44.753  26.918  35.178  1.00  0.00     0.173 A 
ATOM     84  C   UNL A   1      45.975  28.762  34.232  1.00  0.00     0.173 A 
ATOM     85  F   UNL A   1      43.647  26.163  35.265  1.00  0.00    -0.203 F 
ATOM     86  C   UNL A   1      45.829  26.635  36.014  1.00  0.00     0.198 A 
ATOM     87  C   UNL A   1      47.056  28.466  35.058  1.00  0.00     0.198 A 
ATOM     88  F   UNL A   1      46.069  29.799  33.388  1.00  0.00    -0.203 F 
ATOM     89  F   UNL A   1      45.749  25.624  36.890  1.00  0.00    -0.200 F 
ATOM     90  C   UNL A   1      46.981  27.407  35.951  1.00  0.00     0.200 A 
ATOM     91  F   UNL A   1      48.169  29.210  34.995  1.00  0.00    -0.200 F 
ATOM     92  F   UNL A   1      48.015  27.136  36.758  1.00  0.00    -0.200 F 
ENDBRANCH  59  82
ENDBRANCH  33  34
ENDBRANCH  26  28
ENDBRANCH  25  26
ENDBRANCH  24  25
ENDBRANCH   1  24
TORSDOF 15
ENDMDL
