MODEL 1
REMARK VINA RESULT:     -10.8      0.000      0.000
REMARK SMILES CCN(C(=O)N1C[C@@H](C)[C@H](C(=O)OC)C1)C(C)(C)C(=O)OCCOC(=O)c1ccc(-c2c3nc(c(-c4c(F)c(F)c(F)c(F)c4F)c4ccc([nH]4)c(-c4c(F)c(F)c(F)c(F)c4F)c4nc(c(-c5c(F)c(F)c(F)c(F)c5F)c5ccc2[nH]5)C=C4)C=C3)cc1
REMARK SMILES IDX 21 1 19 2 20 3 16 4 17 5 18 6 3 7 2 8 1 9 4 10 5 11 6 12
REMARK SMILES IDX 7 13 15 14 8 15 10 16 9 17 11 18 12 19 13 20 14 21 22 22
REMARK SMILES IDX 23 23 24 24 25 25 26 26 27 27 28 28 89 29 29 30 88 31 30 32
REMARK SMILES IDX 31 33 32 34 82 35 33 36 87 37 81 38 83 39 34 40 86 41 80 42
REMARK SMILES IDX 79 43 35 45 67 46 47 47 66 48 48 49 51 50 65 51 84 52 49 53
REMARK SMILES IDX 50 54 64 56 85 57 52 58 36 59 37 60 45 61 38 62 39 63 43 64
REMARK SMILES IDX 46 65 40 66 41 67 44 68 42 69 68 70 69 71 77 72 70 73 71 74
REMARK SMILES IDX 75 75 78 76 72 77 73 78 76 79 74 80 53 81 54 82 62 83 55 84
REMARK SMILES IDX 56 85 60 86 63 87 57 88 58 89 61 90 59 91
REMARK H PARENT 83 44 51 55
REMARK Flexibility Score: inf
ROOT
ATOM      1  O   UNL A   1      31.681  30.301  25.693  1.00  0.00    -0.460 OA
ENDROOT
BRANCH   1   2
ATOM      2  C   UNL A   1      31.410  29.228  24.873  1.00  0.00     0.331 C 
ATOM      3  O   UNL A   1      30.472  29.220  24.089  1.00  0.00    -0.249 OA
BRANCH   2   4
ATOM      4  C   UNL A   1      32.431  28.034  25.161  1.00  0.00     0.136 C 
ATOM      5  C   UNL A   1      32.961  28.176  26.598  1.00  0.00     0.047 C 
ATOM      6  C   UNL A   1      33.615  28.310  24.196  1.00  0.00     0.047 C 
BRANCH   4   7
ATOM      7  N   UNL A   1      31.853  26.632  24.948  1.00  0.00    -0.309 N 
BRANCH   7   8
ATOM      8  C   UNL A   1      31.701  26.046  23.594  1.00  0.00     0.119 C 
ATOM      9  C   UNL A   1      30.577  25.093  23.245  1.00  0.00     0.027 C 
ENDBRANCH   7   8
BRANCH   7  10
ATOM     10  C   UNL A   1      32.148  25.632  25.927  1.00  0.00     0.320 C 
ATOM     11  O   UNL A   1      31.540  25.466  26.976  1.00  0.00    -0.248 OA
BRANCH  10  12
ATOM     12  N   UNL A   1      33.162  24.783  25.523  1.00  0.00    -0.323 N 
ATOM     13  C   UNL A   1      34.584  25.036  25.459  1.00  0.00     0.125 C 
ATOM     14  C   UNL A   1      32.960  23.370  25.575  1.00  0.00     0.137 C 
ATOM     15  C   UNL A   1      35.113  23.855  24.607  1.00  0.00     0.021 C 
ATOM     16  C   UNL A   1      33.948  22.837  24.552  1.00  0.00     0.123 C 
ATOM     17  C   UNL A   1      36.357  23.195  25.188  1.00  0.00     0.010 C 
BRANCH  16  18
ATOM     18  C   UNL A   1      33.429  22.681  23.130  1.00  0.00     0.310 C 
ATOM     19  O   UNL A   1      33.964  23.223  22.170  1.00  0.00    -0.252 OA
BRANCH  18  20
ATOM     20  O   UNL A   1      32.349  21.863  23.023  1.00  0.00    -0.469 OA
ATOM     21  C   UNL A   1      32.538  20.555  23.579  1.00  0.00     0.282 C 
ENDBRANCH  18  20
ENDBRANCH  16  18
ENDBRANCH  10  12
ENDBRANCH   7  10
ENDBRANCH   4   7
ENDBRANCH   2   4
ENDBRANCH   1   2
BRANCH   1  22
ATOM     22  C   UNL A   1      30.848  31.479  25.625  1.00  0.00     0.274 C 
BRANCH  22  23
ATOM     23  C   UNL A   1      31.244  32.583  26.612  1.00  0.00     0.275 C 
BRANCH  23  24
ATOM     24  O   UNL A   1      32.585  32.393  27.099  1.00  0.00    -0.458 OA
BRANCH  24  25
ATOM     25  C   UNL A   1      33.099  33.445  27.777  1.00  0.00     0.338 C 
ATOM     26  O   UNL A   1      32.525  34.483  28.062  1.00  0.00    -0.246 OA
BRANCH  25  27
ATOM     27  C   UNL A   1      34.416  33.093  28.346  1.00  0.00     0.060 A 
ATOM     28  C   UNL A   1      34.425  31.954  29.134  1.00  0.00     0.016 A 
ATOM     29  C   UNL A   1      35.598  33.827  28.184  1.00  0.00     0.016 A 
ATOM     30  C   UNL A   1      35.614  31.546  29.722  1.00  0.00     0.010 A 
ATOM     31  C   UNL A   1      36.811  33.368  28.760  1.00  0.00     0.010 A 
ATOM     32  C   UNL A   1      36.835  32.187  29.510  1.00  0.00    -0.014 A 
BRANCH  32  33
ATOM     33  C   UNL A   1      38.032  31.536  30.133  1.00  0.00     0.031 A 
ATOM     34  C   UNL A   1      38.287  31.707  31.612  1.00  0.00     0.074 A 
ATOM     35  C   UNL A   1      38.710  30.551  29.502  1.00  0.00     0.049 A 
ATOM     36  N   UNL A   1      39.183  31.130  32.376  1.00  0.00    -0.248 NA
ATOM     37  C   UNL A   1      37.367  32.601  32.331  1.00  0.00     0.031 C 
ATOM     38  C   UNL A   1      38.431  30.055  28.157  1.00  0.00     0.029 A 
ATOM     39  N   UNL A   1      39.724  29.725  29.951  1.00  0.00    -0.354 N 
ATOM     40  C   UNL A   1      38.931  31.588  33.663  1.00  0.00     0.074 A 
ATOM     41  C   UNL A   1      37.775  32.455  33.583  1.00  0.00     0.031 C 
ATOM     42  C   UNL A   1      39.223  28.996  27.905  1.00  0.00     0.029 A 
ATOM     43  C   UNL A   1      40.120  28.771  29.041  1.00  0.00     0.049 A 
ATOM     44  H   UNL A   1      40.128  29.813  30.845  1.00  0.00     0.167 HD
ATOM     45  C   UNL A   1      39.620  31.352  34.806  1.00  0.00     0.037 A 
ATOM     46  C   UNL A   1      41.103  27.842  29.098  1.00  0.00     0.037 A 
ATOM     47  C   UNL A   1      40.804  30.546  34.916  1.00  0.00     0.049 A 
ATOM     48  C   UNL A   1      41.997  27.763  30.318  1.00  0.00     0.074 A 
ATOM     49  C   UNL A   1      41.651  30.403  36.002  1.00  0.00     0.029 A 
ATOM     50  N   UNL A   1      41.315  29.750  33.905  1.00  0.00    -0.354 N 
ATOM     51  N   UNL A   1      41.850  28.313  31.497  1.00  0.00    -0.248 NA
ATOM     52  C   UNL A   1      43.224  26.951  30.195  1.00  0.00     0.031 C 
ATOM     53  C   UNL A   1      42.709  29.568  35.629  1.00  0.00     0.029 A 
ATOM     54  C   UNL A   1      42.488  29.144  34.330  1.00  0.00     0.049 A 
ATOM     55  H   UNL A   1      40.906  29.632  33.018  1.00  0.00     0.167 HD
ATOM     56  C   UNL A   1      42.951  27.910  32.250  1.00  0.00     0.074 A 
ATOM     57  C   UNL A   1      43.739  27.034  31.414  1.00  0.00     0.031 C 
ATOM     58  C   UNL A   1      43.281  28.259  33.518  1.00  0.00     0.037 A 
BRANCH  45  59
ATOM     59  C   UNL A   1      39.180  32.114  36.016  1.00  0.00     0.064 A 
ATOM     60  C   UNL A   1      39.633  33.411  36.292  1.00  0.00     0.173 A 
ATOM     61  C   UNL A   1      38.290  31.514  36.920  1.00  0.00     0.173 A 
ATOM     62  F   UNL A   1      40.503  34.014  35.470  1.00  0.00    -0.203 F 
ATOM     63  C   UNL A   1      39.225  34.072  37.448  1.00  0.00     0.198 A 
ATOM     64  C   UNL A   1      37.866  32.188  38.059  1.00  0.00     0.198 A 
ATOM     65  F   UNL A   1      37.834  30.272  36.695  1.00  0.00    -0.203 F 
ATOM     66  F   UNL A   1      39.704  35.293  37.725  1.00  0.00    -0.200 F 
ATOM     67  C   UNL A   1      38.340  33.463  38.326  1.00  0.00     0.200 A 
ATOM     68  F   UNL A   1      37.008  31.598  38.902  1.00  0.00    -0.200 F 
ATOM     69  F   UNL A   1      37.953  34.100  39.440  1.00  0.00    -0.200 F 
ENDBRANCH  45  59
BRANCH  46  70
ATOM     70  C   UNL A   1      41.391  26.942  27.941  1.00  0.00     0.064 A 
ATOM     71  C   UNL A   1      40.822  25.660  27.856  1.00  0.00     0.173 A 
ATOM     72  C   UNL A   1      42.342  27.288  26.968  1.00  0.00     0.173 A 
ATOM     73  F   UNL A   1      39.945  25.254  28.786  1.00  0.00    -0.203 F 
ATOM     74  C   UNL A   1      41.215  24.757  26.868  1.00  0.00     0.198 A 
ATOM     75  C   UNL A   1      42.703  26.400  25.956  1.00  0.00     0.198 A 
ATOM     76  F   UNL A   1      42.948  28.484  27.016  1.00  0.00    -0.203 F 
ATOM     77  F   UNL A   1      40.721  23.511  26.865  1.00  0.00    -0.200 F 
ATOM     78  C   UNL A   1      42.152  25.130  25.915  1.00  0.00     0.200 A 
ATOM     79  F   UNL A   1      43.611  26.765  25.041  1.00  0.00    -0.200 F 
ATOM     80  F   UNL A   1      42.544  24.256  24.977  1.00  0.00    -0.200 F 
ENDBRANCH  46  70
BRANCH  58  81
ATOM     81  C   UNL A   1      44.549  27.699  34.109  1.00  0.00     0.064 A 
ATOM     82  C   UNL A   1      45.764  28.396  34.035  1.00  0.00     0.173 A 
ATOM     83  C   UNL A   1      44.535  26.491  34.824  1.00  0.00     0.173 A 
ATOM     84  F   UNL A   1      45.841  29.551  33.359  1.00  0.00    -0.203 F 
ATOM     85  C   UNL A   1      46.919  27.896  34.636  1.00  0.00     0.198 A 
ATOM     86  C   UNL A   1      45.683  26.009  35.450  1.00  0.00     0.198 A 
ATOM     87  F   UNL A   1      43.400  25.784  34.938  1.00  0.00    -0.203 F 
ATOM     88  F   UNL A   1      48.076  28.563  34.519  1.00  0.00    -0.200 F 
ATOM     89  C   UNL A   1      46.876  26.709  35.351  1.00  0.00     0.200 A 
ATOM     90  F   UNL A   1      45.635  24.870  36.154  1.00  0.00    -0.200 F 
ATOM     91  F   UNL A   1      47.983  26.239  35.941  1.00  0.00    -0.200 F 
ENDBRANCH  58  81
ENDBRANCH  32  33
ENDBRANCH  25  27
ENDBRANCH  24  25
ENDBRANCH  23  24
ENDBRANCH  22  23
ENDBRANCH   1  22
TORSDOF 17
ENDMDL
MODEL 2
REMARK VINA RESULT:     -10.6      4.471     10.256
REMARK SMILES CCN(C(=O)N1C[C@@H](C)[C@H](C(=O)OC)C1)C(C)(C)C(=O)OCCOC(=O)c1ccc(-c2c3nc(c(-c4c(F)c(F)c(F)c(F)c4F)c4ccc([nH]4)c(-c4c(F)c(F)c(F)c(F)c4F)c4nc(c(-c5c(F)c(F)c(F)c(F)c5F)c5ccc2[nH]5)C=C4)C=C3)cc1
REMARK SMILES IDX 21 1 19 2 20 3 16 4 17 5 18 6 3 7 2 8 1 9 4 10 5 11 6 12
REMARK SMILES IDX 7 13 15 14 8 15 10 16 9 17 11 18 12 19 13 20 14 21 22 22
REMARK SMILES IDX 23 23 24 24 25 25 26 26 27 27 28 28 89 29 29 30 88 31 30 32
REMARK SMILES IDX 31 33 32 34 82 35 33 36 87 37 81 38 83 39 34 40 86 41 80 42
REMARK SMILES IDX 79 43 35 45 67 46 47 47 66 48 48 49 51 50 65 51 84 52 49 53
REMARK SMILES IDX 50 54 64 56 85 57 52 58 36 59 37 60 45 61 38 62 39 63 43 64
REMARK SMILES IDX 46 65 40 66 41 67 44 68 42 69 68 70 69 71 77 72 70 73 71 74
REMARK SMILES IDX 75 75 78 76 72 77 73 78 76 79 74 80 53 81 54 82 62 83 55 84
REMARK SMILES IDX 56 85 60 86 63 87 57 88 58 89 61 90 59 91
REMARK H PARENT 83 44 51 55
REMARK Flexibility Score: inf
ROOT
ATOM      1  O   UNL A   1      36.375  20.748  25.037  1.00  0.00    -0.460 OA
ENDROOT
BRANCH   1   2
ATOM      2  C   UNL A   1      35.563  21.742  24.540  1.00  0.00     0.331 C 
ATOM      3  O   UNL A   1      35.861  22.405  23.556  1.00  0.00    -0.249 OA
BRANCH   2   4
ATOM      4  C   UNL A   1      34.271  21.921  25.461  1.00  0.00     0.136 C 
ATOM      5  C   UNL A   1      34.709  22.508  26.814  1.00  0.00     0.047 C 
ATOM      6  C   UNL A   1      33.786  20.469  25.716  1.00  0.00     0.047 C 
BRANCH   4   7
ATOM      7  N   UNL A   1      33.162  22.781  24.849  1.00  0.00    -0.309 N 
BRANCH   7   8
ATOM      8  C   UNL A   1      32.230  22.243  23.827  1.00  0.00     0.119 C 
ATOM      9  C   UNL A   1      32.486  22.388  22.341  1.00  0.00     0.027 C 
ENDBRANCH   7   8
BRANCH   7  10
ATOM     10  C   UNL A   1      32.524  23.748  25.688  1.00  0.00     0.320 C 
ATOM     11  O   UNL A   1      31.772  23.491  26.619  1.00  0.00    -0.248 OA
BRANCH  10  12
ATOM     12  N   UNL A   1      32.919  25.040  25.398  1.00  0.00    -0.323 N 
ATOM     13  C   UNL A   1      32.653  26.256  26.134  1.00  0.00     0.125 C 
ATOM     14  C   UNL A   1      34.064  25.258  24.573  1.00  0.00     0.137 C 
ATOM     15  C   UNL A   1      33.041  27.367  25.127  1.00  0.00     0.021 C 
ATOM     16  C   UNL A   1      33.828  26.647  24.006  1.00  0.00     0.123 C 
ATOM     17  C   UNL A   1      33.893  28.472  25.738  1.00  0.00     0.010 C 
BRANCH  16  18
ATOM     18  C   UNL A   1      33.080  26.719  22.683  1.00  0.00     0.310 C 
ATOM     19  O   UNL A   1      32.163  27.508  22.486  1.00  0.00    -0.252 OA
BRANCH  18  20
ATOM     20  O   UNL A   1      33.544  25.858  21.739  1.00  0.00    -0.469 OA
ATOM     21  C   UNL A   1      32.675  25.688  20.613  1.00  0.00     0.282 C 
ENDBRANCH  18  20
ENDBRANCH  16  18
ENDBRANCH  10  12
ENDBRANCH   7  10
ENDBRANCH   4   7
ENDBRANCH   2   4
ENDBRANCH   1   2
BRANCH   1  22
ATOM     22  C   UNL A   1      37.806  20.846  24.871  1.00  0.00     0.274 C 
BRANCH  22  23
ATOM     23  C   UNL A   1      38.562  19.548  25.179  1.00  0.00     0.275 C 
BRANCH  23  24
ATOM     24  O   UNL A   1      39.341  19.670  26.384  1.00  0.00    -0.458 OA
BRANCH  24  25
ATOM     25  C   UNL A   1      40.679  19.717  26.196  1.00  0.00     0.338 C 
ATOM     26  O   UNL A   1      41.352  18.947  25.530  1.00  0.00    -0.246 OA
BRANCH  25  27
ATOM     27  C   UNL A   1      41.227  20.981  26.729  1.00  0.00     0.060 A 
ATOM     28  C   UNL A   1      41.141  22.062  25.869  1.00  0.00     0.016 A 
ATOM     29  C   UNL A   1      41.841  21.142  27.978  1.00  0.00     0.016 A 
ATOM     30  C   UNL A   1      41.637  23.294  26.275  1.00  0.00     0.010 A 
ATOM     31  C   UNL A   1      42.303  22.420  28.389  1.00  0.00     0.010 A 
ATOM     32  C   UNL A   1      42.167  23.526  27.544  1.00  0.00    -0.014 A 
BRANCH  32  33
ATOM     33  C   UNL A   1      42.545  24.945  27.844  1.00  0.00     0.031 A 
ATOM     34  C   UNL A   1      43.799  25.525  27.235  1.00  0.00     0.074 A 
ATOM     35  C   UNL A   1      41.657  25.817  28.372  1.00  0.00     0.049 A 
ATOM     36  N   UNL A   1      44.243  26.759  27.255  1.00  0.00    -0.248 NA
ATOM     37  C   UNL A   1      44.626  24.600  26.444  1.00  0.00     0.031 C 
ATOM     38  C   UNL A   1      40.290  25.498  28.776  1.00  0.00     0.029 A 
ATOM     39  N   UNL A   1      41.749  27.181  28.578  1.00  0.00    -0.354 N 
ATOM     40  C   UNL A   1      45.395  26.758  26.480  1.00  0.00     0.074 A 
ATOM     41  C   UNL A   1      45.558  25.413  25.970  1.00  0.00     0.031 C 
ATOM     42  C   UNL A   1      39.664  26.631  29.144  1.00  0.00     0.029 A 
ATOM     43  C   UNL A   1      40.599  27.757  29.071  1.00  0.00     0.049 A 
ATOM     44  H   UNL A   1      42.566  27.697  28.389  1.00  0.00     0.167 HD
ATOM     45  C   UNL A   1      46.271  27.765  26.246  1.00  0.00     0.037 A 
ATOM     46  C   UNL A   1      40.332  29.029  29.445  1.00  0.00     0.037 A 
ATOM     47  C   UNL A   1      46.175  29.095  26.781  1.00  0.00     0.049 A 
ATOM     48  C   UNL A   1      41.419  30.082  29.371  1.00  0.00     0.074 A 
ATOM     49  C   UNL A   1      47.111  30.114  26.727  1.00  0.00     0.029 A 
ATOM     50  N   UNL A   1      45.084  29.594  27.471  1.00  0.00    -0.354 N 
ATOM     51  N   UNL A   1      42.580  30.041  28.768  1.00  0.00    -0.248 NA
ATOM     52  C   UNL A   1      41.162  31.356  30.071  1.00  0.00     0.031 C 
ATOM     53  C   UNL A   1      46.612  31.210  27.439  1.00  0.00     0.029 A 
ATOM     54  C   UNL A   1      45.340  30.893  27.883  1.00  0.00     0.049 A 
ATOM     55  H   UNL A   1      44.250  29.099  27.643  1.00  0.00     0.167 HD
ATOM     56  C   UNL A   1      43.182  31.275  29.007  1.00  0.00     0.074 A 
ATOM     57  C   UNL A   1      42.244  32.062  29.773  1.00  0.00     0.031 C 
ATOM     58  C   UNL A   1      44.415  31.700  28.636  1.00  0.00     0.037 A 
BRANCH  45  59
ATOM     59  C   UNL A   1      47.506  27.408  25.481  1.00  0.00     0.064 A 
ATOM     60  C   UNL A   1      48.633  26.847  26.096  1.00  0.00     0.173 A 
ATOM     61  C   UNL A   1      47.552  27.649  24.099  1.00  0.00     0.173 A 
ATOM     62  F   UNL A   1      48.643  26.623  27.417  1.00  0.00    -0.203 F 
ATOM     63  C   UNL A   1      49.775  26.560  25.352  1.00  0.00     0.198 A 
ATOM     64  C   UNL A   1      48.685  27.337  23.357  1.00  0.00     0.198 A 
ATOM     65  F   UNL A   1      46.495  28.187  23.472  1.00  0.00    -0.203 F 
ATOM     66  F   UNL A   1      50.864  26.070  25.961  1.00  0.00    -0.200 F 
ATOM     67  C   UNL A   1      49.798  26.801  23.986  1.00  0.00     0.200 A 
ATOM     68  F   UNL A   1      48.702  27.567  22.037  1.00  0.00    -0.200 F 
ATOM     69  F   UNL A   1      50.901  26.529  23.274  1.00  0.00    -0.200 F 
ENDBRANCH  45  59
BRANCH  46  70
ATOM     70  C   UNL A   1      39.006  29.410  30.020  1.00  0.00     0.064 A 
ATOM     71  C   UNL A   1      38.067  30.134  29.266  1.00  0.00     0.173 A 
ATOM     72  C   UNL A   1      38.704  29.177  31.371  1.00  0.00     0.173 A 
ATOM     73  F   UNL A   1      38.323  30.431  27.983  1.00  0.00    -0.203 F 
ATOM     74  C   UNL A   1      36.900  30.633  29.848  1.00  0.00     0.198 A 
ATOM     75  C   UNL A   1      37.519  29.640  31.940  1.00  0.00     0.198 A 
ATOM     76  F   UNL A   1      39.577  28.524  32.152  1.00  0.00    -0.203 F 
ATOM     77  F   UNL A   1      36.067  31.395  29.128  1.00  0.00    -0.200 F 
ATOM     78  C   UNL A   1      36.625  30.381  31.184  1.00  0.00     0.200 A 
ATOM     79  F   UNL A   1      37.261  29.396  33.232  1.00  0.00    -0.200 F 
ATOM     80  F   UNL A   1      35.515  30.875  31.748  1.00  0.00    -0.200 F 
ENDBRANCH  46  70
BRANCH  58  81
ATOM     81  C   UNL A   1      44.847  33.086  29.038  1.00  0.00     0.064 A 
ATOM     82  C   UNL A   1      45.569  33.317  30.219  1.00  0.00     0.173 A 
ATOM     83  C   UNL A   1      44.607  34.184  28.198  1.00  0.00     0.173 A 
ATOM     84  F   UNL A   1      45.822  32.308  31.065  1.00  0.00    -0.203 F 
ATOM     85  C   UNL A   1      46.015  34.595  30.553  1.00  0.00     0.198 A 
ATOM     86  C   UNL A   1      45.080  35.455  28.519  1.00  0.00     0.198 A 
ATOM     87  F   UNL A   1      43.930  34.024  27.050  1.00  0.00    -0.203 F 
ATOM     88  F   UNL A   1      46.670  34.796  31.705  1.00  0.00    -0.200 F 
ATOM     89  C   UNL A   1      45.779  35.661  29.698  1.00  0.00     0.200 A 
ATOM     90  F   UNL A   1      44.865  36.481  27.684  1.00  0.00    -0.200 F 
ATOM     91  F   UNL A   1      46.222  36.886  30.013  1.00  0.00    -0.200 F 
ENDBRANCH  58  81
ENDBRANCH  32  33
ENDBRANCH  25  27
ENDBRANCH  24  25
ENDBRANCH  23  24
ENDBRANCH  22  23
ENDBRANCH   1  22
TORSDOF 17
ENDMDL
MODEL 3
REMARK VINA RESULT:     -10.6      5.166     10.595
REMARK SMILES CCN(C(=O)N1C[C@@H](C)[C@H](C(=O)OC)C1)C(C)(C)C(=O)OCCOC(=O)c1ccc(-c2c3nc(c(-c4c(F)c(F)c(F)c(F)c4F)c4ccc([nH]4)c(-c4c(F)c(F)c(F)c(F)c4F)c4nc(c(-c5c(F)c(F)c(F)c(F)c5F)c5ccc2[nH]5)C=C4)C=C3)cc1
REMARK SMILES IDX 21 1 19 2 20 3 16 4 17 5 18 6 3 7 2 8 1 9 4 10 5 11 6 12
REMARK SMILES IDX 7 13 15 14 8 15 10 16 9 17 11 18 12 19 13 20 14 21 22 22
REMARK SMILES IDX 23 23 24 24 25 25 26 26 27 27 28 28 89 29 29 30 88 31 30 32
REMARK SMILES IDX 31 33 32 34 82 35 33 36 87 37 81 38 83 39 34 40 86 41 80 42
REMARK SMILES IDX 79 43 35 45 67 46 47 47 66 48 48 49 51 50 65 51 84 52 49 53
REMARK SMILES IDX 50 54 64 56 85 57 52 58 36 59 37 60 45 61 38 62 39 63 43 64
REMARK SMILES IDX 46 65 40 66 41 67 44 68 42 69 68 70 69 71 77 72 70 73 71 74
REMARK SMILES IDX 75 75 78 76 72 77 73 78 76 79 74 80 53 81 54 82 62 83 55 84
REMARK SMILES IDX 56 85 60 86 63 87 57 88 58 89 61 90 59 91
REMARK H PARENT 83 44 51 55
REMARK Flexibility Score: inf
ROOT
ATOM      1  O   UNL A   1      37.557  20.506  25.448  1.00  0.00    -0.460 OA
ENDROOT
BRANCH   1   2
ATOM      2  C   UNL A   1      37.671  21.878  25.484  1.00  0.00     0.331 C 
ATOM      3  O   UNL A   1      38.698  22.444  25.830  1.00  0.00    -0.249 OA
BRANCH   2   4
ATOM      4  C   UNL A   1      36.284  22.564  25.089  1.00  0.00     0.136 C 
ATOM      5  C   UNL A   1      36.203  22.663  23.555  1.00  0.00     0.047 C 
ATOM      6  C   UNL A   1      36.406  24.008  25.645  1.00  0.00     0.047 C 
BRANCH   4   7
ATOM      7  N   UNL A   1      35.041  21.858  25.637  1.00  0.00    -0.309 N 
BRANCH   7   8
ATOM      8  C   UNL A   1      34.739  21.822  27.089  1.00  0.00     0.119 C 
ATOM      9  C   UNL A   1      33.322  21.860  27.623  1.00  0.00     0.027 C 
ENDBRANCH   7   8
BRANCH   7  10
ATOM     10  C   UNL A   1      33.847  21.897  24.850  1.00  0.00     0.320 C 
ATOM     11  O   UNL A   1      33.208  22.906  24.583  1.00  0.00    -0.248 OA
BRANCH  10  12
ATOM     12  N   UNL A   1      33.521  20.660  24.325  1.00  0.00    -0.323 N 
ATOM     13  C   UNL A   1      32.527  20.333  23.327  1.00  0.00     0.125 C 
ATOM     14  C   UNL A   1      34.480  19.603  24.366  1.00  0.00     0.137 C 
ATOM     15  C   UNL A   1      32.406  18.793  23.444  1.00  0.00     0.021 C 
ATOM     16  C   UNL A   1      33.624  18.351  24.291  1.00  0.00     0.123 C 
ATOM     17  C   UNL A   1      32.417  18.078  22.099  1.00  0.00     0.010 C 
BRANCH  16  18
ATOM     18  C   UNL A   1      33.176  17.759  25.620  1.00  0.00     0.310 C 
ATOM     19  O   UNL A   1      32.530  18.398  26.442  1.00  0.00    -0.252 OA
BRANCH  18  20
ATOM     20  O   UNL A   1      33.525  16.457  25.789  1.00  0.00    -0.469 OA
ATOM     21  C   UNL A   1      32.527  15.516  25.375  1.00  0.00     0.282 C 
ENDBRANCH  18  20
ENDBRANCH  16  18
ENDBRANCH  10  12
ENDBRANCH   7  10
ENDBRANCH   4   7
ENDBRANCH   2   4
ENDBRANCH   1   2
BRANCH   1  22
ATOM     22  C   UNL A   1      38.673  19.710  24.996  1.00  0.00     0.274 C 
BRANCH  22  23
ATOM     23  C   UNL A   1      39.602  19.239  26.122  1.00  0.00     0.275 C 
BRANCH  23  24
ATOM     24  O   UNL A   1      40.897  18.871  25.612  1.00  0.00    -0.458 OA
BRANCH  24  25
ATOM     25  C   UNL A   1      41.934  19.158  26.432  1.00  0.00     0.338 C 
ATOM     26  O   UNL A   1      42.731  18.366  26.908  1.00  0.00    -0.246 OA
BRANCH  25  27
ATOM     27  C   UNL A   1      42.131  20.619  26.515  1.00  0.00     0.060 A 
ATOM     28  C   UNL A   1      42.299  21.113  27.798  1.00  0.00     0.016 A 
ATOM     29  C   UNL A   1      42.118  21.508  25.432  1.00  0.00     0.016 A 
ATOM     30  C   UNL A   1      42.482  22.477  27.982  1.00  0.00     0.010 A 
ATOM     31  C   UNL A   1      42.349  22.893  25.639  1.00  0.00     0.010 A 
ATOM     32  C   UNL A   1      42.574  23.387  26.928  1.00  0.00    -0.014 A 
BRANCH  32  33
ATOM     33  C   UNL A   1      42.890  24.801  27.313  1.00  0.00     0.031 A 
ATOM     34  C   UNL A   1      44.127  25.464  26.758  1.00  0.00     0.074 A 
ATOM     35  C   UNL A   1      41.959  25.605  27.874  1.00  0.00     0.049 A 
ATOM     36  N   UNL A   1      44.520  26.712  26.854  1.00  0.00    -0.248 NA
ATOM     37  C   UNL A   1      45.003  24.619  25.931  1.00  0.00     0.031 C 
ATOM     38  C   UNL A   1      40.601  25.209  28.236  1.00  0.00     0.029 A 
ATOM     39  N   UNL A   1      41.992  26.958  28.157  1.00  0.00    -0.354 N 
ATOM     40  C   UNL A   1      45.682  26.801  26.100  1.00  0.00     0.074 A 
ATOM     41  C   UNL A   1      45.908  25.494  25.518  1.00  0.00     0.031 C 
ATOM     42  C   UNL A   1      39.924  26.294  28.656  1.00  0.00     0.029 A 
ATOM     43  C   UNL A   1      40.812  27.458  28.661  1.00  0.00     0.049 A 
ATOM     44  H   UNL A   1      42.790  27.516  28.010  1.00  0.00     0.167 HD
ATOM     45  C   UNL A   1      46.519  27.854  25.936  1.00  0.00     0.037 A 
ATOM     46  C   UNL A   1      40.488  28.696  29.101  1.00  0.00     0.037 A 
ATOM     47  C   UNL A   1      46.362  29.147  26.543  1.00  0.00     0.049 A 
ATOM     48  C   UNL A   1      41.532  29.794  29.104  1.00  0.00     0.074 A 
ATOM     49  C   UNL A   1      47.256  30.204  26.562  1.00  0.00     0.029 A 
ATOM     50  N   UNL A   1      45.240  29.561  27.241  1.00  0.00    -0.354 N 
ATOM     51  N   UNL A   1      42.702  29.834  28.520  1.00  0.00    -0.248 NA
ATOM     52  C   UNL A   1      41.213  31.016  29.869  1.00  0.00     0.031 C 
ATOM     53  C   UNL A   1      46.701  31.237  27.325  1.00  0.00     0.029 A 
ATOM     54  C   UNL A   1      45.437  30.844  27.729  1.00  0.00     0.049 A 
ATOM     55  H   UNL A   1      44.425  29.025  27.371  1.00  0.00     0.167 HD
ATOM     56  C   UNL A   1      43.249  31.075  28.836  1.00  0.00     0.074 A 
ATOM     57  C   UNL A   1      42.269  31.780  29.629  1.00  0.00     0.031 C 
ATOM     58  C   UNL A   1      44.469  31.570  28.510  1.00  0.00     0.037 A 
BRANCH  45  59
ATOM     59  C   UNL A   1      47.779  27.590  25.173  1.00  0.00     0.064 A 
ATOM     60  C   UNL A   1      47.858  27.738  23.782  1.00  0.00     0.173 A 
ATOM     61  C   UNL A   1      48.925  27.168  25.864  1.00  0.00     0.173 A 
ATOM     62  F   UNL A   1      46.781  28.114  23.078  1.00  0.00    -0.203 F 
ATOM     63  C   UNL A   1      49.041  27.450  23.106  1.00  0.00     0.198 A 
ATOM     64  C   UNL A   1      50.111  26.906  25.188  1.00  0.00     0.198 A 
ATOM     65  F   UNL A   1      48.891  27.010  27.196  1.00  0.00    -0.203 F 
ATOM     66  F   UNL A   1      49.089  27.548  21.771  1.00  0.00    -0.200 F 
ATOM     67  C   UNL A   1      50.165  27.039  23.809  1.00  0.00     0.200 A 
ATOM     68  F   UNL A   1      51.195  26.514  25.870  1.00  0.00    -0.200 F 
ATOM     69  F   UNL A   1      51.301  26.757  23.155  1.00  0.00    -0.200 F 
ENDBRANCH  45  59
BRANCH  46  70
ATOM     70  C   UNL A   1      39.139  28.991  29.674  1.00  0.00     0.064 A 
ATOM     71  C   UNL A   1      38.143  29.617  28.906  1.00  0.00     0.173 A 
ATOM     72  C   UNL A   1      38.863  28.776  31.033  1.00  0.00     0.173 A 
ATOM     73  F   UNL A   1      38.369  29.893  27.613  1.00  0.00    -0.203 F 
ATOM     74  C   UNL A   1      36.944  30.040  29.481  1.00  0.00     0.198 A 
ATOM     75  C   UNL A   1      37.649  29.162  31.597  1.00  0.00     0.198 A 
ATOM     76  F   UNL A   1      39.788  28.216  31.828  1.00  0.00    -0.203 F 
ATOM     77  F   UNL A   1      36.051  30.714  28.745  1.00  0.00    -0.200 F 
ATOM     78  C   UNL A   1      36.696  29.808  30.826  1.00  0.00     0.200 A 
ATOM     79  F   UNL A   1      37.416  28.938  32.898  1.00  0.00    -0.200 F 
ATOM     80  F   UNL A   1      35.554  30.232  31.383  1.00  0.00    -0.200 F 
ENDBRANCH  46  70
BRANCH  58  81
ATOM     81  C   UNL A   1      44.838  32.947  28.996  1.00  0.00     0.064 A 
ATOM     82  C   UNL A   1      45.530  33.140  30.201  1.00  0.00     0.173 A 
ATOM     83  C   UNL A   1      44.567  34.081  28.214  1.00  0.00     0.173 A 
ATOM     84  F   UNL A   1      45.811  32.096  30.995  1.00  0.00    -0.203 F 
ATOM     85  C   UNL A   1      45.919  34.415  30.613  1.00  0.00     0.198 A 
ATOM     86  C   UNL A   1      44.983  35.349  28.613  1.00  0.00     0.198 A 
ATOM     87  F   UNL A   1      43.916  33.958  27.046  1.00  0.00    -0.203 F 
ATOM     88  F   UNL A   1      46.546  34.577  31.786  1.00  0.00    -0.200 F 
ATOM     89  C   UNL A   1      45.654  35.516  29.814  1.00  0.00     0.200 A 
ATOM     90  F   UNL A   1      44.740  36.411  27.831  1.00  0.00    -0.200 F 
ATOM     91  F   UNL A   1      46.042  36.739  30.204  1.00  0.00    -0.200 F 
ENDBRANCH  58  81
ENDBRANCH  32  33
ENDBRANCH  25  27
ENDBRANCH  24  25
ENDBRANCH  23  24
ENDBRANCH  22  23
ENDBRANCH   1  22
TORSDOF 17
ENDMDL
