MODEL 1
REMARK VINA RESULT:     -12.0      0.000      0.000
REMARK SMILES O=C(CC1CCN(S(=O)(=O)c2cc[nH]c2)CC1)OCCOC(=O)c1ccc(-c2c3nc(c(-c4c(F)c(F)c(F)c(F)c4F)c4ccc([nH]4)c(-c4c(F)c(F)c(F)c(F)c4F)c4nc(c(-c5c(F)c(F)c(F)c(F)c5F)c5ccc2[nH]5)C=C4)C=C3)cc1
REMARK SMILES IDX 19 1 18 2 2 3 1 4 3 5 4 6 5 7 17 8 6 9 16 10 7 11 8 12 9 13
REMARK SMILES IDX 10 14 11 15 12 16 15 17 13 18 14 19 20 21 21 22 22 23 23 24
REMARK SMILES IDX 24 25 25 26 86 27 26 28 85 29 27 30 28 31 29 32 79 33 30 34
REMARK SMILES IDX 84 35 78 36 80 37 31 38 83 39 77 40 76 41 32 43 64 44 44 45
REMARK SMILES IDX 63 46 45 47 48 48 62 49 81 50 46 51 47 52 61 54 82 55 49 56
REMARK SMILES IDX 33 57 34 58 42 59 35 60 36 61 40 62 43 63 37 64 38 65 41 66
REMARK SMILES IDX 39 67 65 68 66 69 74 70 67 71 68 72 72 73 75 74 69 75 70 76
REMARK SMILES IDX 73 77 71 78 50 79 51 80 59 81 52 82 53 83 57 84 60 85 54 86
REMARK SMILES IDX 55 87 58 88 56 89
REMARK H PARENT 14 20 80 42 48 53
REMARK Flexibility Score: inf
ROOT
ATOM      1  C   UNL A   1      38.994  21.359  25.770  1.00  0.00     0.274 C 
ENDROOT
BRANCH   1   2
ATOM      2  O   UNL A   1      37.807  21.628  24.997  1.00  0.00    -0.462 OA
BRANCH   2   3
ATOM      3  C   UNL A   1      37.223  22.826  24.783  1.00  0.00     0.306 C 
ATOM      4  O   UNL A   1      37.611  23.821  25.395  1.00  0.00    -0.252 OA
BRANCH   3   5
ATOM      5  C   UNL A   1      36.094  22.960  23.786  1.00  0.00     0.126 C 
BRANCH   5   6
ATOM      6  C   UNL A   1      34.681  22.778  24.343  1.00  0.00     0.003 C 
ATOM      7  C   UNL A   1      33.631  22.559  23.256  1.00  0.00     0.021 C 
ATOM      8  C   UNL A   1      34.284  23.994  25.191  1.00  0.00     0.021 C 
ATOM      9  C   UNL A   1      33.428  23.805  22.403  1.00  0.00     0.103 C 
ATOM     10  C   UNL A   1      34.037  25.238  24.345  1.00  0.00     0.103 C 
ATOM     11  N   UNL A   1      33.050  24.961  23.268  1.00  0.00    -0.198 NA
BRANCH  11  12
ATOM     12  S   UNL A   1      32.666  26.343  22.318  1.00  0.00     0.244 S 
ATOM     13  O   UNL A   1      33.754  26.561  21.387  1.00  0.00    -0.207 OA
ATOM     14  O   UNL A   1      31.292  26.228  21.881  1.00  0.00    -0.207 OA
BRANCH  12  15
ATOM     15  C   UNL A   1      32.692  27.728  23.352  1.00  0.00     0.100 A 
ATOM     16  C   UNL A   1      31.724  28.041  24.343  1.00  0.00     0.041 A 
ATOM     17  C   UNL A   1      33.626  28.745  23.353  1.00  0.00     0.104 A 
ATOM     18  C   UNL A   1      32.074  29.257  24.885  1.00  0.00     0.083 A 
ATOM     19  N   UNL A   1      33.245  29.664  24.293  1.00  0.00    -0.366 N 
ATOM     20  H   UNL A   1      33.734  30.490  24.513  1.00  0.00     0.165 HD
ENDBRANCH  12  15
ENDBRANCH  11  12
ENDBRANCH   5   6
ENDBRANCH   3   5
ENDBRANCH   2   3
ENDBRANCH   1   2
BRANCH   1  21
ATOM     21  C   UNL A   1      39.527  19.947  25.597  1.00  0.00     0.275 C 
BRANCH  21  22
ATOM     22  O   UNL A   1      40.454  19.631  26.625  1.00  0.00    -0.458 OA
BRANCH  22  23
ATOM     23  C   UNL A   1      41.703  19.346  26.183  1.00  0.00     0.338 C 
ATOM     24  O   UNL A   1      42.107  18.305  25.719  1.00  0.00    -0.246 OA
BRANCH  23  25
ATOM     25  C   UNL A   1      42.565  20.489  26.487  1.00  0.00     0.060 A 
ATOM     26  C   UNL A   1      42.559  20.929  27.811  1.00  0.00     0.016 A 
ATOM     27  C   UNL A   1      43.020  21.280  25.424  1.00  0.00     0.016 A 
ATOM     28  C   UNL A   1      42.781  22.263  28.042  1.00  0.00     0.010 A 
ATOM     29  C   UNL A   1      43.169  22.624  25.641  1.00  0.00     0.010 A 
ATOM     30  C   UNL A   1      42.998  23.101  26.941  1.00  0.00    -0.014 A 
BRANCH  30  31
ATOM     31  C   UNL A   1      43.239  24.512  27.208  1.00  0.00     0.031 A 
ATOM     32  C   UNL A   1      41.866  25.205  27.368  1.00  0.00     0.074 A 
ATOM     33  C   UNL A   1      44.565  24.876  27.194  1.00  0.00     0.049 A 
ATOM     34  N   UNL A   1      41.530  26.428  27.122  1.00  0.00    -0.248 NA
ATOM     35  C   UNL A   1      40.662  24.419  27.792  1.00  0.00     0.031 C 
ATOM     36  C   UNL A   1      45.721  23.944  27.072  1.00  0.00     0.029 A 
ATOM     37  N   UNL A   1      45.228  26.083  27.267  1.00  0.00    -0.354 N 
ATOM     38  C   UNL A   1      40.209  26.617  27.587  1.00  0.00     0.074 A 
ATOM     39  C   UNL A   1      39.680  25.320  27.851  1.00  0.00     0.031 C 
ATOM     40  C   UNL A   1      46.894  24.616  26.973  1.00  0.00     0.029 A 
ATOM     41  C   UNL A   1      46.639  26.042  27.042  1.00  0.00     0.049 A 
ATOM     42  H   UNL A   1      44.756  26.924  27.464  1.00  0.00     0.167 HD
ATOM     43  C   UNL A   1      39.732  27.857  27.899  1.00  0.00     0.037 A 
ATOM     44  C   UNL A   1      47.507  27.097  26.875  1.00  0.00     0.037 A 
ATOM     45  C   UNL A   1      40.726  28.822  27.567  1.00  0.00     0.049 A 
ATOM     46  C   UNL A   1      46.684  28.263  27.204  1.00  0.00     0.074 A 
ATOM     47  C   UNL A   1      41.214  29.232  26.355  1.00  0.00     0.029 A 
ATOM     48  N   UNL A   1      41.635  29.112  28.557  1.00  0.00    -0.354 N 
ATOM     49  N   UNL A   1      46.308  28.574  28.408  1.00  0.00    -0.248 NA
ATOM     50  C   UNL A   1      46.138  29.066  26.106  1.00  0.00     0.031 C 
ATOM     51  C   UNL A   1      42.603  29.261  26.585  1.00  0.00     0.029 A 
ATOM     52  C   UNL A   1      42.863  29.213  27.961  1.00  0.00     0.049 A 
ATOM     53  H   UNL A   1      41.440  29.225  29.515  1.00  0.00     0.167 HD
ATOM     54  C   UNL A   1      45.215  29.363  28.158  1.00  0.00     0.074 A 
ATOM     55  C   UNL A   1      45.374  29.888  26.817  1.00  0.00     0.031 C 
ATOM     56  C   UNL A   1      44.041  29.074  28.777  1.00  0.00     0.037 A 
BRANCH  43  57
ATOM     57  C   UNL A   1      38.598  28.334  28.764  1.00  0.00     0.064 A 
ATOM     58  C   UNL A   1      37.891  29.479  28.316  1.00  0.00     0.173 A 
ATOM     59  C   UNL A   1      38.480  28.024  30.123  1.00  0.00     0.173 A 
ATOM     60  F   UNL A   1      37.878  29.817  27.017  1.00  0.00    -0.203 F 
ATOM     61  C   UNL A   1      37.294  30.369  29.205  1.00  0.00     0.198 A 
ATOM     62  C   UNL A   1      37.821  28.889  31.003  1.00  0.00     0.198 A 
ATOM     63  F   UNL A   1      39.081  26.951  30.650  1.00  0.00    -0.203 F 
ATOM     64  F   UNL A   1      36.815  31.538  28.757  1.00  0.00    -0.200 F 
ATOM     65  C   UNL A   1      37.283  30.084  30.554  1.00  0.00     0.200 A 
ATOM     66  F   UNL A   1      37.792  28.601  32.312  1.00  0.00    -0.200 F 
ATOM     67  F   UNL A   1      36.790  30.974  31.425  1.00  0.00    -0.200 F 
ENDBRANCH  43  57
BRANCH  44  68
ATOM     68  C   UNL A   1      48.920  27.422  26.415  1.00  0.00     0.064 A 
ATOM     69  C   UNL A   1      49.986  27.848  27.212  1.00  0.00     0.173 A 
ATOM     70  C   UNL A   1      49.285  27.188  25.049  1.00  0.00     0.173 A 
ATOM     71  F   UNL A   1      49.780  28.236  28.476  1.00  0.00    -0.203 F 
ATOM     72  C   UNL A   1      51.312  27.900  26.719  1.00  0.00     0.198 A 
ATOM     73  C   UNL A   1      50.598  27.169  24.581  1.00  0.00     0.198 A 
ATOM     74  F   UNL A   1      48.368  26.961  24.100  1.00  0.00    -0.203 F 
ATOM     75  F   UNL A   1      52.306  28.318  27.516  1.00  0.00    -0.200 F 
ATOM     76  C   UNL A   1      51.622  27.508  25.425  1.00  0.00     0.200 A 
ATOM     77  F   UNL A   1      50.847  26.796  23.316  1.00  0.00    -0.200 F 
ATOM     78  F   UNL A   1      52.889  27.473  24.990  1.00  0.00    -0.200 F 
ENDBRANCH  44  68
BRANCH  56  79
ATOM     79  C   UNL A   1      44.176  28.306  30.084  1.00  0.00     0.064 A 
ATOM     80  C   UNL A   1      44.830  28.902  31.175  1.00  0.00     0.173 A 
ATOM     81  C   UNL A   1      43.787  26.967  30.272  1.00  0.00     0.173 A 
ATOM     82  F   UNL A   1      45.198  30.191  31.107  1.00  0.00    -0.203 F 
ATOM     83  C   UNL A   1      45.111  28.199  32.351  1.00  0.00     0.198 A 
ATOM     84  C   UNL A   1      44.072  26.255  31.444  1.00  0.00     0.198 A 
ATOM     85  F   UNL A   1      43.102  26.320  29.333  1.00  0.00    -0.203 F 
ATOM     86  F   UNL A   1      45.735  28.814  33.364  1.00  0.00    -0.200 F 
ATOM     87  C   UNL A   1      44.740  26.872  32.483  1.00  0.00     0.200 A 
ATOM     88  F   UNL A   1      43.683  24.975  31.564  1.00  0.00    -0.200 F 
ATOM     89  F   UNL A   1      45.000  26.200  33.614  1.00  0.00    -0.200 F 
ENDBRANCH  56  79
ENDBRANCH  30  31
ENDBRANCH  23  25
ENDBRANCH  22  23
ENDBRANCH  21  22
ENDBRANCH   1  21
TORSDOF 14
ENDMDL
MODEL 2
REMARK VINA RESULT:     -11.6      3.524      8.052
REMARK SMILES O=C(CC1CCN(S(=O)(=O)c2cc[nH]c2)CC1)OCCOC(=O)c1ccc(-c2c3nc(c(-c4c(F)c(F)c(F)c(F)c4F)c4ccc([nH]4)c(-c4c(F)c(F)c(F)c(F)c4F)c4nc(c(-c5c(F)c(F)c(F)c(F)c5F)c5ccc2[nH]5)C=C4)C=C3)cc1
REMARK SMILES IDX 19 1 18 2 2 3 1 4 3 5 4 6 5 7 17 8 6 9 16 10 7 11 8 12 9 13
REMARK SMILES IDX 10 14 11 15 12 16 15 17 13 18 14 19 20 21 21 22 22 23 23 24
REMARK SMILES IDX 24 25 25 26 86 27 26 28 85 29 27 30 28 31 29 32 79 33 30 34
REMARK SMILES IDX 84 35 78 36 80 37 31 38 83 39 77 40 76 41 32 43 64 44 44 45
REMARK SMILES IDX 63 46 45 47 48 48 62 49 81 50 46 51 47 52 61 54 82 55 49 56
REMARK SMILES IDX 33 57 34 58 42 59 35 60 36 61 40 62 43 63 37 64 38 65 41 66
REMARK SMILES IDX 39 67 65 68 66 69 74 70 67 71 68 72 72 73 75 74 69 75 70 76
REMARK SMILES IDX 73 77 71 78 50 79 51 80 59 81 52 82 53 83 57 84 60 85 54 86
REMARK SMILES IDX 55 87 58 88 56 89
REMARK H PARENT 14 20 80 42 48 53
REMARK Flexibility Score: inf
ROOT
ATOM      1  C   UNL A   1      33.703  30.257  27.299  1.00  0.00     0.274 C 
ENDROOT
BRANCH   1   2
ATOM      2  O   UNL A   1      32.745  29.602  26.444  1.00  0.00    -0.462 OA
BRANCH   2   3
ATOM      3  C   UNL A   1      31.909  28.594  26.771  1.00  0.00     0.306 C 
ATOM      4  O   UNL A   1      31.714  28.313  27.954  1.00  0.00    -0.252 OA
BRANCH   3   5
ATOM      5  C   UNL A   1      31.200  27.806  25.693  1.00  0.00     0.126 C 
BRANCH   5   6
ATOM      6  C   UNL A   1      32.097  27.132  24.653  1.00  0.00     0.003 C 
ATOM      7  C   UNL A   1      31.375  26.057  23.844  1.00  0.00     0.021 C 
ATOM      8  C   UNL A   1      33.326  26.514  25.333  1.00  0.00     0.021 C 
ATOM      9  C   UNL A   1      31.004  24.854  24.703  1.00  0.00     0.103 C 
ATOM     10  C   UNL A   1      32.974  25.284  26.163  1.00  0.00     0.103 C 
ATOM     11  N   UNL A   1      32.226  24.290  25.348  1.00  0.00    -0.198 NA
BRANCH  11  12
ATOM     12  S   UNL A   1      31.861  22.841  26.201  1.00  0.00     0.244 S 
ATOM     13  O   UNL A   1      32.122  23.072  27.606  1.00  0.00    -0.207 OA
ATOM     14  O   UNL A   1      30.587  22.342  25.728  1.00  0.00    -0.207 OA
BRANCH  12  15
ATOM     15  C   UNL A   1      33.012  21.639  25.734  1.00  0.00     0.100 A 
ATOM     16  C   UNL A   1      32.821  20.653  24.731  1.00  0.00     0.041 A 
ATOM     17  C   UNL A   1      34.265  21.436  26.278  1.00  0.00     0.104 A 
ATOM     18  C   UNL A   1      33.942  19.855  24.725  1.00  0.00     0.083 A 
ATOM     19  N   UNL A   1      34.823  20.354  25.652  1.00  0.00    -0.366 N 
ATOM     20  H   UNL A   1      35.719  19.989  25.837  1.00  0.00     0.165 HD
ENDBRANCH  12  15
ENDBRANCH  11  12
ENDBRANCH   5   6
ENDBRANCH   3   5
ENDBRANCH   2   3
ENDBRANCH   1   2
BRANCH   1  21
ATOM     21  C   UNL A   1      35.029  29.522  27.405  1.00  0.00     0.275 C 
BRANCH  21  22
ATOM     22  O   UNL A   1      36.116  30.421  27.250  1.00  0.00    -0.458 OA
BRANCH  22  23
ATOM     23  C   UNL A   1      36.971  30.450  28.300  1.00  0.00     0.338 C 
ATOM     24  O   UNL A   1      37.070  31.301  29.154  1.00  0.00    -0.246 OA
BRANCH  23  25
ATOM     25  C   UNL A   1      37.891  29.320  28.170  1.00  0.00     0.060 A 
ATOM     26  C   UNL A   1      38.048  28.519  29.303  1.00  0.00     0.016 A 
ATOM     27  C   UNL A   1      38.810  29.328  27.111  1.00  0.00     0.016 A 
ATOM     28  C   UNL A   1      39.260  27.905  29.488  1.00  0.00     0.010 A 
ATOM     29  C   UNL A   1      40.045  28.779  27.328  1.00  0.00     0.010 A 
ATOM     30  C   UNL A   1      40.266  28.117  28.537  1.00  0.00    -0.014 A 
BRANCH  30  31
ATOM     31  C   UNL A   1      41.542  27.450  28.748  1.00  0.00     0.031 A 
ATOM     32  C   UNL A   1      41.392  25.982  28.284  1.00  0.00     0.074 A 
ATOM     33  C   UNL A   1      42.506  28.234  29.336  1.00  0.00     0.049 A 
ATOM     34  N   UNL A   1      42.006  24.924  28.696  1.00  0.00    -0.248 NA
ATOM     35  C   UNL A   1      40.357  25.608  27.265  1.00  0.00     0.031 C 
ATOM     36  C   UNL A   1      42.382  29.691  29.626  1.00  0.00     0.029 A 
ATOM     37  N   UNL A   1      43.774  27.994  29.820  1.00  0.00    -0.354 N 
ATOM     38  C   UNL A   1      41.643  23.853  27.847  1.00  0.00     0.074 A 
ATOM     39  C   UNL A   1      40.523  24.297  27.087  1.00  0.00     0.031 C 
ATOM     40  C   UNL A   1      43.454  30.154  30.313  1.00  0.00     0.029 A 
ATOM     41  C   UNL A   1      44.395  29.072  30.525  1.00  0.00     0.049 A 
ATOM     42  H   UNL A   1      44.225  27.129  29.688  1.00  0.00     0.167 HD
ATOM     43  C   UNL A   1      42.434  22.749  27.713  1.00  0.00     0.037 A 
ATOM     44  C   UNL A   1      45.559  29.052  31.260  1.00  0.00     0.037 A 
ATOM     45  C   UNL A   1      43.527  22.860  28.618  1.00  0.00     0.049 A 
ATOM     46  C   UNL A   1      46.118  27.731  30.965  1.00  0.00     0.074 A 
ATOM     47  C   UNL A   1      43.572  22.817  29.987  1.00  0.00     0.029 A 
ATOM     48  N   UNL A   1      44.642  23.504  28.137  1.00  0.00    -0.354 N 
ATOM     49  N   UNL A   1      46.659  27.405  29.830  1.00  0.00    -0.248 NA
ATOM     50  C   UNL A   1      45.952  26.663  31.957  1.00  0.00     0.031 C 
ATOM     51  C   UNL A   1      44.426  23.894  30.293  1.00  0.00     0.029 A 
ATOM     52  C   UNL A   1      45.113  24.304  29.142  1.00  0.00     0.049 A 
ATOM     53  H   UNL A   1      45.029  23.408  27.237  1.00  0.00     0.167 HD
ATOM     54  C   UNL A   1      46.553  26.038  29.859  1.00  0.00     0.074 A 
ATOM     55  C   UNL A   1      46.453  25.654  31.252  1.00  0.00     0.031 C 
ATOM     56  C   UNL A   1      45.983  25.401  28.804  1.00  0.00     0.037 A 
BRANCH  43  57
ATOM     57  C   UNL A   1      42.551  21.693  26.649  1.00  0.00     0.064 A 
ATOM     58  C   UNL A   1      42.104  20.390  26.988  1.00  0.00     0.173 A 
ATOM     59  C   UNL A   1      43.430  21.783  25.564  1.00  0.00     0.173 A 
ATOM     60  F   UNL A   1      41.201  20.204  27.965  1.00  0.00    -0.203 F 
ATOM     61  C   UNL A   1      42.668  19.249  26.426  1.00  0.00     0.198 A 
ATOM     62  C   UNL A   1      43.944  20.633  24.957  1.00  0.00     0.198 A 
ATOM     63  F   UNL A   1      43.894  22.963  25.137  1.00  0.00    -0.203 F 
ATOM     64  F   UNL A   1      42.363  18.041  26.921  1.00  0.00    -0.200 F 
ATOM     65  C   UNL A   1      43.610  19.373  25.426  1.00  0.00     0.200 A 
ATOM     66  F   UNL A   1      44.844  20.754  23.970  1.00  0.00    -0.200 F 
ATOM     67  F   UNL A   1      44.222  18.285  24.941  1.00  0.00    -0.200 F 
ENDBRANCH  43  57
BRANCH  44  68
ATOM     68  C   UNL A   1      46.350  29.870  32.269  1.00  0.00     0.064 A 
ATOM     69  C   UNL A   1      47.460  30.678  32.008  1.00  0.00     0.173 A 
ATOM     70  C   UNL A   1      45.897  29.941  33.626  1.00  0.00     0.173 A 
ATOM     71  F   UNL A   1      48.083  30.622  30.826  1.00  0.00    -0.203 F 
ATOM     72  C   UNL A   1      47.976  31.572  32.978  1.00  0.00     0.198 A 
ATOM     73  C   UNL A   1      46.355  30.870  34.558  1.00  0.00     0.198 A 
ATOM     74  F   UNL A   1      44.972  29.101  34.109  1.00  0.00    -0.203 F 
ATOM     75  F   UNL A   1      49.045  32.328  32.689  1.00  0.00    -0.200 F 
ATOM     76  C   UNL A   1      47.389  31.706  34.228  1.00  0.00     0.200 A 
ATOM     77  F   UNL A   1      45.765  30.953  35.761  1.00  0.00    -0.200 F 
ATOM     78  F   UNL A   1      47.824  32.616  35.110  1.00  0.00    -0.200 F 
ENDBRANCH  44  68
BRANCH  56  79
ATOM     79  C   UNL A   1      46.046  26.158  27.485  1.00  0.00     0.064 A 
ATOM     80  C   UNL A   1      47.293  26.545  26.966  1.00  0.00     0.173 A 
ATOM     81  C   UNL A   1      44.926  26.616  26.768  1.00  0.00     0.173 A 
ATOM     82  F   UNL A   1      48.420  26.118  27.556  1.00  0.00    -0.203 F 
ATOM     83  C   UNL A   1      47.409  27.363  25.838  1.00  0.00     0.198 A 
ATOM     84  C   UNL A   1      45.035  27.441  25.642  1.00  0.00     0.198 A 
ATOM     85  F   UNL A   1      43.695  26.258  27.127  1.00  0.00    -0.203 F 
ATOM     86  F   UNL A   1      48.622  27.702  25.381  1.00  0.00    -0.200 F 
ATOM     87  C   UNL A   1      46.279  27.819  25.181  1.00  0.00     0.200 A 
ATOM     88  F   UNL A   1      43.929  27.855  25.002  1.00  0.00    -0.200 F 
ATOM     89  F   UNL A   1      46.390  28.596  24.092  1.00  0.00    -0.200 F 
ENDBRANCH  56  79
ENDBRANCH  30  31
ENDBRANCH  23  25
ENDBRANCH  22  23
ENDBRANCH  21  22
ENDBRANCH   1  21
TORSDOF 14
ENDMDL
MODEL 3
REMARK VINA RESULT:     -11.6      4.519      6.856
REMARK SMILES O=C(CC1CCN(S(=O)(=O)c2cc[nH]c2)CC1)OCCOC(=O)c1ccc(-c2c3nc(c(-c4c(F)c(F)c(F)c(F)c4F)c4ccc([nH]4)c(-c4c(F)c(F)c(F)c(F)c4F)c4nc(c(-c5c(F)c(F)c(F)c(F)c5F)c5ccc2[nH]5)C=C4)C=C3)cc1
REMARK SMILES IDX 19 1 18 2 2 3 1 4 3 5 4 6 5 7 17 8 6 9 16 10 7 11 8 12 9 13
REMARK SMILES IDX 10 14 11 15 12 16 15 17 13 18 14 19 20 21 21 22 22 23 23 24
REMARK SMILES IDX 24 25 25 26 86 27 26 28 85 29 27 30 28 31 29 32 79 33 30 34
REMARK SMILES IDX 84 35 78 36 80 37 31 38 83 39 77 40 76 41 32 43 64 44 44 45
REMARK SMILES IDX 63 46 45 47 48 48 62 49 81 50 46 51 47 52 61 54 82 55 49 56
REMARK SMILES IDX 33 57 34 58 42 59 35 60 36 61 40 62 43 63 37 64 38 65 41 66
REMARK SMILES IDX 39 67 65 68 66 69 74 70 67 71 68 72 72 73 75 74 69 75 70 76
REMARK SMILES IDX 73 77 71 78 50 79 51 80 59 81 52 82 53 83 57 84 60 85 54 86
REMARK SMILES IDX 55 87 58 88 56 89
REMARK H PARENT 14 20 80 42 48 53
REMARK Flexibility Score: inf
ROOT
ATOM      1  C   UNL A   1      37.890  22.696  25.802  1.00  0.00     0.274 C 
ENDROOT
BRANCH   1   2
ATOM      2  O   UNL A   1      36.636  22.091  26.175  1.00  0.00    -0.462 OA
BRANCH   2   3
ATOM      3  C   UNL A   1      35.721  21.531  25.357  1.00  0.00     0.306 C 
ATOM      4  O   UNL A   1      35.939  20.431  24.849  1.00  0.00    -0.252 OA
BRANCH   3   5
ATOM      5  C   UNL A   1      34.419  22.241  25.062  1.00  0.00     0.126 C 
BRANCH   5   6
ATOM      6  C   UNL A   1      34.472  23.317  23.977  1.00  0.00     0.003 C 
ATOM      7  C   UNL A   1      34.794  24.706  24.524  1.00  0.00     0.021 C 
ATOM      8  C   UNL A   1      33.140  23.370  23.216  1.00  0.00     0.021 C 
ATOM      9  C   UNL A   1      33.665  25.251  25.391  1.00  0.00     0.103 C 
ATOM     10  C   UNL A   1      32.011  23.951  24.060  1.00  0.00     0.103 C 
ATOM     11  N   UNL A   1      32.391  25.278  24.615  1.00  0.00    -0.198 NA
BRANCH  11  12
ATOM     12  S   UNL A   1      31.134  26.028  25.518  1.00  0.00     0.244 S 
ATOM     13  O   UNL A   1      29.902  25.890  24.769  1.00  0.00    -0.207 OA
ATOM     14  O   UNL A   1      31.247  25.604  26.896  1.00  0.00    -0.207 OA
BRANCH  12  15
ATOM     15  C   UNL A   1      31.437  27.730  25.548  1.00  0.00     0.100 A 
ATOM     16  C   UNL A   1      31.992  28.454  26.636  1.00  0.00     0.041 A 
ATOM     17  C   UNL A   1      31.163  28.639  24.545  1.00  0.00     0.104 A 
ATOM     18  C   UNL A   1      31.998  29.784  26.280  1.00  0.00     0.083 A 
ATOM     19  N   UNL A   1      31.515  29.883  24.999  1.00  0.00    -0.366 N 
ATOM     20  H   UNL A   1      31.434  30.719  24.485  1.00  0.00     0.165 HD
ENDBRANCH  12  15
ENDBRANCH  11  12
ENDBRANCH   5   6
ENDBRANCH   3   5
ENDBRANCH   2   3
ENDBRANCH   1   2
BRANCH   1  21
ATOM     21  C   UNL A   1      38.131  24.049  26.449  1.00  0.00     0.275 C 
BRANCH  21  22
ATOM     22  O   UNL A   1      39.504  24.404  26.374  1.00  0.00    -0.458 OA
BRANCH  22  23
ATOM     23  C   UNL A   1      40.064  24.724  27.566  1.00  0.00     0.338 C 
ATOM     24  O   UNL A   1      40.776  24.036  28.260  1.00  0.00    -0.246 OA
BRANCH  23  25
ATOM     25  C   UNL A   1      39.550  26.033  27.974  1.00  0.00     0.060 A 
ATOM     26  C   UNL A   1      39.972  27.124  27.213  1.00  0.00     0.016 A 
ATOM     27  C   UNL A   1      39.014  26.164  29.262  1.00  0.00     0.016 A 
ATOM     28  C   UNL A   1      40.085  28.337  27.845  1.00  0.00     0.010 A 
ATOM     29  C   UNL A   1      39.195  27.353  29.915  1.00  0.00     0.010 A 
ATOM     30  C   UNL A   1      39.775  28.409  29.208  1.00  0.00    -0.014 A 
BRANCH  30  31
ATOM     31  C   UNL A   1      39.894  29.706  29.858  1.00  0.00     0.031 A 
ATOM     32  C   UNL A   1      38.652  30.544  29.472  1.00  0.00     0.074 A 
ATOM     33  C   UNL A   1      41.054  29.881  30.573  1.00  0.00     0.049 A 
ATOM     34  N   UNL A   1      38.527  31.824  29.365  1.00  0.00    -0.248 NA
ATOM     35  C   UNL A   1      37.374  29.870  29.071  1.00  0.00     0.031 C 
ATOM     36  C   UNL A   1      42.082  28.834  30.833  1.00  0.00     0.029 A 
ATOM     37  N   UNL A   1      41.627  30.955  31.222  1.00  0.00    -0.354 N 
ATOM     38  C   UNL A   1      37.159  32.111  29.154  1.00  0.00     0.074 A 
ATOM     39  C   UNL A   1      36.528  30.874  28.836  1.00  0.00     0.031 C 
ATOM     40  C   UNL A   1      43.164  29.345  31.469  1.00  0.00     0.029 A 
ATOM     41  C   UNL A   1      42.956  30.759  31.713  1.00  0.00     0.049 A 
ATOM     42  H   UNL A   1      41.148  31.806  31.340  1.00  0.00     0.167 HD
ATOM     43  C   UNL A   1      36.631  33.333  29.454  1.00  0.00     0.037 A 
ATOM     44  C   UNL A   1      43.823  31.697  32.225  1.00  0.00     0.037 A 
ATOM     45  C   UNL A   1      37.686  34.195  29.869  1.00  0.00     0.049 A 
ATOM     46  C   UNL A   1      42.985  32.892  32.354  1.00  0.00     0.074 A 
ATOM     47  C   UNL A   1      38.735  34.736  29.173  1.00  0.00     0.029 A 
ATOM     48  N   UNL A   1      37.978  34.183  31.212  1.00  0.00    -0.354 N 
ATOM     49  N   UNL A   1      42.061  33.040  33.255  1.00  0.00    -0.248 NA
ATOM     50  C   UNL A   1      43.097  33.938  31.334  1.00  0.00     0.031 C 
ATOM     51  C   UNL A   1      39.815  34.533  30.053  1.00  0.00     0.029 A 
ATOM     52  C   UNL A   1      39.340  34.214  31.332  1.00  0.00     0.049 A 
ATOM     53  H   UNL A   1      37.328  34.156  31.951  1.00  0.00     0.167 HD
ATOM     54  C   UNL A   1      41.271  34.003  32.681  1.00  0.00     0.074 A 
ATOM     55  C   UNL A   1      42.105  34.723  31.740  1.00  0.00     0.031 C 
ATOM     56  C   UNL A   1      39.937  33.778  32.567  1.00  0.00     0.037 A 
BRANCH  43  57
ATOM     57  C   UNL A   1      35.231  33.806  29.734  1.00  0.00     0.064 A 
ATOM     58  C   UNL A   1      34.651  34.685  28.782  1.00  0.00     0.173 A 
ATOM     59  C   UNL A   1      34.656  33.806  31.009  1.00  0.00     0.173 A 
ATOM     60  F   UNL A   1      35.081  34.703  27.510  1.00  0.00    -0.203 F 
ATOM     61  C   UNL A   1      33.713  35.646  29.146  1.00  0.00     0.198 A 
ATOM     62  C   UNL A   1      33.666  34.733  31.351  1.00  0.00     0.198 A 
ATOM     63  F   UNL A   1      35.103  32.999  31.977  1.00  0.00    -0.203 F 
ATOM     64  F   UNL A   1      33.344  36.585  28.263  1.00  0.00    -0.200 F 
ATOM     65  C   UNL A   1      33.240  35.686  30.441  1.00  0.00     0.200 A 
ATOM     66  F   UNL A   1      33.190  34.756  32.605  1.00  0.00    -0.200 F 
ATOM     67  F   UNL A   1      32.405  36.661  30.821  1.00  0.00    -0.200 F 
ENDBRANCH  43  57
BRANCH  44  68
ATOM     68  C   UNL A   1      45.283  31.899  32.598  1.00  0.00     0.064 A 
ATOM     69  C   UNL A   1      46.386  31.832  31.741  1.00  0.00     0.173 A 
ATOM     70  C   UNL A   1      45.619  32.301  33.931  1.00  0.00     0.173 A 
ATOM     71  F   UNL A   1      46.259  31.344  30.502  1.00  0.00    -0.203 F 
ATOM     72  C   UNL A   1      47.673  32.260  32.147  1.00  0.00     0.198 A 
ATOM     73  C   UNL A   1      46.867  32.791  34.311  1.00  0.00     0.198 A 
ATOM     74  F   UNL A   1      44.734  32.238  34.934  1.00  0.00    -0.203 F 
ATOM     75  F   UNL A   1      48.705  32.177  31.295  1.00  0.00    -0.200 F 
ATOM     76  C   UNL A   1      47.898  32.790  33.410  1.00  0.00     0.200 A 
ATOM     77  F   UNL A   1      47.041  33.281  35.549  1.00  0.00    -0.200 F 
ATOM     78  F   UNL A   1      49.096  33.277  33.759  1.00  0.00    -0.200 F 
ENDBRANCH  44  68
BRANCH  56  79
ATOM     79  C   UNL A   1      39.366  32.785  33.570  1.00  0.00     0.064 A 
ATOM     80  C   UNL A   1      39.506  33.032  34.946  1.00  0.00     0.173 A 
ATOM     81  C   UNL A   1      38.785  31.549  33.235  1.00  0.00     0.173 A 
ATOM     82  F   UNL A   1      40.007  34.205  35.364  1.00  0.00    -0.203 F 
ATOM     83  C   UNL A   1      39.131  32.093  35.914  1.00  0.00     0.198 A 
ATOM     84  C   UNL A   1      38.414  30.603  34.198  1.00  0.00     0.198 A 
ATOM     85  F   UNL A   1      38.542  31.234  31.965  1.00  0.00    -0.203 F 
ATOM     86  F   UNL A   1      39.282  32.378  37.214  1.00  0.00    -0.200 F 
ATOM     87  C   UNL A   1      38.593  30.874  35.539  1.00  0.00     0.200 A 
ATOM     88  F   UNL A   1      37.871  29.434  33.818  1.00  0.00    -0.200 F 
ATOM     89  F   UNL A   1      38.224  29.978  36.466  1.00  0.00    -0.200 F 
ENDBRANCH  56  79
ENDBRANCH  30  31
ENDBRANCH  23  25
ENDBRANCH  22  23
ENDBRANCH  21  22
ENDBRANCH   1  21
TORSDOF 14
ENDMDL
