MODEL 1
REMARK VINA RESULT:     -10.1      0.000      0.000
REMARK SMILES CC(C)(C)OC(=O)N1C[C@H](c2ccc(C(F)(F)F)cc2)[C@H](C(=O)OCCOC(=O)c2ccc(-c3c4nc(c(-c5c(F)c(F)c(F)c(F)c5F)c5ccc([nH]5)c(-c5c(F)c(F)c(F)c(F)c5F)c5nc(c(-c6c(F)c(F)c(F)c(F)c6F)c6ccc3[nH]6)C=C5)C=C4)cc2)C1
REMARK SMILES IDX 25 1 24 2 22 3 23 4 21 5 8 6 9 7 93 8 10 9 6 10 7 11 5 12
REMARK SMILES IDX 2 13 1 14 3 15 4 16 11 17 12 18 20 19 13 20 19 21 14 22
REMARK SMILES IDX 15 23 16 24 17 25 18 26 26 27 27 28 28 29 29 30 30 31 31 32
REMARK SMILES IDX 92 33 32 34 91 35 33 36 34 37 35 38 85 39 36 40 90 41 84 42
REMARK SMILES IDX 86 43 37 44 89 45 83 46 82 47 38 49 70 50 50 51 69 52 51 53
REMARK SMILES IDX 54 54 68 55 87 56 52 57 53 58 67 60 88 61 55 62 39 63 40 64
REMARK SMILES IDX 48 65 41 66 42 67 46 68 49 69 43 70 44 71 47 72 45 73 71 74
REMARK SMILES IDX 72 75 80 76 73 77 74 78 78 79 81 80 75 81 76 82 79 83 77 84
REMARK SMILES IDX 56 85 57 86 65 87 58 88 59 89 63 90 66 91 60 92 61 93 64 94
REMARK SMILES IDX 62 95
REMARK H PARENT 86 48 54 59
REMARK Flexibility Score: inf
ROOT
ATOM      1  C   UNL A   1      33.314  34.203  27.989  1.00  0.00     0.274 C 
ENDROOT
BRANCH   1   2
ATOM      2  O   UNL A   1      34.325  34.578  28.944  1.00  0.00    -0.462 OA
BRANCH   2   3
ATOM      3  C   UNL A   1      33.950  34.854  30.207  1.00  0.00     0.311 C 
ATOM      4  O   UNL A   1      33.379  35.884  30.549  1.00  0.00    -0.252 OA
BRANCH   3   5
ATOM      5  C   UNL A   1      34.316  33.782  31.204  1.00  0.00     0.128 C 
ATOM      6  N   UNL A   1      35.200  33.465  33.350  1.00  0.00    -0.307 N 
ATOM      7  C   UNL A   1      35.713  32.382  32.530  1.00  0.00     0.132 C 
ATOM      8  C   UNL A   1      34.300  34.326  32.620  1.00  0.00     0.139 C 
ATOM      9  C   UNL A   1      35.592  32.910  31.093  1.00  0.00     0.055 C 
BRANCH   6  10
ATOM     10  C   UNL A   1      35.606  33.798  34.614  1.00  0.00     0.410 C 
ATOM     11  O   UNL A   1      35.391  34.887  35.113  1.00  0.00    -0.224 OA
BRANCH  10  12
ATOM     12  O   UNL A   1      36.351  32.808  35.161  1.00  0.00    -0.444 OA
BRANCH  12  13
ATOM     13  C   UNL A   1      37.640  33.093  35.755  1.00  0.00     0.106 C 
ATOM     14  C   UNL A   1      38.415  31.771  35.641  1.00  0.00     0.056 C 
ATOM     15  C   UNL A   1      37.437  33.452  37.225  1.00  0.00     0.056 C 
ATOM     16  C   UNL A   1      38.437  34.169  35.002  1.00  0.00     0.056 C 
ENDBRANCH  12  13
ENDBRANCH  10  12
ENDBRANCH   6  10
BRANCH   9  17
ATOM     17  C   UNL A   1      36.950  33.427  30.654  1.00  0.00    -0.042 A 
ATOM     18  C   UNL A   1      37.481  33.271  29.371  1.00  0.00     0.005 A 
ATOM     19  C   UNL A   1      37.713  34.136  31.602  1.00  0.00     0.005 A 
ATOM     20  C   UNL A   1      38.791  33.676  29.089  1.00  0.00     0.013 A 
ATOM     21  C   UNL A   1      39.003  34.578  31.312  1.00  0.00     0.013 A 
ATOM     22  C   UNL A   1      39.572  34.317  30.061  1.00  0.00     0.056 A 
BRANCH  22  23
ATOM     23  C   UNL A   1      41.016  34.659  29.802  1.00  0.00     0.416 C 
ATOM     24  F   UNL A   1      41.159  35.515  28.752  1.00  0.00    -0.166 F 
ATOM     25  F   UNL A   1      41.628  35.265  30.858  1.00  0.00    -0.166 F 
ATOM     26  F   UNL A   1      41.780  33.571  29.502  1.00  0.00    -0.166 F 
ENDBRANCH  22  23
ENDBRANCH   9  17
ENDBRANCH   3   5
ENDBRANCH   2   3
ENDBRANCH   1   2
BRANCH   1  27
ATOM     27  C   UNL A   1      33.194  32.679  27.933  1.00  0.00     0.275 C 
BRANCH  27  28
ATOM     28  O   UNL A   1      34.496  32.074  27.834  1.00  0.00    -0.458 OA
BRANCH  28  29
ATOM     29  C   UNL A   1      34.502  30.731  27.679  1.00  0.00     0.338 C 
ATOM     30  O   UNL A   1      33.666  30.034  27.133  1.00  0.00    -0.246 OA
BRANCH  29  31
ATOM     31  C   UNL A   1      35.806  30.212  28.109  1.00  0.00     0.060 A 
ATOM     32  C   UNL A   1      35.907  29.705  29.408  1.00  0.00     0.016 A 
ATOM     33  C   UNL A   1      36.917  30.242  27.267  1.00  0.00     0.016 A 
ATOM     34  C   UNL A   1      37.116  29.213  29.876  1.00  0.00     0.010 A 
ATOM     35  C   UNL A   1      38.136  29.755  27.739  1.00  0.00     0.010 A 
ATOM     36  C   UNL A   1      38.239  29.243  29.045  1.00  0.00    -0.014 A 
BRANCH  36  37
ATOM     37  C   UNL A   1      39.542  28.795  29.572  1.00  0.00     0.031 A 
ATOM     38  C   UNL A   1      40.232  29.619  30.614  1.00  0.00     0.074 A 
ATOM     39  C   UNL A   1      40.081  27.647  29.125  1.00  0.00     0.049 A 
ATOM     40  N   UNL A   1      41.421  29.471  31.134  1.00  0.00    -0.248 NA
ATOM     41  C   UNL A   1      39.478  30.768  31.141  1.00  0.00     0.031 C 
ATOM     42  C   UNL A   1      39.457  26.743  28.159  1.00  0.00     0.029 A 
ATOM     43  N   UNL A   1      41.279  27.051  29.420  1.00  0.00    -0.354 N 
ATOM     44  C   UNL A   1      41.570  30.519  32.031  1.00  0.00     0.074 A 
ATOM     45  C   UNL A   1      40.356  31.303  31.977  1.00  0.00     0.031 C 
ATOM     46  C   UNL A   1      40.284  25.710  27.933  1.00  0.00     0.029 A 
ATOM     47  C   UNL A   1      41.511  25.908  28.698  1.00  0.00     0.049 A 
ATOM     48  H   UNL A   1      41.911  27.408  30.084  1.00  0.00     0.167 HD
ATOM     49  C   UNL A   1      42.631  30.793  32.826  1.00  0.00     0.037 A 
ATOM     50  C   UNL A   1      42.610  25.132  28.638  1.00  0.00     0.037 A 
ATOM     51  C   UNL A   1      43.827  29.995  32.870  1.00  0.00     0.049 A 
ATOM     52  C   UNL A   1      43.803  25.501  29.478  1.00  0.00     0.074 A 
ATOM     53  C   UNL A   1      44.962  30.178  33.640  1.00  0.00     0.029 A 
ATOM     54  N   UNL A   1      44.043  28.858  32.103  1.00  0.00    -0.354 N 
ATOM     55  N   UNL A   1      43.946  26.498  30.320  1.00  0.00    -0.248 NA
ATOM     56  C   UNL A   1      44.988  24.643  29.358  1.00  0.00     0.031 C 
ATOM     57  C   UNL A   1      45.880  29.178  33.305  1.00  0.00     0.029 A 
ATOM     58  C   UNL A   1      45.301  28.341  32.364  1.00  0.00     0.049 A 
ATOM     59  H   UNL A   1      43.397  28.475  31.466  1.00  0.00     0.167 HD
ATOM     60  C   UNL A   1      45.224  26.374  30.845  1.00  0.00     0.074 A 
ATOM     61  C   UNL A   1      45.811  25.196  30.238  1.00  0.00     0.031 C 
ATOM     62  C   UNL A   1      45.857  27.162  31.749  1.00  0.00     0.037 A 
BRANCH  49  63
ATOM     63  C   UNL A   1      42.556  32.026  33.677  1.00  0.00     0.064 A 
ATOM     64  C   UNL A   1      42.063  31.993  34.989  1.00  0.00     0.173 A 
ATOM     65  C   UNL A   1      43.001  33.258  33.173  1.00  0.00     0.173 A 
ATOM     66  F   UNL A   1      41.607  30.842  35.509  1.00  0.00    -0.203 F 
ATOM     67  C   UNL A   1      41.995  33.151  35.758  1.00  0.00     0.198 A 
ATOM     68  C   UNL A   1      42.957  34.410  33.955  1.00  0.00     0.198 A 
ATOM     69  F   UNL A   1      43.480  33.346  31.923  1.00  0.00    -0.203 F 
ATOM     70  F   UNL A   1      41.475  33.104  36.993  1.00  0.00    -0.200 F 
ATOM     71  C   UNL A   1      42.448  34.357  35.243  1.00  0.00     0.200 A 
ATOM     72  F   UNL A   1      43.402  35.572  33.458  1.00  0.00    -0.200 F 
ATOM     73  F   UNL A   1      42.384  35.470  35.986  1.00  0.00    -0.200 F 
ENDBRANCH  49  63
BRANCH  50  74
ATOM     74  C   UNL A   1      42.638  23.955  27.733  1.00  0.00     0.064 A 
ATOM     75  C   UNL A   1      42.267  22.684  28.189  1.00  0.00     0.173 A 
ATOM     76  C   UNL A   1      43.036  24.077  26.393  1.00  0.00     0.173 A 
ATOM     77  F   UNL A   1      41.904  22.511  29.467  1.00  0.00    -0.203 F 
ATOM     78  C   UNL A   1      42.306  21.577  27.343  1.00  0.00     0.198 A 
ATOM     79  C   UNL A   1      43.046  22.976  25.540  1.00  0.00     0.198 A 
ATOM     80  F   UNL A   1      43.402  25.272  25.906  1.00  0.00    -0.203 F 
ATOM     81  F   UNL A   1      41.986  20.364  27.815  1.00  0.00    -0.200 F 
ATOM     82  C   UNL A   1      42.688  21.725  26.018  1.00  0.00     0.200 A 
ATOM     83  F   UNL A   1      43.405  23.126  24.258  1.00  0.00    -0.200 F 
ATOM     84  F   UNL A   1      42.719  20.661  25.204  1.00  0.00    -0.200 F 
ENDBRANCH  50  74
BRANCH  62  85
ATOM     85  C   UNL A   1      47.241  26.757  32.159  1.00  0.00     0.064 A 
ATOM     86  C   UNL A   1      48.379  27.302  31.547  1.00  0.00     0.173 A 
ATOM     87  C   UNL A   1      47.429  25.847  33.211  1.00  0.00     0.173 A 
ATOM     88  F   UNL A   1      48.249  28.163  30.526  1.00  0.00    -0.203 F 
ATOM     89  C   UNL A   1      49.656  26.934  31.959  1.00  0.00     0.198 A 
ATOM     90  C   UNL A   1      48.709  25.504  33.639  1.00  0.00     0.198 A 
ATOM     91  F   UNL A   1      46.373  25.305  33.832  1.00  0.00    -0.203 F 
ATOM     92  F   UNL A   1      50.730  27.433  31.331  1.00  0.00    -0.200 F 
ATOM     93  C   UNL A   1      49.819  26.042  33.009  1.00  0.00     0.200 A 
ATOM     94  F   UNL A   1      48.865  24.654  34.663  1.00  0.00    -0.200 F 
ATOM     95  F   UNL A   1      51.050  25.697  33.410  1.00  0.00    -0.200 F 
ENDBRANCH  62  85
ENDBRANCH  36  37
ENDBRANCH  29  31
ENDBRANCH  28  29
ENDBRANCH  27  28
ENDBRANCH   1  27
TORSDOF 16
ENDMDL
MODEL 2
REMARK VINA RESULT:     -10.0      4.232     11.149
REMARK SMILES CC(C)(C)OC(=O)N1C[C@H](c2ccc(C(F)(F)F)cc2)[C@H](C(=O)OCCOC(=O)c2ccc(-c3c4nc(c(-c5c(F)c(F)c(F)c(F)c5F)c5ccc([nH]5)c(-c5c(F)c(F)c(F)c(F)c5F)c5nc(c(-c6c(F)c(F)c(F)c(F)c6F)c6ccc3[nH]6)C=C5)C=C4)cc2)C1
REMARK SMILES IDX 25 1 24 2 22 3 23 4 21 5 8 6 9 7 93 8 10 9 6 10 7 11 5 12
REMARK SMILES IDX 2 13 1 14 3 15 4 16 11 17 12 18 20 19 13 20 19 21 14 22
REMARK SMILES IDX 15 23 16 24 17 25 18 26 26 27 27 28 28 29 29 30 30 31 31 32
REMARK SMILES IDX 92 33 32 34 91 35 33 36 34 37 35 38 85 39 36 40 90 41 84 42
REMARK SMILES IDX 86 43 37 44 89 45 83 46 82 47 38 49 70 50 50 51 69 52 51 53
REMARK SMILES IDX 54 54 68 55 87 56 52 57 53 58 67 60 88 61 55 62 39 63 40 64
REMARK SMILES IDX 48 65 41 66 42 67 46 68 49 69 43 70 44 71 47 72 45 73 71 74
REMARK SMILES IDX 72 75 80 76 73 77 74 78 78 79 81 80 75 81 76 82 79 83 77 84
REMARK SMILES IDX 56 85 57 86 65 87 58 88 59 89 63 90 66 91 60 92 61 93 64 94
REMARK SMILES IDX 62 95
REMARK H PARENT 86 48 54 59
REMARK Flexibility Score: inf
ROOT
ATOM      1  C   UNL A   1      41.302  20.053  26.180  1.00  0.00     0.274 C 
ENDROOT
BRANCH   1   2
ATOM      2  O   UNL A   1      42.401  20.897  26.574  1.00  0.00    -0.462 OA
BRANCH   2   3
ATOM      3  C   UNL A   1      43.460  21.006  25.751  1.00  0.00     0.311 C 
ATOM      4  O   UNL A   1      44.159  20.063  25.395  1.00  0.00    -0.252 OA
BRANCH   3   5
ATOM      5  C   UNL A   1      43.748  22.419  25.304  1.00  0.00     0.128 C 
ATOM      6  N   UNL A   1      45.490  23.957  25.012  1.00  0.00    -0.307 N 
ATOM      7  C   UNL A   1      44.347  24.716  25.488  1.00  0.00     0.132 C 
ATOM      8  C   UNL A   1      45.181  22.559  24.826  1.00  0.00     0.139 C 
ATOM      9  C   UNL A   1      43.461  23.667  26.175  1.00  0.00     0.055 C 
BRANCH   6  10
ATOM     10  C   UNL A   1      46.779  24.403  24.897  1.00  0.00     0.410 C 
ATOM     11  O   UNL A   1      47.293  24.673  23.827  1.00  0.00    -0.224 OA
BRANCH  10  12
ATOM     12  O   UNL A   1      47.405  24.393  26.098  1.00  0.00    -0.444 OA
BRANCH  12  13
ATOM     13  C   UNL A   1      48.082  25.574  26.590  1.00  0.00     0.106 C 
ATOM     14  C   UNL A   1      48.550  25.187  28.001  1.00  0.00     0.056 C 
ATOM     15  C   UNL A   1      47.077  26.721  26.671  1.00  0.00     0.056 C 
ATOM     16  C   UNL A   1      49.326  25.952  25.771  1.00  0.00     0.056 C 
ENDBRANCH  12  13
ENDBRANCH  10  12
ENDBRANCH   6  10
BRANCH   9  17
ATOM     17  C   UNL A   1      43.699  23.742  27.672  1.00  0.00    -0.042 A 
ATOM     18  C   UNL A   1      42.721  23.513  28.644  1.00  0.00     0.005 A 
ATOM     19  C   UNL A   1      45.005  24.039  28.108  1.00  0.00     0.005 A 
ATOM     20  C   UNL A   1      43.002  23.721  29.999  1.00  0.00     0.013 A 
ATOM     21  C   UNL A   1      45.298  24.205  29.461  1.00  0.00     0.013 A 
ATOM     22  C   UNL A   1      44.288  24.087  30.420  1.00  0.00     0.056 A 
BRANCH  22  23
ATOM     23  C   UNL A   1      44.573  24.418  31.863  1.00  0.00     0.416 C 
ATOM     24  F   UNL A   1      43.778  25.425  32.323  1.00  0.00    -0.166 F 
ATOM     25  F   UNL A   1      44.370  23.370  32.709  1.00  0.00    -0.166 F 
ATOM     26  F   UNL A   1      45.855  24.827  32.077  1.00  0.00    -0.166 F 
ENDBRANCH  22  23
ENDBRANCH   9  17
ENDBRANCH   3   5
ENDBRANCH   2   3
ENDBRANCH   1   2
BRANCH   1  27
ATOM     27  C   UNL A   1      40.012  20.872  26.127  1.00  0.00     0.275 C 
BRANCH  27  28
ATOM     28  O   UNL A   1      40.278  22.252  26.439  1.00  0.00    -0.458 OA
BRANCH  28  29
ATOM     29  C   UNL A   1      39.242  23.100  26.252  1.00  0.00     0.338 C 
ATOM     30  O   UNL A   1      38.148  22.856  25.774  1.00  0.00    -0.246 OA
BRANCH  29  31
ATOM     31  C   UNL A   1      39.551  24.376  26.908  1.00  0.00     0.060 A 
ATOM     32  C   UNL A   1      40.233  25.341  26.161  1.00  0.00     0.016 A 
ATOM     33  C   UNL A   1      39.204  24.617  28.237  1.00  0.00     0.016 A 
ATOM     34  C   UNL A   1      40.565  26.562  26.730  1.00  0.00     0.010 A 
ATOM     35  C   UNL A   1      39.545  25.840  28.814  1.00  0.00     0.010 A 
ATOM     36  C   UNL A   1      40.228  26.813  28.063  1.00  0.00    -0.014 A 
BRANCH  36  37
ATOM     37  C   UNL A   1      40.654  28.079  28.691  1.00  0.00     0.031 A 
ATOM     38  C   UNL A   1      42.087  28.250  29.091  1.00  0.00     0.074 A 
ATOM     39  C   UNL A   1      39.758  29.063  28.877  1.00  0.00     0.049 A 
ATOM     40  N   UNL A   1      42.651  29.228  29.748  1.00  0.00    -0.248 NA
ATOM     41  C   UNL A   1      43.007  27.172  28.698  1.00  0.00     0.031 C 
ATOM     42  C   UNL A   1      38.356  29.016  28.462  1.00  0.00     0.029 A 
ATOM     43  N   UNL A   1      39.895  30.292  29.468  1.00  0.00    -0.354 N 
ATOM     44  C   UNL A   1      43.988  28.874  29.869  1.00  0.00     0.074 A 
ATOM     45  C   UNL A   1      44.148  27.587  29.229  1.00  0.00     0.031 C 
ATOM     46  C   UNL A   1      37.757  30.162  28.823  1.00  0.00     0.029 A 
ATOM     47  C   UNL A   1      38.719  30.997  29.535  1.00  0.00     0.049 A 
ATOM     48  H   UNL A   1      40.751  30.635  29.811  1.00  0.00     0.167 HD
ATOM     49  C   UNL A   1      44.985  29.570  30.463  1.00  0.00     0.037 A 
ATOM     50  C   UNL A   1      38.449  32.170  30.138  1.00  0.00     0.037 A 
ATOM     51  C   UNL A   1      44.805  30.853  31.089  1.00  0.00     0.049 A 
ATOM     52  C   UNL A   1      39.561  32.889  30.854  1.00  0.00     0.074 A 
ATOM     53  C   UNL A   1      45.746  31.649  31.718  1.00  0.00     0.029 A 
ATOM     54  N   UNL A   1      43.594  31.528  31.165  1.00  0.00    -0.354 N 
ATOM     55  N   UNL A   1      40.823  32.548  30.976  1.00  0.00    -0.248 NA
ATOM     56  C   UNL A   1      39.213  34.149  31.521  1.00  0.00     0.031 C 
ATOM     57  C   UNL A   1      45.095  32.783  32.214  1.00  0.00     0.029 A 
ATOM     58  C   UNL A   1      43.758  32.720  31.851  1.00  0.00     0.049 A 
ATOM     59  H   UNL A   1      42.744  31.206  30.788  1.00  0.00     0.167 HD
ATOM     60  C   UNL A   1      41.423  33.561  31.711  1.00  0.00     0.074 A 
ATOM     61  C   UNL A   1      40.389  34.535  31.997  1.00  0.00     0.031 C 
ATOM     62  C   UNL A   1      42.712  33.675  32.115  1.00  0.00     0.037 A 
BRANCH  49  63
ATOM     63  C   UNL A   1      46.344  28.936  30.499  1.00  0.00     0.064 A 
ATOM     64  C   UNL A   1      47.307  29.191  29.512  1.00  0.00     0.173 A 
ATOM     65  C   UNL A   1      46.691  28.070  31.548  1.00  0.00     0.173 A 
ATOM     66  F   UNL A   1      47.017  29.996  28.478  1.00  0.00    -0.203 F 
ATOM     67  C   UNL A   1      48.559  28.585  29.560  1.00  0.00     0.198 A 
ATOM     68  C   UNL A   1      47.954  27.487  31.608  1.00  0.00     0.198 A 
ATOM     69  F   UNL A   1      45.806  27.791  32.516  1.00  0.00    -0.203 F 
ATOM     70  F   UNL A   1      49.448  28.806  28.581  1.00  0.00    -0.200 F 
ATOM     71  C   UNL A   1      48.884  27.739  30.611  1.00  0.00     0.200 A 
ATOM     72  F   UNL A   1      48.268  26.676  32.628  1.00  0.00    -0.200 F 
ATOM     73  F   UNL A   1      50.091  27.158  30.657  1.00  0.00    -0.200 F 
ENDBRANCH  49  63
BRANCH  50  74
ATOM     74  C   UNL A   1      37.069  32.717  30.112  1.00  0.00     0.064 A 
ATOM     75  C   UNL A   1      36.176  32.476  31.164  1.00  0.00     0.173 A 
ATOM     76  C   UNL A   1      36.614  33.491  29.034  1.00  0.00     0.173 A 
ATOM     77  F   UNL A   1      36.555  31.722  32.205  1.00  0.00    -0.203 F 
ATOM     78  C   UNL A   1      34.876  32.979  31.133  1.00  0.00     0.198 A 
ATOM     79  C   UNL A   1      35.324  34.017  29.017  1.00  0.00     0.198 A 
ATOM     80  F   UNL A   1      37.428  33.749  28.000  1.00  0.00    -0.203 F 
ATOM     81  F   UNL A   1      34.028  32.700  32.133  1.00  0.00    -0.200 F 
ATOM     82  C   UNL A   1      34.454  33.754  30.064  1.00  0.00     0.200 A 
ATOM     83  F   UNL A   1      34.925  34.776  27.987  1.00  0.00    -0.200 F 
ATOM     84  F   UNL A   1      33.206  34.242  30.037  1.00  0.00    -0.200 F 
ENDBRANCH  50  74
BRANCH  62  85
ATOM     85  C   UNL A   1      43.082  34.913  32.877  1.00  0.00     0.064 A 
ATOM     86  C   UNL A   1      43.464  36.092  32.223  1.00  0.00     0.173 A 
ATOM     87  C   UNL A   1      43.007  34.930  34.278  1.00  0.00     0.173 A 
ATOM     88  F   UNL A   1      43.566  36.120  30.885  1.00  0.00    -0.203 F 
ATOM     89  C   UNL A   1      43.778  37.240  32.945  1.00  0.00     0.198 A 
ATOM     90  C   UNL A   1      43.294  36.088  34.995  1.00  0.00     0.198 A 
ATOM     91  F   UNL A   1      42.640  33.828  34.949  1.00  0.00    -0.203 F 
ATOM     92  F   UNL A   1      44.183  38.343  32.302  1.00  0.00    -0.200 F 
ATOM     93  C   UNL A   1      43.685  37.238  34.329  1.00  0.00     0.200 A 
ATOM     94  F   UNL A   1      43.189  36.089  36.332  1.00  0.00    -0.200 F 
ATOM     95  F   UNL A   1      43.978  38.347  35.022  1.00  0.00    -0.200 F 
ENDBRANCH  62  85
ENDBRANCH  36  37
ENDBRANCH  29  31
ENDBRANCH  28  29
ENDBRANCH  27  28
ENDBRANCH   1  27
TORSDOF 16
ENDMDL
MODEL 3
REMARK VINA RESULT:      -9.8      4.222     10.491
REMARK SMILES CC(C)(C)OC(=O)N1C[C@H](c2ccc(C(F)(F)F)cc2)[C@H](C(=O)OCCOC(=O)c2ccc(-c3c4nc(c(-c5c(F)c(F)c(F)c(F)c5F)c5ccc([nH]5)c(-c5c(F)c(F)c(F)c(F)c5F)c5nc(c(-c6c(F)c(F)c(F)c(F)c6F)c6ccc3[nH]6)C=C5)C=C4)cc2)C1
REMARK SMILES IDX 25 1 24 2 22 3 23 4 21 5 8 6 9 7 93 8 10 9 6 10 7 11 5 12
REMARK SMILES IDX 2 13 1 14 3 15 4 16 11 17 12 18 20 19 13 20 19 21 14 22
REMARK SMILES IDX 15 23 16 24 17 25 18 26 26 27 27 28 28 29 29 30 30 31 31 32
REMARK SMILES IDX 92 33 32 34 91 35 33 36 34 37 35 38 85 39 36 40 90 41 84 42
REMARK SMILES IDX 86 43 37 44 89 45 83 46 82 47 38 49 70 50 50 51 69 52 51 53
REMARK SMILES IDX 54 54 68 55 87 56 52 57 53 58 67 60 88 61 55 62 39 63 40 64
REMARK SMILES IDX 48 65 41 66 42 67 46 68 49 69 43 70 44 71 47 72 45 73 71 74
REMARK SMILES IDX 72 75 80 76 73 77 74 78 78 79 81 80 75 81 76 82 79 83 77 84
REMARK SMILES IDX 56 85 57 86 65 87 58 88 59 89 63 90 66 91 60 92 61 93 64 94
REMARK SMILES IDX 62 95
REMARK H PARENT 86 48 54 59
REMARK Flexibility Score: inf
ROOT
ATOM      1  C   UNL A   1      32.017  32.039  27.227  1.00  0.00     0.274 C 
ENDROOT
BRANCH   1   2
ATOM      2  O   UNL A   1      32.812  30.846  27.363  1.00  0.00    -0.462 OA
BRANCH   2   3
ATOM      3  C   UNL A   1      32.335  29.691  26.862  1.00  0.00     0.311 C 
ATOM      4  O   UNL A   1      31.757  28.837  27.526  1.00  0.00    -0.252 OA
BRANCH   3   5
ATOM      5  C   UNL A   1      32.594  29.507  25.387  1.00  0.00     0.128 C 
ATOM      6  N   UNL A   1      31.522  29.046  23.356  1.00  0.00    -0.307 N 
ATOM      7  C   UNL A   1      32.807  28.370  23.306  1.00  0.00     0.132 C 
ATOM      8  C   UNL A   1      31.348  29.802  24.573  1.00  0.00     0.139 C 
ATOM      9  C   UNL A   1      33.210  28.221  24.779  1.00  0.00     0.055 C 
BRANCH   6  10
ATOM     10  C   UNL A   1      30.483  28.894  22.479  1.00  0.00     0.410 C 
ATOM     11  O   UNL A   1      30.160  27.817  22.014  1.00  0.00    -0.224 OA
BRANCH  10  12
ATOM     12  O   UNL A   1      29.958  30.095  22.136  1.00  0.00    -0.444 OA
BRANCH  12  13
ATOM     13  C   UNL A   1      28.564  30.393  22.387  1.00  0.00     0.106 C 
ATOM     14  C   UNL A   1      28.006  30.803  21.016  1.00  0.00     0.056 C 
ATOM     15  C   UNL A   1      28.479  31.570  23.356  1.00  0.00     0.056 C 
ATOM     16  C   UNL A   1      27.757  29.181  22.878  1.00  0.00     0.056 C 
ENDBRANCH  12  13
ENDBRANCH  10  12
ENDBRANCH   6  10
BRANCH   9  17
ATOM     17  C   UNL A   1      32.872  26.812  25.231  1.00  0.00    -0.042 A 
ATOM     18  C   UNL A   1      31.579  26.287  25.295  1.00  0.00     0.005 A 
ATOM     19  C   UNL A   1      33.944  25.970  25.587  1.00  0.00     0.005 A 
ATOM     20  C   UNL A   1      31.352  25.017  25.838  1.00  0.00     0.013 A 
ATOM     21  C   UNL A   1      33.724  24.688  26.089  1.00  0.00     0.013 A 
ATOM     22  C   UNL A   1      32.420  24.212  26.257  1.00  0.00     0.056 A 
BRANCH  22  23
ATOM     23  C   UNL A   1      32.180  22.891  26.940  1.00  0.00     0.416 C 
ATOM     24  F   UNL A   1      30.880  22.738  27.319  1.00  0.00    -0.166 F 
ATOM     25  F   UNL A   1      32.465  21.814  26.155  1.00  0.00    -0.166 F 
ATOM     26  F   UNL A   1      32.919  22.731  28.074  1.00  0.00    -0.166 F 
ENDBRANCH  22  23
ENDBRANCH   9  17
ENDBRANCH   3   5
ENDBRANCH   2   3
ENDBRANCH   1   2
BRANCH   1  27
ATOM     27  C   UNL A   1      32.908  33.274  27.368  1.00  0.00     0.275 C 
BRANCH  27  28
ATOM     28  O   UNL A   1      32.292  34.244  28.234  1.00  0.00    -0.458 OA
BRANCH  28  29
ATOM     29  C   UNL A   1      33.123  35.181  28.742  1.00  0.00     0.338 C 
ATOM     30  O   UNL A   1      32.915  36.373  28.883  1.00  0.00    -0.246 OA
BRANCH  29  31
ATOM     31  C   UNL A   1      34.301  34.512  29.308  1.00  0.00     0.060 A 
ATOM     32  C   UNL A   1      34.109  33.700  30.430  1.00  0.00     0.016 A 
ATOM     33  C   UNL A   1      35.574  34.695  28.770  1.00  0.00     0.016 A 
ATOM     34  C   UNL A   1      35.185  33.052  31.018  1.00  0.00     0.010 A 
ATOM     35  C   UNL A   1      36.659  34.052  29.365  1.00  0.00     0.010 A 
ATOM     36  C   UNL A   1      36.467  33.231  30.491  1.00  0.00    -0.014 A 
BRANCH  36  37
ATOM     37  C   UNL A   1      37.621  32.608  31.166  1.00  0.00     0.031 A 
ATOM     38  C   UNL A   1      38.355  31.497  30.482  1.00  0.00     0.074 A 
ATOM     39  C   UNL A   1      38.008  33.057  32.373  1.00  0.00     0.049 A 
ATOM     40  N   UNL A   1      39.322  30.742  30.933  1.00  0.00    -0.248 NA
ATOM     41  C   UNL A   1      37.943  31.195  29.102  1.00  0.00     0.031 C 
ATOM     42  C   UNL A   1      37.398  34.175  33.091  1.00  0.00     0.029 A 
ATOM     43  N   UNL A   1      39.003  32.621  33.208  1.00  0.00    -0.354 N 
ATOM     44  C   UNL A   1      39.619  29.860  29.903  1.00  0.00     0.074 A 
ATOM     45  C   UNL A   1      38.723  30.165  28.809  1.00  0.00     0.031 C 
ATOM     46  C   UNL A   1      38.025  34.331  34.268  1.00  0.00     0.029 A 
ATOM     47  C   UNL A   1      39.044  33.295  34.403  1.00  0.00     0.049 A 
ATOM     48  H   UNL A   1      39.626  31.896  32.975  1.00  0.00     0.167 HD
ATOM     49  C   UNL A   1      40.558  28.887  29.883  1.00  0.00     0.037 A 
ATOM     50  C   UNL A   1      39.798  33.070  35.496  1.00  0.00     0.037 A 
ATOM     51  C   UNL A   1      41.445  28.605  30.980  1.00  0.00     0.049 A 
ATOM     52  C   UNL A   1      40.786  31.934  35.472  1.00  0.00     0.074 A 
ATOM     53  C   UNL A   1      42.437  27.644  31.067  1.00  0.00     0.029 A 
ATOM     54  N   UNL A   1      41.441  29.287  32.189  1.00  0.00    -0.354 N 
ATOM     55  N   UNL A   1      41.059  31.095  34.501  1.00  0.00    -0.248 NA
ATOM     56  C   UNL A   1      41.565  31.710  36.696  1.00  0.00     0.031 C 
ATOM     57  C   UNL A   1      43.002  27.717  32.345  1.00  0.00     0.029 A 
ATOM     58  C   UNL A   1      42.398  28.755  33.037  1.00  0.00     0.049 A 
ATOM     59  H   UNL A   1      40.846  30.039  32.412  1.00  0.00     0.167 HD
ATOM     60  C   UNL A   1      42.055  30.259  34.986  1.00  0.00     0.074 A 
ATOM     61  C   UNL A   1      42.348  30.702  36.335  1.00  0.00     0.031 C 
ATOM     62  C   UNL A   1      42.673  29.220  34.374  1.00  0.00     0.037 A 
BRANCH  49  63
ATOM     63  C   UNL A   1      40.643  28.034  28.652  1.00  0.00     0.064 A 
ATOM     64  C   UNL A   1      41.422  28.403  27.546  1.00  0.00     0.173 A 
ATOM     65  C   UNL A   1      39.944  26.818  28.586  1.00  0.00     0.173 A 
ATOM     66  F   UNL A   1      42.095  29.565  27.552  1.00  0.00    -0.203 F 
ATOM     67  C   UNL A   1      41.480  27.600  26.410  1.00  0.00     0.198 A 
ATOM     68  C   UNL A   1      40.025  26.005  27.459  1.00  0.00     0.198 A 
ATOM     69  F   UNL A   1      39.182  26.420  29.616  1.00  0.00    -0.203 F 
ATOM     70  F   UNL A   1      42.193  27.996  25.346  1.00  0.00    -0.200 F 
ATOM     71  C   UNL A   1      40.787  26.399  26.370  1.00  0.00     0.200 A 
ATOM     72  F   UNL A   1      39.360  24.841  27.426  1.00  0.00    -0.200 F 
ATOM     73  F   UNL A   1      40.845  25.626  25.277  1.00  0.00    -0.200 F 
ENDBRANCH  49  63
BRANCH  50  74
ATOM     74  C   UNL A   1      39.626  33.918  36.702  1.00  0.00     0.064 A 
ATOM     75  C   UNL A   1      38.818  33.504  37.768  1.00  0.00     0.173 A 
ATOM     76  C   UNL A   1      40.267  35.161  36.814  1.00  0.00     0.173 A 
ATOM     77  F   UNL A   1      38.164  32.335  37.698  1.00  0.00    -0.203 F 
ATOM     78  C   UNL A   1      38.646  34.306  38.896  1.00  0.00     0.198 A 
ATOM     79  C   UNL A   1      40.119  35.949  37.954  1.00  0.00     0.198 A 
ATOM     80  F   UNL A   1      41.051  35.605  35.821  1.00  0.00    -0.203 F 
ATOM     81  F   UNL A   1      37.834  33.905  39.883  1.00  0.00    -0.200 F 
ATOM     82  C   UNL A   1      39.302  35.524  38.990  1.00  0.00     0.200 A 
ATOM     83  F   UNL A   1      40.764  37.120  38.045  1.00  0.00    -0.200 F 
ATOM     84  F   UNL A   1      39.142  36.292  40.076  1.00  0.00    -0.200 F 
ENDBRANCH  50  74
BRANCH  62  85
ATOM     85  C   UNL A   1      43.749  28.514  35.144  1.00  0.00     0.064 A 
ATOM     86  C   UNL A   1      45.095  28.890  35.038  1.00  0.00     0.173 A 
ATOM     87  C   UNL A   1      43.419  27.480  36.033  1.00  0.00     0.173 A 
ATOM     88  F   UNL A   1      45.460  29.862  34.189  1.00  0.00    -0.203 F 
ATOM     89  C   UNL A   1      46.077  28.242  35.781  1.00  0.00     0.198 A 
ATOM     90  C   UNL A   1      44.402  26.853  36.795  1.00  0.00     0.198 A 
ATOM     91  F   UNL A   1      42.145  27.089  36.173  1.00  0.00    -0.203 F 
ATOM     92  F   UNL A   1      47.363  28.588  35.633  1.00  0.00    -0.200 F 
ATOM     93  C   UNL A   1      45.729  27.230  36.664  1.00  0.00     0.200 A 
ATOM     94  F   UNL A   1      44.061  25.886  37.658  1.00  0.00    -0.200 F 
ATOM     95  F   UNL A   1      46.675  26.614  37.385  1.00  0.00    -0.200 F 
ENDBRANCH  62  85
ENDBRANCH  36  37
ENDBRANCH  29  31
ENDBRANCH  28  29
ENDBRANCH  27  28
ENDBRANCH   1  27
TORSDOF 16
ENDMDL
