MODEL 1
REMARK VINA RESULT:     -11.8      0.000      0.000
REMARK SMILES CC(=O)N1CCC[C@@H](Cc2nccnc2C(=O)OCCOC(=O)c2ccc(-c3c4nc(c(-c5c(F)c(F)c(F)c(F)c5F)c5ccc([nH]5)c(-c5c(F)c(F)c(F)c(F)c5F)c5nc(c(-c6c(F)c(F)c(F)c(F)c6F)c6ccc3[nH]6)C=C5)C=C4)cc2)C1
REMARK SMILES IDX 19 1 18 2 16 3 17 4 15 5 10 6 11 7 12 8 14 9 13 10 9 11 8 12
REMARK SMILES IDX 4 13 5 14 87 15 6 16 7 17 2 18 1 19 3 20 20 21 21 22 22 23
REMARK SMILES IDX 23 24 24 25 25 26 86 27 26 28 85 29 27 30 28 31 29 32 79 33
REMARK SMILES IDX 30 34 84 35 78 36 80 37 31 38 83 39 77 40 76 41 32 43 64 44
REMARK SMILES IDX 44 45 63 46 45 47 48 48 62 49 81 50 46 51 47 52 61 54 82 55
REMARK SMILES IDX 49 56 33 57 34 58 42 59 35 60 36 61 40 62 43 63 37 64 38 65
REMARK SMILES IDX 41 66 39 67 65 68 66 69 74 70 67 71 68 72 72 73 75 74 69 75
REMARK SMILES IDX 70 76 73 77 71 78 50 79 51 80 59 81 52 82 53 83 57 84 60 85
REMARK SMILES IDX 54 86 55 87 58 88 56 89
REMARK H PARENT 80 42 48 53
REMARK Flexibility Score: inf
ROOT
ATOM      1  C   UNL A   1      31.730  28.621  27.283  1.00  0.00     0.275 C 
ENDROOT
BRANCH   1   2
ATOM      2  O   UNL A   1      32.375  27.441  26.757  1.00  0.00    -0.457 OA
BRANCH   2   3
ATOM      3  C   UNL A   1      31.589  26.592  26.046  1.00  0.00     0.358 C 
ATOM      4  O   UNL A   1      30.574  26.052  26.457  1.00  0.00    -0.244 OA
BRANCH   3   5
ATOM      5  C   UNL A   1      32.050  26.478  24.631  1.00  0.00     0.169 A 
ATOM      6  C   UNL A   1      33.220  25.842  24.212  1.00  0.00     0.074 A 
ATOM      7  N   UNL A   1      33.513  25.766  22.880  1.00  0.00    -0.257 NA
ATOM      8  C   UNL A   1      32.676  26.367  22.011  1.00  0.00     0.131 A 
ATOM      9  N   UNL A   1      31.182  27.047  23.732  1.00  0.00    -0.246 NA
ATOM     10  C   UNL A   1      31.529  26.996  22.431  1.00  0.00     0.132 A 
BRANCH   6  11
ATOM     11  C   UNL A   1      34.193  25.114  25.106  1.00  0.00     0.064 C 
BRANCH  11  12
ATOM     12  C   UNL A   1      33.668  23.799  25.737  1.00  0.00     0.015 C 
ATOM     13  N   UNL A   1      33.030  21.397  25.281  1.00  0.00    -0.343 N 
ATOM     14  C   UNL A   1      33.720  20.965  26.494  1.00  0.00     0.119 C 
ATOM     15  C   UNL A   1      33.424  22.682  24.705  1.00  0.00     0.123 C 
ATOM     16  C   UNL A   1      33.916  22.069  27.522  1.00  0.00     0.022 C 
ATOM     17  C   UNL A   1      34.545  23.307  26.893  1.00  0.00     0.007 C 
BRANCH  13  18
ATOM     18  C   UNL A   1      32.416  20.395  24.528  1.00  0.00     0.219 C 
ATOM     19  C   UNL A   1      32.156  20.683  23.067  1.00  0.00     0.114 C 
ATOM     20  O   UNL A   1      32.160  19.280  24.984  1.00  0.00    -0.275 OA
ENDBRANCH  13  18
ENDBRANCH  11  12
ENDBRANCH   6  11
ENDBRANCH   3   5
ENDBRANCH   2   3
ENDBRANCH   1   2
BRANCH   1  21
ATOM     21  C   UNL A   1      31.809  29.774  26.281  1.00  0.00     0.275 C 
BRANCH  21  22
ATOM     22  O   UNL A   1      33.154  30.276  26.181  1.00  0.00    -0.458 OA
BRANCH  22  23
ATOM     23  C   UNL A   1      33.445  31.296  27.018  1.00  0.00     0.338 C 
ATOM     24  O   UNL A   1      32.735  32.250  27.305  1.00  0.00    -0.246 OA
BRANCH  23  25
ATOM     25  C   UNL A   1      34.711  31.013  27.703  1.00  0.00     0.060 A 
ATOM     26  C   UNL A   1      34.929  29.700  28.116  1.00  0.00     0.016 A 
ATOM     27  C   UNL A   1      35.640  32.010  27.999  1.00  0.00     0.016 A 
ATOM     28  C   UNL A   1      36.072  29.365  28.830  1.00  0.00     0.010 A 
ATOM     29  C   UNL A   1      36.796  31.674  28.715  1.00  0.00     0.010 A 
ATOM     30  C   UNL A   1      37.015  30.351  29.141  1.00  0.00    -0.014 A 
BRANCH  30  31
ATOM     31  C   UNL A   1      38.196  29.990  29.963  1.00  0.00     0.031 A 
ATOM     32  C   UNL A   1      39.269  29.114  29.387  1.00  0.00     0.074 A 
ATOM     33  C   UNL A   1      38.332  30.493  31.205  1.00  0.00     0.049 A 
ATOM     34  N   UNL A   1      40.337  28.621  29.962  1.00  0.00    -0.248 NA
ATOM     35  C   UNL A   1      39.123  28.745  27.971  1.00  0.00     0.031 C 
ATOM     36  C   UNL A   1      37.397  31.416  31.847  1.00  0.00     0.029 A 
ATOM     37  N   UNL A   1      39.317  30.307  32.141  1.00  0.00    -0.354 N 
ATOM     38  C   UNL A   1      40.969  27.856  28.991  1.00  0.00     0.074 A 
ATOM     39  C   UNL A   1      40.165  27.948  27.790  1.00  0.00     0.031 C 
ATOM     40  C   UNL A   1      37.866  31.736  33.063  1.00  0.00     0.029 A 
ATOM     41  C   UNL A   1      39.099  30.992  33.310  1.00  0.00     0.049 A 
ATOM     42  H   UNL A   1      40.105  29.737  31.990  1.00  0.00     0.167 HD
ATOM     43  C   UNL A   1      42.114  27.141  29.097  1.00  0.00     0.037 A 
ATOM     44  C   UNL A   1      39.798  30.996  34.460  1.00  0.00     0.037 A 
ATOM     45  C   UNL A   1      42.928  27.081  30.283  1.00  0.00     0.049 A 
ATOM     46  C   UNL A   1      41.020  30.129  34.579  1.00  0.00     0.074 A 
ATOM     47  C   UNL A   1      44.124  26.413  30.479  1.00  0.00     0.029 A 
ATOM     48  N   UNL A   1      42.625  27.717  31.479  1.00  0.00    -0.354 N 
ATOM     49  N   UNL A   1      41.597  29.384  33.668  1.00  0.00    -0.248 NA
ATOM     50  C   UNL A   1      41.672  30.083  35.896  1.00  0.00     0.031 C 
ATOM     51  C   UNL A   1      44.522  26.609  31.807  1.00  0.00     0.029 A 
ATOM     52  C   UNL A   1      43.594  27.430  32.427  1.00  0.00     0.049 A 
ATOM     53  H   UNL A   1      41.837  28.288  31.631  1.00  0.00     0.167 HD
ATOM     54  C   UNL A   1      42.681  28.786  34.295  1.00  0.00     0.074 A 
ATOM     55  C   UNL A   1      42.694  29.270  35.661  1.00  0.00     0.031 C 
ATOM     56  C   UNL A   1      43.582  27.910  33.786  1.00  0.00     0.037 A 
BRANCH  43  57
ATOM     57  C   UNL A   1      42.525  26.325  27.908  1.00  0.00     0.064 A 
ATOM     58  C   UNL A   1      42.031  25.031  27.687  1.00  0.00     0.173 A 
ATOM     59  C   UNL A   1      43.428  26.852  26.973  1.00  0.00     0.173 A 
ATOM     60  F   UNL A   1      41.177  24.476  28.560  1.00  0.00    -0.203 F 
ATOM     61  C   UNL A   1      42.452  24.283  26.589  1.00  0.00     0.198 A 
ATOM     62  C   UNL A   1      43.828  26.112  25.864  1.00  0.00     0.198 A 
ATOM     63  F   UNL A   1      43.928  28.086  27.137  1.00  0.00    -0.203 F 
ATOM     64  F   UNL A   1      42.008  23.029  26.425  1.00  0.00    -0.200 F 
ATOM     65  C   UNL A   1      43.347  24.825  25.678  1.00  0.00     0.200 A 
ATOM     66  F   UNL A   1      44.687  26.639  24.981  1.00  0.00    -0.200 F 
ATOM     67  F   UNL A   1      43.755  24.102  24.626  1.00  0.00    -0.200 F 
ENDBRANCH  43  57
BRANCH  44  68
ATOM     68  C   UNL A   1      39.339  31.831  35.600  1.00  0.00     0.064 A 
ATOM     69  C   UNL A   1      39.825  33.133  35.778  1.00  0.00     0.173 A 
ATOM     70  C   UNL A   1      38.397  31.351  36.522  1.00  0.00     0.173 A 
ATOM     71  F   UNL A   1      40.748  33.623  34.938  1.00  0.00    -0.203 F 
ATOM     72  C   UNL A   1      39.384  33.926  36.835  1.00  0.00     0.198 A 
ATOM     73  C   UNL A   1      37.939  32.154  37.564  1.00  0.00     0.198 A 
ATOM     74  F   UNL A   1      37.909  30.109  36.399  1.00  0.00    -0.203 F 
ATOM     75  F   UNL A   1      39.884  35.157  37.000  1.00  0.00    -0.200 F 
ATOM     76  C   UNL A   1      38.435  33.439  37.722  1.00  0.00     0.200 A 
ATOM     77  F   UNL A   1      37.016  31.682  38.414  1.00  0.00    -0.200 F 
ATOM     78  F   UNL A   1      38.002  34.206  38.732  1.00  0.00    -0.200 F 
ENDBRANCH  44  68
BRANCH  56  79
ATOM     79  C   UNL A   1      44.657  27.424  34.710  1.00  0.00     0.064 A 
ATOM     80  C   UNL A   1      45.856  28.134  34.870  1.00  0.00     0.173 A 
ATOM     81  C   UNL A   1      44.476  26.259  35.468  1.00  0.00     0.173 A 
ATOM     82  F   UNL A   1      46.084  29.244  34.153  1.00  0.00    -0.203 F 
ATOM     83  C   UNL A   1      46.842  27.684  35.745  1.00  0.00     0.198 A 
ATOM     84  C   UNL A   1      45.453  25.824  36.359  1.00  0.00     0.198 A 
ATOM     85  F   UNL A   1      43.344  25.546  35.352  1.00  0.00    -0.203 F 
ATOM     86  F   UNL A   1      47.997  28.356  35.855  1.00  0.00    -0.200 F 
ATOM     87  C   UNL A   1      46.637  26.534  36.492  1.00  0.00     0.200 A 
ATOM     88  F   UNL A   1      45.250  24.718  37.087  1.00  0.00    -0.200 F 
ATOM     89  F   UNL A   1      47.584  26.105  37.337  1.00  0.00    -0.200 F 
ENDBRANCH  56  79
ENDBRANCH  30  31
ENDBRANCH  23  25
ENDBRANCH  22  23
ENDBRANCH  21  22
ENDBRANCH   1  21
TORSDOF 14
ENDMDL
MODEL 2
REMARK VINA RESULT:     -11.8      4.623      9.716
REMARK SMILES CC(=O)N1CCC[C@@H](Cc2nccnc2C(=O)OCCOC(=O)c2ccc(-c3c4nc(c(-c5c(F)c(F)c(F)c(F)c5F)c5ccc([nH]5)c(-c5c(F)c(F)c(F)c(F)c5F)c5nc(c(-c6c(F)c(F)c(F)c(F)c6F)c6ccc3[nH]6)C=C5)C=C4)cc2)C1
REMARK SMILES IDX 19 1 18 2 16 3 17 4 15 5 10 6 11 7 12 8 14 9 13 10 9 11 8 12
REMARK SMILES IDX 4 13 5 14 87 15 6 16 7 17 2 18 1 19 3 20 20 21 21 22 22 23
REMARK SMILES IDX 23 24 24 25 25 26 86 27 26 28 85 29 27 30 28 31 29 32 79 33
REMARK SMILES IDX 30 34 84 35 78 36 80 37 31 38 83 39 77 40 76 41 32 43 64 44
REMARK SMILES IDX 44 45 63 46 45 47 48 48 62 49 81 50 46 51 47 52 61 54 82 55
REMARK SMILES IDX 49 56 33 57 34 58 42 59 35 60 36 61 40 62 43 63 37 64 38 65
REMARK SMILES IDX 41 66 39 67 65 68 66 69 74 70 67 71 68 72 72 73 75 74 69 75
REMARK SMILES IDX 70 76 73 77 71 78 50 79 51 80 59 81 52 82 53 83 57 84 60 85
REMARK SMILES IDX 54 86 55 87 58 88 56 89
REMARK H PARENT 80 42 48 53
REMARK Flexibility Score: inf
ROOT
ATOM      1  C   UNL A   1      37.028  22.203  23.881  1.00  0.00     0.275 C 
ENDROOT
BRANCH   1   2
ATOM      2  O   UNL A   1      36.193  23.215  24.484  1.00  0.00    -0.457 OA
BRANCH   2   3
ATOM      3  C   UNL A   1      35.003  23.454  23.876  1.00  0.00     0.358 C 
ATOM      4  O   UNL A   1      34.792  23.380  22.675  1.00  0.00    -0.244 OA
BRANCH   3   5
ATOM      5  C   UNL A   1      33.923  23.713  24.873  1.00  0.00     0.169 A 
ATOM      6  C   UNL A   1      33.385  22.764  25.744  1.00  0.00     0.074 A 
ATOM      7  N   UNL A   1      32.426  23.134  26.644  1.00  0.00    -0.257 NA
ATOM      8  C   UNL A   1      31.990  24.410  26.618  1.00  0.00     0.131 A 
ATOM      9  N   UNL A   1      33.503  25.019  24.888  1.00  0.00    -0.246 NA
ATOM     10  C   UNL A   1      32.521  25.337  25.755  1.00  0.00     0.132 A 
BRANCH   6  11
ATOM     11  C   UNL A   1      33.834  21.330  25.869  1.00  0.00     0.064 C 
BRANCH  11  12
ATOM     12  C   UNL A   1      33.585  20.439  24.625  1.00  0.00     0.015 C 
ATOM     13  N   UNL A   1      33.342  18.064  23.797  1.00  0.00    -0.343 N 
ATOM     14  C   UNL A   1      32.205  18.452  22.966  1.00  0.00     0.119 C 
ATOM     15  C   UNL A   1      33.676  18.932  24.927  1.00  0.00     0.123 C 
ATOM     16  C   UNL A   1      32.153  19.937  22.641  1.00  0.00     0.022 C 
ATOM     17  C   UNL A   1      32.280  20.784  23.901  1.00  0.00     0.007 C 
BRANCH  13  18
ATOM     18  C   UNL A   1      33.714  16.719  23.750  1.00  0.00     0.219 C 
ATOM     19  C   UNL A   1      33.379  15.862  24.949  1.00  0.00     0.114 C 
ATOM     20  O   UNL A   1      34.221  16.203  22.753  1.00  0.00    -0.275 OA
ENDBRANCH  13  18
ENDBRANCH  11  12
ENDBRANCH   6  11
ENDBRANCH   3   5
ENDBRANCH   2   3
ENDBRANCH   1   2
BRANCH   1  21
ATOM     21  C   UNL A   1      37.381  21.116  24.897  1.00  0.00     0.275 C 
BRANCH  21  22
ATOM     22  O   UNL A   1      37.893  21.696  26.112  1.00  0.00    -0.458 OA
BRANCH  22  23
ATOM     23  C   UNL A   1      39.200  21.453  26.352  1.00  0.00     0.338 C 
ATOM     24  O   UNL A   1      39.821  20.423  26.127  1.00  0.00    -0.246 OA
BRANCH  23  25
ATOM     25  C   UNL A   1      39.852  22.697  26.779  1.00  0.00     0.060 A 
ATOM     26  C   UNL A   1      39.414  23.878  26.183  1.00  0.00     0.016 A 
ATOM     27  C   UNL A   1      40.909  22.712  27.688  1.00  0.00     0.016 A 
ATOM     28  C   UNL A   1      40.026  25.088  26.484  1.00  0.00     0.010 A 
ATOM     29  C   UNL A   1      41.524  23.932  27.996  1.00  0.00     0.010 A 
ATOM     30  C   UNL A   1      41.092  25.126  27.390  1.00  0.00    -0.014 A 
BRANCH  30  31
ATOM     31  C   UNL A   1      41.779  26.416  27.648  1.00  0.00     0.031 A 
ATOM     32  C   UNL A   1      41.103  27.470  28.475  1.00  0.00     0.074 A 
ATOM     33  C   UNL A   1      43.027  26.618  27.187  1.00  0.00     0.049 A 
ATOM     34  N   UNL A   1      41.497  28.688  28.751  1.00  0.00    -0.248 NA
ATOM     35  C   UNL A   1      39.813  27.103  29.077  1.00  0.00     0.031 C 
ATOM     36  C   UNL A   1      43.818  25.642  26.438  1.00  0.00     0.029 A 
ATOM     37  N   UNL A   1      43.853  27.709  27.293  1.00  0.00    -0.354 N 
ATOM     38  C   UNL A   1      40.488  29.245  29.525  1.00  0.00     0.074 A 
ATOM     39  C   UNL A   1      39.463  28.233  29.675  1.00  0.00     0.031 C 
ATOM     40  C   UNL A   1      45.024  26.168  26.174  1.00  0.00     0.029 A 
ATOM     41  C   UNL A   1      45.068  27.538  26.678  1.00  0.00     0.049 A 
ATOM     42  H   UNL A   1      43.599  28.534  27.766  1.00  0.00     0.167 HD
ATOM     43  C   UNL A   1      40.425  30.488  30.057  1.00  0.00     0.037 A 
ATOM     44  C   UNL A   1      46.089  28.400  26.514  1.00  0.00     0.037 A 
ATOM     45  C   UNL A   1      41.463  31.478  29.934  1.00  0.00     0.049 A 
ATOM     46  C   UNL A   1      45.959  29.800  27.044  1.00  0.00     0.074 A 
ATOM     47  C   UNL A   1      41.508  32.754  30.467  1.00  0.00     0.029 A 
ATOM     48  N   UNL A   1      42.642  31.299  29.224  1.00  0.00    -0.354 N 
ATOM     49  N   UNL A   1      44.991  30.332  27.749  1.00  0.00    -0.248 NA
ATOM     50  C   UNL A   1      47.054  30.729  26.729  1.00  0.00     0.031 C 
ATOM     51  C   UNL A   1      42.696  33.363  30.042  1.00  0.00     0.029 A 
ATOM     52  C   UNL A   1      43.407  32.454  29.277  1.00  0.00     0.049 A 
ATOM     53  H   UNL A   1      42.897  30.474  28.752  1.00  0.00     0.167 HD
ATOM     54  C   UNL A   1      45.358  31.651  27.969  1.00  0.00     0.074 A 
ATOM     55  C   UNL A   1      46.650  31.836  27.339  1.00  0.00     0.031 C 
ATOM     56  C   UNL A   1      44.684  32.624  28.631  1.00  0.00     0.037 A 
BRANCH  43  57
ATOM     57  C   UNL A   1      39.166  30.861  30.781  1.00  0.00     0.064 A 
ATOM     58  C   UNL A   1      39.026  30.692  32.166  1.00  0.00     0.173 A 
ATOM     59  C   UNL A   1      38.082  31.400  30.072  1.00  0.00     0.173 A 
ATOM     60  F   UNL A   1      40.028  30.166  32.887  1.00  0.00    -0.203 F 
ATOM     61  C   UNL A   1      37.834  31.019  32.809  1.00  0.00     0.198 A 
ATOM     62  C   UNL A   1      36.901  31.749  30.721  1.00  0.00     0.198 A 
ATOM     63  F   UNL A   1      38.166  31.584  28.745  1.00  0.00    -0.203 F 
ATOM     64  F   UNL A   1      37.703  30.801  34.125  1.00  0.00    -0.200 F 
ATOM     65  C   UNL A   1      36.775  31.550  32.088  1.00  0.00     0.200 A 
ATOM     66  F   UNL A   1      35.882  32.269  30.023  1.00  0.00    -0.200 F 
ATOM     67  F   UNL A   1      35.628  31.860  32.707  1.00  0.00    -0.200 F 
ENDBRANCH  43  57
BRANCH  44  68
ATOM     68  C   UNL A   1      47.311  27.966  25.791  1.00  0.00     0.064 A 
ATOM     69  C   UNL A   1      48.474  27.619  26.490  1.00  0.00     0.173 A 
ATOM     70  C   UNL A   1      47.337  27.875  24.390  1.00  0.00     0.173 A 
ATOM     71  F   UNL A   1      48.506  27.717  27.826  1.00  0.00    -0.203 F 
ATOM     72  C   UNL A   1      49.618  27.194  25.817  1.00  0.00     0.198 A 
ATOM     73  C   UNL A   1      48.473  27.427  23.720  1.00  0.00     0.198 A 
ATOM     74  F   UNL A   1      46.251  28.205  23.677  1.00  0.00    -0.203 F 
ATOM     75  F   UNL A   1      50.726  26.894  26.506  1.00  0.00    -0.200 F 
ATOM     76  C   UNL A   1      49.613  27.090  24.433  1.00  0.00     0.200 A 
ATOM     77  F   UNL A   1      48.460  27.321  22.384  1.00  0.00    -0.200 F 
ATOM     78  F   UNL A   1      50.709  26.671  23.786  1.00  0.00    -0.200 F 
ENDBRANCH  44  68
BRANCH  56  79
ATOM     79  C   UNL A   1      45.334  33.972  28.709  1.00  0.00     0.064 A 
ATOM     80  C   UNL A   1      45.051  34.973  27.768  1.00  0.00     0.173 A 
ATOM     81  C   UNL A   1      46.221  34.279  29.750  1.00  0.00     0.173 A 
ATOM     82  F   UNL A   1      44.223  34.720  26.743  1.00  0.00    -0.203 F 
ATOM     83  C   UNL A   1      45.646  36.228  27.858  1.00  0.00     0.198 A 
ATOM     84  C   UNL A   1      46.797  35.543  29.851  1.00  0.00     0.198 A 
ATOM     85  F   UNL A   1      46.522  33.356  30.677  1.00  0.00    -0.203 F 
ATOM     86  F   UNL A   1      45.391  37.158  26.927  1.00  0.00    -0.200 F 
ATOM     87  C   UNL A   1      46.512  36.514  28.903  1.00  0.00     0.200 A 
ATOM     88  F   UNL A   1      47.627  35.820  30.866  1.00  0.00    -0.200 F 
ATOM     89  F   UNL A   1      47.081  37.724  28.991  1.00  0.00    -0.200 F 
ENDBRANCH  56  79
ENDBRANCH  30  31
ENDBRANCH  23  25
ENDBRANCH  22  23
ENDBRANCH  21  22
ENDBRANCH   1  21
TORSDOF 14
ENDMDL
MODEL 3
REMARK VINA RESULT:     -11.7      1.400      3.246
REMARK SMILES CC(=O)N1CCC[C@@H](Cc2nccnc2C(=O)OCCOC(=O)c2ccc(-c3c4nc(c(-c5c(F)c(F)c(F)c(F)c5F)c5ccc([nH]5)c(-c5c(F)c(F)c(F)c(F)c5F)c5nc(c(-c6c(F)c(F)c(F)c(F)c6F)c6ccc3[nH]6)C=C5)C=C4)cc2)C1
REMARK SMILES IDX 19 1 18 2 16 3 17 4 15 5 10 6 11 7 12 8 14 9 13 10 9 11 8 12
REMARK SMILES IDX 4 13 5 14 87 15 6 16 7 17 2 18 1 19 3 20 20 21 21 22 22 23
REMARK SMILES IDX 23 24 24 25 25 26 86 27 26 28 85 29 27 30 28 31 29 32 79 33
REMARK SMILES IDX 30 34 84 35 78 36 80 37 31 38 83 39 77 40 76 41 32 43 64 44
REMARK SMILES IDX 44 45 63 46 45 47 48 48 62 49 81 50 46 51 47 52 61 54 82 55
REMARK SMILES IDX 49 56 33 57 34 58 42 59 35 60 36 61 40 62 43 63 37 64 38 65
REMARK SMILES IDX 41 66 39 67 65 68 66 69 74 70 67 71 68 72 72 73 75 74 69 75
REMARK SMILES IDX 70 76 73 77 71 78 50 79 51 80 59 81 52 82 53 83 57 84 60 85
REMARK SMILES IDX 54 86 55 87 58 88 56 89
REMARK H PARENT 80 42 48 53
REMARK Flexibility Score: inf
ROOT
ATOM      1  C   UNL A   1      31.766  28.338  27.082  1.00  0.00     0.275 C 
ENDROOT
BRANCH   1   2
ATOM      2  O   UNL A   1      32.604  27.340  26.459  1.00  0.00    -0.457 OA
BRANCH   2   3
ATOM      3  C   UNL A   1      32.038  26.122  26.256  1.00  0.00     0.358 C 
ATOM      4  O   UNL A   1      31.080  25.674  26.866  1.00  0.00    -0.244 OA
BRANCH   3   5
ATOM      5  C   UNL A   1      32.661  25.418  25.097  1.00  0.00     0.169 A 
ATOM      6  C   UNL A   1      32.002  25.067  23.918  1.00  0.00     0.074 A 
ATOM      7  N   UNL A   1      32.694  24.461  22.907  1.00  0.00    -0.257 NA
ATOM      8  C   UNL A   1      33.994  24.170  23.114  1.00  0.00     0.131 A 
ATOM      9  N   UNL A   1      33.996  25.159  25.277  1.00  0.00    -0.246 NA
ATOM     10  C   UNL A   1      34.635  24.515  24.279  1.00  0.00     0.132 A 
BRANCH   6  11
ATOM     11  C   UNL A   1      30.565  25.382  23.585  1.00  0.00     0.064 C 
BRANCH  11  12
ATOM     12  C   UNL A   1      30.309  26.788  22.985  1.00  0.00     0.015 C 
ATOM     13  N   UNL A   1      28.847  28.846  23.092  1.00  0.00    -0.343 N 
ATOM     14  C   UNL A   1      30.022  29.708  22.990  1.00  0.00     0.119 C 
ATOM     15  C   UNL A   1      29.056  27.476  23.560  1.00  0.00     0.123 C 
ATOM     16  C   UNL A   1      31.238  29.027  22.381  1.00  0.00     0.022 C 
ATOM     17  C   UNL A   1      31.535  27.702  23.074  1.00  0.00     0.007 C 
BRANCH  13  18
ATOM     18  C   UNL A   1      27.612  29.491  23.191  1.00  0.00     0.219 C 
ATOM     19  C   UNL A   1      27.621  31.000  23.285  1.00  0.00     0.114 C 
ATOM     20  O   UNL A   1      26.540  28.891  23.123  1.00  0.00    -0.275 OA
ENDBRANCH  13  18
ENDBRANCH  11  12
ENDBRANCH   6  11
ENDBRANCH   3   5
ENDBRANCH   2   3
ENDBRANCH   1   2
BRANCH   1  21
ATOM     21  C   UNL A   1      31.776  29.636  26.271  1.00  0.00     0.275 C 
BRANCH  21  22
ATOM     22  O   UNL A   1      33.113  30.153  26.146  1.00  0.00    -0.458 OA
BRANCH  22  23
ATOM     23  C   UNL A   1      33.394  31.202  26.951  1.00  0.00     0.338 C 
ATOM     24  O   UNL A   1      32.677  32.160  27.205  1.00  0.00    -0.246 OA
BRANCH  23  25
ATOM     25  C   UNL A   1      34.660  30.950  27.649  1.00  0.00     0.060 A 
ATOM     26  C   UNL A   1      34.927  29.634  28.023  1.00  0.00     0.016 A 
ATOM     27  C   UNL A   1      35.542  31.975  27.993  1.00  0.00     0.016 A 
ATOM     28  C   UNL A   1      36.072  29.324  28.745  1.00  0.00     0.010 A 
ATOM     29  C   UNL A   1      36.699  31.663  28.717  1.00  0.00     0.010 A 
ATOM     30  C   UNL A   1      36.967  30.338  29.105  1.00  0.00    -0.014 A 
BRANCH  30  31
ATOM     31  C   UNL A   1      38.149  30.000  29.935  1.00  0.00     0.031 A 
ATOM     32  C   UNL A   1      39.240  29.141  29.368  1.00  0.00     0.074 A 
ATOM     33  C   UNL A   1      38.268  30.508  31.176  1.00  0.00     0.049 A 
ATOM     34  N   UNL A   1      40.313  28.669  29.951  1.00  0.00    -0.248 NA
ATOM     35  C   UNL A   1      39.110  28.767  27.952  1.00  0.00     0.031 C 
ATOM     36  C   UNL A   1      37.313  31.416  31.810  1.00  0.00     0.029 A 
ATOM     37  N   UNL A   1      39.250  30.341  32.119  1.00  0.00    -0.354 N 
ATOM     38  C   UNL A   1      40.965  27.912  28.986  1.00  0.00     0.074 A 
ATOM     39  C   UNL A   1      40.167  27.987  27.780  1.00  0.00     0.031 C 
ATOM     40  C   UNL A   1      37.768  31.747  33.029  1.00  0.00     0.029 A 
ATOM     41  C   UNL A   1      39.013  31.026  33.285  1.00  0.00     0.049 A 
ATOM     42  H   UNL A   1      40.049  29.785  31.974  1.00  0.00     0.167 HD
ATOM     43  C   UNL A   1      42.122  27.218  29.101  1.00  0.00     0.037 A 
ATOM     44  C   UNL A   1      39.704  31.045  34.439  1.00  0.00     0.037 A 
ATOM     45  C   UNL A   1      42.929  27.175  30.292  1.00  0.00     0.049 A 
ATOM     46  C   UNL A   1      40.940  30.200  34.568  1.00  0.00     0.074 A 
ATOM     47  C   UNL A   1      44.135  26.529  30.497  1.00  0.00     0.029 A 
ATOM     48  N   UNL A   1      42.607  27.808  31.484  1.00  0.00    -0.354 N 
ATOM     49  N   UNL A   1      41.536  29.463  33.663  1.00  0.00    -0.248 NA
ATOM     50  C   UNL A   1      41.584  30.168  35.889  1.00  0.00     0.031 C 
ATOM     51  C   UNL A   1      44.521  26.735  31.828  1.00  0.00     0.029 A 
ATOM     52  C   UNL A   1      43.575  27.541  32.440  1.00  0.00     0.049 A 
ATOM     53  H   UNL A   1      41.809  28.366  31.630  1.00  0.00     0.167 HD
ATOM     54  C   UNL A   1      42.626  28.885  34.299  1.00  0.00     0.074 A 
ATOM     55  C   UNL A   1      42.622  29.373  35.663  1.00  0.00     0.031 C 
ATOM     56  C   UNL A   1      43.546  28.024  33.797  1.00  0.00     0.037 A 
BRANCH  43  57
ATOM     57  C   UNL A   1      42.555  26.406  27.917  1.00  0.00     0.064 A 
ATOM     58  C   UNL A   1      42.085  25.104  27.696  1.00  0.00     0.173 A 
ATOM     59  C   UNL A   1      43.455  26.946  26.986  1.00  0.00     0.173 A 
ATOM     60  F   UNL A   1      41.235  24.536  28.565  1.00  0.00    -0.203 F 
ATOM     61  C   UNL A   1      42.526  24.360  26.603  1.00  0.00     0.198 A 
ATOM     62  C   UNL A   1      43.875  26.211  25.882  1.00  0.00     0.198 A 
ATOM     63  F   UNL A   1      43.932  28.190  27.150  1.00  0.00    -0.203 F 
ATOM     64  F   UNL A   1      42.105  23.098  26.439  1.00  0.00    -0.200 F 
ATOM     65  C   UNL A   1      43.417  24.915  25.696  1.00  0.00     0.200 A 
ATOM     66  F   UNL A   1      44.730  26.751  25.003  1.00  0.00    -0.200 F 
ATOM     67  F   UNL A   1      43.844  24.197  24.648  1.00  0.00    -0.200 F 
ENDBRANCH  43  57
BRANCH  44  68
ATOM     68  C   UNL A   1      39.223  31.874  35.574  1.00  0.00     0.064 A 
ATOM     69  C   UNL A   1      39.610  33.215  35.698  1.00  0.00     0.173 A 
ATOM     70  C   UNL A   1      38.358  31.349  36.546  1.00  0.00     0.173 A 
ATOM     71  F   UNL A   1      40.458  33.751  34.809  1.00  0.00    -0.203 F 
ATOM     72  C   UNL A   1      39.147  34.002  36.751  1.00  0.00     0.198 A 
ATOM     73  C   UNL A   1      37.877  32.144  37.584  1.00  0.00     0.198 A 
ATOM     74  F   UNL A   1      37.967  30.069  36.475  1.00  0.00    -0.203 F 
ATOM     75  F   UNL A   1      39.553  35.273  36.863  1.00  0.00    -0.200 F 
ATOM     76  C   UNL A   1      38.274  33.468  37.687  1.00  0.00     0.200 A 
ATOM     77  F   UNL A   1      37.027  31.626  38.481  1.00  0.00    -0.200 F 
ATOM     78  F   UNL A   1      37.820  34.228  38.693  1.00  0.00    -0.200 F 
ENDBRANCH  44  68
BRANCH  56  79
ATOM     79  C   UNL A   1      44.624  27.559  34.729  1.00  0.00     0.064 A 
ATOM     80  C   UNL A   1      44.476  26.390  35.489  1.00  0.00     0.173 A 
ATOM     81  C   UNL A   1      45.829  28.268  34.839  1.00  0.00     0.173 A 
ATOM     82  F   UNL A   1      43.334  25.689  35.433  1.00  0.00    -0.203 F 
ATOM     83  C   UNL A   1      45.489  25.957  36.339  1.00  0.00     0.198 A 
ATOM     84  C   UNL A   1      46.850  27.819  35.672  1.00  0.00     0.198 A 
ATOM     85  F   UNL A   1      46.020  29.391  34.129  1.00  0.00    -0.203 F 
ATOM     86  F   UNL A   1      45.313  24.858  37.086  1.00  0.00    -0.200 F 
ATOM     87  C   UNL A   1      46.677  26.667  36.424  1.00  0.00     0.200 A 
ATOM     88  F   UNL A   1      48.001  28.502  35.746  1.00  0.00    -0.200 F 
ATOM     89  F   UNL A   1      47.655  26.246  37.239  1.00  0.00    -0.200 F 
ENDBRANCH  56  79
ENDBRANCH  30  31
ENDBRANCH  23  25
ENDBRANCH  22  23
ENDBRANCH  21  22
ENDBRANCH   1  21
TORSDOF 14
ENDMDL
