MODEL 1
REMARK VINA RESULT:     -11.2      0.000      0.000
REMARK SMILES CC[C@](O)(C(=O)OCCOC(=O)c1ccc(-c2c3nc(c(-c4c(F)c(F)c(F)c(F)c4F)c4ccc([nH]4)c(-c4c(F)c(F)c(F)c(F)c4F)c4nc(c(-c5c(F)c(F)c(F)c(F)c5F)c5ccc2[nH]5)C=C4)C=C3)cc1)[C@@H](C)c1ccc(C)s1
REMARK SMILES IDX 8 1 7 2 5 3 6 4 3 5 2 6 1 7 76 8 77 9 78 10 79 11 83 12
REMARK SMILES IDX 80 13 81 14 82 15 4 16 9 18 10 19 11 20 12 21 13 22 14 23
REMARK SMILES IDX 75 24 15 25 74 26 16 27 17 28 18 29 68 30 19 31 73 32 67 33
REMARK SMILES IDX 69 34 20 35 72 36 66 37 65 38 21 40 53 41 33 42 52 43 34 44
REMARK SMILES IDX 37 45 51 46 70 47 35 48 36 49 50 51 71 52 38 53 22 54 23 55
REMARK SMILES IDX 31 56 24 57 25 58 29 59 32 60 26 61 27 62 30 63 28 64 54 65
REMARK SMILES IDX 55 66 63 67 56 68 57 69 61 70 64 71 58 72 59 73 62 74 60 75
REMARK SMILES IDX 39 76 40 77 48 78 41 79 42 80 46 81 49 82 43 83 44 84 47 85
REMARK SMILES IDX 45 86
REMARK H PARENT 4 17 69 39 37 50
REMARK Flexibility Score: inf
ROOT
ATOM      1  C   UNL A   1      31.021  29.477  24.618  1.00  0.00     0.274 C 
ENDROOT
BRANCH   1   2
ATOM      2  O   UNL A   1      30.947  28.119  24.137  1.00  0.00    -0.460 OA
BRANCH   2   3
ATOM      3  C   UNL A   1      31.009  27.971  22.785  1.00  0.00     0.338 C 
ATOM      4  O   UNL A   1      30.321  28.608  21.990  1.00  0.00    -0.249 OA
BRANCH   3   5
ATOM      5  C   UNL A   1      31.985  26.840  22.332  1.00  0.00     0.168 C 
BRANCH   5   6
ATOM      6  C   UNL A   1      33.308  27.643  22.146  1.00  0.00     0.044 C 
ATOM      7  C   UNL A   1      34.036  28.193  23.357  1.00  0.00     0.007 C 
ENDBRANCH   5   6
BRANCH   5   8
ATOM      8  C   UNL A   1      31.906  25.729  23.436  1.00  0.00     0.070 C 
ATOM      9  C   UNL A   1      30.682  24.810  23.219  1.00  0.00     0.017 C 
BRANCH   8  10
ATOM     10  C   UNL A   1      33.135  24.843  23.546  1.00  0.00     0.011 A 
ATOM     11  C   UNL A   1      33.573  23.843  22.697  1.00  0.00     0.016 A 
ATOM     12  S   UNL A   1      34.153  24.959  24.927  1.00  0.00    -0.145 S 
ATOM     13  C   UNL A   1      34.828  23.302  23.098  1.00  0.00     0.015 A 
ATOM     14  C   UNL A   1      35.298  23.883  24.256  1.00  0.00     0.002 A 
ATOM     15  C   UNL A   1      36.610  23.653  24.927  1.00  0.00     0.056 C 
ENDBRANCH   8  10
ENDBRANCH   5   8
BRANCH   5  16
ATOM     16  O   UNL A   1      31.626  26.271  21.066  1.00  0.00    -0.378 OA
ATOM     17  H   UNL A   1      30.701  26.485  20.867  1.00  0.00     0.212 HD
ENDBRANCH   5  16
ENDBRANCH   3   5
ENDBRANCH   2   3
ENDBRANCH   1   2
BRANCH   1  18
ATOM     18  C   UNL A   1      31.724  29.549  25.972  1.00  0.00     0.275 C 
BRANCH  18  19
ATOM     19  O   UNL A   1      32.902  30.362  25.850  1.00  0.00    -0.458 OA
BRANCH  19  20
ATOM     20  C   UNL A   1      33.132  31.227  26.860  1.00  0.00     0.338 C 
ATOM     21  O   UNL A   1      32.368  32.098  27.258  1.00  0.00    -0.246 OA
BRANCH  20  22
ATOM     22  C   UNL A   1      34.454  30.956  27.481  1.00  0.00     0.060 A 
ATOM     23  C   UNL A   1      34.854  29.660  27.814  1.00  0.00     0.016 A 
ATOM     24  C   UNL A   1      35.277  32.031  27.823  1.00  0.00     0.016 A 
ATOM     25  C   UNL A   1      36.007  29.442  28.567  1.00  0.00     0.010 A 
ATOM     26  C   UNL A   1      36.489  31.800  28.485  1.00  0.00     0.010 A 
ATOM     27  C   UNL A   1      36.857  30.507  28.893  1.00  0.00    -0.014 A 
BRANCH  27  28
ATOM     28  C   UNL A   1      38.112  30.287  29.668  1.00  0.00     0.031 A 
ATOM     29  C   UNL A   1      39.219  29.447  29.090  1.00  0.00     0.074 A 
ATOM     30  C   UNL A   1      38.266  30.811  30.901  1.00  0.00     0.049 A 
ATOM     31  N   UNL A   1      40.244  28.894  29.689  1.00  0.00    -0.248 NA
ATOM     32  C   UNL A   1      39.154  29.177  27.644  1.00  0.00     0.031 C 
ATOM     33  C   UNL A   1      37.315  31.693  31.579  1.00  0.00     0.029 A 
ATOM     34  N   UNL A   1      39.289  30.672  31.808  1.00  0.00    -0.354 N 
ATOM     35  C   UNL A   1      40.893  28.144  28.717  1.00  0.00     0.074 A 
ATOM     36  C   UNL A   1      40.162  28.331  27.481  1.00  0.00     0.031 C 
ATOM     37  C   UNL A   1      37.814  32.047  32.773  1.00  0.00     0.029 A 
ATOM     38  C   UNL A   1      39.067  31.334  32.992  1.00  0.00     0.049 A 
ATOM     39  H   UNL A   1      40.103  30.148  31.629  1.00  0.00     0.167 HD
ATOM     40  C   UNL A   1      41.991  27.362  28.851  1.00  0.00     0.037 A 
ATOM     41  C   UNL A   1      39.757  31.327  34.147  1.00  0.00     0.037 A 
ATOM     42  C   UNL A   1      42.765  27.248  30.061  1.00  0.00     0.049 A 
ATOM     43  C   UNL A   1      40.969  30.451  34.277  1.00  0.00     0.074 A 
ATOM     44  C   UNL A   1      43.908  26.502  30.288  1.00  0.00     0.029 A 
ATOM     45  N   UNL A   1      42.489  27.923  31.240  1.00  0.00    -0.354 N 
ATOM     46  N   UNL A   1      41.519  29.664  33.384  1.00  0.00    -0.248 NA
ATOM     47  C   UNL A   1      41.637  30.435  35.586  1.00  0.00     0.031 C 
ATOM     48  C   UNL A   1      44.311  26.707  31.612  1.00  0.00     0.029 A 
ATOM     49  C   UNL A   1      43.439  27.608  32.199  1.00  0.00     0.049 A 
ATOM     50  H   UNL A   1      41.731  28.536  31.376  1.00  0.00     0.167 HD
ATOM     51  C   UNL A   1      42.595  29.061  34.020  1.00  0.00     0.074 A 
ATOM     52  C   UNL A   1      42.636  29.591  35.368  1.00  0.00     0.031 C 
ATOM     53  C   UNL A   1      43.464  28.143  33.535  1.00  0.00     0.037 A 
BRANCH  40  54
ATOM     54  C   UNL A   1      42.406  26.530  27.674  1.00  0.00     0.064 A 
ATOM     55  C   UNL A   1      43.388  26.956  26.769  1.00  0.00     0.173 A 
ATOM     56  C   UNL A   1      41.847  25.256  27.488  1.00  0.00     0.173 A 
ATOM     57  F   UNL A   1      43.943  28.170  26.897  1.00  0.00    -0.203 F 
ATOM     58  C   UNL A   1      43.783  26.142  25.709  1.00  0.00     0.198 A 
ATOM     59  C   UNL A   1      42.262  24.435  26.443  1.00  0.00     0.198 A 
ATOM     60  F   UNL A   1      40.909  24.800  28.331  1.00  0.00    -0.203 F 
ATOM     61  F   UNL A   1      44.699  26.581  24.836  1.00  0.00    -0.200 F 
ATOM     62  C   UNL A   1      43.227  24.881  25.552  1.00  0.00     0.200 A 
ATOM     63  F   UNL A   1      41.732  23.213  26.300  1.00  0.00    -0.200 F 
ATOM     64  F   UNL A   1      43.618  24.095  24.539  1.00  0.00    -0.200 F 
ENDBRANCH  40  54
BRANCH  41  65
ATOM     65  C   UNL A   1      39.279  32.141  35.295  1.00  0.00     0.064 A 
ATOM     66  C   UNL A   1      38.486  31.570  36.298  1.00  0.00     0.173 A 
ATOM     67  C   UNL A   1      39.617  33.496  35.419  1.00  0.00     0.173 A 
ATOM     68  F   UNL A   1      38.112  30.284  36.206  1.00  0.00    -0.203 F 
ATOM     69  C   UNL A   1      38.052  32.323  37.386  1.00  0.00     0.198 A 
ATOM     70  C   UNL A   1      39.207  34.242  36.521  1.00  0.00     0.198 A 
ATOM     71  F   UNL A   1      40.370  34.090  34.482  1.00  0.00    -0.203 F 
ATOM     72  F   UNL A   1      37.268  31.763  38.317  1.00  0.00    -0.200 F 
ATOM     73  C   UNL A   1      38.420  33.655  37.502  1.00  0.00     0.200 A 
ATOM     74  F   UNL A   1      39.576  35.524  36.636  1.00  0.00    -0.200 F 
ATOM     75  F   UNL A   1      38.013  34.376  38.555  1.00  0.00    -0.200 F 
ENDBRANCH  41  65
BRANCH  53  76
ATOM     76  C   UNL A   1      44.544  27.672  34.460  1.00  0.00     0.064 A 
ATOM     77  C   UNL A   1      45.761  28.361  34.571  1.00  0.00     0.173 A 
ATOM     78  C   UNL A   1      44.352  26.536  35.257  1.00  0.00     0.173 A 
ATOM     79  F   UNL A   1      45.996  29.442  33.814  1.00  0.00    -0.203 F 
ATOM     80  C   UNL A   1      46.757  27.912  35.434  1.00  0.00     0.198 A 
ATOM     81  C   UNL A   1      45.341  26.103  36.135  1.00  0.00     0.198 A 
ATOM     82  F   UNL A   1      43.202  25.847  35.188  1.00  0.00    -0.203 F 
ATOM     83  F   UNL A   1      47.929  28.559  35.496  1.00  0.00    -0.200 F 
ATOM     84  C   UNL A   1      46.545  26.788  36.218  1.00  0.00     0.200 A 
ATOM     85  F   UNL A   1      45.133  25.021  36.897  1.00  0.00    -0.200 F 
ATOM     86  F   UNL A   1      47.505  26.358  37.048  1.00  0.00    -0.200 F 
ENDBRANCH  53  76
ENDBRANCH  27  28
ENDBRANCH  20  22
ENDBRANCH  19  20
ENDBRANCH  18  19
ENDBRANCH   1  18
TORSDOF 15
ENDMDL
MODEL 2
REMARK VINA RESULT:     -11.0      4.367      9.658
REMARK SMILES CC[C@](O)(C(=O)OCCOC(=O)c1ccc(-c2c3nc(c(-c4c(F)c(F)c(F)c(F)c4F)c4ccc([nH]4)c(-c4c(F)c(F)c(F)c(F)c4F)c4nc(c(-c5c(F)c(F)c(F)c(F)c5F)c5ccc2[nH]5)C=C4)C=C3)cc1)[C@@H](C)c1ccc(C)s1
REMARK SMILES IDX 8 1 7 2 5 3 6 4 3 5 2 6 1 7 76 8 77 9 78 10 79 11 83 12
REMARK SMILES IDX 80 13 81 14 82 15 4 16 9 18 10 19 11 20 12 21 13 22 14 23
REMARK SMILES IDX 75 24 15 25 74 26 16 27 17 28 18 29 68 30 19 31 73 32 67 33
REMARK SMILES IDX 69 34 20 35 72 36 66 37 65 38 21 40 53 41 33 42 52 43 34 44
REMARK SMILES IDX 37 45 51 46 70 47 35 48 36 49 50 51 71 52 38 53 22 54 23 55
REMARK SMILES IDX 31 56 24 57 25 58 29 59 32 60 26 61 27 62 30 63 28 64 54 65
REMARK SMILES IDX 55 66 63 67 56 68 57 69 61 70 64 71 58 72 59 73 62 74 60 75
REMARK SMILES IDX 39 76 40 77 48 78 41 79 42 80 46 81 49 82 43 83 44 84 47 85
REMARK SMILES IDX 45 86
REMARK H PARENT 4 17 69 39 37 50
REMARK Flexibility Score: inf
ROOT
ATOM      1  C   UNL A   1      34.765  21.256  24.582  1.00  0.00     0.274 C 
ENDROOT
BRANCH   1   2
ATOM      2  O   UNL A   1      34.656  22.605  25.080  1.00  0.00    -0.460 OA
BRANCH   2   3
ATOM      3  C   UNL A   1      34.406  23.558  24.140  1.00  0.00     0.338 C 
ATOM      4  O   UNL A   1      35.066  23.703  23.113  1.00  0.00    -0.249 OA
BRANCH   3   5
ATOM      5  C   UNL A   1      33.242  24.522  24.533  1.00  0.00     0.168 C 
BRANCH   5   6
ATOM      6  C   UNL A   1      34.022  25.851  24.770  1.00  0.00     0.044 C 
ATOM      7  C   UNL A   1      33.564  26.814  25.848  1.00  0.00     0.007 C 
ENDBRANCH   5   6
BRANCH   5   8
ATOM      8  C   UNL A   1      32.196  24.439  23.367  1.00  0.00     0.070 C 
ATOM      9  C   UNL A   1      31.351  23.147  23.464  1.00  0.00     0.017 C 
BRANCH   8  10
ATOM     10  C   UNL A   1      31.236  25.612  23.281  1.00  0.00     0.011 A 
ATOM     11  C   UNL A   1      30.015  25.794  23.904  1.00  0.00     0.016 A 
ATOM     12  S   UNL A   1      31.579  26.922  22.219  1.00  0.00    -0.145 S 
ATOM     13  C   UNL A   1      29.457  27.077  23.639  1.00  0.00     0.015 A 
ATOM     14  C   UNL A   1      30.251  27.828  22.799  1.00  0.00     0.002 A 
ATOM     15  C   UNL A   1      30.053  29.243  22.375  1.00  0.00     0.056 C 
ENDBRANCH   8  10
ENDBRANCH   5   8
BRANCH   5  16
ATOM     16  O   UNL A   1      32.606  24.152  25.763  1.00  0.00    -0.378 OA
ATOM     17  H   UNL A   1      31.679  24.434  25.744  1.00  0.00     0.212 HD
ENDBRANCH   5  16
ENDBRANCH   3   5
ENDBRANCH   2   3
ENDBRANCH   1   2
BRANCH   1  18
ATOM     18  C   UNL A   1      36.089  20.616  24.995  1.00  0.00     0.275 C 
BRANCH  18  19
ATOM     19  O   UNL A   1      36.855  21.566  25.753  1.00  0.00    -0.458 OA
BRANCH  19  20
ATOM     20  C   UNL A   1      38.189  21.360  25.786  1.00  0.00     0.338 C 
ATOM     21  O   UNL A   1      38.780  20.366  25.378  1.00  0.00    -0.246 OA
BRANCH  20  22
ATOM     22  C   UNL A   1      38.881  22.543  26.357  1.00  0.00     0.060 A 
ATOM     23  C   UNL A   1      38.425  23.842  26.120  1.00  0.00     0.016 A 
ATOM     24  C   UNL A   1      40.067  22.359  27.069  1.00  0.00     0.016 A 
ATOM     25  C   UNL A   1      39.189  24.945  26.499  1.00  0.00     0.010 A 
ATOM     26  C   UNL A   1      40.778  23.468  27.543  1.00  0.00     0.010 A 
ATOM     27  C   UNL A   1      40.366  24.777  27.239  1.00  0.00    -0.014 A 
BRANCH  27  28
ATOM     28  C   UNL A   1      41.177  25.947  27.682  1.00  0.00     0.031 A 
ATOM     29  C   UNL A   1      40.554  27.018  28.536  1.00  0.00     0.074 A 
ATOM     30  C   UNL A   1      42.466  26.079  27.306  1.00  0.00     0.049 A 
ATOM     31  N   UNL A   1      40.972  28.235  28.783  1.00  0.00    -0.248 NA
ATOM     32  C   UNL A   1      39.277  26.681  29.185  1.00  0.00     0.031 C 
ATOM     33  C   UNL A   1      43.234  25.104  26.531  1.00  0.00     0.029 A 
ATOM     34  N   UNL A   1      43.361  27.098  27.530  1.00  0.00    -0.354 N 
ATOM     35  C   UNL A   1      39.974  28.833  29.540  1.00  0.00     0.074 A 
ATOM     36  C   UNL A   1      38.938  27.840  29.734  1.00  0.00     0.031 C 
ATOM     37  C   UNL A   1      44.489  25.551  26.377  1.00  0.00     0.029 A 
ATOM     38  C   UNL A   1      44.588  26.888  26.948  1.00  0.00     0.049 A 
ATOM     39  H   UNL A   1      43.144  27.901  28.056  1.00  0.00     0.167 HD
ATOM     40  C   UNL A   1      39.925  30.101  30.016  1.00  0.00     0.037 A 
ATOM     41  C   UNL A   1      45.656  27.699  26.830  1.00  0.00     0.037 A 
ATOM     42  C   UNL A   1      40.995  31.057  29.894  1.00  0.00     0.049 A 
ATOM     43  C   UNL A   1      45.580  29.101  27.362  1.00  0.00     0.074 A 
ATOM     44  C   UNL A   1      41.050  32.357  30.366  1.00  0.00     0.029 A 
ATOM     45  N   UNL A   1      42.211  30.805  29.277  1.00  0.00    -0.354 N 
ATOM     46  N   UNL A   1      44.593  29.695  27.987  1.00  0.00    -0.248 NA
ATOM     47  C   UNL A   1      46.754  29.957  27.140  1.00  0.00     0.031 C 
ATOM     48  C   UNL A   1      42.290  32.900  30.014  1.00  0.00     0.029 A 
ATOM     49  C   UNL A   1      43.022  31.926  29.355  1.00  0.00     0.049 A 
ATOM     50  H   UNL A   1      42.462  29.955  28.849  1.00  0.00     0.167 HD
ATOM     51  C   UNL A   1      45.024  30.990  28.234  1.00  0.00     0.074 A 
ATOM     52  C   UNL A   1      46.372  31.090  27.713  1.00  0.00     0.031 C 
ATOM     53  C   UNL A   1      44.359  32.009  28.830  1.00  0.00     0.037 A 
BRANCH  40  54
ATOM     54  C   UNL A   1      38.657  30.550  30.680  1.00  0.00     0.064 A 
ATOM     55  C   UNL A   1      38.513  30.575  32.074  1.00  0.00     0.173 A 
ATOM     56  C   UNL A   1      37.589  31.020  29.900  1.00  0.00     0.173 A 
ATOM     57  F   UNL A   1      39.500  30.125  32.862  1.00  0.00    -0.203 F 
ATOM     58  C   UNL A   1      37.339  31.038  32.662  1.00  0.00     0.198 A 
ATOM     59  C   UNL A   1      36.426  31.506  30.492  1.00  0.00     0.198 A 
ATOM     60  F   UNL A   1      37.679  31.023  28.561  1.00  0.00    -0.203 F 
ATOM     61  F   UNL A   1      37.208  31.022  33.996  1.00  0.00    -0.200 F 
ATOM     62  C   UNL A   1      36.300  31.510  31.872  1.00  0.00     0.200 A 
ATOM     63  F   UNL A   1      35.430  31.972  29.726  1.00  0.00    -0.200 F 
ATOM     64  F   UNL A   1      35.176  31.967  32.442  1.00  0.00    -0.200 F 
ENDBRANCH  40  54
BRANCH  41  65
ATOM     65  C   UNL A   1      46.873  27.215  26.129  1.00  0.00     0.064 A 
ATOM     66  C   UNL A   1      47.021  27.391  24.747  1.00  0.00     0.173 A 
ATOM     67  C   UNL A   1      47.915  26.586  26.825  1.00  0.00     0.173 A 
ATOM     68  F   UNL A   1      46.038  27.960  24.034  1.00  0.00    -0.203 F 
ATOM     69  C   UNL A   1      48.168  26.956  24.087  1.00  0.00     0.198 A 
ATOM     70  C   UNL A   1      49.074  26.178  26.170  1.00  0.00     0.198 A 
ATOM     71  F   UNL A   1      47.817  26.391  28.148  1.00  0.00    -0.203 F 
ATOM     72  F   UNL A   1      48.274  27.107  22.761  1.00  0.00    -0.200 F 
ATOM     73  C   UNL A   1      49.198  26.359  24.800  1.00  0.00     0.200 A 
ATOM     74  F   UNL A   1      50.071  25.614  26.864  1.00  0.00    -0.200 F 
ATOM     75  F   UNL A   1      50.307  25.954  24.168  1.00  0.00    -0.200 F 
ENDBRANCH  41  65
BRANCH  53  76
ATOM     76  C   UNL A   1      45.089  33.310  28.968  1.00  0.00     0.064 A 
ATOM     77  C   UNL A   1      44.983  34.313  27.994  1.00  0.00     0.173 A 
ATOM     78  C   UNL A   1      45.884  33.562  30.095  1.00  0.00     0.173 A 
ATOM     79  F   UNL A   1      44.249  34.108  26.891  1.00  0.00    -0.203 F 
ATOM     80  C   UNL A   1      45.668  35.517  28.135  1.00  0.00     0.198 A 
ATOM     81  C   UNL A   1      46.549  34.776  30.242  1.00  0.00     0.198 A 
ATOM     82  F   UNL A   1      46.013  32.634  31.054  1.00  0.00    -0.203 F 
ATOM     83  F   UNL A   1      45.587  36.448  27.173  1.00  0.00    -0.200 F 
ATOM     84  C   UNL A   1      46.445  35.750  29.259  1.00  0.00     0.200 A 
ATOM     85  F   UNL A   1      47.294  35.002  31.332  1.00  0.00    -0.200 F 
ATOM     86  F   UNL A   1      47.103  36.909  29.393  1.00  0.00    -0.200 F 
ENDBRANCH  53  76
ENDBRANCH  27  28
ENDBRANCH  20  22
ENDBRANCH  19  20
ENDBRANCH  18  19
ENDBRANCH   1  18
TORSDOF 15
ENDMDL
MODEL 3
REMARK VINA RESULT:     -10.9      0.917      1.629
REMARK SMILES CC[C@](O)(C(=O)OCCOC(=O)c1ccc(-c2c3nc(c(-c4c(F)c(F)c(F)c(F)c4F)c4ccc([nH]4)c(-c4c(F)c(F)c(F)c(F)c4F)c4nc(c(-c5c(F)c(F)c(F)c(F)c5F)c5ccc2[nH]5)C=C4)C=C3)cc1)[C@@H](C)c1ccc(C)s1
REMARK SMILES IDX 8 1 7 2 5 3 6 4 3 5 2 6 1 7 76 8 77 9 78 10 79 11 83 12
REMARK SMILES IDX 80 13 81 14 82 15 4 16 9 18 10 19 11 20 12 21 13 22 14 23
REMARK SMILES IDX 75 24 15 25 74 26 16 27 17 28 18 29 68 30 19 31 73 32 67 33
REMARK SMILES IDX 69 34 20 35 72 36 66 37 65 38 21 40 53 41 33 42 52 43 34 44
REMARK SMILES IDX 37 45 51 46 70 47 35 48 36 49 50 51 71 52 38 53 22 54 23 55
REMARK SMILES IDX 31 56 24 57 25 58 29 59 32 60 26 61 27 62 30 63 28 64 54 65
REMARK SMILES IDX 55 66 63 67 56 68 57 69 61 70 64 71 58 72 59 73 62 74 60 75
REMARK SMILES IDX 39 76 40 77 48 78 41 79 42 80 46 81 49 82 43 83 44 84 47 85
REMARK SMILES IDX 45 86
REMARK H PARENT 4 17 69 39 37 50
REMARK Flexibility Score: inf
ROOT
ATOM      1  C   UNL A   1      31.013  29.743  24.619  1.00  0.00     0.274 C 
ENDROOT
BRANCH   1   2
ATOM      2  O   UNL A   1      31.663  28.938  23.615  1.00  0.00    -0.460 OA
BRANCH   2   3
ATOM      3  C   UNL A   1      31.288  27.629  23.580  1.00  0.00     0.338 C 
ATOM      4  O   UNL A   1      30.122  27.245  23.632  1.00  0.00    -0.249 OA
BRANCH   3   5
ATOM      5  C   UNL A   1      32.496  26.641  23.555  1.00  0.00     0.168 C 
BRANCH   5   6
ATOM      6  C   UNL A   1      32.641  26.308  25.071  1.00  0.00     0.044 C 
ATOM      7  C   UNL A   1      34.011  26.020  25.655  1.00  0.00     0.007 C 
ENDBRANCH   5   6
BRANCH   5   8
ATOM      8  C   UNL A   1      32.107  25.502  22.548  1.00  0.00     0.070 C 
ATOM      9  C   UNL A   1      32.670  25.787  21.137  1.00  0.00     0.017 C 
BRANCH   8  10
ATOM     10  C   UNL A   1      32.555  24.109  22.951  1.00  0.00     0.011 A 
ATOM     11  C   UNL A   1      33.809  23.531  22.867  1.00  0.00     0.016 A 
ATOM     12  S   UNL A   1      31.399  22.972  23.529  1.00  0.00    -0.145 S 
ATOM     13  C   UNL A   1      33.845  22.226  23.437  1.00  0.00     0.015 A 
ATOM     14  C   UNL A   1      32.613  21.832  23.913  1.00  0.00     0.002 A 
ATOM     15  C   UNL A   1      32.277  20.585  24.657  1.00  0.00     0.056 C 
ENDBRANCH   8  10
ENDBRANCH   5   8
BRANCH   5  16
ATOM     16  O   UNL A   1      33.712  27.261  23.116  1.00  0.00    -0.378 OA
ATOM     17  H   UNL A   1      34.145  26.693  22.460  1.00  0.00     0.212 HD
ENDBRANCH   5  16
ENDBRANCH   3   5
ENDBRANCH   2   3
ENDBRANCH   1   2
BRANCH   1  18
ATOM     18  C   UNL A   1      31.697  29.598  25.977  1.00  0.00     0.275 C 
BRANCH  18  19
ATOM     19  O   UNL A   1      32.996  30.207  25.919  1.00  0.00    -0.458 OA
BRANCH  19  20
ATOM     20  C   UNL A   1      33.260  31.131  26.867  1.00  0.00     0.338 C 
ATOM     21  O   UNL A   1      32.526  32.053  27.205  1.00  0.00    -0.246 OA
BRANCH  20  22
ATOM     22  C   UNL A   1      34.575  30.861  27.501  1.00  0.00     0.060 A 
ATOM     23  C   UNL A   1      34.957  29.569  27.871  1.00  0.00     0.016 A 
ATOM     24  C   UNL A   1      35.409  31.933  27.819  1.00  0.00     0.016 A 
ATOM     25  C   UNL A   1      36.103  29.357  28.636  1.00  0.00     0.010 A 
ATOM     26  C   UNL A   1      36.615  31.705  28.493  1.00  0.00     0.010 A 
ATOM     27  C   UNL A   1      36.965  30.418  28.937  1.00  0.00    -0.014 A 
BRANCH  27  28
ATOM     28  C   UNL A   1      38.213  30.204  29.724  1.00  0.00     0.031 A 
ATOM     29  C   UNL A   1      39.328  29.365  29.159  1.00  0.00     0.074 A 
ATOM     30  C   UNL A   1      38.355  30.732  30.958  1.00  0.00     0.049 A 
ATOM     31  N   UNL A   1      40.348  28.816  29.769  1.00  0.00    -0.248 NA
ATOM     32  C   UNL A   1      39.276  29.091  27.714  1.00  0.00     0.031 C 
ATOM     33  C   UNL A   1      37.396  31.613  31.624  1.00  0.00     0.029 A 
ATOM     34  N   UNL A   1      39.370  30.597  31.875  1.00  0.00    -0.354 N 
ATOM     35  C   UNL A   1      41.008  28.065  28.805  1.00  0.00     0.074 A 
ATOM     36  C   UNL A   1      40.288  28.247  27.562  1.00  0.00     0.031 C 
ATOM     37  C   UNL A   1      37.882  31.971  32.822  1.00  0.00     0.029 A 
ATOM     38  C   UNL A   1      39.135  31.262  33.054  1.00  0.00     0.049 A 
ATOM     39  H   UNL A   1      40.187  30.075  31.704  1.00  0.00     0.167 HD
ATOM     40  C   UNL A   1      42.107  27.286  28.952  1.00  0.00     0.037 A 
ATOM     41  C   UNL A   1      39.814  31.260  34.216  1.00  0.00     0.037 A 
ATOM     42  C   UNL A   1      42.869  27.177  30.169  1.00  0.00     0.049 A 
ATOM     43  C   UNL A   1      41.028  30.386  34.359  1.00  0.00     0.074 A 
ATOM     44  C   UNL A   1      44.013  26.434  30.408  1.00  0.00     0.029 A 
ATOM     45  N   UNL A   1      42.581  27.855  31.343  1.00  0.00    -0.354 N 
ATOM     46  N   UNL A   1      41.587  29.598  33.474  1.00  0.00    -0.248 NA
ATOM     47  C   UNL A   1      41.683  30.376  35.675  1.00  0.00     0.031 C 
ATOM     48  C   UNL A   1      44.402  26.643  31.735  1.00  0.00     0.029 A 
ATOM     49  C   UNL A   1      43.523  27.544  32.312  1.00  0.00     0.049 A 
ATOM     50  H   UNL A   1      41.820  28.466  31.471  1.00  0.00     0.167 HD
ATOM     51  C   UNL A   1      42.658  29.000  34.121  1.00  0.00     0.074 A 
ATOM     52  C   UNL A   1      42.686  29.534  35.468  1.00  0.00     0.031 C 
ATOM     53  C   UNL A   1      43.534  28.083  33.646  1.00  0.00     0.037 A 
BRANCH  40  54
ATOM     54  C   UNL A   1      42.535  26.452  27.781  1.00  0.00     0.064 A 
ATOM     55  C   UNL A   1      41.983  25.190  27.522  1.00  0.00     0.173 A 
ATOM     56  C   UNL A   1      43.475  26.958  26.869  1.00  0.00     0.173 A 
ATOM     57  F   UNL A   1      41.090  24.657  28.369  1.00  0.00    -0.203 F 
ATOM     58  C   UNL A   1      42.370  24.457  26.402  1.00  0.00     0.198 A 
ATOM     59  C   UNL A   1      43.840  26.235  25.738  1.00  0.00     0.198 A 
ATOM     60  F   UNL A   1      44.027  28.165  27.068  1.00  0.00    -0.203 F 
ATOM     61  F   UNL A   1      41.855  23.239  26.190  1.00  0.00    -0.200 F 
ATOM     62  C   UNL A   1      43.291  24.983  25.507  1.00  0.00     0.200 A 
ATOM     63  F   UNL A   1      44.721  26.750  24.869  1.00  0.00    -0.200 F 
ATOM     64  F   UNL A   1      43.652  24.281  24.424  1.00  0.00    -0.200 F 
ENDBRANCH  40  54
BRANCH  41  65
ATOM     65  C   UNL A   1      39.324  32.075  35.357  1.00  0.00     0.064 A 
ATOM     66  C   UNL A   1      38.494  31.514  36.335  1.00  0.00     0.173 A 
ATOM     67  C   UNL A   1      39.688  33.422  35.500  1.00  0.00     0.173 A 
ATOM     68  F   UNL A   1      38.095  30.238  36.224  1.00  0.00    -0.203 F 
ATOM     69  C   UNL A   1      38.047  32.269  37.417  1.00  0.00     0.198 A 
ATOM     70  C   UNL A   1      39.264  34.168  36.597  1.00  0.00     0.198 A 
ATOM     71  F   UNL A   1      40.477  34.006  34.587  1.00  0.00    -0.203 F 
ATOM     72  F   UNL A   1      37.228  31.719  38.323  1.00  0.00    -0.200 F 
ATOM     73  C   UNL A   1      38.440  33.592  37.553  1.00  0.00     0.200 A 
ATOM     74  F   UNL A   1      39.658  35.442  36.732  1.00  0.00    -0.200 F 
ATOM     75  F   UNL A   1      38.021  34.314  38.601  1.00  0.00    -0.200 F 
ENDBRANCH  41  65
BRANCH  53  76
ATOM     76  C   UNL A   1      44.607  27.617  34.582  1.00  0.00     0.064 A 
ATOM     77  C   UNL A   1      45.823  28.305  34.699  1.00  0.00     0.173 A 
ATOM     78  C   UNL A   1      44.408  26.485  35.385  1.00  0.00     0.173 A 
ATOM     79  F   UNL A   1      46.065  29.383  33.938  1.00  0.00    -0.203 F 
ATOM     80  C   UNL A   1      46.812  27.861  35.573  1.00  0.00     0.198 A 
ATOM     81  C   UNL A   1      45.390  26.057  36.273  1.00  0.00     0.198 A 
ATOM     82  F   UNL A   1      43.259  25.796  35.310  1.00  0.00    -0.203 F 
ATOM     83  F   UNL A   1      47.984  28.509  35.640  1.00  0.00    -0.200 F 
ATOM     84  C   UNL A   1      46.593  26.742  36.361  1.00  0.00     0.200 A 
ATOM     85  F   UNL A   1      45.176  24.980  37.039  1.00  0.00    -0.200 F 
ATOM     86  F   UNL A   1      47.547  26.316  37.201  1.00  0.00    -0.200 F 
ENDBRANCH  53  76
ENDBRANCH  27  28
ENDBRANCH  20  22
ENDBRANCH  19  20
ENDBRANCH  18  19
ENDBRANCH   1  18
TORSDOF 15
ENDMDL
