MODEL 1
REMARK VINA RESULT:     -11.0      0.000      0.000
REMARK SMILES CCCC1(CCC)C[NH+]([C@H]2CCC[C@@H](C(=O)OCCOC(=O)c3ccc(-c4c5nc(c(-c6c(F)c(F)c(F)c(F)c6F)c6ccc([nH]6)c(-c6c(F)c(F)c(F)c(F)c6F)c6nc(c(-c7c(F)c(F)c(F)c(F)c7F)c7ccc4[nH]7)C=C6)C=C5)cc3)C2)C1
REMARK SMILES IDX 18 1 17 2 15 3 16 4 14 5 10 6 11 7 86 8 12 9 13 10 9 11 4 12
REMARK SMILES IDX 8 13 87 14 3 16 2 17 1 18 5 19 6 20 7 21 19 22 20 23 21 24
REMARK SMILES IDX 22 25 23 26 24 27 85 28 25 29 84 30 26 31 27 32 28 33 78 34
REMARK SMILES IDX 29 35 83 36 77 37 79 38 30 39 82 40 76 41 75 42 31 44 63 45
REMARK SMILES IDX 43 46 62 47 44 48 47 49 61 50 80 51 45 52 46 53 60 55 81 56
REMARK SMILES IDX 48 57 32 58 33 59 41 60 34 61 35 62 39 63 42 64 36 65 37 66
REMARK SMILES IDX 40 67 38 68 64 69 65 70 73 71 66 72 67 73 71 74 74 75 68 76
REMARK SMILES IDX 69 77 72 78 70 79 49 80 50 81 58 82 51 83 52 84 56 85 59 86
REMARK SMILES IDX 53 87 54 88 57 89 55 90
REMARK H PARENT 9 15 79 43 47 54
REMARK Flexibility Score: inf
ROOT
ATOM      1  C   UNL A   1      32.913  29.337  24.576  1.00  0.00     0.274 C 
ENDROOT
BRANCH   1   2
ATOM      2  O   UNL A   1      32.641  28.989  23.192  1.00  0.00    -0.462 OA
BRANCH   2   3
ATOM      3  C   UNL A   1      32.832  27.704  22.830  1.00  0.00     0.309 C 
ATOM      4  O   UNL A   1      33.846  27.088  23.068  1.00  0.00    -0.252 OA
BRANCH   3   5
ATOM      5  C   UNL A   1      31.703  27.057  22.069  1.00  0.00     0.105 C 
ATOM      6  C   UNL A   1      31.640  24.661  23.177  1.00  0.00     0.184 C 
ATOM      7  C   UNL A   1      30.339  25.085  23.891  1.00  0.00     0.065 C 
ATOM      8  C   UNL A   1      31.877  25.539  21.912  1.00  0.00     0.080 C 
ATOM      9  C   UNL A   1      30.132  26.581  24.056  1.00  0.00     0.007 C 
ATOM     10  C   UNL A   1      30.367  27.380  22.770  1.00  0.00     0.016 C 
BRANCH   6  11
ATOM     11  N   UNL A   1      32.907  24.413  23.887  1.00  0.00    -0.331 N 
ATOM     12  C   UNL A   1      34.493  23.166  24.530  1.00  0.00     0.068 C 
ATOM     13  C   UNL A   1      33.950  23.674  23.123  1.00  0.00     0.275 C 
ATOM     14  C   UNL A   1      32.972  23.340  24.889  1.00  0.00     0.275 C 
ATOM     15  H   UNL A   1      33.013  25.386  24.174  1.00  0.00     0.348 HD
BRANCH  12  16
ATOM     16  C   UNL A   1      35.140  21.767  24.478  1.00  0.00     0.018 C 
BRANCH  16  17
ATOM     17  C   UNL A   1      34.534  20.744  25.430  1.00  0.00    -0.002 C 
ATOM     18  C   UNL A   1      33.751  19.722  24.647  1.00  0.00     0.004 C 
ENDBRANCH  16  17
ENDBRANCH  12  16
BRANCH  12  19
ATOM     19  C   UNL A   1      35.471  24.165  25.211  1.00  0.00     0.018 C 
BRANCH  19  20
ATOM     20  C   UNL A   1      36.528  23.543  26.137  1.00  0.00    -0.002 C 
ATOM     21  C   UNL A   1      37.993  23.851  25.869  1.00  0.00     0.004 C 
ENDBRANCH  19  20
ENDBRANCH  12  19
ENDBRANCH   6  11
ENDBRANCH   3   5
ENDBRANCH   2   3
ENDBRANCH   1   2
BRANCH   1  22
ATOM     22  C   UNL A   1      31.802  29.813  25.560  1.00  0.00     0.275 C 
BRANCH  22  23
ATOM     23  O   UNL A   1      32.209  30.095  26.926  1.00  0.00    -0.458 OA
BRANCH  23  24
ATOM     24  C   UNL A   1      32.861  31.281  27.119  1.00  0.00     0.338 C 
ATOM     25  O   UNL A   1      32.411  32.396  26.905  1.00  0.00    -0.246 OA
BRANCH  24  26
ATOM     26  C   UNL A   1      34.187  31.098  27.775  1.00  0.00     0.060 A 
ATOM     27  C   UNL A   1      34.590  29.798  28.108  1.00  0.00     0.016 A 
ATOM     28  C   UNL A   1      34.979  32.167  28.193  1.00  0.00     0.016 A 
ATOM     29  C   UNL A   1      35.825  29.538  28.712  1.00  0.00     0.010 A 
ATOM     30  C   UNL A   1      36.190  31.911  28.876  1.00  0.00     0.010 A 
ATOM     31  C   UNL A   1      36.643  30.592  29.109  1.00  0.00    -0.014 A 
BRANCH  31  32
ATOM     32  C   UNL A   1      37.843  30.302  29.950  1.00  0.00     0.031 A 
ATOM     33  C   UNL A   1      38.864  29.354  29.393  1.00  0.00     0.074 A 
ATOM     34  C   UNL A   1      38.115  30.917  31.121  1.00  0.00     0.049 A 
ATOM     35  N   UNL A   1      39.952  28.884  29.944  1.00  0.00    -0.248 NA
ATOM     36  C   UNL A   1      38.651  28.926  28.002  1.00  0.00     0.031 C 
ATOM     37  C   UNL A   1      37.382  32.041  31.679  1.00  0.00     0.029 A 
ATOM     38  N   UNL A   1      39.088  30.675  32.066  1.00  0.00    -0.354 N 
ATOM     39  C   UNL A   1      40.561  28.119  28.963  1.00  0.00     0.074 A 
ATOM     40  C   UNL A   1      39.711  28.162  27.793  1.00  0.00     0.031 C 
ATOM     41  C   UNL A   1      37.824  32.306  32.919  1.00  0.00     0.029 A 
ATOM     42  C   UNL A   1      38.922  31.397  33.229  1.00  0.00     0.049 A 
ATOM     43  H   UNL A   1      39.831  30.044  31.925  1.00  0.00     0.167 HD
ATOM     44  C   UNL A   1      41.735  27.450  29.026  1.00  0.00     0.037 A 
ATOM     45  C   UNL A   1      39.574  31.333  34.407  1.00  0.00     0.037 A 
ATOM     46  C   UNL A   1      42.575  27.393  30.192  1.00  0.00     0.049 A 
ATOM     47  C   UNL A   1      40.767  30.420  34.526  1.00  0.00     0.074 A 
ATOM     48  C   UNL A   1      43.756  26.696  30.367  1.00  0.00     0.029 A 
ATOM     49  N   UNL A   1      42.317  28.051  31.385  1.00  0.00    -0.354 N 
ATOM     50  N   UNL A   1      41.320  29.664  33.610  1.00  0.00    -0.248 NA
ATOM     51  C   UNL A   1      41.447  30.372  35.829  1.00  0.00     0.031 C 
ATOM     52  C   UNL A   1      44.177  26.875  31.687  1.00  0.00     0.029 A 
ATOM     53  C   UNL A   1      43.299  27.745  32.315  1.00  0.00     0.049 A 
ATOM     54  H   UNL A   1      41.550  28.647  31.549  1.00  0.00     0.167 HD
ATOM     55  C   UNL A   1      42.439  29.100  34.203  1.00  0.00     0.074 A 
ATOM     56  C   UNL A   1      42.488  29.597  35.561  1.00  0.00     0.031 C 
ATOM     57  C   UNL A   1      43.350  28.254  33.661  1.00  0.00     0.037 A 
BRANCH  44  58
ATOM     58  C   UNL A   1      42.130  26.667  27.812  1.00  0.00     0.064 A 
ATOM     59  C   UNL A   1      41.607  25.394  27.547  1.00  0.00     0.173 A 
ATOM     60  C   UNL A   1      43.064  27.199  26.911  1.00  0.00     0.173 A 
ATOM     61  F   UNL A   1      40.732  24.831  28.394  1.00  0.00    -0.203 F 
ATOM     62  C   UNL A   1      42.031  24.668  26.436  1.00  0.00     0.198 A 
ATOM     63  C   UNL A   1      43.459  26.485  25.787  1.00  0.00     0.198 A 
ATOM     64  F   UNL A   1      43.596  28.412  27.127  1.00  0.00    -0.203 F 
ATOM     65  F   UNL A   1      41.566  23.426  26.233  1.00  0.00    -0.200 F 
ATOM     66  C   UNL A   1      42.951  25.216  25.555  1.00  0.00     0.200 A 
ATOM     67  F   UNL A   1      44.342  27.020  24.932  1.00  0.00    -0.200 F 
ATOM     68  F   UNL A   1      43.357  24.516  24.487  1.00  0.00    -0.200 F 
ENDBRANCH  44  58
BRANCH  45  69
ATOM     69  C   UNL A   1      39.125  32.140  35.578  1.00  0.00     0.064 A 
ATOM     70  C   UNL A   1      39.568  33.456  35.777  1.00  0.00     0.173 A 
ATOM     71  C   UNL A   1      38.304  31.579  36.569  1.00  0.00     0.173 A 
ATOM     72  F   UNL A   1      40.378  34.033  34.876  1.00  0.00    -0.203 F 
ATOM     73  C   UNL A   1      39.237  34.165  36.932  1.00  0.00     0.198 A 
ATOM     74  C   UNL A   1      37.951  32.298  37.711  1.00  0.00     0.198 A 
ATOM     75  F   UNL A   1      37.859  30.320  36.439  1.00  0.00    -0.203 F 
ATOM     76  F   UNL A   1      39.731  35.396  37.125  1.00  0.00    -0.200 F 
ATOM     77  C   UNL A   1      38.427  33.586  37.898  1.00  0.00     0.200 A 
ATOM     78  F   UNL A   1      37.165  31.735  38.639  1.00  0.00    -0.200 F 
ATOM     79  F   UNL A   1      38.122  34.262  39.014  1.00  0.00    -0.200 F 
ENDBRANCH  45  69
BRANCH  57  80
ATOM     80  C   UNL A   1      44.516  27.846  34.517  1.00  0.00     0.064 A 
ATOM     81  C   UNL A   1      45.693  28.604  34.578  1.00  0.00     0.173 A 
ATOM     82  C   UNL A   1      44.426  26.706  35.334  1.00  0.00     0.173 A 
ATOM     83  F   UNL A   1      45.837  29.694  33.807  1.00  0.00    -0.203 F 
ATOM     84  C   UNL A   1      46.747  28.224  35.405  1.00  0.00     0.198 A 
ATOM     85  C   UNL A   1      45.466  26.350  36.186  1.00  0.00     0.198 A 
ATOM     86  F   UNL A   1      43.319  25.948  35.319  1.00  0.00    -0.203 F 
ATOM     87  F   UNL A   1      47.883  28.937  35.409  1.00  0.00    -0.200 F 
ATOM     88  C   UNL A   1      46.629  27.105  36.215  1.00  0.00     0.200 A 
ATOM     89  F   UNL A   1      45.342  25.280  36.981  1.00  0.00    -0.200 F 
ATOM     90  F   UNL A   1      47.638  26.750  37.022  1.00  0.00    -0.200 F 
ENDBRANCH  57  80
ENDBRANCH  31  32
ENDBRANCH  24  26
ENDBRANCH  23  24
ENDBRANCH  22  23
ENDBRANCH   1  22
TORSDOF 16
ENDMDL
MODEL 2
REMARK VINA RESULT:     -10.9      4.455      9.733
REMARK SMILES CCCC1(CCC)C[NH+]([C@H]2CCC[C@@H](C(=O)OCCOC(=O)c3ccc(-c4c5nc(c(-c6c(F)c(F)c(F)c(F)c6F)c6ccc([nH]6)c(-c6c(F)c(F)c(F)c(F)c6F)c6nc(c(-c7c(F)c(F)c(F)c(F)c7F)c7ccc4[nH]7)C=C6)C=C5)cc3)C2)C1
REMARK SMILES IDX 18 1 17 2 15 3 16 4 14 5 10 6 11 7 86 8 12 9 13 10 9 11 4 12
REMARK SMILES IDX 8 13 87 14 3 16 2 17 1 18 5 19 6 20 7 21 19 22 20 23 21 24
REMARK SMILES IDX 22 25 23 26 24 27 85 28 25 29 84 30 26 31 27 32 28 33 78 34
REMARK SMILES IDX 29 35 83 36 77 37 79 38 30 39 82 40 76 41 75 42 31 44 63 45
REMARK SMILES IDX 43 46 62 47 44 48 47 49 61 50 80 51 45 52 46 53 60 55 81 56
REMARK SMILES IDX 48 57 32 58 33 59 41 60 34 61 35 62 39 63 42 64 36 65 37 66
REMARK SMILES IDX 40 67 38 68 64 69 65 70 73 71 66 72 67 73 71 74 74 75 68 76
REMARK SMILES IDX 69 77 72 78 70 79 49 80 50 81 58 82 51 83 52 84 56 85 59 86
REMARK SMILES IDX 53 87 54 88 57 89 55 90
REMARK H PARENT 9 15 79 43 47 54
REMARK Flexibility Score: inf
ROOT
ATOM      1  C   UNL A   1      35.554  20.606  25.004  1.00  0.00     0.274 C 
ENDROOT
BRANCH   1   2
ATOM      2  O   UNL A   1      34.745  21.740  24.595  1.00  0.00    -0.462 OA
BRANCH   2   3
ATOM      3  C   UNL A   1      33.827  22.193  25.473  1.00  0.00     0.309 C 
ATOM      4  O   UNL A   1      34.073  23.005  26.336  1.00  0.00    -0.252 OA
BRANCH   3   5
ATOM      5  C   UNL A   1      32.444  21.605  25.346  1.00  0.00     0.105 C 
ATOM      6  C   UNL A   1      30.990  23.779  24.985  1.00  0.00     0.184 C 
ATOM      7  C   UNL A   1      30.832  23.363  23.508  1.00  0.00     0.065 C 
ATOM      8  C   UNL A   1      31.344  22.542  25.864  1.00  0.00     0.080 C 
ATOM      9  C   UNL A   1      31.901  22.430  22.965  1.00  0.00     0.007 C 
ATOM     10  C   UNL A   1      32.186  21.228  23.872  1.00  0.00     0.016 C 
BRANCH   6  11
ATOM     11  N   UNL A   1      31.758  24.962  25.414  1.00  0.00    -0.331 N 
ATOM     12  C   UNL A   1      32.250  27.020  25.331  1.00  0.00     0.068 C 
ATOM     13  C   UNL A   1      30.960  26.178  25.733  1.00  0.00     0.275 C 
ATOM     14  C   UNL A   1      32.462  25.766  24.405  1.00  0.00     0.275 C 
ATOM     15  H   UNL A   1      32.289  24.446  26.115  1.00  0.00     0.348 HD
BRANCH  12  16
ATOM     16  C   UNL A   1      31.927  28.403  24.730  1.00  0.00     0.018 C 
BRANCH  16  17
ATOM     17  C   UNL A   1      32.331  28.579  23.272  1.00  0.00    -0.002 C 
ATOM     18  C   UNL A   1      33.786  28.963  23.190  1.00  0.00     0.004 C 
ENDBRANCH  16  17
ENDBRANCH  12  16
BRANCH  12  19
ATOM     19  C   UNL A   1      33.267  27.185  26.496  1.00  0.00     0.018 C 
BRANCH  19  20
ATOM     20  C   UNL A   1      33.340  28.584  27.129  1.00  0.00    -0.002 C 
ATOM     21  C   UNL A   1      34.653  29.345  27.046  1.00  0.00     0.004 C 
ENDBRANCH  19  20
ENDBRANCH  12  19
ENDBRANCH   6  11
ENDBRANCH   3   5
ENDBRANCH   2   3
ENDBRANCH   1   2
BRANCH   1  22
ATOM     22  C   UNL A   1      37.113  20.639  25.008  1.00  0.00     0.275 C 
BRANCH  22  23
ATOM     23  O   UNL A   1      37.745  21.721  25.743  1.00  0.00    -0.458 OA
BRANCH  23  24
ATOM     24  C   UNL A   1      39.010  21.471  26.200  1.00  0.00     0.338 C 
ATOM     25  O   UNL A   1      39.606  20.408  26.127  1.00  0.00    -0.246 OA
BRANCH  24  26
ATOM     26  C   UNL A   1      39.687  22.702  26.697  1.00  0.00     0.060 A 
ATOM     27  C   UNL A   1      39.364  23.926  26.096  1.00  0.00     0.016 A 
ATOM     28  C   UNL A   1      40.718  22.674  27.634  1.00  0.00     0.016 A 
ATOM     29  C   UNL A   1      39.942  25.130  26.512  1.00  0.00     0.010 A 
ATOM     30  C   UNL A   1      41.362  23.878  27.999  1.00  0.00     0.010 A 
ATOM     31  C   UNL A   1      40.954  25.124  27.469  1.00  0.00    -0.014 A 
BRANCH  31  32
ATOM     32  C   UNL A   1      41.711  26.384  27.732  1.00  0.00     0.031 A 
ATOM     33  C   UNL A   1      40.993  27.480  28.463  1.00  0.00     0.074 A 
ATOM     34  C   UNL A   1      43.020  26.556  27.453  1.00  0.00     0.049 A 
ATOM     35  N   UNL A   1      41.395  28.689  28.755  1.00  0.00    -0.248 NA
ATOM     36  C   UNL A   1      39.660  27.140  28.983  1.00  0.00     0.031 C 
ATOM     37  C   UNL A   1      43.931  25.521  26.991  1.00  0.00     0.029 A 
ATOM     38  N   UNL A   1      43.819  27.677  27.508  1.00  0.00    -0.354 N 
ATOM     39  C   UNL A   1      40.373  29.247  29.505  1.00  0.00     0.074 A 
ATOM     40  C   UNL A   1      39.320  28.260  29.600  1.00  0.00     0.031 C 
ATOM     41  C   UNL A   1      45.116  26.065  26.669  1.00  0.00     0.029 A 
ATOM     42  C   UNL A   1      45.069  27.494  26.955  1.00  0.00     0.049 A 
ATOM     43  H   UNL A   1      43.525  28.530  27.904  1.00  0.00     0.167 HD
ATOM     44  C   UNL A   1      40.322  30.472  30.077  1.00  0.00     0.037 A 
ATOM     45  C   UNL A   1      46.059  28.374  26.704  1.00  0.00     0.037 A 
ATOM     46  C   UNL A   1      41.359  31.461  29.972  1.00  0.00     0.049 A 
ATOM     47  C   UNL A   1      45.898  29.798  27.169  1.00  0.00     0.074 A 
ATOM     48  C   UNL A   1      41.372  32.750  30.472  1.00  0.00     0.029 A 
ATOM     49  N   UNL A   1      42.565  31.276  29.310  1.00  0.00    -0.354 N 
ATOM     50  N   UNL A   1      44.913  30.337  27.844  1.00  0.00    -0.248 NA
ATOM     51  C   UNL A   1      46.996  30.729  26.870  1.00  0.00     0.031 C 
ATOM     52  C   UNL A   1      42.555  33.368  30.056  1.00  0.00     0.029 A 
ATOM     53  C   UNL A   1      43.314  32.441  29.359  1.00  0.00     0.049 A 
ATOM     54  H   UNL A   1      42.847  30.440  28.872  1.00  0.00     0.167 HD
ATOM     55  C   UNL A   1      45.294  31.646  28.099  1.00  0.00     0.074 A 
ATOM     56  C   UNL A   1      46.602  31.824  27.505  1.00  0.00     0.031 C 
ATOM     57  C   UNL A   1      44.621  32.608  28.778  1.00  0.00     0.037 A 
BRANCH  44  58
ATOM     58  C   UNL A   1      39.061  30.823  30.805  1.00  0.00     0.064 A 
ATOM     59  C   UNL A   1      37.941  31.347  30.142  1.00  0.00     0.173 A 
ATOM     60  C   UNL A   1      38.983  30.646  32.194  1.00  0.00     0.173 A 
ATOM     61  F   UNL A   1      37.977  31.560  28.818  1.00  0.00    -0.203 F 
ATOM     62  C   UNL A   1      36.800  31.711  30.852  1.00  0.00     0.198 A 
ATOM     63  C   UNL A   1      37.830  30.981  32.894  1.00  0.00     0.198 A 
ATOM     64  F   UNL A   1      40.031  30.153  32.872  1.00  0.00    -0.203 F 
ATOM     65  F   UNL A   1      35.763  32.269  30.210  1.00  0.00    -0.200 F 
ATOM     66  C   UNL A   1      36.743  31.522  32.225  1.00  0.00     0.200 A 
ATOM     67  F   UNL A   1      37.774  30.788  34.219  1.00  0.00    -0.200 F 
ATOM     68  F   UNL A   1      35.644  31.873  32.906  1.00  0.00    -0.200 F 
ENDBRANCH  44  58
BRANCH  45  69
ATOM     69  C   UNL A   1      47.289  27.957  25.971  1.00  0.00     0.064 A 
ATOM     70  C   UNL A   1      47.304  27.828  24.574  1.00  0.00     0.173 A 
ATOM     71  C   UNL A   1      48.456  27.600  26.665  1.00  0.00     0.173 A 
ATOM     72  F   UNL A   1      46.207  28.129  23.863  1.00  0.00    -0.203 F 
ATOM     73  C   UNL A   1      48.422  27.329  23.905  1.00  0.00     0.198 A 
ATOM     74  C   UNL A   1      49.582  27.125  25.993  1.00  0.00     0.198 A 
ATOM     75  F   UNL A   1      48.497  27.691  28.002  1.00  0.00    -0.203 F 
ATOM     76  F   UNL A   1      48.383  27.153  22.577  1.00  0.00    -0.200 F 
ATOM     77  C   UNL A   1      49.561  26.979  24.615  1.00  0.00     0.200 A 
ATOM     78  F   UNL A   1      50.682  26.792  26.683  1.00  0.00    -0.200 F 
ATOM     79  F   UNL A   1      50.629  26.484  23.973  1.00  0.00    -0.200 F 
ENDBRANCH  45  69
BRANCH  57  80
ATOM     80  C   UNL A   1      45.305  33.933  28.966  1.00  0.00     0.064 A 
ATOM     81  C   UNL A   1      45.126  34.994  28.069  1.00  0.00     0.173 A 
ATOM     82  C   UNL A   1      46.107  34.157  30.098  1.00  0.00     0.173 A 
ATOM     83  F   UNL A   1      44.382  34.829  26.965  1.00  0.00    -0.203 F 
ATOM     84  C   UNL A   1      45.743  36.224  28.284  1.00  0.00     0.198 A 
ATOM     85  C   UNL A   1      46.692  35.399  30.328  1.00  0.00     0.198 A 
ATOM     86  F   UNL A   1      46.307  33.177  30.991  1.00  0.00    -0.203 F 
ATOM     87  F   UNL A   1      45.598  37.210  27.387  1.00  0.00    -0.200 F 
ATOM     88  C   UNL A   1      46.516  36.428  29.417  1.00  0.00     0.200 A 
ATOM     89  F   UNL A   1      47.423  35.598  31.432  1.00  0.00    -0.200 F 
ATOM     90  F   UNL A   1      47.096  37.617  29.630  1.00  0.00    -0.200 F 
ENDBRANCH  57  80
ENDBRANCH  31  32
ENDBRANCH  24  26
ENDBRANCH  23  24
ENDBRANCH  22  23
ENDBRANCH   1  22
TORSDOF 16
ENDMDL
MODEL 3
REMARK VINA RESULT:     -10.8      4.917      9.955
REMARK SMILES CCCC1(CCC)C[NH+]([C@H]2CCC[C@@H](C(=O)OCCOC(=O)c3ccc(-c4c5nc(c(-c6c(F)c(F)c(F)c(F)c6F)c6ccc([nH]6)c(-c6c(F)c(F)c(F)c(F)c6F)c6nc(c(-c7c(F)c(F)c(F)c(F)c7F)c7ccc4[nH]7)C=C6)C=C5)cc3)C2)C1
REMARK SMILES IDX 18 1 17 2 15 3 16 4 14 5 10 6 11 7 86 8 12 9 13 10 9 11 4 12
REMARK SMILES IDX 8 13 87 14 3 16 2 17 1 18 5 19 6 20 7 21 19 22 20 23 21 24
REMARK SMILES IDX 22 25 23 26 24 27 85 28 25 29 84 30 26 31 27 32 28 33 78 34
REMARK SMILES IDX 29 35 83 36 77 37 79 38 30 39 82 40 76 41 75 42 31 44 63 45
REMARK SMILES IDX 43 46 62 47 44 48 47 49 61 50 80 51 45 52 46 53 60 55 81 56
REMARK SMILES IDX 48 57 32 58 33 59 41 60 34 61 35 62 39 63 42 64 36 65 37 66
REMARK SMILES IDX 40 67 38 68 64 69 65 70 73 71 66 72 67 73 71 74 74 75 68 76
REMARK SMILES IDX 69 77 72 78 70 79 49 80 50 81 58 82 51 83 52 84 56 85 59 86
REMARK SMILES IDX 53 87 54 88 57 89 55 90
REMARK H PARENT 9 15 79 43 47 54
REMARK Flexibility Score: inf
ROOT
ATOM      1  C   UNL A   1      38.501  21.575  25.684  1.00  0.00     0.274 C 
ENDROOT
BRANCH   1   2
ATOM      2  O   UNL A   1      37.292  22.007  25.003  1.00  0.00    -0.462 OA
BRANCH   2   3
ATOM      3  C   UNL A   1      36.301  22.511  25.766  1.00  0.00     0.309 C 
ATOM      4  O   UNL A   1      36.193  23.687  26.027  1.00  0.00    -0.252 OA
BRANCH   3   5
ATOM      5  C   UNL A   1      35.316  21.510  26.316  1.00  0.00     0.105 C 
ATOM      6  C   UNL A   1      33.041  22.822  26.050  1.00  0.00     0.184 C 
ATOM      7  C   UNL A   1      32.692  21.873  24.884  1.00  0.00     0.065 C 
ATOM      8  C   UNL A   1      34.102  22.169  26.985  1.00  0.00     0.080 C 
ATOM      9  C   UNL A   1      33.872  21.199  24.204  1.00  0.00     0.007 C 
ATOM     10  C   UNL A   1      34.866  20.564  25.183  1.00  0.00     0.016 C 
BRANCH   6  11
ATOM     11  N   UNL A   1      33.319  24.258  25.867  1.00  0.00    -0.331 N 
ATOM     12  C   UNL A   1      32.827  26.200  25.178  1.00  0.00     0.068 C 
ATOM     13  C   UNL A   1      32.223  25.190  26.251  1.00  0.00     0.275 C 
ATOM     14  C   UNL A   1      33.253  24.837  24.518  1.00  0.00     0.275 C 
ATOM     15  H   UNL A   1      34.211  24.216  26.360  1.00  0.00     0.348 HD
BRANCH  12  16
ATOM     16  C   UNL A   1      31.772  27.107  24.515  1.00  0.00     0.018 C 
BRANCH  16  17
ATOM     17  C   UNL A   1      32.089  27.518  23.084  1.00  0.00    -0.002 C 
ATOM     18  C   UNL A   1      31.479  28.865  22.794  1.00  0.00     0.004 C 
ENDBRANCH  16  17
ENDBRANCH  12  16
BRANCH  12  19
ATOM     19  C   UNL A   1      33.985  27.075  25.739  1.00  0.00     0.018 C 
BRANCH  19  20
ATOM     20  C   UNL A   1      33.674  28.570  25.906  1.00  0.00    -0.002 C 
ATOM     21  C   UNL A   1      33.462  29.111  27.312  1.00  0.00     0.004 C 
ENDBRANCH  19  20
ENDBRANCH  12  19
ENDBRANCH   6  11
ENDBRANCH   3   5
ENDBRANCH   2   3
ENDBRANCH   1   2
BRANCH   1  22
ATOM     22  C   UNL A   1      39.216  20.228  25.359  1.00  0.00     0.275 C 
BRANCH  22  23
ATOM     23  O   UNL A   1      40.022  19.640  26.415  1.00  0.00    -0.458 OA
BRANCH  23  24
ATOM     24  C   UNL A   1      41.365  19.572  26.171  1.00  0.00     0.338 C 
ATOM     25  O   UNL A   1      41.958  18.638  25.652  1.00  0.00    -0.246 OA
BRANCH  24  26
ATOM     26  C   UNL A   1      42.064  20.851  26.482  1.00  0.00     0.060 A 
ATOM     27  C   UNL A   1      42.061  21.304  27.808  1.00  0.00     0.016 A 
ATOM     28  C   UNL A   1      42.600  21.680  25.498  1.00  0.00     0.016 A 
ATOM     29  C   UNL A   1      42.706  22.486  28.187  1.00  0.00     0.010 A 
ATOM     30  C   UNL A   1      43.181  22.914  25.867  1.00  0.00     0.010 A 
ATOM     31  C   UNL A   1      43.274  23.312  27.221  1.00  0.00    -0.014 A 
BRANCH  31  32
ATOM     32  C   UNL A   1      43.753  24.670  27.618  1.00  0.00     0.031 A 
ATOM     33  C   UNL A   1      42.712  25.701  27.941  1.00  0.00     0.074 A 
ATOM     34  C   UNL A   1      45.050  24.992  27.808  1.00  0.00     0.049 A 
ATOM     35  N   UNL A   1      42.858  26.965  28.243  1.00  0.00    -0.248 NA
ATOM     36  C   UNL A   1      41.323  25.221  27.982  1.00  0.00     0.031 C 
ATOM     37  C   UNL A   1      46.165  24.059  27.798  1.00  0.00     0.029 A 
ATOM     38  N   UNL A   1      45.657  26.207  28.039  1.00  0.00    -0.354 N 
ATOM     39  C   UNL A   1      41.582  27.426  28.525  1.00  0.00     0.074 A 
ATOM     40  C   UNL A   1      40.671  26.319  28.331  1.00  0.00     0.031 C 
ATOM     41  C   UNL A   1      47.326  24.732  27.869  1.00  0.00     0.029 A 
ATOM     42  C   UNL A   1      47.034  26.156  27.986  1.00  0.00     0.049 A 
ATOM     43  H   UNL A   1      45.155  27.034  28.223  1.00  0.00     0.167 HD
ATOM     44  C   UNL A   1      41.204  28.661  28.926  1.00  0.00     0.037 A 
ATOM     45  C   UNL A   1      47.954  27.141  28.022  1.00  0.00     0.037 A 
ATOM     46  C   UNL A   1      42.104  29.767  29.104  1.00  0.00     0.049 A 
ATOM     47  C   UNL A   1      47.494  28.554  28.266  1.00  0.00     0.074 A 
ATOM     48  C   UNL A   1      41.805  31.071  29.455  1.00  0.00     0.029 A 
ATOM     49  N   UNL A   1      43.480  29.704  28.935  1.00  0.00    -0.354 N 
ATOM     50  N   UNL A   1      46.282  28.997  28.493  1.00  0.00    -0.248 NA
ATOM     51  C   UNL A   1      48.526  29.601  28.291  1.00  0.00     0.031 C 
ATOM     52  C   UNL A   1      42.990  31.812  29.431  1.00  0.00     0.029 A 
ATOM     53  C   UNL A   1      44.040  30.955  29.138  1.00  0.00     0.049 A 
ATOM     54  H   UNL A   1      43.984  28.889  28.705  1.00  0.00     0.167 HD
ATOM     55  C   UNL A   1      46.411  30.355  28.745  1.00  0.00     0.074 A 
ATOM     56  C   UNL A   1      47.820  30.667  28.640  1.00  0.00     0.031 C 
ATOM     57  C   UNL A   1      45.445  31.257  29.047  1.00  0.00     0.037 A 
BRANCH  44  58
ATOM     58  C   UNL A   1      39.737  28.886  29.121  1.00  0.00     0.064 A 
ATOM     59  C   UNL A   1      38.899  29.286  28.070  1.00  0.00     0.173 A 
ATOM     60  C   UNL A   1      39.167  28.713  30.391  1.00  0.00     0.173 A 
ATOM     61  F   UNL A   1      39.403  29.491  26.844  1.00  0.00    -0.203 F 
ATOM     62  C   UNL A   1      37.547  29.536  28.293  1.00  0.00     0.198 A 
ATOM     63  C   UNL A   1      37.810  28.932  30.601  1.00  0.00     0.198 A 
ATOM     64  F   UNL A   1      39.929  28.336  31.429  1.00  0.00    -0.203 F 
ATOM     65  F   UNL A   1      36.775  29.978  27.289  1.00  0.00    -0.200 F 
ATOM     66  C   UNL A   1      37.003  29.353  29.555  1.00  0.00     0.200 A 
ATOM     67  F   UNL A   1      37.285  28.745  31.820  1.00  0.00    -0.200 F 
ATOM     68  F   UNL A   1      35.702  29.593  29.768  1.00  0.00    -0.200 F 
ENDBRANCH  44  58
BRANCH  45  69
ATOM     69  C   UNL A   1      49.402  26.847  27.817  1.00  0.00     0.064 A 
ATOM     70  C   UNL A   1      49.956  26.741  26.532  1.00  0.00     0.173 A 
ATOM     71  C   UNL A   1      50.247  26.585  28.907  1.00  0.00     0.173 A 
ATOM     72  F   UNL A   1      49.187  26.953  25.453  1.00  0.00    -0.203 F 
ATOM     73  C   UNL A   1      51.283  26.354  26.345  1.00  0.00     0.198 A 
ATOM     74  C   UNL A   1      51.581  26.223  28.720  1.00  0.00     0.198 A 
ATOM     75  F   UNL A   1      49.771  26.659  30.159  1.00  0.00    -0.203 F 
ATOM     76  F   UNL A   1      51.764  26.196  25.104  1.00  0.00    -0.200 F 
ATOM     77  C   UNL A   1      52.095  26.096  27.439  1.00  0.00     0.200 A 
ATOM     78  F   UNL A   1      52.364  25.980  29.781  1.00  0.00    -0.200 F 
ATOM     79  F   UNL A   1      53.366  25.709  27.258  1.00  0.00    -0.200 F 
ENDBRANCH  45  69
BRANCH  57  80
ATOM     80  C   UNL A   1      45.876  32.666  29.342  1.00  0.00     0.064 A 
ATOM     81  C   UNL A   1      46.251  33.073  30.630  1.00  0.00     0.173 A 
ATOM     82  C   UNL A   1      45.969  33.607  28.303  1.00  0.00     0.173 A 
ATOM     83  F   UNL A   1      46.167  32.218  31.661  1.00  0.00    -0.203 F 
ATOM     84  C   UNL A   1      46.680  34.375  30.872  1.00  0.00     0.198 A 
ATOM     85  C   UNL A   1      46.434  34.897  28.542  1.00  0.00     0.198 A 
ATOM     86  F   UNL A   1      45.628  33.268  27.051  1.00  0.00    -0.203 F 
ATOM     87  F   UNL A   1      46.987  34.756  32.121  1.00  0.00    -0.200 F 
ATOM     88  C   UNL A   1      46.781  35.282  29.827  1.00  0.00     0.200 A 
ATOM     89  F   UNL A   1      46.547  35.764  27.528  1.00  0.00    -0.200 F 
ATOM     90  F   UNL A   1      47.210  36.530  30.060  1.00  0.00    -0.200 F 
ENDBRANCH  57  80
ENDBRANCH  31  32
ENDBRANCH  24  26
ENDBRANCH  23  24
ENDBRANCH  22  23
ENDBRANCH   1  22
TORSDOF 16
ENDMDL
