MODEL 1
REMARK VINA RESULT:     -11.2      0.000      0.000
REMARK SMILES CC[C@@](C)([NH2+][C@H]1CC[C@H](C)[C@H](C)C1)C(=O)OCCOC(=O)c1ccc(-c2c3nc(c(-c4c(F)c(F)c(F)c(F)c4F)c4ccc([nH]4)c(-c4c(F)c(F)c(F)c(F)c4F)c4nc(c(-c5c(F)c(F)c(F)c(F)c5F)c5ccc2[nH]5)C=C4)C=C3)cc1
REMARK SMILES IDX 17 1 16 2 14 3 15 4 3 5 4 6 2 7 1 8 5 9 6 12 7 13 13 14 8 15
REMARK SMILES IDX 11 16 9 17 12 18 10 19 18 20 19 21 20 22 21 23 22 24 23 25
REMARK SMILES IDX 84 26 24 27 83 28 25 29 26 30 27 31 77 32 28 33 82 34 76 35
REMARK SMILES IDX 78 36 29 37 81 38 75 39 74 40 30 42 62 43 42 44 61 45 43 46
REMARK SMILES IDX 46 47 60 48 79 49 44 50 45 51 59 53 80 54 47 55 31 56 32 57
REMARK SMILES IDX 40 58 33 59 34 60 38 61 41 62 35 63 36 64 39 65 37 66 63 67
REMARK SMILES IDX 64 68 72 69 65 70 66 71 70 72 73 73 67 74 68 75 71 76 69 77
REMARK SMILES IDX 48 78 49 79 57 80 50 81 51 82 55 83 58 84 52 85 53 86 56 87
REMARK SMILES IDX 54 88
REMARK H PARENT 5 10 5 11 78 41 46 52
REMARK Flexibility Score: inf
ROOT
ATOM      1  C   UNL A   1      31.698  28.739  27.314  1.00  0.00     0.274 C 
ENDROOT
BRANCH   1   2
ATOM      2  O   UNL A   1      32.547  27.700  26.781  1.00  0.00    -0.457 OA
BRANCH   2   3
ATOM      3  C   UNL A   1      31.924  26.703  26.090  1.00  0.00     0.367 C 
ATOM      4  O   UNL A   1      31.151  25.905  26.613  1.00  0.00    -0.245 OA
BRANCH   3   5
ATOM      5  C   UNL A   1      32.307  26.649  24.577  1.00  0.00     0.191 C 
ATOM      6  C   UNL A   1      31.207  27.357  23.768  1.00  0.00     0.092 C 
BRANCH   5   7
ATOM      7  C   UNL A   1      33.653  27.402  24.325  1.00  0.00     0.077 C 
ATOM      8  C   UNL A   1      33.632  28.546  23.316  1.00  0.00     0.011 C 
ENDBRANCH   5   7
BRANCH   5   9
ATOM      9  N   UNL A   1      32.579  25.270  24.091  1.00  0.00    -0.330 N 
ATOM     10  H   UNL A   1      32.680  25.356  23.079  1.00  0.00     0.347 HD
ATOM     11  H   UNL A   1      31.798  24.772  24.517  1.00  0.00     0.347 HD
BRANCH   9  12
ATOM     12  C   UNL A   1      33.695  24.421  24.523  1.00  0.00     0.183 C 
ATOM     13  C   UNL A   1      33.076  23.202  25.240  1.00  0.00     0.065 C 
ATOM     14  C   UNL A   1      34.774  24.026  23.502  1.00  0.00     0.068 C 
ATOM     15  C   UNL A   1      34.095  22.163  25.705  1.00  0.00     0.010 C 
ATOM     16  C   UNL A   1      35.790  22.994  24.016  1.00  0.00    -0.006 C 
ATOM     17  C   UNL A   1      35.044  21.766  24.569  1.00  0.00    -0.011 C 
ATOM     18  C   UNL A   1      36.773  23.639  25.002  1.00  0.00     0.008 C 
ATOM     19  C   UNL A   1      35.990  20.647  25.001  1.00  0.00     0.008 C 
ENDBRANCH   9  12
ENDBRANCH   5   9
ENDBRANCH   3   5
ENDBRANCH   2   3
ENDBRANCH   1   2
BRANCH   1  20
ATOM     20  C   UNL A   1      31.812  29.994  26.454  1.00  0.00     0.275 C 
BRANCH  20  21
ATOM     21  O   UNL A   1      33.206  30.337  26.386  1.00  0.00    -0.458 OA
BRANCH  21  22
ATOM     22  C   UNL A   1      33.592  31.361  27.176  1.00  0.00     0.338 C 
ATOM     23  O   UNL A   1      32.937  32.306  27.572  1.00  0.00    -0.246 OA
BRANCH  22  24
ATOM     24  C   UNL A   1      34.939  31.046  27.662  1.00  0.00     0.060 A 
ATOM     25  C   UNL A   1      35.234  29.701  27.881  1.00  0.00     0.016 A 
ATOM     26  C   UNL A   1      35.849  32.040  28.001  1.00  0.00     0.016 A 
ATOM     27  C   UNL A   1      36.415  29.338  28.519  1.00  0.00     0.010 A 
ATOM     28  C   UNL A   1      37.060  31.672  28.598  1.00  0.00     0.010 A 
ATOM     29  C   UNL A   1      37.330  30.323  28.906  1.00  0.00    -0.014 A 
BRANCH  29  30
ATOM     30  C   UNL A   1      38.480  29.962  29.777  1.00  0.00     0.031 A 
ATOM     31  C   UNL A   1      39.550  29.061  29.223  1.00  0.00     0.074 A 
ATOM     32  C   UNL A   1      38.610  30.469  31.017  1.00  0.00     0.049 A 
ATOM     33  N   UNL A   1      40.552  28.482  29.835  1.00  0.00    -0.248 NA
ATOM     34  C   UNL A   1      39.476  28.768  27.782  1.00  0.00     0.031 C 
ATOM     35  C   UNL A   1      37.702  31.427  31.644  1.00  0.00     0.029 A 
ATOM     36  N   UNL A   1      39.576  30.249  31.969  1.00  0.00    -0.354 N 
ATOM     37  C   UNL A   1      41.185  27.709  28.870  1.00  0.00     0.074 A 
ATOM     38  C   UNL A   1      40.461  27.897  27.631  1.00  0.00     0.031 C 
ATOM     39  C   UNL A   1      38.163  31.727  32.871  1.00  0.00     0.029 A 
ATOM     40  C   UNL A   1      39.360  30.933  33.140  1.00  0.00     0.049 A 
ATOM     41  H   UNL A   1      40.348  29.656  31.826  1.00  0.00     0.167 HD
ATOM     42  C   UNL A   1      42.271  26.912  29.007  1.00  0.00     0.037 A 
ATOM     43  C   UNL A   1      40.034  30.898  34.305  1.00  0.00     0.037 A 
ATOM     44  C   UNL A   1      43.028  26.776  30.222  1.00  0.00     0.049 A 
ATOM     45  C   UNL A   1      41.225  29.986  34.441  1.00  0.00     0.074 A 
ATOM     46  C   UNL A   1      44.135  25.983  30.469  1.00  0.00     0.029 A 
ATOM     47  N   UNL A   1      42.764  27.471  31.393  1.00  0.00    -0.354 N 
ATOM     48  N   UNL A   1      41.771  29.196  33.550  1.00  0.00    -0.248 NA
ATOM     49  C   UNL A   1      41.883  29.950  35.756  1.00  0.00     0.031 C 
ATOM     50  C   UNL A   1      44.527  26.182  31.798  1.00  0.00     0.029 A 
ATOM     51  C   UNL A   1      43.688  27.127  32.365  1.00  0.00     0.049 A 
ATOM     52  H   UNL A   1      42.028  28.115  31.514  1.00  0.00     0.167 HD
ATOM     53  C   UNL A   1      42.849  28.590  34.183  1.00  0.00     0.074 A 
ATOM     54  C   UNL A   1      42.887  29.114  35.533  1.00  0.00     0.031 C 
ATOM     55  C   UNL A   1      43.724  27.678  33.695  1.00  0.00     0.037 A 
BRANCH  42  56
ATOM     56  C   UNL A   1      42.674  26.091  27.819  1.00  0.00     0.064 A 
ATOM     57  C   UNL A   1      42.103  24.838  27.551  1.00  0.00     0.173 A 
ATOM     58  C   UNL A   1      43.647  26.574  26.930  1.00  0.00     0.173 A 
ATOM     59  F   UNL A   1      41.184  24.323  28.382  1.00  0.00    -0.203 F 
ATOM     60  C   UNL A   1      42.512  24.088  26.452  1.00  0.00     0.198 A 
ATOM     61  C   UNL A   1      44.033  25.833  25.818  1.00  0.00     0.198 A 
ATOM     62  F   UNL A   1      44.223  27.767  27.142  1.00  0.00    -0.203 F 
ATOM     63  F   UNL A   1      41.990  22.871  26.242  1.00  0.00    -0.200 F 
ATOM     64  C   UNL A   1      43.472  24.587  25.584  1.00  0.00     0.200 A 
ATOM     65  F   UNL A   1      44.954  26.321  24.975  1.00  0.00    -0.200 F 
ATOM     66  F   UNL A   1      43.863  23.863  24.526  1.00  0.00    -0.200 F 
ENDBRANCH  42  56
BRANCH  43  67
ATOM     67  C   UNL A   1      39.588  31.734  35.450  1.00  0.00     0.064 A 
ATOM     68  C   UNL A   1      38.597  31.281  36.332  1.00  0.00     0.173 A 
ATOM     69  C   UNL A   1      40.123  33.011  35.672  1.00  0.00     0.173 A 
ATOM     70  F   UNL A   1      38.032  30.078  36.143  1.00  0.00    -0.203 F 
ATOM     71  C   UNL A   1      38.147  32.078  37.382  1.00  0.00     0.198 A 
ATOM     72  C   UNL A   1      39.693  33.797  36.739  1.00  0.00     0.198 A 
ATOM     73  F   UNL A   1      41.068  33.495  34.853  1.00  0.00    -0.203 F 
ATOM     74  F   UNL A   1      37.164  31.640  38.181  1.00  0.00    -0.200 F 
ATOM     75  C   UNL A   1      38.700  33.333  37.589  1.00  0.00     0.200 A 
ATOM     76  F   UNL A   1      40.237  35.005  36.941  1.00  0.00    -0.200 F 
ATOM     77  F   UNL A   1      38.268  34.100  38.600  1.00  0.00    -0.200 F 
ENDBRANCH  43  67
BRANCH  55  78
ATOM     78  C   UNL A   1      44.828  27.230  34.605  1.00  0.00     0.064 A 
ATOM     79  C   UNL A   1      44.681  26.122  35.451  1.00  0.00     0.173 A 
ATOM     80  C   UNL A   1      46.060  27.903  34.607  1.00  0.00     0.173 A 
ATOM     81  F   UNL A   1      43.517  25.457  35.496  1.00  0.00    -0.203 F 
ATOM     82  C   UNL A   1      45.720  25.719  36.286  1.00  0.00     0.198 A 
ATOM     83  C   UNL A   1      47.103  27.481  35.424  1.00  0.00     0.198 A 
ATOM     84  F   UNL A   1      46.251  28.965  33.810  1.00  0.00    -0.203 F 
ATOM     85  F   UNL A   1      45.543  24.685  37.121  1.00  0.00    -0.200 F 
ATOM     86  C   UNL A   1      46.931  26.395  36.269  1.00  0.00     0.200 A 
ATOM     87  F   UNL A   1      48.276  28.129  35.399  1.00  0.00    -0.200 F 
ATOM     88  F   UNL A   1      47.930  26.004  37.072  1.00  0.00    -0.200 F 
ENDBRANCH  55  78
ENDBRANCH  29  30
ENDBRANCH  22  24
ENDBRANCH  21  22
ENDBRANCH  20  21
ENDBRANCH   1  20
TORSDOF 14
ENDMDL
MODEL 2
REMARK VINA RESULT:     -11.2      4.516      9.850
REMARK SMILES CC[C@@](C)([NH2+][C@H]1CC[C@H](C)[C@H](C)C1)C(=O)OCCOC(=O)c1ccc(-c2c3nc(c(-c4c(F)c(F)c(F)c(F)c4F)c4ccc([nH]4)c(-c4c(F)c(F)c(F)c(F)c4F)c4nc(c(-c5c(F)c(F)c(F)c(F)c5F)c5ccc2[nH]5)C=C4)C=C3)cc1
REMARK SMILES IDX 17 1 16 2 14 3 15 4 3 5 4 6 2 7 1 8 5 9 6 12 7 13 13 14 8 15
REMARK SMILES IDX 11 16 9 17 12 18 10 19 18 20 19 21 20 22 21 23 22 24 23 25
REMARK SMILES IDX 84 26 24 27 83 28 25 29 26 30 27 31 77 32 28 33 82 34 76 35
REMARK SMILES IDX 78 36 29 37 81 38 75 39 74 40 30 42 62 43 42 44 61 45 43 46
REMARK SMILES IDX 46 47 60 48 79 49 44 50 45 51 59 53 80 54 47 55 31 56 32 57
REMARK SMILES IDX 40 58 33 59 34 60 38 61 41 62 35 63 36 64 39 65 37 66 63 67
REMARK SMILES IDX 64 68 72 69 65 70 66 71 70 72 73 73 67 74 68 75 71 76 69 77
REMARK SMILES IDX 48 78 49 79 57 80 50 81 51 82 55 83 58 84 52 85 53 86 56 87
REMARK SMILES IDX 54 88
REMARK H PARENT 5 10 5 11 78 41 46 52
REMARK Flexibility Score: inf
ROOT
ATOM      1  C   UNL A   1      36.648  22.238  23.956  1.00  0.00     0.274 C 
ENDROOT
BRANCH   1   2
ATOM      2  O   UNL A   1      35.324  22.385  24.511  1.00  0.00    -0.457 OA
BRANCH   2   3
ATOM      3  C   UNL A   1      34.365  22.870  23.671  1.00  0.00     0.367 C 
ATOM      4  O   UNL A   1      34.610  23.290  22.543  1.00  0.00    -0.245 OA
BRANCH   3   5
ATOM      5  C   UNL A   1      32.930  22.870  24.286  1.00  0.00     0.191 C 
ATOM      6  C   UNL A   1      31.919  23.187  23.169  1.00  0.00     0.092 C 
BRANCH   5   7
ATOM      7  C   UNL A   1      32.581  21.463  24.867  1.00  0.00     0.077 C 
ATOM      8  C   UNL A   1      32.515  20.299  23.883  1.00  0.00     0.011 C 
ENDBRANCH   5   7
BRANCH   5   9
ATOM      9  N   UNL A   1      32.794  23.779  25.455  1.00  0.00    -0.330 N 
ATOM     10  H   UNL A   1      33.604  23.583  26.044  1.00  0.00     0.347 HD
ATOM     11  H   UNL A   1      31.844  23.554  25.749  1.00  0.00     0.347 HD
BRANCH   9  12
ATOM     12  C   UNL A   1      32.706  25.242  25.389  1.00  0.00     0.183 C 
ATOM     13  C   UNL A   1      31.381  25.640  26.076  1.00  0.00     0.065 C 
ATOM     14  C   UNL A   1      33.898  26.086  25.864  1.00  0.00     0.068 C 
ATOM     15  C   UNL A   1      31.148  27.148  26.163  1.00  0.00     0.010 C 
ATOM     16  C   UNL A   1      33.628  27.598  25.918  1.00  0.00    -0.006 C 
ATOM     17  C   UNL A   1      32.363  27.866  26.756  1.00  0.00    -0.011 C 
ATOM     18  C   UNL A   1      33.597  28.199  24.507  1.00  0.00     0.008 C 
ATOM     19  C   UNL A   1      32.089  29.357  26.947  1.00  0.00     0.008 C 
ENDBRANCH   9  12
ENDBRANCH   5   9
ENDBRANCH   3   5
ENDBRANCH   2   3
ENDBRANCH   1   2
BRANCH   1  20
ATOM     20  C   UNL A   1      37.354  21.053  24.609  1.00  0.00     0.275 C 
BRANCH  20  21
ATOM     21  O   UNL A   1      37.808  21.488  25.901  1.00  0.00    -0.458 OA
BRANCH  21  22
ATOM     22  C   UNL A   1      39.112  21.260  26.165  1.00  0.00     0.338 C 
ATOM     23  O   UNL A   1      39.798  20.308  25.849  1.00  0.00    -0.246 OA
BRANCH  22  24
ATOM     24  C   UNL A   1      39.651  22.487  26.762  1.00  0.00     0.060 A 
ATOM     25  C   UNL A   1      39.107  23.694  26.328  1.00  0.00     0.016 A 
ATOM     26  C   UNL A   1      40.732  22.465  27.636  1.00  0.00     0.016 A 
ATOM     27  C   UNL A   1      39.689  24.900  26.700  1.00  0.00     0.010 A 
ATOM     28  C   UNL A   1      41.289  23.680  28.050  1.00  0.00     0.010 A 
ATOM     29  C   UNL A   1      40.803  24.904  27.547  1.00  0.00    -0.014 A 
BRANCH  29  30
ATOM     30  C   UNL A   1      41.558  26.166  27.768  1.00  0.00     0.031 A 
ATOM     31  C   UNL A   1      40.929  27.246  28.605  1.00  0.00     0.074 A 
ATOM     32  C   UNL A   1      42.805  26.334  27.289  1.00  0.00     0.049 A 
ATOM     33  N   UNL A   1      41.317  28.481  28.803  1.00  0.00    -0.248 NA
ATOM     34  C   UNL A   1      39.690  26.886  29.314  1.00  0.00     0.031 C 
ATOM     35  C   UNL A   1      43.572  25.337  26.546  1.00  0.00     0.029 A 
ATOM     36  N   UNL A   1      43.649  27.414  27.370  1.00  0.00    -0.354 N 
ATOM     37  C   UNL A   1      40.338  29.059  29.601  1.00  0.00     0.074 A 
ATOM     38  C   UNL A   1      39.342  28.041  29.858  1.00  0.00     0.031 C 
ATOM     39  C   UNL A   1      44.782  25.844  26.254  1.00  0.00     0.029 A 
ATOM     40  C   UNL A   1      44.850  27.223  26.731  1.00  0.00     0.049 A 
ATOM     41  H   UNL A   1      43.416  28.246  27.840  1.00  0.00     0.167 HD
ATOM     42  C   UNL A   1      40.275  30.326  30.073  1.00  0.00     0.037 A 
ATOM     43  C   UNL A   1      45.872  28.076  26.527  1.00  0.00     0.037 A 
ATOM     44  C   UNL A   1      41.295  31.318  29.869  1.00  0.00     0.049 A 
ATOM     45  C   UNL A   1      45.769  29.488  27.042  1.00  0.00     0.074 A 
ATOM     46  C   UNL A   1      41.320  32.636  30.293  1.00  0.00     0.029 A 
ATOM     47  N   UNL A   1      42.488  31.091  29.198  1.00  0.00    -0.354 N 
ATOM     48  N   UNL A   1      44.805  30.053  27.726  1.00  0.00    -0.248 NA
ATOM     49  C   UNL A   1      46.893  30.386  26.738  1.00  0.00     0.031 C 
ATOM     50  C   UNL A   1      42.519  33.212  29.858  1.00  0.00     0.029 A 
ATOM     51  C   UNL A   1      43.257  32.243  29.198  1.00  0.00     0.049 A 
ATOM     52  H   UNL A   1      42.749  30.236  28.784  1.00  0.00     0.167 HD
ATOM     53  C   UNL A   1      45.215  31.360  27.958  1.00  0.00     0.074 A 
ATOM     54  C   UNL A   1      46.522  31.501  27.351  1.00  0.00     0.031 C 
ATOM     55  C   UNL A   1      44.566  32.356  28.609  1.00  0.00     0.037 A 
BRANCH  42  56
ATOM     56  C   UNL A   1      39.034  30.721  30.818  1.00  0.00     0.064 A 
ATOM     57  C   UNL A   1      38.938  30.615  32.213  1.00  0.00     0.173 A 
ATOM     58  C   UNL A   1      37.926  31.220  30.117  1.00  0.00     0.173 A 
ATOM     59  F   UNL A   1      39.963  30.124  32.926  1.00  0.00    -0.203 F 
ATOM     60  C   UNL A   1      37.766  30.969  32.876  1.00  0.00     0.198 A 
ATOM     61  C   UNL A   1      36.766  31.598  30.787  1.00  0.00     0.198 A 
ATOM     62  F   UNL A   1      37.969  31.341  28.782  1.00  0.00    -0.203 F 
ATOM     63  F   UNL A   1      37.676  30.813  34.205  1.00  0.00    -0.200 F 
ATOM     64  C   UNL A   1      36.684  31.465  32.164  1.00  0.00     0.200 A 
ATOM     65  F   UNL A   1      35.725  32.086  30.098  1.00  0.00    -0.200 F 
ATOM     66  F   UNL A   1      35.557  31.806  32.805  1.00  0.00    -0.200 F 
ENDBRANCH  42  56
BRANCH  43  67
ATOM     67  C   UNL A   1      47.078  27.630  25.781  1.00  0.00     0.064 A 
ATOM     68  C   UNL A   1      48.199  27.129  26.456  1.00  0.00     0.173 A 
ATOM     69  C   UNL A   1      47.145  27.720  24.383  1.00  0.00     0.173 A 
ATOM     70  F   UNL A   1      48.195  27.053  27.796  1.00  0.00    -0.203 F 
ATOM     71  C   UNL A   1      49.347  26.748  25.763  1.00  0.00     0.198 A 
ATOM     72  C   UNL A   1      48.282  27.313  23.689  1.00  0.00     0.198 A 
ATOM     73  F   UNL A   1      46.101  28.200  23.690  1.00  0.00    -0.203 F 
ATOM     74  F   UNL A   1      50.422  26.317  26.437  1.00  0.00    -0.200 F 
ATOM     75  C   UNL A   1      49.384  26.834  24.380  1.00  0.00     0.200 A 
ATOM     76  F   UNL A   1      48.310  27.389  22.351  1.00  0.00    -0.200 F 
ATOM     77  F   UNL A   1      50.488  26.467  23.713  1.00  0.00    -0.200 F 
ENDBRANCH  43  67
BRANCH  55  78
ATOM     78  C   UNL A   1      45.281  33.667  28.746  1.00  0.00     0.064 A 
ATOM     79  C   UNL A   1      46.140  33.928  29.823  1.00  0.00     0.173 A 
ATOM     80  C   UNL A   1      45.126  34.662  27.769  1.00  0.00     0.173 A 
ATOM     81  F   UNL A   1      46.308  33.013  30.789  1.00  0.00    -0.203 F 
ATOM     82  C   UNL A   1      46.798  35.150  29.930  1.00  0.00     0.198 A 
ATOM     83  C   UNL A   1      45.805  35.872  27.867  1.00  0.00     0.198 A 
ATOM     84  F   UNL A   1      44.320  34.456  26.717  1.00  0.00    -0.203 F 
ATOM     85  F   UNL A   1      47.579  35.397  30.991  1.00  0.00    -0.200 F 
ATOM     86  C   UNL A   1      46.635  36.118  28.951  1.00  0.00     0.200 A 
ATOM     87  F   UNL A   1      45.654  36.803  26.915  1.00  0.00    -0.200 F 
ATOM     88  F   UNL A   1      47.271  37.293  29.055  1.00  0.00    -0.200 F 
ENDBRANCH  55  78
ENDBRANCH  29  30
ENDBRANCH  22  24
ENDBRANCH  21  22
ENDBRANCH  20  21
ENDBRANCH   1  20
TORSDOF 14
ENDMDL
MODEL 3
REMARK VINA RESULT:     -11.2      0.792      2.017
REMARK SMILES CC[C@@](C)([NH2+][C@H]1CC[C@H](C)[C@H](C)C1)C(=O)OCCOC(=O)c1ccc(-c2c3nc(c(-c4c(F)c(F)c(F)c(F)c4F)c4ccc([nH]4)c(-c4c(F)c(F)c(F)c(F)c4F)c4nc(c(-c5c(F)c(F)c(F)c(F)c5F)c5ccc2[nH]5)C=C4)C=C3)cc1
REMARK SMILES IDX 17 1 16 2 14 3 15 4 3 5 4 6 2 7 1 8 5 9 6 12 7 13 13 14 8 15
REMARK SMILES IDX 11 16 9 17 12 18 10 19 18 20 19 21 20 22 21 23 22 24 23 25
REMARK SMILES IDX 84 26 24 27 83 28 25 29 26 30 27 31 77 32 28 33 82 34 76 35
REMARK SMILES IDX 78 36 29 37 81 38 75 39 74 40 30 42 62 43 42 44 61 45 43 46
REMARK SMILES IDX 46 47 60 48 79 49 44 50 45 51 59 53 80 54 47 55 31 56 32 57
REMARK SMILES IDX 40 58 33 59 34 60 38 61 41 62 35 63 36 64 39 65 37 66 63 67
REMARK SMILES IDX 64 68 72 69 65 70 66 71 70 72 73 73 67 74 68 75 71 76 69 77
REMARK SMILES IDX 48 78 49 79 57 80 50 81 51 82 55 83 58 84 52 85 53 86 56 87
REMARK SMILES IDX 54 88
REMARK H PARENT 5 10 5 11 78 41 46 52
REMARK Flexibility Score: inf
ROOT
ATOM      1  C   UNL A   1      31.496  29.094  24.940  1.00  0.00     0.274 C 
ENDROOT
BRANCH   1   2
ATOM      2  O   UNL A   1      32.251  28.016  25.534  1.00  0.00    -0.457 OA
BRANCH   2   3
ATOM      3  C   UNL A   1      31.527  27.022  26.122  1.00  0.00     0.367 C 
ATOM      4  O   UNL A   1      30.967  27.149  27.208  1.00  0.00    -0.245 OA
BRANCH   3   5
ATOM      5  C   UNL A   1      31.499  25.692  25.303  1.00  0.00     0.191 C 
ATOM      6  C   UNL A   1      31.128  24.540  26.252  1.00  0.00     0.092 C 
BRANCH   5   7
ATOM      7  C   UNL A   1      30.414  25.762  24.181  1.00  0.00     0.077 C 
ATOM      8  C   UNL A   1      30.366  24.608  23.185  1.00  0.00     0.011 C 
ENDBRANCH   5   7
BRANCH   5   9
ATOM      9  N   UNL A   1      32.761  25.438  24.558  1.00  0.00    -0.330 N 
ATOM     10  H   UNL A   1      33.337  26.265  24.712  1.00  0.00     0.347 HD
ATOM     11  H   UNL A   1      32.383  25.204  23.640  1.00  0.00     0.347 HD
BRANCH   9  12
ATOM     12  C   UNL A   1      33.657  24.295  24.769  1.00  0.00     0.183 C 
ATOM     13  C   UNL A   1      34.370  24.033  23.425  1.00  0.00     0.065 C 
ATOM     14  C   UNL A   1      34.626  24.315  25.962  1.00  0.00     0.068 C 
ATOM     15  C   UNL A   1      35.404  22.909  23.472  1.00  0.00     0.010 C 
ATOM     16  C   UNL A   1      35.635  23.156  25.982  1.00  0.00    -0.006 C 
ATOM     17  C   UNL A   1      36.382  23.099  24.635  1.00  0.00    -0.011 C 
ATOM     18  C   UNL A   1      34.954  21.844  26.388  1.00  0.00     0.008 C 
ATOM     19  C   UNL A   1      37.481  22.039  24.616  1.00  0.00     0.008 C 
ENDBRANCH   9  12
ENDBRANCH   5   9
ENDBRANCH   3   5
ENDBRANCH   2   3
ENDBRANCH   1   2
BRANCH   1  20
ATOM     20  C   UNL A   1      31.684  30.369  25.756  1.00  0.00     0.275 C 
BRANCH  20  21
ATOM     21  O   UNL A   1      32.934  30.248  26.453  1.00  0.00    -0.458 OA
BRANCH  21  22
ATOM     22  C   UNL A   1      33.333  31.347  27.127  1.00  0.00     0.338 C 
ATOM     23  O   UNL A   1      32.684  32.327  27.437  1.00  0.00    -0.246 OA
BRANCH  22  24
ATOM     24  C   UNL A   1      34.691  31.084  27.615  1.00  0.00     0.060 A 
ATOM     25  C   UNL A   1      35.027  29.755  27.866  1.00  0.00     0.016 A 
ATOM     26  C   UNL A   1      35.573  32.113  27.924  1.00  0.00     0.016 A 
ATOM     27  C   UNL A   1      36.220  29.442  28.507  1.00  0.00     0.010 A 
ATOM     28  C   UNL A   1      36.796  31.796  28.525  1.00  0.00     0.010 A 
ATOM     29  C   UNL A   1      37.108  30.464  28.865  1.00  0.00    -0.014 A 
BRANCH  29  30
ATOM     30  C   UNL A   1      38.271  30.158  29.739  1.00  0.00     0.031 A 
ATOM     31  C   UNL A   1      39.377  29.296  29.195  1.00  0.00     0.074 A 
ATOM     32  C   UNL A   1      38.380  30.682  30.974  1.00  0.00     0.049 A 
ATOM     33  N   UNL A   1      40.402  28.765  29.812  1.00  0.00    -0.248 NA
ATOM     34  C   UNL A   1      39.316  28.986  27.757  1.00  0.00     0.031 C 
ATOM     35  C   UNL A   1      37.433  31.608  31.593  1.00  0.00     0.029 A 
ATOM     36  N   UNL A   1      39.353  30.512  31.929  1.00  0.00    -0.354 N 
ATOM     37  C   UNL A   1      41.067  28.010  28.855  1.00  0.00     0.074 A 
ATOM     38  C   UNL A   1      40.336  28.155  27.614  1.00  0.00     0.031 C 
ATOM     39  C   UNL A   1      37.880  31.939  32.816  1.00  0.00     0.029 A 
ATOM     40  C   UNL A   1      39.109  31.198  33.093  1.00  0.00     0.049 A 
ATOM     41  H   UNL A   1      40.149  29.949  31.792  1.00  0.00     0.167 HD
ATOM     42  C   UNL A   1      42.184  27.259  28.999  1.00  0.00     0.037 A 
ATOM     43  C   UNL A   1      39.783  31.201  34.259  1.00  0.00     0.037 A 
ATOM     44  C   UNL A   1      42.945  27.166  30.216  1.00  0.00     0.049 A 
ATOM     45  C   UNL A   1      41.010  30.341  34.404  1.00  0.00     0.074 A 
ATOM     46  C   UNL A   1      44.083  26.421  30.471  1.00  0.00     0.029 A 
ATOM     47  N   UNL A   1      42.653  27.861  31.381  1.00  0.00    -0.354 N 
ATOM     48  N   UNL A   1      41.589  29.565  33.520  1.00  0.00    -0.248 NA
ATOM     49  C   UNL A   1      41.669  30.345  35.719  1.00  0.00     0.031 C 
ATOM     50  C   UNL A   1      44.467  26.649  31.798  1.00  0.00     0.029 A 
ATOM     51  C   UNL A   1      43.590  27.565  32.356  1.00  0.00     0.049 A 
ATOM     52  H   UNL A   1      41.891  28.475  31.495  1.00  0.00     0.167 HD
ATOM     53  C   UNL A   1      42.690  29.010  34.159  1.00  0.00     0.074 A 
ATOM     54  C   UNL A   1      42.707  29.548  35.504  1.00  0.00     0.031 C 
ATOM     55  C   UNL A   1      43.602  28.130  33.680  1.00  0.00     0.037 A 
BRANCH  42  56
ATOM     56  C   UNL A   1      42.621  26.443  27.820  1.00  0.00     0.064 A 
ATOM     57  C   UNL A   1      42.099  25.168  27.562  1.00  0.00     0.173 A 
ATOM     58  C   UNL A   1      43.577  26.955  26.929  1.00  0.00     0.173 A 
ATOM     59  F   UNL A   1      41.199  24.625  28.396  1.00  0.00    -0.203 F 
ATOM     60  C   UNL A   1      42.539  24.423  26.471  1.00  0.00     0.198 A 
ATOM     61  C   UNL A   1      43.993  26.220  25.824  1.00  0.00     0.198 A 
ATOM     62  F   UNL A   1      44.106  28.171  27.132  1.00  0.00    -0.203 F 
ATOM     63  F   UNL A   1      42.064  23.186  26.270  1.00  0.00    -0.200 F 
ATOM     64  C   UNL A   1      43.481  24.951  25.600  1.00  0.00     0.200 A 
ATOM     65  F   UNL A   1      44.897  26.736  24.979  1.00  0.00    -0.200 F 
ATOM     66  F   UNL A   1      43.901  24.233  24.549  1.00  0.00    -0.200 F 
ENDBRANCH  42  56
BRANCH  43  67
ATOM     67  C   UNL A   1      39.303  32.030  35.395  1.00  0.00     0.064 A 
ATOM     68  C   UNL A   1      39.730  33.355  35.553  1.00  0.00     0.173 A 
ATOM     69  C   UNL A   1      38.429  31.507  36.361  1.00  0.00     0.173 A 
ATOM     70  F   UNL A   1      40.591  33.890  34.673  1.00  0.00    -0.203 F 
ATOM     71  C   UNL A   1      39.314  34.122  36.640  1.00  0.00     0.198 A 
ATOM     72  C   UNL A   1      37.992  32.284  37.432  1.00  0.00     0.198 A 
ATOM     73  F   UNL A   1      37.997  30.242  36.260  1.00  0.00    -0.203 F 
ATOM     74  F   UNL A   1      39.776  35.371  36.792  1.00  0.00    -0.200 F 
ATOM     75  C   UNL A   1      38.440  33.588  37.574  1.00  0.00     0.200 A 
ATOM     76  F   UNL A   1      37.140  31.766  38.327  1.00  0.00    -0.200 F 
ATOM     77  F   UNL A   1      38.040  34.326  38.619  1.00  0.00    -0.200 F 
ENDBRANCH  43  67
BRANCH  55  78
ATOM     78  C   UNL A   1      44.724  27.736  34.595  1.00  0.00     0.064 A 
ATOM     79  C   UNL A   1      45.916  28.472  34.656  1.00  0.00     0.173 A 
ATOM     80  C   UNL A   1      44.589  26.626  35.441  1.00  0.00     0.173 A 
ATOM     81  F   UNL A   1      46.097  29.532  33.855  1.00  0.00    -0.203 F 
ATOM     82  C   UNL A   1      46.944  28.093  35.516  1.00  0.00     0.198 A 
ATOM     83  C   UNL A   1      45.609  26.266  36.316  1.00  0.00     0.198 A 
ATOM     84  F   UNL A   1      43.465  25.894  35.423  1.00  0.00    -0.203 F 
ATOM     85  F   UNL A   1      48.093  28.783  35.526  1.00  0.00    -0.200 F 
ATOM     86  C   UNL A   1      46.788  26.995  36.347  1.00  0.00     0.200 A 
ATOM     87  F   UNL A   1      45.453  25.210  37.127  1.00  0.00    -0.200 F 
ATOM     88  F   UNL A   1      47.779  26.633  37.175  1.00  0.00    -0.200 F 
ENDBRANCH  55  78
ENDBRANCH  29  30
ENDBRANCH  22  24
ENDBRANCH  21  22
ENDBRANCH  20  21
ENDBRANCH   1  20
TORSDOF 14
ENDMDL
