MODEL 1
REMARK VINA RESULT:     -13.1      0.000      0.000
REMARK SMILES O=C(OCCOC(=O)c1nc(NC[C@H]2c3ccccc3CSc3ccccc32)c2ccccc2n1)c1ccc(-c2c3nc(c(-c4c(F)c(F)c(F)c(F)c4F)c4ccc([nH]4)c(-c4c(F)c(F)c(F)c(F)c4F)c4nc(c(-c5c(F)c(F)c(F)c(F)c5F)c5ccc2[nH]5)C=C4)C=C3)cc1
REMARK SMILES IDX 5 1 4 2 3 3 2 4 1 5 36 6 37 7 98 8 38 9 97 10 39 11 40 12
REMARK SMILES IDX 41 13 91 14 42 15 96 16 90 17 92 18 43 19 95 20 89 21 88 22
REMARK SMILES IDX 44 24 76 25 56 26 75 27 57 28 60 29 74 30 93 31 58 32 59 33
REMARK SMILES IDX 73 35 94 36 61 37 45 38 46 39 54 40 47 41 48 42 52 43 55 44
REMARK SMILES IDX 49 45 50 46 53 47 51 48 77 49 78 50 86 51 79 52 80 53 84 54
REMARK SMILES IDX 87 55 81 56 82 57 85 58 83 59 62 60 63 61 71 62 64 63 65 64
REMARK SMILES IDX 69 65 72 66 66 67 67 68 70 69 68 70 6 71 7 72 8 73 9 74
REMARK SMILES IDX 10 75 35 76 11 77 34 78 29 79 33 80 30 81 32 82 31 83 12 84
REMARK SMILES IDX 13 86 14 87 15 88 28 89 16 90 20 91 23 92 27 93 17 94 19 95
REMARK SMILES IDX 21 96 22 97 24 98 26 99 18 100 25 101
REMARK H PARENT 92 23 60 34 12 85
REMARK Flexibility Score: inf
ROOT
ATOM      1  C   UNL A   1      40.537  21.275  26.694  1.00  0.00     0.275 C 
ENDROOT
BRANCH   1   2
ATOM      2  C   UNL A   1      41.952  21.372  26.119  1.00  0.00     0.275 C 
BRANCH   2   3
ATOM      3  O   UNL A   1      42.163  22.512  25.272  1.00  0.00    -0.458 OA
BRANCH   3   4
ATOM      4  C   UNL A   1      43.091  23.480  25.483  1.00  0.00     0.338 C 
ATOM      5  O   UNL A   1      44.249  23.339  25.101  1.00  0.00    -0.246 OA
BRANCH   4   6
ATOM      6  C   UNL A   1      42.784  24.593  26.420  1.00  0.00     0.060 A 
ATOM      7  C   UNL A   1      42.145  24.225  27.603  1.00  0.00     0.016 A 
ATOM      8  C   UNL A   1      43.134  25.934  26.242  1.00  0.00     0.016 A 
ATOM      9  C   UNL A   1      41.740  25.194  28.520  1.00  0.00     0.010 A 
ATOM     10  C   UNL A   1      42.737  26.910  27.171  1.00  0.00     0.010 A 
ATOM     11  C   UNL A   1      42.000  26.555  28.304  1.00  0.00    -0.014 A 
BRANCH  11  12
ATOM     12  C   UNL A   1      41.599  27.531  29.352  1.00  0.00     0.031 A 
ATOM     13  C   UNL A   1      40.413  28.448  29.186  1.00  0.00     0.074 A 
ATOM     14  C   UNL A   1      42.302  27.525  30.503  1.00  0.00     0.049 A 
ATOM     15  N   UNL A   1      39.792  29.161  30.096  1.00  0.00    -0.248 NA
ATOM     16  C   UNL A   1      39.842  28.593  27.837  1.00  0.00     0.031 C 
ATOM     17  C   UNL A   1      43.498  26.711  30.747  1.00  0.00     0.029 A 
ATOM     18  N   UNL A   1      42.115  28.195  31.684  1.00  0.00    -0.354 N 
ATOM     19  C   UNL A   1      38.730  29.783  29.446  1.00  0.00     0.074 A 
ATOM     20  C   UNL A   1      38.836  29.438  28.047  1.00  0.00     0.031 C 
ATOM     21  C   UNL A   1      43.912  26.899  32.006  1.00  0.00     0.029 A 
ATOM     22  C   UNL A   1      43.044  27.880  32.646  1.00  0.00     0.049 A 
ATOM     23  H   UNL A   1      41.385  28.841  31.829  1.00  0.00     0.167 HD
ATOM     24  C   UNL A   1      37.736  30.528  29.993  1.00  0.00     0.037 A 
ATOM     25  C   UNL A   1      43.193  28.341  33.901  1.00  0.00     0.037 A 
ATOM     26  C   UNL A   1      37.695  30.875  31.393  1.00  0.00     0.049 A 
ATOM     27  C   UNL A   1      42.192  29.326  34.422  1.00  0.00     0.074 A 
ATOM     28  C   UNL A   1      36.686  31.497  32.106  1.00  0.00     0.029 A 
ATOM     29  N   UNL A   1      38.748  30.680  32.279  1.00  0.00    -0.354 N 
ATOM     30  N   UNL A   1      41.080  29.735  33.861  1.00  0.00    -0.248 NA
ATOM     31  C   UNL A   1      42.469  29.929  35.730  1.00  0.00     0.031 C 
ATOM     32  C   UNL A   1      37.163  31.754  33.399  1.00  0.00     0.029 A 
ATOM     33  C   UNL A   1      38.457  31.265  33.500  1.00  0.00     0.049 A 
ATOM     34  H   UNL A   1      39.580  30.197  32.069  1.00  0.00     0.167 HD
ATOM     35  C   UNL A   1      40.523  30.649  34.739  1.00  0.00     0.074 A 
ATOM     36  C   UNL A   1      41.412  30.718  35.884  1.00  0.00     0.031 C 
ATOM     37  C   UNL A   1      39.378  31.363  34.607  1.00  0.00     0.037 A 
BRANCH  24  38
ATOM     38  C   UNL A   1      36.623  31.038  29.111  1.00  0.00     0.064 A 
ATOM     39  C   UNL A   1      35.541  30.233  28.720  1.00  0.00     0.173 A 
ATOM     40  C   UNL A   1      36.571  32.389  28.741  1.00  0.00     0.173 A 
ATOM     41  F   UNL A   1      35.476  28.950  29.074  1.00  0.00    -0.203 F 
ATOM     42  C   UNL A   1      34.473  30.737  27.981  1.00  0.00     0.198 A 
ATOM     43  C   UNL A   1      35.491  32.899  28.015  1.00  0.00     0.198 A 
ATOM     44  F   UNL A   1      37.556  33.223  29.103  1.00  0.00    -0.203 F 
ATOM     45  F   UNL A   1      33.467  29.925  27.626  1.00  0.00    -0.200 F 
ATOM     46  C   UNL A   1      34.446  32.073  27.633  1.00  0.00     0.200 A 
ATOM     47  F   UNL A   1      35.456  34.199  27.695  1.00  0.00    -0.200 F 
ATOM     48  F   UNL A   1      33.408  32.562  26.939  1.00  0.00    -0.200 F 
ENDBRANCH  24  38
BRANCH  25  49
ATOM     49  C   UNL A   1      44.351  27.877  34.709  1.00  0.00     0.064 A 
ATOM     50  C   UNL A   1      45.565  28.572  34.707  1.00  0.00     0.173 A 
ATOM     51  C   UNL A   1      44.228  26.777  35.576  1.00  0.00     0.173 A 
ATOM     52  F   UNL A   1      45.738  29.618  33.886  1.00  0.00    -0.203 F 
ATOM     53  C   UNL A   1      46.606  28.198  35.557  1.00  0.00     0.198 A 
ATOM     54  C   UNL A   1      45.258  26.422  36.441  1.00  0.00     0.198 A 
ATOM     55  F   UNL A   1      43.082  26.081  35.615  1.00  0.00    -0.203 F 
ATOM     56  F   UNL A   1      47.761  28.878  35.537  1.00  0.00    -0.200 F 
ATOM     57  C   UNL A   1      46.447  27.133  36.432  1.00  0.00     0.200 A 
ATOM     58  F   UNL A   1      45.090  25.405  37.298  1.00  0.00    -0.200 F 
ATOM     59  F   UNL A   1      47.435  26.799  37.272  1.00  0.00    -0.200 F 
ENDBRANCH  25  49
BRANCH  37  60
ATOM     60  C   UNL A   1      39.051  32.328  35.705  1.00  0.00     0.064 A 
ATOM     61  C   UNL A   1      38.285  31.925  36.809  1.00  0.00     0.173 A 
ATOM     62  C   UNL A   1      39.537  33.643  35.682  1.00  0.00     0.173 A 
ATOM     63  F   UNL A   1      37.778  30.684  36.862  1.00  0.00    -0.203 F 
ATOM     64  C   UNL A   1      38.015  32.808  37.851  1.00  0.00     0.198 A 
ATOM     65  C   UNL A   1      39.286  34.515  36.738  1.00  0.00     0.198 A 
ATOM     66  F   UNL A   1      40.270  34.074  34.644  1.00  0.00    -0.203 F 
ATOM     67  F   UNL A   1      37.258  32.411  38.883  1.00  0.00    -0.200 F 
ATOM     68  C   UNL A   1      38.525  34.097  37.819  1.00  0.00     0.200 A 
ATOM     69  F   UNL A   1      39.785  35.758  36.709  1.00  0.00    -0.200 F 
ATOM     70  F   UNL A   1      38.276  34.942  38.830  1.00  0.00    -0.200 F 
ENDBRANCH  37  60
ENDBRANCH  11  12
ENDBRANCH   4   6
ENDBRANCH   3   4
ENDBRANCH   2   3
ENDBRANCH   1   2
BRANCH   1  71
ATOM     71  O   UNL A   1      39.510  21.667  25.767  1.00  0.00    -0.456 OA
BRANCH  71  72
ATOM     72  C   UNL A   1      38.723  22.710  26.184  1.00  0.00     0.376 C 
ATOM     73  O   UNL A   1      39.105  23.696  26.782  1.00  0.00    -0.242 OA
BRANCH  72  74
ATOM     74  C   UNL A   1      37.319  22.503  25.702  1.00  0.00     0.241 A 
ATOM     75  N   UNL A   1      36.693  23.612  25.269  1.00  0.00    -0.204 NA
ATOM     76  N   UNL A   1      36.845  21.240  25.641  1.00  0.00    -0.222 NA
ATOM     77  C   UNL A   1      35.533  23.419  24.631  1.00  0.00     0.138 A 
ATOM     78  C   UNL A   1      35.624  21.097  25.100  1.00  0.00     0.077 A 
ATOM     79  C   UNL A   1      34.919  22.167  24.540  1.00  0.00     0.043 A 
ATOM     80  C   UNL A   1      35.019  19.849  25.041  1.00  0.00     0.029 A 
ATOM     81  C   UNL A   1      33.672  21.963  23.897  1.00  0.00     0.014 A 
ATOM     82  C   UNL A   1      33.792  19.651  24.389  1.00  0.00     0.002 A 
ATOM     83  C   UNL A   1      33.120  20.703  23.803  1.00  0.00     0.001 A 
BRANCH  77  84
ATOM     84  N   UNL A   1      34.967  24.474  23.949  1.00  0.00    -0.368 N 
ATOM     85  H   UNL A   1      34.919  24.416  22.967  1.00  0.00     0.162 HD
BRANCH  84  86
ATOM     86  C   UNL A   1      34.438  25.663  24.583  1.00  0.00     0.127 C 
BRANCH  86  87
ATOM     87  C   UNL A   1      32.871  25.721  24.458  1.00  0.00     0.070 C 
ATOM     88  C   UNL A   1      32.155  24.687  25.353  1.00  0.00    -0.035 A 
ATOM     89  C   UNL A   1      32.278  27.136  24.506  1.00  0.00    -0.025 A 
ATOM     90  C   UNL A   1      32.718  24.199  26.549  1.00  0.00     0.005 A 
ATOM     91  C   UNL A   1      30.927  24.137  24.930  1.00  0.00    -0.034 A 
ATOM     92  C   UNL A   1      30.898  27.430  24.388  1.00  0.00     0.011 A 
ATOM     93  C   UNL A   1      33.168  28.241  24.583  1.00  0.00     0.005 A 
ATOM     94  C   UNL A   1      32.131  23.140  27.248  1.00  0.00     0.000 A 
ATOM     95  C   UNL A   1      30.333  23.087  25.655  1.00  0.00     0.005 A 
ATOM     96  C   UNL A   1      30.200  24.721  23.751  1.00  0.00     0.110 C 
ATOM     97  S   UNL A   1      29.489  26.328  24.178  1.00  0.00    -0.121 SA
ATOM     98  C   UNL A   1      30.481  28.781  24.422  1.00  0.00     0.015 A 
ATOM     99  C   UNL A   1      32.734  29.565  24.579  1.00  0.00     0.000 A 
ATOM    100  C   UNL A   1      30.945  22.578  26.796  1.00  0.00     0.000 A 
ATOM    101  C   UNL A   1      31.383  29.838  24.513  1.00  0.00     0.001 A 
ENDBRANCH  86  87
ENDBRANCH  84  86
ENDBRANCH  77  84
ENDBRANCH  72  74
ENDBRANCH  71  72
ENDBRANCH   1  71
TORSDOF 14
ENDMDL
MODEL 2
REMARK VINA RESULT:     -13.0      3.927      8.682
REMARK SMILES O=C(OCCOC(=O)c1nc(NC[C@H]2c3ccccc3CSc3ccccc32)c2ccccc2n1)c1ccc(-c2c3nc(c(-c4c(F)c(F)c(F)c(F)c4F)c4ccc([nH]4)c(-c4c(F)c(F)c(F)c(F)c4F)c4nc(c(-c5c(F)c(F)c(F)c(F)c5F)c5ccc2[nH]5)C=C4)C=C3)cc1
REMARK SMILES IDX 5 1 4 2 3 3 2 4 1 5 36 6 37 7 98 8 38 9 97 10 39 11 40 12
REMARK SMILES IDX 41 13 91 14 42 15 96 16 90 17 92 18 43 19 95 20 89 21 88 22
REMARK SMILES IDX 44 24 76 25 56 26 75 27 57 28 60 29 74 30 93 31 58 32 59 33
REMARK SMILES IDX 73 35 94 36 61 37 45 38 46 39 54 40 47 41 48 42 52 43 55 44
REMARK SMILES IDX 49 45 50 46 53 47 51 48 77 49 78 50 86 51 79 52 80 53 84 54
REMARK SMILES IDX 87 55 81 56 82 57 85 58 83 59 62 60 63 61 71 62 64 63 65 64
REMARK SMILES IDX 69 65 72 66 66 67 67 68 70 69 68 70 6 71 7 72 8 73 9 74
REMARK SMILES IDX 10 75 35 76 11 77 34 78 29 79 33 80 30 81 32 82 31 83 12 84
REMARK SMILES IDX 13 86 14 87 15 88 28 89 16 90 20 91 23 92 27 93 17 94 19 95
REMARK SMILES IDX 21 96 22 97 24 98 26 99 18 100 25 101
REMARK H PARENT 92 23 60 34 12 85
REMARK Flexibility Score: inf
ROOT
ATOM      1  C   UNL A   1      31.705  30.411  25.592  1.00  0.00     0.275 C 
ENDROOT
BRANCH   1   2
ATOM      2  C   UNL A   1      32.292  30.043  26.957  1.00  0.00     0.275 C 
BRANCH   2   3
ATOM      3  O   UNL A   1      33.723  29.935  26.970  1.00  0.00    -0.458 OA
BRANCH   3   4
ATOM      4  C   UNL A   1      34.561  30.740  27.670  1.00  0.00     0.338 C 
ATOM      5  O   UNL A   1      34.331  31.940  27.789  1.00  0.00    -0.246 OA
BRANCH   4   6
ATOM      6  C   UNL A   1      35.904  30.234  28.060  1.00  0.00     0.060 A 
ATOM      7  C   UNL A   1      36.002  29.723  29.353  1.00  0.00     0.016 A 
ATOM      8  C   UNL A   1      37.029  30.174  27.234  1.00  0.00     0.016 A 
ATOM      9  C   UNL A   1      37.230  29.292  29.853  1.00  0.00     0.010 A 
ATOM     10  C   UNL A   1      38.265  29.729  27.733  1.00  0.00     0.010 A 
ATOM     11  C   UNL A   1      38.387  29.319  29.063  1.00  0.00    -0.014 A 
BRANCH  11  12
ATOM     12  C   UNL A   1      39.653  28.785  29.635  1.00  0.00     0.031 A 
ATOM     13  C   UNL A   1      40.278  27.503  29.148  1.00  0.00     0.074 A 
ATOM     14  C   UNL A   1      40.269  29.532  30.574  1.00  0.00     0.049 A 
ATOM     15  N   UNL A   1      41.489  27.046  29.362  1.00  0.00    -0.248 NA
ATOM     16  C   UNL A   1      39.453  26.611  28.317  1.00  0.00     0.031 C 
ATOM     17  C   UNL A   1      39.723  30.766  31.151  1.00  0.00     0.029 A 
ATOM     18  N   UNL A   1      41.482  29.389  31.195  1.00  0.00    -0.354 N 
ATOM     19  C   UNL A   1      41.589  25.856  28.647  1.00  0.00     0.074 A 
ATOM     20  C   UNL A   1      40.292  25.610  28.061  1.00  0.00     0.031 C 
ATOM     21  C   UNL A   1      40.612  31.285  32.007  1.00  0.00     0.029 A 
ATOM     22  C   UNL A   1      41.768  30.401  32.079  1.00  0.00     0.049 A 
ATOM     23  H   UNL A   1      42.091  28.633  31.024  1.00  0.00     0.167 HD
ATOM     24  C   UNL A   1      42.688  25.080  28.465  1.00  0.00     0.037 A 
ATOM     25  C   UNL A   1      42.837  30.591  32.874  1.00  0.00     0.037 A 
ATOM     26  C   UNL A   1      43.955  25.351  29.102  1.00  0.00     0.049 A 
ATOM     27  C   UNL A   1      43.961  29.603  32.804  1.00  0.00     0.074 A 
ATOM     28  C   UNL A   1      45.178  24.739  28.899  1.00  0.00     0.029 A 
ATOM     29  N   UNL A   1      44.135  26.280  30.119  1.00  0.00    -0.354 N 
ATOM     30  N   UNL A   1      44.123  28.608  31.968  1.00  0.00    -0.248 NA
ATOM     31  C   UNL A   1      45.036  29.747  33.792  1.00  0.00     0.031 C 
ATOM     32  C   UNL A   1      46.076  25.239  29.853  1.00  0.00     0.029 A 
ATOM     33  C   UNL A   1      45.420  26.183  30.628  1.00  0.00     0.049 A 
ATOM     34  H   UNL A   1      43.451  26.913  30.433  1.00  0.00     0.167 HD
ATOM     35  C   UNL A   1      45.312  27.996  32.327  1.00  0.00     0.074 A 
ATOM     36  C   UNL A   1      45.844  28.750  33.448  1.00  0.00     0.031 C 
ATOM     37  C   UNL A   1      45.908  26.910  31.776  1.00  0.00     0.037 A 
BRANCH  24  38
ATOM     38  C   UNL A   1      42.598  23.869  27.569  1.00  0.00     0.064 A 
ATOM     39  C   UNL A   1      42.954  23.905  26.211  1.00  0.00     0.173 A 
ATOM     40  C   UNL A   1      42.260  22.617  28.100  1.00  0.00     0.173 A 
ATOM     41  F   UNL A   1      43.343  25.041  25.634  1.00  0.00    -0.203 F 
ATOM     42  C   UNL A   1      42.954  22.762  25.416  1.00  0.00     0.198 A 
ATOM     43  C   UNL A   1      42.277  21.466  27.306  1.00  0.00     0.198 A 
ATOM     44  F   UNL A   1      41.936  22.501  29.395  1.00  0.00    -0.203 F 
ATOM     45  F   UNL A   1      43.295  22.851  24.122  1.00  0.00    -0.200 F 
ATOM     46  C   UNL A   1      42.619  21.540  25.965  1.00  0.00     0.200 A 
ATOM     47  F   UNL A   1      41.972  20.278  27.845  1.00  0.00    -0.200 F 
ATOM     48  F   UNL A   1      42.639  20.437  25.204  1.00  0.00    -0.200 F 
ENDBRANCH  24  38
BRANCH  25  49
ATOM     49  C   UNL A   1      42.851  31.751  33.802  1.00  0.00     0.064 A 
ATOM     50  C   UNL A   1      43.408  32.978  33.426  1.00  0.00     0.173 A 
ATOM     51  C   UNL A   1      42.217  31.677  35.055  1.00  0.00     0.173 A 
ATOM     52  F   UNL A   1      44.038  33.095  32.247  1.00  0.00    -0.203 F 
ATOM     53  C   UNL A   1      43.312  34.094  34.257  1.00  0.00     0.198 A 
ATOM     54  C   UNL A   1      42.100  32.799  35.872  1.00  0.00     0.198 A 
ATOM     55  F   UNL A   1      41.667  30.524  35.460  1.00  0.00    -0.203 F 
ATOM     56  F   UNL A   1      43.853  35.260  33.875  1.00  0.00    -0.200 F 
ATOM     57  C   UNL A   1      42.647  34.007  35.471  1.00  0.00     0.200 A 
ATOM     58  F   UNL A   1      41.439  32.712  37.033  1.00  0.00    -0.200 F 
ATOM     59  F   UNL A   1      42.524  35.090  36.251  1.00  0.00    -0.200 F 
ENDBRANCH  25  49
BRANCH  37  60
ATOM     60  C   UNL A   1      47.176  26.435  32.416  1.00  0.00     0.064 A 
ATOM     61  C   UNL A   1      47.158  25.396  33.358  1.00  0.00     0.173 A 
ATOM     62  C   UNL A   1      48.417  26.981  32.059  1.00  0.00     0.173 A 
ATOM     63  F   UNL A   1      45.991  24.860  33.749  1.00  0.00    -0.203 F 
ATOM     64  C   UNL A   1      48.339  24.923  33.924  1.00  0.00     0.198 A 
ATOM     65  C   UNL A   1      49.598  26.489  32.607  1.00  0.00     0.198 A 
ATOM     66  F   UNL A   1      48.483  27.979  31.165  1.00  0.00    -0.203 F 
ATOM     67  F   UNL A   1      48.296  23.950  34.844  1.00  0.00    -0.200 F 
ATOM     68  C   UNL A   1      49.557  25.463  33.539  1.00  0.00     0.200 A 
ATOM     69  F   UNL A   1      50.775  27.006  32.230  1.00  0.00    -0.200 F 
ATOM     70  F   UNL A   1      50.695  24.997  34.074  1.00  0.00    -0.200 F 
ENDBRANCH  37  60
ENDBRANCH  11  12
ENDBRANCH   4   6
ENDBRANCH   3   4
ENDBRANCH   2   3
ENDBRANCH   1   2
BRANCH   1  71
ATOM     71  O   UNL A   1      31.305  29.272  24.812  1.00  0.00    -0.456 OA
BRANCH  71  72
ATOM     72  C   UNL A   1      32.339  28.540  24.286  1.00  0.00     0.376 C 
ATOM     73  O   UNL A   1      33.216  28.966  23.562  1.00  0.00    -0.242 OA
BRANCH  72  74
ATOM     74  C   UNL A   1      32.286  27.140  24.820  1.00  0.00     0.241 A 
ATOM     75  N   UNL A   1      33.483  26.555  25.010  1.00  0.00    -0.204 NA
ATOM     76  N   UNL A   1      31.083  26.632  25.162  1.00  0.00    -0.222 NA
ATOM     77  C   UNL A   1      33.470  25.403  25.690  1.00  0.00     0.138 A 
ATOM     78  C   UNL A   1      31.100  25.419  25.738  1.00  0.00     0.077 A 
ATOM     79  C   UNL A   1      32.288  24.756  26.060  1.00  0.00     0.043 A 
ATOM     80  C   UNL A   1      29.914  24.780  26.076  1.00  0.00     0.029 A 
ATOM     81  C   UNL A   1      32.269  23.517  26.750  1.00  0.00     0.014 A 
ATOM     82  C   UNL A   1      29.903  23.562  26.772  1.00  0.00     0.002 A 
ATOM     83  C   UNL A   1      31.078  22.932  27.123  1.00  0.00     0.001 A 
BRANCH  77  84
ATOM     84  N   UNL A   1      34.666  24.880  26.133  1.00  0.00    -0.368 N 
ATOM     85  H   UNL A   1      34.883  24.971  27.089  1.00  0.00     0.162 HD
BRANCH  84  86
ATOM     86  C   UNL A   1      35.624  24.207  25.283  1.00  0.00     0.127 C 
BRANCH  86  87
ATOM     87  C   UNL A   1      35.264  22.684  25.120  1.00  0.00     0.070 C 
ATOM     88  C   UNL A   1      34.266  22.420  23.973  1.00  0.00    -0.035 A 
ATOM     89  C   UNL A   1      36.469  21.735  25.159  1.00  0.00    -0.025 A 
ATOM     90  C   UNL A   1      34.162  23.260  22.847  1.00  0.00     0.005 A 
ATOM     91  C   UNL A   1      33.357  21.345  24.080  1.00  0.00    -0.034 A 
ATOM     92  C   UNL A   1      36.381  20.325  25.056  1.00  0.00     0.011 A 
ATOM     93  C   UNL A   1      37.756  22.284  25.403  1.00  0.00     0.005 A 
ATOM     94  C   UNL A   1      33.136  23.097  21.911  1.00  0.00     0.000 A 
ATOM     95  C   UNL A   1      32.344  21.176  23.118  1.00  0.00     0.005 A 
ATOM     96  C   UNL A   1      33.514  20.325  25.171  1.00  0.00     0.110 C 
ATOM     97  S   UNL A   1      34.942  19.263  24.846  1.00  0.00    -0.121 SA
ATOM     98  C   UNL A   1      37.567  19.558  25.133  1.00  0.00     0.015 A 
ATOM     99  C   UNL A   1      38.905  21.502  25.508  1.00  0.00     0.000 A 
ATOM    100  C   UNL A   1      32.222  22.061  22.052  1.00  0.00     0.000 A 
ATOM    101  C   UNL A   1      38.814  20.134  25.359  1.00  0.00     0.001 A 
ENDBRANCH  86  87
ENDBRANCH  84  86
ENDBRANCH  77  84
ENDBRANCH  72  74
ENDBRANCH  71  72
ENDBRANCH   1  71
TORSDOF 14
ENDMDL
MODEL 3
REMARK VINA RESULT:     -12.9      3.282      8.979
REMARK SMILES O=C(OCCOC(=O)c1nc(NC[C@H]2c3ccccc3CSc3ccccc32)c2ccccc2n1)c1ccc(-c2c3nc(c(-c4c(F)c(F)c(F)c(F)c4F)c4ccc([nH]4)c(-c4c(F)c(F)c(F)c(F)c4F)c4nc(c(-c5c(F)c(F)c(F)c(F)c5F)c5ccc2[nH]5)C=C4)C=C3)cc1
REMARK SMILES IDX 5 1 4 2 3 3 2 4 1 5 36 6 37 7 98 8 38 9 97 10 39 11 40 12
REMARK SMILES IDX 41 13 91 14 42 15 96 16 90 17 92 18 43 19 95 20 89 21 88 22
REMARK SMILES IDX 44 24 76 25 56 26 75 27 57 28 60 29 74 30 93 31 58 32 59 33
REMARK SMILES IDX 73 35 94 36 61 37 45 38 46 39 54 40 47 41 48 42 52 43 55 44
REMARK SMILES IDX 49 45 50 46 53 47 51 48 77 49 78 50 86 51 79 52 80 53 84 54
REMARK SMILES IDX 87 55 81 56 82 57 85 58 83 59 62 60 63 61 71 62 64 63 65 64
REMARK SMILES IDX 69 65 72 66 66 67 67 68 70 69 68 70 6 71 7 72 8 73 9 74
REMARK SMILES IDX 10 75 35 76 11 77 34 78 29 79 33 80 30 81 32 82 31 83 12 84
REMARK SMILES IDX 13 86 14 87 15 88 28 89 16 90 20 91 23 92 27 93 17 94 19 95
REMARK SMILES IDX 21 96 22 97 24 98 26 99 18 100 25 101
REMARK H PARENT 92 23 60 34 12 85
REMARK Flexibility Score: inf
ROOT
ATOM      1  C   UNL A   1      33.362  31.948  27.252  1.00  0.00     0.275 C 
ENDROOT
BRANCH   1   2
ATOM      2  C   UNL A   1      32.178  32.872  27.547  1.00  0.00     0.275 C 
BRANCH   2   3
ATOM      3  O   UNL A   1      32.530  34.260  27.658  1.00  0.00    -0.458 OA
BRANCH   3   4
ATOM      4  C   UNL A   1      32.997  34.859  28.782  1.00  0.00     0.338 C 
ATOM      5  O   UNL A   1      32.631  35.988  29.094  1.00  0.00    -0.246 OA
BRANCH   4   6
ATOM      6  C   UNL A   1      34.161  34.270  29.494  1.00  0.00     0.060 A 
ATOM      7  C   UNL A   1      35.397  34.438  28.869  1.00  0.00     0.016 A 
ATOM      8  C   UNL A   1      34.126  33.634  30.738  1.00  0.00     0.016 A 
ATOM      9  C   UNL A   1      36.546  33.861  29.407  1.00  0.00     0.010 A 
ATOM     10  C   UNL A   1      35.286  33.062  31.286  1.00  0.00     0.010 A 
ATOM     11  C   UNL A   1      36.505  33.136  30.606  1.00  0.00    -0.014 A 
BRANCH  11  12
ATOM     12  C   UNL A   1      37.778  32.601  31.159  1.00  0.00     0.031 A 
ATOM     13  C   UNL A   1      38.434  33.190  32.382  1.00  0.00     0.074 A 
ATOM     14  C   UNL A   1      38.300  31.511  30.562  1.00  0.00     0.049 A 
ATOM     15  N   UNL A   1      39.391  32.686  33.125  1.00  0.00    -0.248 NA
ATOM     16  C   UNL A   1      37.971  34.511  32.840  1.00  0.00     0.031 C 
ATOM     17  C   UNL A   1      37.769  30.892  29.343  1.00  0.00     0.029 A 
ATOM     18  N   UNL A   1      39.368  30.718  30.894  1.00  0.00    -0.354 N 
ATOM     19  C   UNL A   1      39.597  33.590  34.163  1.00  0.00     0.074 A 
ATOM     20  C   UNL A   1      38.731  34.719  33.913  1.00  0.00     0.031 C 
ATOM     21  C   UNL A   1      38.486  29.797  29.054  1.00  0.00     0.029 A 
ATOM     22  C   UNL A   1      39.554  29.662  30.035  1.00  0.00     0.049 A 
ATOM     23  H   UNL A   1      39.945  30.889  31.674  1.00  0.00     0.167 HD
ATOM     24  C   UNL A   1      40.402  33.449  35.247  1.00  0.00     0.037 A 
ATOM     25  C   UNL A   1      40.492  28.697  30.027  1.00  0.00     0.037 A 
ATOM     26  C   UNL A   1      41.276  32.317  35.434  1.00  0.00     0.049 A 
ATOM     27  C   UNL A   1      41.505  28.679  31.131  1.00  0.00     0.074 A 
ATOM     28  C   UNL A   1      42.034  31.976  36.539  1.00  0.00     0.029 A 
ATOM     29  N   UNL A   1      41.553  31.372  34.452  1.00  0.00    -0.354 N 
ATOM     30  N   UNL A   1      41.547  29.418  32.213  1.00  0.00    -0.248 NA
ATOM     31  C   UNL A   1      42.606  27.717  31.009  1.00  0.00     0.031 C 
ATOM     32  C   UNL A   1      42.833  30.876  36.195  1.00  0.00     0.029 A 
ATOM     33  C   UNL A   1      42.550  30.514  34.887  1.00  0.00     0.049 A 
ATOM     34  H   UNL A   1      41.108  31.322  33.576  1.00  0.00     0.167 HD
ATOM     35  C   UNL A   1      42.680  29.020  32.903  1.00  0.00     0.074 A 
ATOM     36  C   UNL A   1      43.287  27.956  32.124  1.00  0.00     0.031 C 
ATOM     37  C   UNL A   1      43.170  29.494  34.074  1.00  0.00     0.037 A 
BRANCH  24  38
ATOM     38  C   UNL A   1      40.408  34.523  36.308  1.00  0.00     0.064 A 
ATOM     39  C   UNL A   1      39.530  34.504  37.405  1.00  0.00     0.173 A 
ATOM     40  C   UNL A   1      41.383  35.528  36.297  1.00  0.00     0.173 A 
ATOM     41  F   UNL A   1      38.607  33.551  37.529  1.00  0.00    -0.203 F 
ATOM     42  C   UNL A   1      39.603  35.448  38.426  1.00  0.00     0.198 A 
ATOM     43  C   UNL A   1      41.468  36.466  37.331  1.00  0.00     0.198 A 
ATOM     44  F   UNL A   1      42.272  35.592  35.296  1.00  0.00    -0.203 F 
ATOM     45  F   UNL A   1      38.738  35.391  39.448  1.00  0.00    -0.200 F 
ATOM     46  C   UNL A   1      40.576  36.427  38.392  1.00  0.00     0.200 A 
ATOM     47  F   UNL A   1      42.425  37.402  37.306  1.00  0.00    -0.200 F 
ATOM     48  F   UNL A   1      40.659  37.324  39.385  1.00  0.00    -0.200 F 
ENDBRANCH  24  38
BRANCH  25  49
ATOM     49  C   UNL A   1      40.503  27.709  28.918  1.00  0.00     0.064 A 
ATOM     50  C   UNL A   1      39.714  26.554  28.965  1.00  0.00     0.173 A 
ATOM     51  C   UNL A   1      41.236  27.953  27.744  1.00  0.00     0.173 A 
ATOM     52  F   UNL A   1      39.009  26.268  30.069  1.00  0.00    -0.203 F 
ATOM     53  C   UNL A   1      39.640  25.692  27.870  1.00  0.00     0.198 A 
ATOM     54  C   UNL A   1      41.141  27.105  26.644  1.00  0.00     0.198 A 
ATOM     55  F   UNL A   1      42.006  29.047  27.651  1.00  0.00    -0.203 F 
ATOM     56  F   UNL A   1      38.877  24.592  27.938  1.00  0.00    -0.200 F 
ATOM     57  C   UNL A   1      40.342  25.975  26.707  1.00  0.00     0.200 A 
ATOM     58  F   UNL A   1      41.806  27.396  25.518  1.00  0.00    -0.200 F 
ATOM     59  F   UNL A   1      40.241  25.165  25.646  1.00  0.00    -0.200 F 
ENDBRANCH  25  49
BRANCH  37  60
ATOM     60  C   UNL A   1      44.459  28.905  34.558  1.00  0.00     0.064 A 
ATOM     61  C   UNL A   1      45.685  29.514  34.252  1.00  0.00     0.173 A 
ATOM     62  C   UNL A   1      44.474  27.758  35.365  1.00  0.00     0.173 A 
ATOM     63  F   UNL A   1      45.722  30.598  33.463  1.00  0.00    -0.203 F 
ATOM     64  C   UNL A   1      46.882  28.993  34.736  1.00  0.00     0.198 A 
ATOM     65  C   UNL A   1      45.671  27.255  35.867  1.00  0.00     0.198 A 
ATOM     66  F   UNL A   1      43.327  27.139  35.680  1.00  0.00    -0.203 F 
ATOM     67  F   UNL A   1      48.044  29.573  34.408  1.00  0.00    -0.200 F 
ATOM     68  C   UNL A   1      46.872  27.871  35.551  1.00  0.00     0.200 A 
ATOM     69  F   UNL A   1      45.659  26.175  36.661  1.00  0.00    -0.200 F 
ATOM     70  F   UNL A   1      48.024  27.378  36.028  1.00  0.00    -0.200 F 
ENDBRANCH  37  60
ENDBRANCH  11  12
ENDBRANCH   4   6
ENDBRANCH   3   4
ENDBRANCH   2   3
ENDBRANCH   1   2
BRANCH   1  71
ATOM     71  O   UNL A   1      33.079  30.558  27.486  1.00  0.00    -0.456 OA
BRANCH  71  72
ATOM     72  C   UNL A   1      34.033  29.689  27.022  1.00  0.00     0.376 C 
ATOM     73  O   UNL A   1      35.215  29.713  27.300  1.00  0.00    -0.242 OA
BRANCH  72  74
ATOM     74  C   UNL A   1      33.381  28.628  26.187  1.00  0.00     0.241 A 
ATOM     75  N   UNL A   1      33.981  27.424  26.220  1.00  0.00    -0.204 NA
ATOM     76  N   UNL A   1      32.217  28.925  25.571  1.00  0.00    -0.222 NA
ATOM     77  C   UNL A   1      33.299  26.414  25.670  1.00  0.00     0.138 A 
ATOM     78  C   UNL A   1      31.618  27.911  24.927  1.00  0.00     0.077 A 
ATOM     79  C   UNL A   1      32.106  26.601  24.967  1.00  0.00     0.043 A 
ATOM     80  C   UNL A   1      30.445  28.121  24.213  1.00  0.00     0.029 A 
ATOM     81  C   UNL A   1      31.398  25.539  24.351  1.00  0.00     0.014 A 
ATOM     82  C   UNL A   1      29.742  27.063  23.618  1.00  0.00     0.002 A 
ATOM     83  C   UNL A   1      30.206  25.766  23.695  1.00  0.00     0.001 A 
BRANCH  77  84
ATOM     84  N   UNL A   1      33.733  25.124  25.886  1.00  0.00    -0.368 N 
ATOM     85  H   UNL A   1      33.187  24.544  26.465  1.00  0.00     0.162 HD
BRANCH  84  86
ATOM     86  C   UNL A   1      34.941  24.566  25.317  1.00  0.00     0.127 C 
BRANCH  86  87
ATOM     87  C   UNL A   1      34.823  23.005  25.156  1.00  0.00     0.070 C 
ATOM     88  C   UNL A   1      33.931  22.588  23.967  1.00  0.00    -0.035 A 
ATOM     89  C   UNL A   1      36.154  22.249  25.261  1.00  0.00    -0.025 A 
ATOM     90  C   UNL A   1      33.754  23.397  22.828  1.00  0.00     0.005 A 
ATOM     91  C   UNL A   1      33.191  21.389  24.045  1.00  0.00    -0.034 A 
ATOM     92  C   UNL A   1      36.284  20.841  25.172  1.00  0.00     0.011 A 
ATOM     93  C   UNL A   1      37.331  22.988  25.558  1.00  0.00     0.005 A 
ATOM     94  C   UNL A   1      32.811  23.077  21.848  1.00  0.00     0.000 A 
ATOM     95  C   UNL A   1      32.260  21.064  23.040  1.00  0.00     0.005 A 
ATOM     96  C   UNL A   1      33.448  20.409  25.155  1.00  0.00     0.110 C 
ATOM     97  S   UNL A   1      35.032  19.574  24.908  1.00  0.00    -0.121 SA
ATOM     98  C   UNL A   1      37.567  20.263  25.312  1.00  0.00     0.015 A 
ATOM     99  C   UNL A   1      38.578  22.389  25.725  1.00  0.00     0.000 A 
ATOM    100  C   UNL A   1      32.057  21.916  21.959  1.00  0.00     0.000 A 
ATOM    101  C   UNL A   1      38.701  21.022  25.588  1.00  0.00     0.001 A 
ENDBRANCH  86  87
ENDBRANCH  84  86
ENDBRANCH  77  84
ENDBRANCH  72  74
ENDBRANCH  71  72
ENDBRANCH   1  71
TORSDOF 14
ENDMDL
