MODEL 1
REMARK VINA RESULT:     -14.9      0.000      0.000
REMARK SMILES Cc1ccccc1C[C@H](CCSc1ccccc1)C(=O)OCCOC(=O)c1ccc(-c2c3nc(c(-c4c(F)c(F)c(F)c(F)c4F)c4ccc([nH]4)c(-c4c(F)c(F)c(F)c(F)c4F)c4nc(c(-c5c(F)c(F)c(F)c(F)c5F)c5ccc2[nH]5)C=C4)C=C3)cc1
REMARK SMILES IDX 22 1 21 2 19 3 20 4 9 5 8 6 7 7 1 8 2 9 3 10 4 11 6 12 5 13
REMARK SMILES IDX 10 14 11 15 12 16 13 17 14 18 18 19 15 20 17 21 16 22 23 23
REMARK SMILES IDX 24 24 25 25 26 26 27 27 28 28 89 29 29 30 88 31 30 32 31 33
REMARK SMILES IDX 32 34 82 35 33 36 87 37 81 38 83 39 34 40 86 41 80 42 79 43
REMARK SMILES IDX 35 45 67 46 47 47 66 48 48 49 51 50 65 51 84 52 49 53 50 54
REMARK SMILES IDX 64 56 85 57 52 58 36 59 37 60 45 61 38 62 39 63 43 64 46 65
REMARK SMILES IDX 40 66 41 67 44 68 42 69 68 70 69 71 77 72 70 73 71 74 75 75
REMARK SMILES IDX 78 76 72 77 73 78 76 79 74 80 53 81 54 82 62 83 55 84 56 85
REMARK SMILES IDX 60 86 63 87 57 88 58 89 61 90 59 91
REMARK H PARENT 83 44 51 55
REMARK Flexibility Score: inf
ROOT
ATOM      1  C   UNL A   1      37.576  21.555  25.384  1.00  0.00     0.274 C 
ENDROOT
BRANCH   1   2
ATOM      2  O   UNL A   1      37.199  22.582  24.489  1.00  0.00    -0.462 OA
BRANCH   2   3
ATOM      3  C   UNL A   1      35.969  23.319  24.757  1.00  0.00     0.309 C 
ATOM      4  O   UNL A   1      35.976  23.488  26.015  1.00  0.00    -0.252 OA
BRANCH   3   5
ATOM      5  C   UNL A   1      34.529  23.838  23.197  1.00  0.00     0.104 C 
BRANCH   5   6
ATOM      6  C   UNL A   1      33.642  25.440  23.011  1.00  0.00     0.051 C 
BRANCH   6   7
ATOM      7  C   UNL A   1      33.460  26.352  24.201  1.00  0.00    -0.044 A 
ATOM      8  C   UNL A   1      32.645  24.528  26.285  1.00  0.00     0.044 C 
ATOM      9  C   UNL A   1      32.294  25.782  25.470  1.00  0.00    -0.048 A 
ATOM     10  C   UNL A   1      31.450  26.971  26.487  1.00  0.00     0.004 A 
ATOM     11  C   UNL A   1      31.881  28.715  26.376  1.00  0.00     0.000 A 
ATOM     12  C   UNL A   1      33.852  28.178  24.056  1.00  0.00     0.004 A 
ATOM     13  C   UNL A   1      33.094  29.334  25.190  1.00  0.00     0.000 A 
ENDBRANCH   6   7
ENDBRANCH   5   6
BRANCH   5  14
ATOM     14  C   UNL A   1      33.220  23.014  22.373  1.00  0.00     0.027 C 
BRANCH  14  15
ATOM     15  C   UNL A   1      32.179  22.182  23.263  1.00  0.00     0.076 C 
BRANCH  15  16
ATOM     16  S   UNL A   1      32.712  21.155  24.735  1.00  0.00    -0.126 SA
BRANCH  16  17
ATOM     17  C   UNL A   1      33.110  19.448  24.311  1.00  0.00     0.007 A 
ATOM     18  C   UNL A   1      32.404  18.706  23.385  1.00  0.00     0.015 A 
ATOM     19  C   UNL A   1      34.331  18.885  24.715  1.00  0.00     0.015 A 
ATOM     20  C   UNL A   1      32.871  17.513  22.819  1.00  0.00     0.001 A 
ATOM     21  C   UNL A   1      34.808  17.668  24.173  1.00  0.00     0.001 A 
ATOM     22  C   UNL A   1      34.084  16.990  23.204  1.00  0.00     0.000 A 
ENDBRANCH  16  17
ENDBRANCH  15  16
ENDBRANCH  14  15
ENDBRANCH   5  14
ENDBRANCH   3   5
ENDBRANCH   2   3
ENDBRANCH   1   2
BRANCH   1  23
ATOM     23  C   UNL A   1      39.005  21.850  25.837  1.00  0.00     0.275 C 
BRANCH  23  24
ATOM     24  O   UNL A   1      39.791  20.721  26.365  1.00  0.00    -0.458 OA
BRANCH  24  25
ATOM     25  C   UNL A   1      41.043  20.258  26.035  1.00  0.00     0.338 C 
ATOM     26  O   UNL A   1      41.228  19.102  25.679  1.00  0.00    -0.246 OA
BRANCH  25  27
ATOM     27  C   UNL A   1      42.237  21.080  26.450  1.00  0.00     0.060 A 
ATOM     28  C   UNL A   1      42.276  21.439  28.202  1.00  0.00     0.016 A 
ATOM     29  C   UNL A   1      42.718  22.298  25.270  1.00  0.00     0.016 A 
ATOM     30  C   UNL A   1      42.513  23.143  28.786  1.00  0.00     0.010 A 
ATOM     31  C   UNL A   1      43.001  23.988  25.808  1.00  0.00     0.010 A 
ATOM     32  C   UNL A   1      42.783  24.459  27.591  1.00  0.00    -0.014 A 
BRANCH  32  33
ATOM     33  C   UNL A   1      42.938  26.062  28.124  1.00  0.00     0.031 A 
ATOM     34  C   UNL A   1      41.346  27.513  28.137  1.00  0.00     0.074 A 
ATOM     35  C   UNL A   1      44.233  25.815  28.753  1.00  0.00     0.049 A 
ATOM     36  N   UNL A   1      41.291  28.881  28.062  1.00  0.00    -0.248 NA
ATOM     37  C   UNL A   1      39.622  27.297  28.121  1.00  0.00     0.031 C 
ATOM     38  C   UNL A   1      44.854  26.379  30.005  1.00  0.00     0.029 A 
ATOM     39  N   UNL A   1      45.434  25.586  27.995  1.00  0.00    -0.354 N 
ATOM     40  C   UNL A   1      40.136  29.365  28.635  1.00  0.00     0.074 A 
ATOM     41  C   UNL A   1      39.104  28.504  28.216  1.00  0.00     0.031 C 
ATOM     42  C   UNL A   1      46.063  26.893  29.751  1.00  0.00     0.029 A 
ATOM     43  C   UNL A   1      46.386  26.563  28.398  1.00  0.00     0.049 A 
ATOM     44  H   UNL A   1      45.572  24.882  27.320  1.00  0.00     0.167 HD
ATOM     45  C   UNL A   1      40.229  30.202  29.714  1.00  0.00     0.037 A 
ATOM     46  C   UNL A   1      47.161  27.313  27.577  1.00  0.00     0.037 A 
ATOM     47  C   UNL A   1      41.645  30.556  30.005  1.00  0.00     0.049 A 
ATOM     48  C   UNL A   1      46.873  28.814  27.666  1.00  0.00     0.074 A 
ATOM     49  C   UNL A   1      42.501  30.388  31.085  1.00  0.00     0.029 A 
ATOM     50  N   UNL A   1      42.487  30.917  28.948  1.00  0.00    -0.354 N 
ATOM     51  N   UNL A   1      45.864  29.378  28.300  1.00  0.00    -0.248 NA
ATOM     52  C   UNL A   1      47.734  29.807  27.034  1.00  0.00     0.031 C 
ATOM     53  C   UNL A   1      43.827  30.765  30.691  1.00  0.00     0.029 A 
ATOM     54  C   UNL A   1      43.806  31.092  29.344  1.00  0.00     0.049 A 
ATOM     55  H   UNL A   1      42.178  31.035  28.022  1.00  0.00     0.167 HD
ATOM     56  C   UNL A   1      45.841  30.750  28.050  1.00  0.00     0.074 A 
ATOM     57  C   UNL A   1      47.098  30.949  27.344  1.00  0.00     0.031 C 
ATOM     58  C   UNL A   1      44.795  31.602  28.385  1.00  0.00     0.037 A 
BRANCH  45  59
ATOM     59  C   UNL A   1      39.060  30.494  30.674  1.00  0.00     0.064 A 
ATOM     60  C   UNL A   1      38.413  31.746  30.632  1.00  0.00     0.173 A 
ATOM     61  C   UNL A   1      38.509  29.621  31.648  1.00  0.00     0.173 A 
ATOM     62  F   UNL A   1      38.738  32.675  29.726  1.00  0.00    -0.203 F 
ATOM     63  C   UNL A   1      37.370  32.102  31.499  1.00  0.00     0.198 A 
ATOM     64  C   UNL A   1      37.490  29.986  32.536  1.00  0.00     0.198 A 
ATOM     65  F   UNL A   1      38.855  28.343  31.770  1.00  0.00    -0.203 F 
ATOM     66  F   UNL A   1      36.800  33.309  31.384  1.00  0.00    -0.200 F 
ATOM     67  C   UNL A   1      36.915  31.227  32.460  1.00  0.00     0.200 A 
ATOM     68  F   UNL A   1      37.061  29.100  33.449  1.00  0.00    -0.200 F 
ATOM     69  F   UNL A   1      35.909  31.561  33.278  1.00  0.00    -0.200 F 
ENDBRANCH  45  59
BRANCH  46  70
ATOM     70  C   UNL A   1      47.677  26.464  26.460  1.00  0.00     0.064 A 
ATOM     71  C   UNL A   1      47.194  26.821  25.173  1.00  0.00     0.173 A 
ATOM     72  C   UNL A   1      48.962  25.928  26.527  1.00  0.00     0.173 A 
ATOM     73  F   UNL A   1      45.932  27.260  25.032  1.00  0.00    -0.203 F 
ATOM     74  C   UNL A   1      48.061  26.953  24.088  1.00  0.00     0.198 A 
ATOM     75  C   UNL A   1      49.804  25.987  25.408  1.00  0.00     0.198 A 
ATOM     76  F   UNL A   1      49.456  25.528  27.706  1.00  0.00    -0.203 F 
ATOM     77  F   UNL A   1      47.643  27.550  22.962  1.00  0.00    -0.200 F 
ATOM     78  C   UNL A   1      49.384  26.588  24.228  1.00  0.00     0.200 A 
ATOM     79  F   UNL A   1      51.086  25.614  25.517  1.00  0.00    -0.200 F 
ATOM     80  F   UNL A   1      50.272  26.873  23.264  1.00  0.00    -0.200 F 
ENDBRANCH  46  70
BRANCH  58  81
ATOM     81  C   UNL A   1      44.530  33.059  27.897  1.00  0.00     0.064 A 
ATOM     82  C   UNL A   1      44.756  34.235  28.627  1.00  0.00     0.173 A 
ATOM     83  C   UNL A   1      44.055  33.321  26.569  1.00  0.00     0.173 A 
ATOM     84  F   UNL A   1      45.294  34.231  29.845  1.00  0.00    -0.203 F 
ATOM     85  C   UNL A   1      44.473  35.516  28.123  1.00  0.00     0.198 A 
ATOM     86  C   UNL A   1      43.858  34.597  26.040  1.00  0.00     0.198 A 
ATOM     87  F   UNL A   1      43.751  32.358  25.693  1.00  0.00    -0.203 F 
ATOM     88  F   UNL A   1      44.646  36.584  28.914  1.00  0.00    -0.200 F 
ATOM     89  C   UNL A   1      44.037  35.699  26.829  1.00  0.00     0.200 A 
ATOM     90  F   UNL A   1      43.487  34.731  24.758  1.00  0.00    -0.200 F 
ATOM     91  F   UNL A   1      43.799  36.923  26.346  1.00  0.00    -0.200 F 
ENDBRANCH  58  81
ENDBRANCH  32  33
ENDBRANCH  25  27
ENDBRANCH  24  25
ENDBRANCH  23  24
ENDBRANCH   1  23
TORSDOF 17
ENDMDL
MODEL 2
REMARK VINA RESULT:     -14.6      1.511      2.621
REMARK SMILES Cc1ccccc1C[C@H](CCSc1ccccc1)C(=O)OCCOC(=O)c1ccc(-c2c3nc(c(-c4c(F)c(F)c(F)c(F)c4F)c4ccc([nH]4)c(-c4c(F)c(F)c(F)c(F)c4F)c4nc(c(-c5c(F)c(F)c(F)c(F)c5F)c5ccc2[nH]5)C=C4)C=C3)cc1
REMARK SMILES IDX 22 1 21 2 19 3 20 4 9 5 8 6 7 7 1 8 2 9 3 10 4 11 6 12 5 13
REMARK SMILES IDX 10 14 11 15 12 16 13 17 14 18 18 19 15 20 17 21 16 22 23 23
REMARK SMILES IDX 24 24 25 25 26 26 27 27 28 28 89 29 29 30 88 31 30 32 31 33
REMARK SMILES IDX 32 34 82 35 33 36 87 37 81 38 83 39 34 40 86 41 80 42 79 43
REMARK SMILES IDX 35 45 67 46 47 47 66 48 48 49 51 50 65 51 84 52 49 53 50 54
REMARK SMILES IDX 64 56 85 57 52 58 36 59 37 60 45 61 38 62 39 63 43 64 46 65
REMARK SMILES IDX 40 66 41 67 44 68 42 69 68 70 69 71 77 72 70 73 71 74 75 75
REMARK SMILES IDX 78 76 72 77 73 78 76 79 74 80 53 81 54 82 62 83 55 84 56 85
REMARK SMILES IDX 60 86 63 87 57 88 58 89 61 90 59 91
REMARK H PARENT 83 44 51 55
REMARK Flexibility Score: inf
ROOT
ATOM      1  C   UNL A   1      37.594  21.410  25.408  1.00  0.00     0.274 C 
ENDROOT
BRANCH   1   2
ATOM      2  O   UNL A   1      37.246  21.686  24.066  1.00  0.00    -0.462 OA
BRANCH   2   3
ATOM      3  C   UNL A   1      36.342  22.798  23.798  1.00  0.00     0.309 C 
ATOM      4  O   UNL A   1      36.626  23.153  22.613  1.00  0.00    -0.252 OA
BRANCH   3   5
ATOM      5  C   UNL A   1      34.945  23.580  25.286  1.00  0.00     0.104 C 
BRANCH   5   6
ATOM      6  C   UNL A   1      34.729  25.343  25.771  1.00  0.00     0.051 C 
BRANCH   6   7
ATOM      7  C   UNL A   1      33.703  26.204  25.072  1.00  0.00    -0.044 A 
ATOM      8  C   UNL A   1      33.560  25.020  22.443  1.00  0.00     0.044 C 
ATOM      9  C   UNL A   1      33.835  26.290  23.263  1.00  0.00    -0.048 A 
ATOM     10  C   UNL A   1      33.239  27.728  22.406  1.00  0.00     0.004 A 
ATOM     11  C   UNL A   1      32.356  29.011  23.308  1.00  0.00     0.000 A 
ATOM     12  C   UNL A   1      32.835  27.577  26.004  1.00  0.00     0.004 A 
ATOM     13  C   UNL A   1      32.120  28.942  25.097  1.00  0.00     0.000 A 
ENDBRANCH   6   7
ENDBRANCH   5   6
BRANCH   5  14
ATOM     14  C   UNL A   1      34.381  23.075  26.867  1.00  0.00     0.027 C 
BRANCH  14  15
ATOM     15  C   UNL A   1      33.034  22.210  26.942  1.00  0.00     0.076 C 
BRANCH  15  16
ATOM     16  S   UNL A   1      31.887  22.008  25.476  1.00  0.00    -0.126 SA
BRANCH  16  17
ATOM     17  C   UNL A   1      30.885  23.470  25.143  1.00  0.00     0.007 A 
ATOM     18  C   UNL A   1      30.500  24.371  26.116  1.00  0.00     0.015 A 
ATOM     19  C   UNL A   1      30.677  23.899  23.822  1.00  0.00     0.015 A 
ATOM     20  C   UNL A   1      30.000  25.650  25.844  1.00  0.00     0.001 A 
ATOM     21  C   UNL A   1      30.150  25.178  23.527  1.00  0.00     0.001 A 
ATOM     22  C   UNL A   1      29.830  26.067  24.543  1.00  0.00     0.000 A 
ENDBRANCH  16  17
ENDBRANCH  15  16
ENDBRANCH  14  15
ENDBRANCH   5  14
ENDBRANCH   3   5
ENDBRANCH   2   3
ENDBRANCH   1   2
BRANCH   1  23
ATOM     23  C   UNL A   1      38.711  20.369  25.382  1.00  0.00     0.275 C 
BRANCH  23  24
ATOM     24  O   UNL A   1      39.970  20.715  26.065  1.00  0.00    -0.458 OA
BRANCH  24  25
ATOM     25  C   UNL A   1      41.233  20.181  25.961  1.00  0.00     0.338 C 
ATOM     26  O   UNL A   1      41.412  18.989  25.749  1.00  0.00    -0.246 OA
BRANCH  25  27
ATOM     27  C   UNL A   1      42.395  21.004  26.456  1.00  0.00     0.060 A 
ATOM     28  C   UNL A   1      42.290  21.405  28.196  1.00  0.00     0.016 A 
ATOM     29  C   UNL A   1      42.986  22.190  25.293  1.00  0.00     0.016 A 
ATOM     30  C   UNL A   1      42.493  23.120  28.759  1.00  0.00     0.010 A 
ATOM     31  C   UNL A   1      43.238  23.890  25.814  1.00  0.00     0.010 A 
ATOM     32  C   UNL A   1      42.875  24.405  27.560  1.00  0.00    -0.014 A 
BRANCH  32  33
ATOM     33  C   UNL A   1      43.000  26.019  28.067  1.00  0.00     0.031 A 
ATOM     34  C   UNL A   1      41.377  27.437  28.069  1.00  0.00     0.074 A 
ATOM     35  C   UNL A   1      44.304  25.809  28.691  1.00  0.00     0.049 A 
ATOM     36  N   UNL A   1      41.292  28.801  27.973  1.00  0.00    -0.248 NA
ATOM     37  C   UNL A   1      39.658  27.184  28.069  1.00  0.00     0.031 C 
ATOM     38  C   UNL A   1      44.922  26.406  29.930  1.00  0.00     0.029 A 
ATOM     39  N   UNL A   1      45.504  25.594  27.927  1.00  0.00    -0.354 N 
ATOM     40  C   UNL A   1      40.132  29.270  28.548  1.00  0.00     0.074 A 
ATOM     41  C   UNL A   1      39.115  28.380  28.150  1.00  0.00     0.031 C 
ATOM     42  C   UNL A   1      46.118  26.942  29.658  1.00  0.00     0.029 A 
ATOM     43  C   UNL A   1      46.438  26.598  28.308  1.00  0.00     0.049 A 
ATOM     44  H   UNL A   1      45.652  24.883  27.263  1.00  0.00     0.167 HD
ATOM     45  C   UNL A   1      40.214  30.125  29.612  1.00  0.00     0.037 A 
ATOM     46  C   UNL A   1      47.191  27.351  27.470  1.00  0.00     0.037 A 
ATOM     47  C   UNL A   1      41.624  30.514  29.887  1.00  0.00     0.049 A 
ATOM     48  C   UNL A   1      46.872  28.846  27.538  1.00  0.00     0.074 A 
ATOM     49  C   UNL A   1      42.491  30.381  30.964  1.00  0.00     0.029 A 
ATOM     50  N   UNL A   1      42.451  30.876  28.820  1.00  0.00    -0.354 N 
ATOM     51  N   UNL A   1      45.855  29.399  28.170  1.00  0.00    -0.248 NA
ATOM     52  C   UNL A   1      47.707  29.847  26.885  1.00  0.00     0.031 C 
ATOM     53  C   UNL A   1      43.806  30.780  30.555  1.00  0.00     0.029 A 
ATOM     54  C   UNL A   1      43.769  31.085  29.203  1.00  0.00     0.049 A 
ATOM     55  H   UNL A   1      42.133  30.973  27.894  1.00  0.00     0.167 HD
ATOM     56  C   UNL A   1      45.802  30.766  27.899  1.00  0.00     0.074 A 
ATOM     57  C   UNL A   1      47.049  30.981  27.181  1.00  0.00     0.031 C 
ATOM     58  C   UNL A   1      44.740  31.601  28.229  1.00  0.00     0.037 A 
BRANCH  45  59
ATOM     59  C   UNL A   1      39.046  30.408  30.576  1.00  0.00     0.064 A 
ATOM     60  C   UNL A   1      38.387  31.654  30.535  1.00  0.00     0.173 A 
ATOM     61  C   UNL A   1      38.507  29.531  31.554  1.00  0.00     0.173 A 
ATOM     62  F   UNL A   1      38.701  32.585  29.628  1.00  0.00    -0.203 F 
ATOM     63  C   UNL A   1      37.344  32.001  31.406  1.00  0.00     0.198 A 
ATOM     64  C   UNL A   1      37.488  29.888  32.445  1.00  0.00     0.198 A 
ATOM     65  F   UNL A   1      38.865  28.256  31.675  1.00  0.00    -0.203 F 
ATOM     66  F   UNL A   1      36.762  33.202  31.292  1.00  0.00    -0.200 F 
ATOM     67  C   UNL A   1      36.901  31.122  32.369  1.00  0.00     0.200 A 
ATOM     68  F   UNL A   1      37.070  28.998  33.360  1.00  0.00    -0.200 F 
ATOM     69  F   UNL A   1      35.895  31.448  33.191  1.00  0.00    -0.200 F 
ENDBRANCH  45  59
BRANCH  46  70
ATOM     70  C   UNL A   1      47.717  26.495  26.363  1.00  0.00     0.064 A 
ATOM     71  C   UNL A   1      47.245  26.844  25.069  1.00  0.00     0.173 A 
ATOM     72  C   UNL A   1      49.002  25.961  26.443  1.00  0.00     0.173 A 
ATOM     73  F   UNL A   1      45.983  27.281  24.916  1.00  0.00    -0.203 F 
ATOM     74  C   UNL A   1      48.120  26.970  23.991  1.00  0.00     0.198 A 
ATOM     75  C   UNL A   1      49.853  26.014  25.332  1.00  0.00     0.198 A 
ATOM     76  F   UNL A   1      49.487  25.569  27.629  1.00  0.00    -0.203 F 
ATOM     77  F   UNL A   1      47.712  27.560  22.858  1.00  0.00    -0.200 F 
ATOM     78  C   UNL A   1      49.443  26.607  24.145  1.00  0.00     0.200 A 
ATOM     79  F   UNL A   1      51.134  25.643  25.454  1.00  0.00    -0.200 F 
ATOM     80  F   UNL A   1      50.339  26.887  23.186  1.00  0.00    -0.200 F 
ENDBRANCH  46  70
BRANCH  58  81
ATOM     81  C   UNL A   1      44.441  33.045  27.721  1.00  0.00     0.064 A 
ATOM     82  C   UNL A   1      43.981  33.399  26.444  1.00  0.00     0.173 A 
ATOM     83  C   UNL A   1      44.573  34.178  28.590  1.00  0.00     0.173 A 
ATOM     84  F   UNL A   1      43.688  32.495  25.511  1.00  0.00    -0.203 F 
ATOM     85  C   UNL A   1      43.751  34.730  26.055  1.00  0.00     0.198 A 
ATOM     86  C   UNL A   1      44.262  35.489  28.229  1.00  0.00     0.198 A 
ATOM     87  F   UNL A   1      45.014  34.092  29.849  1.00  0.00    -0.203 F 
ATOM     88  F   UNL A   1      43.385  34.987  24.792  1.00  0.00    -0.200 F 
ATOM     89  C   UNL A   1      43.878  35.772  26.947  1.00  0.00     0.200 A 
ATOM     90  F   UNL A   1      44.346  36.466  29.144  1.00  0.00    -0.200 F 
ATOM     91  F   UNL A   1      43.628  37.032  26.577  1.00  0.00    -0.200 F 
ENDBRANCH  58  81
ENDBRANCH  32  33
ENDBRANCH  25  27
ENDBRANCH  24  25
ENDBRANCH  23  24
ENDBRANCH   1  23
TORSDOF 17
ENDMDL
MODEL 3
REMARK VINA RESULT:     -14.5      4.481     11.055
REMARK SMILES Cc1ccccc1C[C@H](CCSc1ccccc1)C(=O)OCCOC(=O)c1ccc(-c2c3nc(c(-c4c(F)c(F)c(F)c(F)c4F)c4ccc([nH]4)c(-c4c(F)c(F)c(F)c(F)c4F)c4nc(c(-c5c(F)c(F)c(F)c(F)c5F)c5ccc2[nH]5)C=C4)C=C3)cc1
REMARK SMILES IDX 22 1 21 2 19 3 20 4 9 5 8 6 7 7 1 8 2 9 3 10 4 11 6 12 5 13
REMARK SMILES IDX 10 14 11 15 12 16 13 17 14 18 18 19 15 20 17 21 16 22 23 23
REMARK SMILES IDX 24 24 25 25 26 26 27 27 28 28 89 29 29 30 88 31 30 32 31 33
REMARK SMILES IDX 32 34 82 35 33 36 87 37 81 38 83 39 34 40 86 41 80 42 79 43
REMARK SMILES IDX 35 45 67 46 47 47 66 48 48 49 51 50 65 51 84 52 49 53 50 54
REMARK SMILES IDX 64 56 85 57 52 58 36 59 37 60 45 61 38 62 39 63 43 64 46 65
REMARK SMILES IDX 40 66 41 67 44 68 42 69 68 70 69 71 77 72 70 73 71 74 75 75
REMARK SMILES IDX 78 76 72 77 73 78 76 79 74 80 53 81 54 82 62 83 55 84 56 85
REMARK SMILES IDX 60 86 63 87 57 88 58 89 61 90 59 91
REMARK H PARENT 83 44 51 55
REMARK Flexibility Score: inf
ROOT
ATOM      1  C   UNL A   1      34.114  30.043  27.455  1.00  0.00     0.274 C 
ENDROOT
BRANCH   1   2
ATOM      2  O   UNL A   1      33.091  29.832  26.501  1.00  0.00    -0.462 OA
BRANCH   2   3
ATOM      3  C   UNL A   1      33.119  28.606  25.713  1.00  0.00     0.309 C 
ATOM      4  O   UNL A   1      33.982  28.834  24.811  1.00  0.00    -0.252 OA
BRANCH   3   5
ATOM      5  C   UNL A   1      31.811  26.902  26.119  1.00  0.00     0.104 C 
BRANCH   5   6
ATOM      6  C   UNL A   1      32.335  25.160  26.407  1.00  0.00     0.051 C 
BRANCH   6   7
ATOM      7  C   UNL A   1      33.268  24.476  25.437  1.00  0.00    -0.044 A 
ATOM      8  C   UNL A   1      31.458  23.000  23.742  1.00  0.00     0.044 C 
ATOM      9  C   UNL A   1      32.658  22.934  24.698  1.00  0.00    -0.048 A 
ATOM     10  C   UNL A   1      33.816  21.698  24.162  1.00  0.00     0.004 A 
ATOM     11  C   UNL A   1      35.582  22.047  24.192  1.00  0.00     0.000 A 
ATOM     12  C   UNL A   1      35.112  24.799  25.518  1.00  0.00     0.004 A 
ATOM     13  C   UNL A   1      36.247  23.595  24.839  1.00  0.00     0.000 A 
ENDBRANCH   6   7
ENDBRANCH   5   6
BRANCH   5  14
ATOM     14  C   UNL A   1      30.261  26.340  25.528  1.00  0.00     0.027 C 
BRANCH  14  15
ATOM     15  C   UNL A   1      29.964  26.473  23.958  1.00  0.00     0.076 C 
BRANCH  15  16
ATOM     16  S   UNL A   1      30.492  27.965  22.959  1.00  0.00    -0.126 SA
BRANCH  16  17
ATOM     17  C   UNL A   1      29.393  29.382  23.151  1.00  0.00     0.007 A 
ATOM     18  C   UNL A   1      29.711  30.501  23.895  1.00  0.00     0.015 A 
ATOM     19  C   UNL A   1      28.266  29.520  22.325  1.00  0.00     0.015 A 
ATOM     20  C   UNL A   1      29.027  31.719  23.806  1.00  0.00     0.001 A 
ATOM     21  C   UNL A   1      27.546  30.735  22.240  1.00  0.00     0.001 A 
ATOM     22  C   UNL A   1      27.941  31.847  22.969  1.00  0.00     0.000 A 
ENDBRANCH  16  17
ENDBRANCH  15  16
ENDBRANCH  14  15
ENDBRANCH   5  14
ENDBRANCH   3   5
ENDBRANCH   2   3
ENDBRANCH   1   2
BRANCH   1  23
ATOM     23  C   UNL A   1      34.414  31.540  27.475  1.00  0.00     0.275 C 
BRANCH  23  24
ATOM     24  O   UNL A   1      33.325  32.439  27.897  1.00  0.00    -0.458 OA
BRANCH  24  25
ATOM     25  C   UNL A   1      33.350  33.634  28.576  1.00  0.00     0.338 C 
ATOM     26  O   UNL A   1      32.641  34.575  28.250  1.00  0.00    -0.246 OA
BRANCH  25  27
ATOM     27  C   UNL A   1      34.507  33.897  29.507  1.00  0.00     0.060 A 
ATOM     28  C   UNL A   1      36.043  34.229  28.653  1.00  0.00     0.016 A 
ATOM     29  C   UNL A   1      34.486  32.922  30.976  1.00  0.00     0.016 A 
ATOM     30  C   UNL A   1      37.556  33.328  29.098  1.00  0.00     0.010 A 
ATOM     31  C   UNL A   1      35.970  32.044  31.476  1.00  0.00     0.010 A 
ATOM     32  C   UNL A   1      37.517  32.149  30.455  1.00  0.00    -0.014 A 
BRANCH  32  33
ATOM     33  C   UNL A   1      38.908  31.254  30.833  1.00  0.00     0.031 A 
ATOM     34  C   UNL A   1      39.312  29.256  30.135  1.00  0.00     0.074 A 
ATOM     35  C   UNL A   1      39.612  32.416  31.369  1.00  0.00     0.049 A 
ATOM     36  N   UNL A   1      40.044  28.200  30.612  1.00  0.00    -0.248 NA
ATOM     37  C   UNL A   1      38.675  28.387  28.772  1.00  0.00     0.031 C 
ATOM     38  C   UNL A   1      41.069  32.801  31.332  1.00  0.00     0.029 A 
ATOM     39  N   UNL A   1      39.251  33.036  32.616  1.00  0.00    -0.354 N 
ATOM     40  C   UNL A   1      40.429  27.359  29.592  1.00  0.00     0.074 A 
ATOM     41  C   UNL A   1      39.308  27.232  28.750  1.00  0.00     0.031 C 
ATOM     42  C   UNL A   1      41.528  33.055  32.563  1.00  0.00     0.029 A 
ATOM     43  C   UNL A   1      40.405  33.025  33.447  1.00  0.00     0.049 A 
ATOM     44  H   UNL A   1      38.367  33.400  32.852  1.00  0.00     0.167 HD
ATOM     45  C   UNL A   1      41.763  27.172  29.351  1.00  0.00     0.037 A 
ATOM     46  C   UNL A   1      40.450  32.657  34.751  1.00  0.00     0.037 A 
ATOM     47  C   UNL A   1      42.599  27.852  30.376  1.00  0.00     0.049 A 
ATOM     48  C   UNL A   1      41.318  31.422  35.008  1.00  0.00     0.074 A 
ATOM     49  C   UNL A   1      43.564  28.851  30.357  1.00  0.00     0.029 A 
ATOM     50  N   UNL A   1      42.258  27.727  31.726  1.00  0.00    -0.354 N 
ATOM     51  N   UNL A   1      41.837  30.628  34.092  1.00  0.00    -0.248 NA
ATOM     52  C   UNL A   1      41.673  30.992  36.355  1.00  0.00     0.031 C 
ATOM     53  C   UNL A   1      43.871  29.228  31.706  1.00  0.00     0.029 A 
ATOM     54  C   UNL A   1      43.040  28.516  32.558  1.00  0.00     0.049 A 
ATOM     55  H   UNL A   1      41.538  27.141  32.053  1.00  0.00     0.167 HD
ATOM     56  C   UNL A   1      42.449  29.529  34.693  1.00  0.00     0.074 A 
ATOM     57  C   UNL A   1      42.395  29.887  36.102  1.00  0.00     0.031 C 
ATOM     58  C   UNL A   1      42.901  28.403  34.016  1.00  0.00     0.037 A 
BRANCH  45  59
ATOM     59  C   UNL A   1      42.322  26.594  28.037  1.00  0.00     0.064 A 
ATOM     60  C   UNL A   1      42.823  25.276  28.006  1.00  0.00     0.173 A 
ATOM     61  C   UNL A   1      42.402  27.244  26.777  1.00  0.00     0.173 A 
ATOM     62  F   UNL A   1      42.763  24.477  29.076  1.00  0.00    -0.203 F 
ATOM     63  C   UNL A   1      43.386  24.694  26.861  1.00  0.00     0.198 A 
ATOM     64  C   UNL A   1      42.992  26.676  25.642  1.00  0.00     0.198 A 
ATOM     65  F   UNL A   1      41.859  28.432  26.527  1.00  0.00    -0.203 F 
ATOM     66  F   UNL A   1      43.827  23.431  26.912  1.00  0.00    -0.200 F 
ATOM     67  C   UNL A   1      43.481  25.397  25.680  1.00  0.00     0.200 A 
ATOM     68  F   UNL A   1      43.052  27.386  24.504  1.00  0.00    -0.200 F 
ATOM     69  F   UNL A   1      44.004  24.837  24.583  1.00  0.00    -0.200 F 
ENDBRANCH  45  59
BRANCH  46  70
ATOM     70  C   UNL A   1      39.256  33.200  35.467  1.00  0.00     0.064 A 
ATOM     71  C   UNL A   1      38.377  32.212  35.987  1.00  0.00     0.173 A 
ATOM     72  C   UNL A   1      39.351  34.397  36.175  1.00  0.00     0.173 A 
ATOM     73  F   UNL A   1      38.175  31.074  35.303  1.00  0.00    -0.203 F 
ATOM     74  C   UNL A   1      37.901  32.287  37.296  1.00  0.00     0.198 A 
ATOM     75  C   UNL A   1      38.799  34.496  37.459  1.00  0.00     0.198 A 
ATOM     76  F   UNL A   1      40.127  35.385  35.711  1.00  0.00    -0.203 F 
ATOM     77  F   UNL A   1      37.306  31.224  37.857  1.00  0.00    -0.200 F 
ATOM     78  C   UNL A   1      38.165  33.411  38.051  1.00  0.00     0.200 A 
ATOM     79  F   UNL A   1      39.023  35.590  38.200  1.00  0.00    -0.200 F 
ATOM     80  F   UNL A   1      37.878  33.431  39.361  1.00  0.00    -0.200 F 
ENDBRANCH  46  70
BRANCH  58  81
ATOM     81  C   UNL A   1      43.314  27.016  34.598  1.00  0.00     0.064 A 
ATOM     82  C   UNL A   1      42.448  25.975  34.965  1.00  0.00     0.173 A 
ATOM     83  C   UNL A   1      44.695  26.663  34.762  1.00  0.00     0.173 A 
ATOM     84  F   UNL A   1      41.129  26.048  34.795  1.00  0.00    -0.203 F 
ATOM     85  C   UNL A   1      42.898  24.757  35.501  1.00  0.00     0.198 A 
ATOM     86  C   UNL A   1      45.142  25.421  35.213  1.00  0.00     0.198 A 
ATOM     87  F   UNL A   1      45.705  27.498  34.498  1.00  0.00    -0.203 F 
ATOM     88  F   UNL A   1      41.999  23.845  35.896  1.00  0.00    -0.200 F 
ATOM     89  C   UNL A   1      44.242  24.474  35.614  1.00  0.00     0.200 A 
ATOM     90  F   UNL A   1      46.459  25.167  35.255  1.00  0.00    -0.200 F 
ATOM     91  F   UNL A   1      44.662  23.300  36.097  1.00  0.00    -0.200 F 
ENDBRANCH  58  81
ENDBRANCH  32  33
ENDBRANCH  25  27
ENDBRANCH  24  25
ENDBRANCH  23  24
ENDBRANCH   1  23
TORSDOF 17
ENDMDL
