MODEL 1
REMARK VINA RESULT:     -13.4      0.000      0.000
REMARK SMILES Cc1cccc(S(=O)(=O)Nc2cnc(N(C)Cc3ccccc3)c(C(=O)OCCOC(=O)c3ccc(-c4c5nc(c(-c6c(F)c(F)c(F)c(F)c6F)c6ccc([nH]6)c(-c6c(F)c(F)c(F)c(F)c6F)c6nc(c(-c7c(F)c(F)c(F)c(F)c7F)c7ccc4[nH]7)C=C6)C=C5)cc3)c2)c1
REMARK SMILES IDX 28 1 27 2 25 3 26 4 24 5 11 6 12 7 96 8 13 9 14 10 10 11
REMARK SMILES IDX 7 13 8 14 9 15 6 16 1 17 2 18 3 19 97 20 4 21 5 22 15 23
REMARK SMILES IDX 16 24 17 25 18 26 19 27 23 28 20 29 22 30 21 31 29 32 30 33
REMARK SMILES IDX 31 34 32 35 33 36 34 37 95 38 35 39 94 40 36 41 37 42 38 43
REMARK SMILES IDX 88 44 39 45 93 46 87 47 89 48 40 49 92 50 86 51 85 52 41 54
REMARK SMILES IDX 73 55 53 56 72 57 54 58 57 59 71 60 90 61 55 62 56 63 70 65
REMARK SMILES IDX 91 66 58 67 42 68 43 69 51 70 44 71 45 72 49 73 52 74 46 75
REMARK SMILES IDX 47 76 50 77 48 78 74 79 75 80 83 81 76 82 77 83 81 84 84 85
REMARK SMILES IDX 78 86 79 87 82 88 80 89 59 90 60 91 68 92 61 93 62 94 66 95
REMARK SMILES IDX 69 96 63 97 64 98 67 99 65 100
REMARK H PARENT 10 12 89 53 57 64
REMARK Flexibility Score: inf
ROOT
ATOM      1  C   UNL A   1      33.746  29.284  26.530  1.00  0.00     0.275 C 
ENDROOT
BRANCH   1   2
ATOM      2  O   UNL A   1      34.419  27.961  26.431  1.00  0.00    -0.458 OA
BRANCH   2   3
ATOM      3  C   UNL A   1      33.595  26.986  25.904  1.00  0.00     0.342 C 
ATOM      4  O   UNL A   1      32.544  26.729  26.510  1.00  0.00    -0.246 OA
BRANCH   3   5
ATOM      5  C   UNL A   1      33.866  26.116  24.580  1.00  0.00     0.104 A 
ATOM      6  C   UNL A   1      34.557  23.825  24.744  1.00  0.00     0.068 A 
ATOM      7  C   UNL A   1      34.406  23.722  23.391  1.00  0.00     0.140 A 
ATOM      8  C   UNL A   1      34.646  25.096  25.200  1.00  0.00     0.048 A 
ATOM      9  N   UNL A   1      33.880  24.709  22.640  1.00  0.00    -0.236 NA
ATOM     10  C   UNL A   1      33.293  25.799  23.211  1.00  0.00     0.143 A 
BRANCH   6  11
ATOM     11  N   UNL A   1      34.705  22.666  25.542  1.00  0.00    -0.278 N 
ATOM     12  H   UNL A   1      35.567  22.566  26.007  1.00  0.00     0.180 HD
BRANCH  11  13
ATOM     13  S   UNL A   1      33.578  21.435  25.791  1.00  0.00     0.261 S 
ATOM     14  O   UNL A   1      32.279  22.069  25.716  1.00  0.00    -0.201 OA
ATOM     15  O   UNL A   1      34.035  20.934  27.080  1.00  0.00    -0.201 OA
BRANCH  13  16
ATOM     16  C   UNL A   1      33.468  19.938  24.781  1.00  0.00     0.088 A 
ATOM     17  C   UNL A   1      34.328  16.258  23.711  1.00  0.00     0.044 C 
ATOM     18  C   UNL A   1      33.843  17.683  23.840  1.00  0.00    -0.050 A 
ATOM     19  C   UNL A   1      32.852  17.907  22.891  1.00  0.00     0.003 A 
ATOM     20  C   UNL A   1      34.197  18.736  24.770  1.00  0.00     0.025 A 
ATOM     21  C   UNL A   1      32.154  19.087  22.879  1.00  0.00     0.002 A 
ATOM     22  C   UNL A   1      32.450  20.072  23.814  1.00  0.00     0.022 A 
ENDBRANCH  13  16
ENDBRANCH  11  13
ENDBRANCH   6  11
BRANCH  10  23
ATOM     23  N   UNL A   1      32.153  26.132  22.391  1.00  0.00    -0.355 N 
ATOM     24  C   UNL A   1      32.511  25.954  20.933  1.00  0.00     0.145 C 
BRANCH  23  25
ATOM     25  C   UNL A   1      30.582  26.755  22.353  1.00  0.00     0.153 C 
BRANCH  25  26
ATOM     26  C   UNL A   1      29.938  28.082  23.150  1.00  0.00    -0.029 A 
ATOM     27  C   UNL A   1      28.212  28.640  22.732  1.00  0.00     0.005 A 
ATOM     28  C   UNL A   1      30.994  29.188  24.138  1.00  0.00     0.005 A 
ATOM     29  C   UNL A   1      27.653  30.410  23.001  1.00  0.00     0.000 A 
ATOM     30  C   UNL A   1      30.440  30.885  24.605  1.00  0.00     0.000 A 
ATOM     31  C   UNL A   1      28.805  31.566  23.929  1.00  0.00     0.000 A 
ENDBRANCH  25  26
ENDBRANCH  23  25
ENDBRANCH  10  23
ENDBRANCH   3   5
ENDBRANCH   2   3
ENDBRANCH   1   2
BRANCH   1  32
ATOM     32  C   UNL A   1      34.406  30.373  27.431  1.00  0.00     0.275 C 
BRANCH  32  33
ATOM     33  O   UNL A   1      33.569  31.386  28.014  1.00  0.00    -0.458 OA
BRANCH  33  34
ATOM     34  C   UNL A   1      33.974  32.661  28.155  1.00  0.00     0.338 C 
ATOM     35  O   UNL A   1      33.489  33.589  27.522  1.00  0.00    -0.246 OA
BRANCH  34  36
ATOM     36  C   UNL A   1      34.963  32.897  29.215  1.00  0.00     0.060 A 
ATOM     37  C   UNL A   1      36.142  33.483  28.806  1.00  0.00     0.016 A 
ATOM     38  C   UNL A   1      34.779  32.783  30.569  1.00  0.00     0.016 A 
ATOM     39  C   UNL A   1      37.213  33.843  29.687  1.00  0.00     0.010 A 
ATOM     40  C   UNL A   1      35.818  33.245  31.390  1.00  0.00     0.010 A 
ATOM     41  C   UNL A   1      37.163  33.405  30.948  1.00  0.00    -0.014 A 
BRANCH  41  42
ATOM     42  C   UNL A   1      38.475  32.263  31.252  1.00  0.00     0.031 A 
ATOM     43  C   UNL A   1      39.238  33.300  32.608  1.00  0.00     0.074 A 
ATOM     44  C   UNL A   1      38.740  30.432  30.873  1.00  0.00     0.049 A 
ATOM     45  N   UNL A   1      39.363  32.840  33.823  1.00  0.00    -0.248 NA
ATOM     46  C   UNL A   1      39.769  34.677  32.655  1.00  0.00     0.031 C 
ATOM     47  C   UNL A   1      38.419  29.006  31.935  1.00  0.00     0.029 A 
ATOM     48  N   UNL A   1      38.690  29.458  29.741  1.00  0.00    -0.354 N 
ATOM     49  C   UNL A   1      39.777  33.697  34.780  1.00  0.00     0.074 A 
ATOM     50  C   UNL A   1      39.948  34.902  33.999  1.00  0.00     0.031 C 
ATOM     51  C   UNL A   1      38.623  27.831  31.375  1.00  0.00     0.029 A 
ATOM     52  C   UNL A   1      39.170  28.175  30.138  1.00  0.00     0.049 A 
ATOM     53  H   UNL A   1      38.366  29.674  28.837  1.00  0.00     0.167 HD
ATOM     54  C   UNL A   1      39.736  33.122  36.033  1.00  0.00     0.037 A 
ATOM     55  C   UNL A   1      40.388  27.763  29.749  1.00  0.00     0.037 A 
ATOM     56  C   UNL A   1      39.972  31.647  35.894  1.00  0.00     0.049 A 
ATOM     57  C   UNL A   1      41.370  28.043  30.932  1.00  0.00     0.074 A 
ATOM     58  C   UNL A   1      39.279  30.471  36.136  1.00  0.00     0.029 A 
ATOM     59  N   UNL A   1      41.099  31.257  35.167  1.00  0.00    -0.354 N 
ATOM     60  N   UNL A   1      41.080  28.595  32.107  1.00  0.00    -0.248 NA
ATOM     61  C   UNL A   1      42.738  27.554  30.928  1.00  0.00     0.031 C 
ATOM     62  C   UNL A   1      39.973  29.397  35.456  1.00  0.00     0.029 A 
ATOM     63  C   UNL A   1      41.109  29.906  34.834  1.00  0.00     0.049 A 
ATOM     64  H   UNL A   1      41.818  31.880  34.914  1.00  0.00     0.167 HD
ATOM     65  C   UNL A   1      42.179  28.655  32.936  1.00  0.00     0.074 A 
ATOM     66  C   UNL A   1      43.142  27.862  32.175  1.00  0.00     0.031 C 
ATOM     67  C   UNL A   1      42.295  29.357  34.131  1.00  0.00     0.037 A 
BRANCH  54  68
ATOM     68  C   UNL A   1      39.416  33.720  37.407  1.00  0.00     0.064 A 
ATOM     69  C   UNL A   1      40.375  34.521  38.088  1.00  0.00     0.173 A 
ATOM     70  C   UNL A   1      38.287  33.401  38.182  1.00  0.00     0.173 A 
ATOM     71  F   UNL A   1      41.492  34.940  37.480  1.00  0.00    -0.203 F 
ATOM     72  C   UNL A   1      40.242  34.920  39.428  1.00  0.00     0.198 A 
ATOM     73  C   UNL A   1      38.153  33.801  39.532  1.00  0.00     0.198 A 
ATOM     74  F   UNL A   1      37.284  32.692  37.655  1.00  0.00    -0.203 F 
ATOM     75  F   UNL A   1      41.209  35.647  40.009  1.00  0.00    -0.200 F 
ATOM     76  C   UNL A   1      39.132  34.553  40.155  1.00  0.00     0.200 A 
ATOM     77  F   UNL A   1      37.070  33.436  40.237  1.00  0.00    -0.200 F 
ATOM     78  F   UNL A   1      39.009  34.925  41.438  1.00  0.00    -0.200 F 
ENDBRANCH  54  68
BRANCH  55  79
ATOM     79  C   UNL A   1      40.304  27.973  28.247  1.00  0.00     0.064 A 
ATOM     80  C   UNL A   1      41.199  29.001  27.752  1.00  0.00     0.173 A 
ATOM     81  C   UNL A   1      40.042  26.923  27.372  1.00  0.00     0.173 A 
ATOM     82  F   UNL A   1      41.508  30.052  28.538  1.00  0.00    -0.203 F 
ATOM     83  C   UNL A   1      42.056  28.758  26.674  1.00  0.00     0.198 A 
ATOM     84  C   UNL A   1      40.787  26.790  26.187  1.00  0.00     0.198 A 
ATOM     85  F   UNL A   1      39.213  25.936  27.730  1.00  0.00    -0.203 F 
ATOM     86  F   UNL A   1      43.161  29.504  26.506  1.00  0.00    -0.200 F 
ATOM     87  C   UNL A   1      41.861  27.633  25.906  1.00  0.00     0.200 A 
ATOM     88  F   UNL A   1      40.551  25.749  25.376  1.00  0.00    -0.200 F 
ATOM     89  F   UNL A   1      42.752  27.304  24.957  1.00  0.00    -0.200 F 
ENDBRANCH  55  79
BRANCH  67  90
ATOM     90  C   UNL A   1      43.654  29.615  34.819  1.00  0.00     0.064 A 
ATOM     91  C   UNL A   1      44.139  28.848  35.888  1.00  0.00     0.173 A 
ATOM     92  C   UNL A   1      44.573  30.599  34.358  1.00  0.00     0.173 A 
ATOM     93  F   UNL A   1      43.584  27.677  36.221  1.00  0.00    -0.203 F 
ATOM     94  C   UNL A   1      45.282  29.199  36.606  1.00  0.00     0.198 A 
ATOM     95  C   UNL A   1      45.795  30.847  34.984  1.00  0.00     0.198 A 
ATOM     96  F   UNL A   1      44.349  31.337  33.262  1.00  0.00    -0.203 F 
ATOM     97  F   UNL A   1      45.583  28.532  37.728  1.00  0.00    -0.200 F 
ATOM     98  C   UNL A   1      46.113  30.200  36.155  1.00  0.00     0.200 A 
ATOM     99  F   UNL A   1      46.661  31.714  34.439  1.00  0.00    -0.200 F 
ATOM    100  F   UNL A   1      47.234  30.505  36.819  1.00  0.00    -0.200 F 
ENDBRANCH  67  90
ENDBRANCH  41  42
ENDBRANCH  34  36
ENDBRANCH  33  34
ENDBRANCH  32  33
ENDBRANCH   1  32
TORSDOF 17
ENDMDL
MODEL 2
REMARK VINA RESULT:     -13.3      2.391      7.987
REMARK SMILES Cc1cccc(S(=O)(=O)Nc2cnc(N(C)Cc3ccccc3)c(C(=O)OCCOC(=O)c3ccc(-c4c5nc(c(-c6c(F)c(F)c(F)c(F)c6F)c6ccc([nH]6)c(-c6c(F)c(F)c(F)c(F)c6F)c6nc(c(-c7c(F)c(F)c(F)c(F)c7F)c7ccc4[nH]7)C=C6)C=C5)cc3)c2)c1
REMARK SMILES IDX 28 1 27 2 25 3 26 4 24 5 11 6 12 7 96 8 13 9 14 10 10 11
REMARK SMILES IDX 7 13 8 14 9 15 6 16 1 17 2 18 3 19 97 20 4 21 5 22 15 23
REMARK SMILES IDX 16 24 17 25 18 26 19 27 23 28 20 29 22 30 21 31 29 32 30 33
REMARK SMILES IDX 31 34 32 35 33 36 34 37 95 38 35 39 94 40 36 41 37 42 38 43
REMARK SMILES IDX 88 44 39 45 93 46 87 47 89 48 40 49 92 50 86 51 85 52 41 54
REMARK SMILES IDX 73 55 53 56 72 57 54 58 57 59 71 60 90 61 55 62 56 63 70 65
REMARK SMILES IDX 91 66 58 67 42 68 43 69 51 70 44 71 45 72 49 73 52 74 46 75
REMARK SMILES IDX 47 76 50 77 48 78 74 79 75 80 83 81 76 82 77 83 81 84 84 85
REMARK SMILES IDX 78 86 79 87 82 88 80 89 59 90 60 91 68 92 61 93 62 94 66 95
REMARK SMILES IDX 69 96 63 97 64 98 67 99 65 100
REMARK H PARENT 10 12 89 53 57 64
REMARK Flexibility Score: inf
ROOT
ATOM      1  C   UNL A   1      32.788  30.336  27.215  1.00  0.00     0.275 C 
ENDROOT
BRANCH   1   2
ATOM      2  O   UNL A   1      33.208  28.949  27.555  1.00  0.00    -0.458 OA
BRANCH   2   3
ATOM      3  C   UNL A   1      32.410  27.993  26.956  1.00  0.00     0.342 C 
ATOM      4  O   UNL A   1      31.386  27.636  27.559  1.00  0.00    -0.246 OA
BRANCH   3   5
ATOM      5  C   UNL A   1      32.680  27.264  25.550  1.00  0.00     0.104 A 
ATOM      6  C   UNL A   1      33.840  25.166  25.465  1.00  0.00     0.068 A 
ATOM      7  C   UNL A   1      33.540  25.097  24.135  1.00  0.00     0.140 A 
ATOM      8  C   UNL A   1      33.725  26.404  26.000  1.00  0.00     0.048 A 
ATOM      9  N   UNL A   1      32.733  25.985  23.523  1.00  0.00    -0.236 NA
ATOM     10  C   UNL A   1      32.014  26.899  24.237  1.00  0.00     0.143 A 
BRANCH   6  11
ATOM     11  N   UNL A   1      34.323  24.029  26.154  1.00  0.00    -0.278 N 
ATOM     12  H   UNL A   1      35.288  24.016  26.348  1.00  0.00     0.180 HD
BRANCH  11  13
ATOM     13  S   UNL A   1      33.439  22.692  26.683  1.00  0.00     0.261 S 
ATOM     14  O   UNL A   1      32.161  23.213  27.121  1.00  0.00    -0.201 OA
ATOM     15  O   UNL A   1      34.356  22.164  27.684  1.00  0.00    -0.201 OA
BRANCH  13  16
ATOM     16  C   UNL A   1      33.071  21.247  25.659  1.00  0.00     0.088 A 
ATOM     17  C   UNL A   1      32.613  17.426  24.872  1.00  0.00     0.044 C 
ATOM     18  C   UNL A   1      32.763  18.929  24.855  1.00  0.00    -0.050 A 
ATOM     19  C   UNL A   1      32.363  19.406  23.612  1.00  0.00     0.003 A 
ATOM     20  C   UNL A   1      33.176  19.863  25.883  1.00  0.00     0.025 A 
ATOM     21  C   UNL A   1      32.282  20.755  23.377  1.00  0.00     0.002 A 
ATOM     22  C   UNL A   1      32.617  21.651  24.385  1.00  0.00     0.022 A 
ENDBRANCH  13  16
ENDBRANCH  11  13
ENDBRANCH   6  11
BRANCH  10  23
ATOM     23  N   UNL A   1      30.734  27.021  23.581  1.00  0.00    -0.355 N 
ATOM     24  C   UNL A   1      29.930  25.759  23.802  1.00  0.00     0.145 C 
BRANCH  23  25
ATOM     25  C   UNL A   1      29.762  27.948  22.554  1.00  0.00     0.153 C 
BRANCH  25  26
ATOM     26  C   UNL A   1      29.155  29.496  22.766  1.00  0.00    -0.029 A 
ATOM     27  C   UNL A   1      28.150  30.269  21.403  1.00  0.00     0.005 A 
ATOM     28  C   UNL A   1      29.741  30.558  24.124  1.00  0.00     0.005 A 
ATOM     29  C   UNL A   1      28.012  32.130  21.211  1.00  0.00     0.000 A 
ATOM     30  C   UNL A   1      29.480  32.384  24.100  1.00  0.00     0.000 A 
ATOM     31  C   UNL A   1      28.720  33.211  22.572  1.00  0.00     0.000 A 
ENDBRANCH  25  26
ENDBRANCH  23  25
ENDBRANCH  10  23
ENDBRANCH   3   5
ENDBRANCH   2   3
ENDBRANCH   1   2
BRANCH   1  32
ATOM     32  C   UNL A   1      33.838  31.477  27.383  1.00  0.00     0.275 C 
BRANCH  32  33
ATOM     33  O   UNL A   1      33.637  32.452  28.421  1.00  0.00    -0.458 OA
BRANCH  33  34
ATOM     34  C   UNL A   1      34.465  32.563  29.474  1.00  0.00     0.338 C 
ATOM     35  O   UNL A   1      34.125  33.056  30.541  1.00  0.00    -0.246 OA
BRANCH  34  36
ATOM     36  C   UNL A   1      35.786  31.941  29.310  1.00  0.00     0.060 A 
ATOM     37  C   UNL A   1      35.817  30.571  29.460  1.00  0.00     0.016 A 
ATOM     38  C   UNL A   1      36.934  32.529  28.845  1.00  0.00     0.016 A 
ATOM     39  C   UNL A   1      36.992  29.767  29.292  1.00  0.00     0.010 A 
ATOM     40  C   UNL A   1      38.024  31.680  28.599  1.00  0.00     0.010 A 
ATOM     41  C   UNL A   1      38.169  30.390  29.185  1.00  0.00    -0.014 A 
BRANCH  41  42
ATOM     42  C   UNL A   1      39.187  30.016  30.578  1.00  0.00     0.031 A 
ATOM     43  C   UNL A   1      39.735  28.362  29.898  1.00  0.00     0.074 A 
ATOM     44  C   UNL A   1      39.975  31.050  31.947  1.00  0.00     0.049 A 
ATOM     45  N   UNL A   1      40.994  28.107  29.669  1.00  0.00    -0.248 NA
ATOM     46  C   UNL A   1      39.008  27.145  29.483  1.00  0.00     0.031 C 
ATOM     47  C   UNL A   1      41.641  31.746  32.015  1.00  0.00     0.029 A 
ATOM     48  N   UNL A   1      39.628  32.073  32.980  1.00  0.00    -0.354 N 
ATOM     49  C   UNL A   1      41.297  26.956  29.035  1.00  0.00     0.074 A 
ATOM     50  C   UNL A   1      39.976  26.398  28.854  1.00  0.00     0.031 C 
ATOM     51  C   UNL A   1      41.893  32.499  33.066  1.00  0.00     0.029 A 
ATOM     52  C   UNL A   1      40.737  32.347  33.833  1.00  0.00     0.049 A 
ATOM     53  H   UNL A   1      38.747  32.503  33.061  1.00  0.00     0.167 HD
ATOM     54  C   UNL A   1      42.642  26.875  28.736  1.00  0.00     0.037 A 
ATOM     55  C   UNL A   1      40.762  31.856  35.084  1.00  0.00     0.037 A 
ATOM     56  C   UNL A   1      43.413  27.632  29.777  1.00  0.00     0.049 A 
ATOM     57  C   UNL A   1      41.631  30.557  35.053  1.00  0.00     0.074 A 
ATOM     58  C   UNL A   1      44.241  28.743  29.834  1.00  0.00     0.029 A 
ATOM     59  N   UNL A   1      43.144  27.316  31.110  1.00  0.00    -0.354 N 
ATOM     60  N   UNL A   1      42.232  30.015  33.999  1.00  0.00    -0.248 NA
ATOM     61  C   UNL A   1      42.023  29.866  36.269  1.00  0.00     0.031 C 
ATOM     62  C   UNL A   1      44.377  29.127  31.224  1.00  0.00     0.029 A 
ATOM     63  C   UNL A   1      43.667  28.233  32.019  1.00  0.00     0.049 A 
ATOM     64  H   UNL A   1      42.632  26.520  31.382  1.00  0.00     0.167 HD
ATOM     65  C   UNL A   1      42.954  28.890  34.337  1.00  0.00     0.074 A 
ATOM     66  C   UNL A   1      42.880  28.944  35.794  1.00  0.00     0.031 C 
ATOM     67  C   UNL A   1      43.516  27.959  33.469  1.00  0.00     0.037 A 
BRANCH  54  68
ATOM     68  C   UNL A   1      43.375  26.256  27.542  1.00  0.00     0.064 A 
ATOM     69  C   UNL A   1      43.541  24.845  27.448  1.00  0.00     0.173 A 
ATOM     70  C   UNL A   1      44.089  26.977  26.570  1.00  0.00     0.173 A 
ATOM     71  F   UNL A   1      42.901  24.011  28.279  1.00  0.00    -0.203 F 
ATOM     72  C   UNL A   1      44.378  24.222  26.509  1.00  0.00     0.198 A 
ATOM     73  C   UNL A   1      44.934  26.352  25.625  1.00  0.00     0.198 A 
ATOM     74  F   UNL A   1      43.991  28.310  26.511  1.00  0.00    -0.203 F 
ATOM     75  F   UNL A   1      44.506  22.886  26.509  1.00  0.00    -0.200 F 
ATOM     76  C   UNL A   1      45.083  24.977  25.599  1.00  0.00     0.200 A 
ATOM     77  F   UNL A   1      45.623  27.094  24.743  1.00  0.00    -0.200 F 
ATOM     78  F   UNL A   1      45.891  24.384  24.708  1.00  0.00    -0.200 F 
ENDBRANCH  54  68
BRANCH  55  79
ATOM     79  C   UNL A   1      39.421  32.333  35.613  1.00  0.00     0.064 A 
ATOM     80  C   UNL A   1      38.502  31.256  35.928  1.00  0.00     0.173 A 
ATOM     81  C   UNL A   1      39.305  33.478  36.396  1.00  0.00     0.173 A 
ATOM     82  F   UNL A   1      38.550  30.110  35.219  1.00  0.00    -0.203 F 
ATOM     83  C   UNL A   1      37.854  31.195  37.165  1.00  0.00     0.198 A 
ATOM     84  C   UNL A   1      38.496  33.467  37.546  1.00  0.00     0.198 A 
ATOM     85  F   UNL A   1      40.095  34.534  36.170  1.00  0.00    -0.203 F 
ATOM     86  F   UNL A   1      37.384  30.023  37.626  1.00  0.00    -0.200 F 
ATOM     87  C   UNL A   1      37.875  32.299  37.986  1.00  0.00     0.200 A 
ATOM     88  F   UNL A   1      38.428  34.565  38.312  1.00  0.00    -0.200 F 
ATOM     89  F   UNL A   1      37.383  32.220  39.233  1.00  0.00    -0.200 F 
ENDBRANCH  55  79
BRANCH  67  90
ATOM     90  C   UNL A   1      44.028  26.581  33.943  1.00  0.00     0.064 A 
ATOM     91  C   UNL A   1      45.377  26.201  33.904  1.00  0.00     0.173 A 
ATOM     92  C   UNL A   1      43.179  25.614  34.550  1.00  0.00     0.173 A 
ATOM     93  F   UNL A   1      46.353  27.093  33.699  1.00  0.00    -0.203 F 
ATOM     94  C   UNL A   1      45.798  24.898  34.173  1.00  0.00     0.198 A 
ATOM     95  C   UNL A   1      43.632  24.361  34.966  1.00  0.00     0.198 A 
ATOM     96  F   UNL A   1      41.884  25.849  34.803  1.00  0.00    -0.203 F 
ATOM     97  F   UNL A   1      47.072  24.559  33.936  1.00  0.00    -0.200 F 
ATOM     98  C   UNL A   1      44.926  23.975  34.705  1.00  0.00     0.200 A 
ATOM     99  F   UNL A   1      42.806  23.537  35.627  1.00  0.00    -0.200 F 
ATOM    100  F   UNL A   1      45.342  22.740  35.006  1.00  0.00    -0.200 F 
ENDBRANCH  67  90
ENDBRANCH  41  42
ENDBRANCH  34  36
ENDBRANCH  33  34
ENDBRANCH  32  33
ENDBRANCH   1  32
TORSDOF 17
ENDMDL
MODEL 3
REMARK VINA RESULT:     -12.9      1.869      7.775
REMARK SMILES Cc1cccc(S(=O)(=O)Nc2cnc(N(C)Cc3ccccc3)c(C(=O)OCCOC(=O)c3ccc(-c4c5nc(c(-c6c(F)c(F)c(F)c(F)c6F)c6ccc([nH]6)c(-c6c(F)c(F)c(F)c(F)c6F)c6nc(c(-c7c(F)c(F)c(F)c(F)c7F)c7ccc4[nH]7)C=C6)C=C5)cc3)c2)c1
REMARK SMILES IDX 28 1 27 2 25 3 26 4 24 5 11 6 12 7 96 8 13 9 14 10 10 11
REMARK SMILES IDX 7 13 8 14 9 15 6 16 1 17 2 18 3 19 97 20 4 21 5 22 15 23
REMARK SMILES IDX 16 24 17 25 18 26 19 27 23 28 20 29 22 30 21 31 29 32 30 33
REMARK SMILES IDX 31 34 32 35 33 36 34 37 95 38 35 39 94 40 36 41 37 42 38 43
REMARK SMILES IDX 88 44 39 45 93 46 87 47 89 48 40 49 92 50 86 51 85 52 41 54
REMARK SMILES IDX 73 55 53 56 72 57 54 58 57 59 71 60 90 61 55 62 56 63 70 65
REMARK SMILES IDX 91 66 58 67 42 68 43 69 51 70 44 71 45 72 49 73 52 74 46 75
REMARK SMILES IDX 47 76 50 77 48 78 74 79 75 80 83 81 76 82 77 83 81 84 84 85
REMARK SMILES IDX 78 86 79 87 82 88 80 89 59 90 60 91 68 92 61 93 62 94 66 95
REMARK SMILES IDX 69 96 63 97 64 98 67 99 65 100
REMARK H PARENT 10 12 89 53 57 64
REMARK Flexibility Score: inf
ROOT
ATOM      1  C   UNL A   1      34.655  29.301  27.036  1.00  0.00     0.275 C 
ENDROOT
BRANCH   1   2
ATOM      2  O   UNL A   1      34.336  27.857  26.874  1.00  0.00    -0.458 OA
BRANCH   2   3
ATOM      3  C   UNL A   1      33.128  27.649  26.237  1.00  0.00     0.342 C 
ATOM      4  O   UNL A   1      32.127  28.219  26.699  1.00  0.00    -0.246 OA
BRANCH   3   5
ATOM      5  C   UNL A   1      32.869  26.716  24.955  1.00  0.00     0.104 A 
ATOM      6  C   UNL A   1      33.269  24.353  25.063  1.00  0.00     0.068 A 
ATOM      7  C   UNL A   1      32.704  24.239  23.825  1.00  0.00     0.140 A 
ATOM      8  C   UNL A   1      33.658  25.609  25.385  1.00  0.00     0.048 A 
ATOM      9  N   UNL A   1      32.111  25.273  23.198  1.00  0.00    -0.236 NA
ATOM     10  C   UNL A   1      31.873  26.452  23.841  1.00  0.00     0.143 A 
BRANCH   6  11
ATOM     11  N   UNL A   1      33.498  23.206  25.858  1.00  0.00    -0.278 N 
ATOM     12  H   UNL A   1      33.024  23.174  26.721  1.00  0.00     0.180 HD
BRANCH  11  13
ATOM     13  S   UNL A   1      34.488  21.887  25.503  1.00  0.00     0.261 S 
ATOM     14  O   UNL A   1      35.050  21.463  26.769  1.00  0.00    -0.201 OA
ATOM     15  O   UNL A   1      35.372  22.494  24.518  1.00  0.00    -0.201 OA
BRANCH  13  16
ATOM     16  C   UNL A   1      33.919  20.382  24.675  1.00  0.00     0.088 A 
ATOM     17  C   UNL A   1      33.858  16.543  23.847  1.00  0.00     0.044 C 
ATOM     18  C   UNL A   1      33.684  18.042  23.912  1.00  0.00    -0.050 A 
ATOM     19  C   UNL A   1      32.604  18.403  23.115  1.00  0.00     0.003 A 
ATOM     20  C   UNL A   1      34.391  19.058  24.667  1.00  0.00     0.025 A 
ATOM     21  C   UNL A   1      32.154  19.698  23.097  1.00  0.00     0.002 A 
ATOM     22  C   UNL A   1      32.792  20.660  23.873  1.00  0.00     0.022 A 
ENDBRANCH  13  16
ENDBRANCH  11  13
ENDBRANCH   6  11
BRANCH  10  23
ATOM     23  N   UNL A   1      30.592  26.926  23.374  1.00  0.00    -0.355 N 
ATOM     24  C   UNL A   1      29.496  26.039  23.919  1.00  0.00     0.145 C 
BRANCH  23  25
ATOM     25  C   UNL A   1      29.777  28.012  22.366  1.00  0.00     0.153 C 
BRANCH  25  26
ATOM     26  C   UNL A   1      29.199  29.550  22.697  1.00  0.00    -0.029 A 
ATOM     27  C   UNL A   1      28.224  30.451  21.393  1.00  0.00     0.005 A 
ATOM     28  C   UNL A   1      29.793  30.487  24.141  1.00  0.00     0.005 A 
ATOM     29  C   UNL A   1      28.125  32.323  21.349  1.00  0.00     0.000 A 
ATOM     30  C   UNL A   1      29.569  32.314  24.262  1.00  0.00     0.000 A 
ATOM     31  C   UNL A   1      28.842  33.277  22.799  1.00  0.00     0.000 A 
ENDBRANCH  25  26
ENDBRANCH  23  25
ENDBRANCH  10  23
ENDBRANCH   3   5
ENDBRANCH   2   3
ENDBRANCH   1   2
BRANCH   1  32
ATOM     32  C   UNL A   1      35.640  29.707  28.175  1.00  0.00     0.275 C 
BRANCH  32  33
ATOM     33  O   UNL A   1      36.492  30.848  27.976  1.00  0.00    -0.458 OA
BRANCH  33  34
ATOM     34  C   UNL A   1      36.097  32.100  28.266  1.00  0.00     0.338 C 
ATOM     35  O   UNL A   1      35.447  32.791  27.494  1.00  0.00    -0.246 OA
BRANCH  34  36
ATOM     36  C   UNL A   1      36.391  32.556  29.631  1.00  0.00     0.060 A 
ATOM     37  C   UNL A   1      37.457  33.423  29.750  1.00  0.00     0.016 A 
ATOM     38  C   UNL A   1      35.626  32.376  30.755  1.00  0.00     0.016 A 
ATOM     39  C   UNL A   1      37.878  34.022  30.982  1.00  0.00     0.010 A 
ATOM     40  C   UNL A   1      36.025  33.067  31.909  1.00  0.00     0.010 A 
ATOM     41  C   UNL A   1      37.344  33.564  32.117  1.00  0.00    -0.014 A 
BRANCH  41  42
ATOM     42  C   UNL A   1      38.580  32.777  33.102  1.00  0.00     0.031 A 
ATOM     43  C   UNL A   1      38.240  31.076  32.403  1.00  0.00     0.074 A 
ATOM     44  C   UNL A   1      40.102  33.387  34.037  1.00  0.00     0.049 A 
ATOM     45  N   UNL A   1      39.167  30.404  31.777  1.00  0.00    -0.248 NA
ATOM     46  C   UNL A   1      37.037  30.222  32.354  1.00  0.00     0.031 C 
ATOM     47  C   UNL A   1      41.820  33.441  33.479  1.00  0.00     0.029 A 
ATOM     48  N   UNL A   1      40.518  34.408  35.046  1.00  0.00    -0.354 N 
ATOM     49  C   UNL A   1      38.806  29.256  31.165  1.00  0.00     0.074 A 
ATOM     50  C   UNL A   1      37.398  29.216  31.491  1.00  0.00     0.031 C 
ATOM     51  C   UNL A   1      42.668  33.997  34.320  1.00  0.00     0.029 A 
ATOM     52  C   UNL A   1      41.874  34.224  35.445  1.00  0.00     0.049 A 
ATOM     53  H   UNL A   1      39.930  35.119  35.391  1.00  0.00     0.167 HD
ATOM     54  C   UNL A   1      39.845  28.719  30.432  1.00  0.00     0.037 A 
ATOM     55  C   UNL A   1      42.155  33.689  36.645  1.00  0.00     0.037 A 
ATOM     56  C   UNL A   1      41.141  29.095  31.087  1.00  0.00     0.049 A 
ATOM     57  C   UNL A   1      42.444  32.169  36.417  1.00  0.00     0.074 A 
ATOM     58  C   UNL A   1      42.272  29.834  30.773  1.00  0.00     0.029 A 
ATOM     59  N   UNL A   1      41.257  28.823  32.451  1.00  0.00    -0.354 N 
ATOM     60  N   UNL A   1      42.412  31.507  35.265  1.00  0.00    -0.248 NA
ATOM     61  C   UNL A   1      42.963  31.319  37.474  1.00  0.00     0.031 C 
ATOM     62  C   UNL A   1      43.006  30.068  31.999  1.00  0.00     0.029 A 
ATOM     63  C   UNL A   1      42.349  29.442  33.054  1.00  0.00     0.049 A 
ATOM     64  H   UNL A   1      40.626  28.247  32.941  1.00  0.00     0.167 HD
ATOM     65  C   UNL A   1      42.761  30.183  35.419  1.00  0.00     0.074 A 
ATOM     66  C   UNL A   1      43.220  30.179  36.806  1.00  0.00     0.031 C 
ATOM     67  C   UNL A   1      42.623  29.161  34.485  1.00  0.00     0.037 A 
BRANCH  54  68
ATOM     68  C   UNL A   1      39.851  27.946  29.110  1.00  0.00     0.064 A 
ATOM     69  C   UNL A   1      39.375  26.606  29.054  1.00  0.00     0.173 A 
ATOM     70  C   UNL A   1      40.470  28.379  27.925  1.00  0.00     0.173 A 
ATOM     71  F   UNL A   1      38.730  26.051  30.088  1.00  0.00    -0.203 F 
ATOM     72  C   UNL A   1      39.546  25.766  27.941  1.00  0.00     0.198 A 
ATOM     73  C   UNL A   1      40.646  27.534  26.804  1.00  0.00     0.198 A 
ATOM     74  F   UNL A   1      40.925  29.632  27.819  1.00  0.00    -0.203 F 
ATOM     75  F   UNL A   1      39.097  24.502  27.981  1.00  0.00    -0.200 F 
ATOM     76  C   UNL A   1      40.190  26.228  26.816  1.00  0.00     0.200 A 
ATOM     77  F   UNL A   1      41.279  27.989  25.711  1.00  0.00    -0.200 F 
ATOM     78  F   UNL A   1      40.364  25.424  25.757  1.00  0.00    -0.200 F 
ENDBRANCH  54  68
BRANCH  55  79
ATOM     79  C   UNL A   1      41.340  34.581  37.564  1.00  0.00     0.064 A 
ATOM     80  C   UNL A   1      40.328  33.869  38.320  1.00  0.00     0.173 A 
ATOM     81  C   UNL A   1      41.894  35.694  38.189  1.00  0.00     0.173 A 
ATOM     82  F   UNL A   1      39.743  32.777  37.788  1.00  0.00    -0.203 F 
ATOM     83  C   UNL A   1      40.220  34.019  39.706  1.00  0.00     0.198 A 
ATOM     84  C   UNL A   1      41.628  35.946  39.546  1.00  0.00     0.198 A 
ATOM     85  F   UNL A   1      42.822  36.429  37.564  1.00  0.00    -0.203 F 
ATOM     86  F   UNL A   1      39.625  33.068  40.445  1.00  0.00    -0.200 F 
ATOM     87  C   UNL A   1      40.895  35.049  40.321  1.00  0.00     0.200 A 
ATOM     88  F   UNL A   1      42.203  36.999  40.145  1.00  0.00    -0.200 F 
ATOM     89  F   UNL A   1      40.921  35.129  41.661  1.00  0.00    -0.200 F 
ENDBRANCH  55  79
BRANCH  67  90
ATOM     90  C   UNL A   1      42.748  27.668  34.858  1.00  0.00     0.064 A 
ATOM     91  C   UNL A   1      43.730  26.818  34.331  1.00  0.00     0.173 A 
ATOM     92  C   UNL A   1      41.928  27.052  35.845  1.00  0.00     0.173 A 
ATOM     93  F   UNL A   1      44.791  27.295  33.670  1.00  0.00    -0.203 F 
ATOM     94  C   UNL A   1      43.723  25.439  34.544  1.00  0.00     0.198 A 
ATOM     95  C   UNL A   1      42.026  25.699  36.175  1.00  0.00     0.198 A 
ATOM     96  F   UNL A   1      41.025  27.735  36.560  1.00  0.00    -0.203 F 
ATOM     97  F   UNL A   1      44.578  24.665  33.862  1.00  0.00    -0.200 F 
ATOM     98  C   UNL A   1      42.871  24.877  35.468  1.00  0.00     0.200 A 
ATOM     99  F   UNL A   1      41.299  25.204  37.187  1.00  0.00    -0.200 F 
ATOM    100  F   UNL A   1      42.897  23.560  35.705  1.00  0.00    -0.200 F 
ENDBRANCH  67  90
ENDBRANCH  41  42
ENDBRANCH  34  36
ENDBRANCH  33  34
ENDBRANCH  32  33
ENDBRANCH   1  32
TORSDOF 17
ENDMDL
