MODEL 1
REMARK VINA RESULT:     -10.9      0.000      0.000
REMARK SMILES CC[N@H+](CC(C)(C)C(=O)OCCOC(=O)c1ccc(-c2c3nc(c(-c4c(F)c(F)c(F)c(F)c4F)c4ccc([nH]4)c(-c4c(F)c(F)c(F)c(F)c4F)c4nc(c(-c5c(F)c(F)c(F)c(F)c5F)c5ccc2[nH]5)C=C4)C=C3)cc1)[C@H]1CC[NH2+]C1
REMARK SMILES IDX 11 1 10 2 8 3 9 4 5 5 6 6 7 7 4 8 3 9 2 11 1 12 79 13 80 14
REMARK SMILES IDX 83 15 81 16 82 17 12 20 13 21 14 22 15 23 16 24 17 25 78 26
REMARK SMILES IDX 18 27 77 28 19 29 20 30 21 31 71 32 22 33 76 34 70 35 72 36
REMARK SMILES IDX 23 37 75 38 69 39 68 40 24 42 56 43 36 44 55 45 37 46 40 47
REMARK SMILES IDX 54 48 73 49 38 50 39 51 53 53 74 54 41 55 25 56 26 57 34 58
REMARK SMILES IDX 27 59 28 60 32 61 35 62 29 63 30 64 33 65 31 66 57 67 58 68
REMARK SMILES IDX 66 69 59 70 60 71 64 72 67 73 61 74 62 75 65 76 63 77 42 78
REMARK SMILES IDX 43 79 51 80 44 81 45 82 49 83 52 84 46 85 47 86 50 87 48 88
REMARK H PARENT 3 10 82 18 82 19 72 41 40 52
REMARK Flexibility Score: inf
ROOT
ATOM      1  C   UNL A   1      31.264  28.971  24.737  1.00  0.00     0.274 C 
ENDROOT
BRANCH   1   2
ATOM      2  O   UNL A   1      31.463  27.819  25.585  1.00  0.00    -0.461 OA
BRANCH   2   3
ATOM      3  C   UNL A   1      31.508  26.618  24.936  1.00  0.00     0.317 C 
ATOM      4  O   UNL A   1      30.526  26.151  24.380  1.00  0.00    -0.251 OA
BRANCH   3   5
ATOM      5  C   UNL A   1      32.882  25.921  25.051  1.00  0.00     0.111 C 
ATOM      6  C   UNL A   1      33.850  26.855  25.782  1.00  0.00     0.029 C 
ATOM      7  C   UNL A   1      33.423  25.681  23.613  1.00  0.00     0.029 C 
BRANCH   5   8
ATOM      8  C   UNL A   1      32.836  24.499  25.727  1.00  0.00     0.280 C 
BRANCH   8   9
ATOM      9  N   UNL A   1      33.739  23.355  25.426  1.00  0.00    -0.327 N 
ATOM     10  H   UNL A   1      34.003  23.487  24.449  1.00  0.00     0.348 HD
BRANCH   9  11
ATOM     11  C   UNL A   1      34.989  23.364  26.211  1.00  0.00     0.259 C 
ATOM     12  C   UNL A   1      36.291  23.701  25.485  1.00  0.00     0.071 C 
ENDBRANCH   9  11
BRANCH   9  13
ATOM     13  C   UNL A   1      33.055  22.039  25.541  1.00  0.00     0.245 C 
ATOM     14  C   UNL A   1      33.053  21.053  24.368  1.00  0.00     0.132 C 
ATOM     15  C   UNL A   1      33.627  21.141  26.656  1.00  0.00     0.326 C 
ATOM     16  C   UNL A   1      32.546  19.792  25.041  1.00  0.00     0.267 C 
ATOM     17  N   UNL A   1      33.255  19.748  26.325  1.00  0.00    -0.341 N 
ATOM     18  H   UNL A   1      34.092  19.171  26.245  1.00  0.00     0.346 HD
ATOM     19  H   UNL A   1      32.667  19.343  27.054  1.00  0.00     0.346 HD
ENDBRANCH   9  13
ENDBRANCH   8   9
ENDBRANCH   5   8
ENDBRANCH   3   5
ENDBRANCH   2   3
ENDBRANCH   1   2
BRANCH   1  20
ATOM     20  C   UNL A   1      31.513  30.281  25.488  1.00  0.00     0.275 C 
BRANCH  20  21
ATOM     21  O   UNL A   1      32.557  30.114  26.469  1.00  0.00    -0.458 OA
BRANCH  21  22
ATOM     22  C   UNL A   1      33.037  31.238  27.038  1.00  0.00     0.338 C 
ATOM     23  O   UNL A   1      32.451  32.310  27.183  1.00  0.00    -0.246 OA
BRANCH  22  24
ATOM     24  C   UNL A   1      34.393  31.004  27.561  1.00  0.00     0.060 A 
ATOM     25  C   UNL A   1      34.765  29.698  27.857  1.00  0.00     0.016 A 
ATOM     26  C   UNL A   1      35.243  32.053  27.907  1.00  0.00     0.016 A 
ATOM     27  C   UNL A   1      35.943  29.435  28.550  1.00  0.00     0.010 A 
ATOM     28  C   UNL A   1      36.463  31.782  28.553  1.00  0.00     0.010 A 
ATOM     29  C   UNL A   1      36.811  30.466  28.915  1.00  0.00    -0.014 A 
BRANCH  29  30
ATOM     30  C   UNL A   1      37.988  30.155  29.778  1.00  0.00     0.031 A 
ATOM     31  C   UNL A   1      39.117  29.327  29.221  1.00  0.00     0.074 A 
ATOM     32  C   UNL A   1      38.144  30.704  31.000  1.00  0.00     0.049 A 
ATOM     33  N   UNL A   1      40.160  28.820  29.828  1.00  0.00    -0.248 NA
ATOM     34  C   UNL A   1      39.075  29.056  27.776  1.00  0.00     0.031 C 
ATOM     35  C   UNL A   1      37.231  31.662  31.623  1.00  0.00     0.029 A 
ATOM     36  N   UNL A   1      39.149  30.555  31.928  1.00  0.00    -0.354 N 
ATOM     37  C   UNL A   1      40.867  28.126  28.856  1.00  0.00     0.074 A 
ATOM     38  C   UNL A   1      40.148  28.295  27.611  1.00  0.00     0.031 C 
ATOM     39  C   UNL A   1      37.737  32.045  32.807  1.00  0.00     0.029 A 
ATOM     40  C   UNL A   1      38.957  31.286  33.076  1.00  0.00     0.049 A 
ATOM     41  H   UNL A   1      39.934  29.978  31.782  1.00  0.00     0.167 HD
ATOM     42  C   UNL A   1      42.005  27.404  28.989  1.00  0.00     0.037 A 
ATOM     43  C   UNL A   1      39.651  31.306  34.233  1.00  0.00     0.037 A 
ATOM     44  C   UNL A   1      42.751  27.267  30.212  1.00  0.00     0.049 A 
ATOM     45  C   UNL A   1      40.843  30.397  34.399  1.00  0.00     0.074 A 
ATOM     46  C   UNL A   1      43.878  26.502  30.457  1.00  0.00     0.029 A 
ATOM     47  N   UNL A   1      42.455  27.930  31.393  1.00  0.00    -0.354 N 
ATOM     48  N   UNL A   1      41.427  29.623  33.518  1.00  0.00    -0.248 NA
ATOM     49  C   UNL A   1      41.451  30.340  35.739  1.00  0.00     0.031 C 
ATOM     50  C   UNL A   1      44.242  26.672  31.797  1.00  0.00     0.029 A 
ATOM     51  C   UNL A   1      43.369  27.577  32.375  1.00  0.00     0.049 A 
ATOM     52  H   UNL A   1      41.707  28.557  31.517  1.00  0.00     0.167 HD
ATOM     53  C   UNL A   1      42.473  29.000  34.189  1.00  0.00     0.074 A 
ATOM     54  C   UNL A   1      42.460  29.502  35.546  1.00  0.00     0.031 C 
ATOM     55  C   UNL A   1      43.357  28.085  33.722  1.00  0.00     0.037 A 
BRANCH  42  56
ATOM     56  C   UNL A   1      42.474  26.637  27.790  1.00  0.00     0.064 A 
ATOM     57  C   UNL A   1      42.036  25.333  27.520  1.00  0.00     0.173 A 
ATOM     58  C   UNL A   1      43.367  27.235  26.888  1.00  0.00     0.173 A 
ATOM     59  F   UNL A   1      41.199  24.712  28.364  1.00  0.00    -0.203 F 
ATOM     60  C   UNL A   1      42.495  24.647  26.397  1.00  0.00     0.198 A 
ATOM     61  C   UNL A   1      43.802  26.555  25.754  1.00  0.00     0.198 A 
ATOM     62  F   UNL A   1      43.812  28.481  27.104  1.00  0.00    -0.203 F 
ATOM     63  F   UNL A   1      42.101  23.385  26.177  1.00  0.00    -0.200 F 
ATOM     64  C   UNL A   1      43.372  25.261  25.514  1.00  0.00     0.200 A 
ATOM     65  F   UNL A   1      44.642  27.154  24.899  1.00  0.00    -0.200 F 
ATOM     66  F   UNL A   1      43.810  24.599  24.433  1.00  0.00    -0.200 F 
ENDBRANCH  42  56
BRANCH  43  67
ATOM     67  C   UNL A   1      39.196  32.153  35.370  1.00  0.00     0.064 A 
ATOM     68  C   UNL A   1      39.607  33.488  35.492  1.00  0.00     0.173 A 
ATOM     69  C   UNL A   1      38.384  31.627  36.387  1.00  0.00     0.173 A 
ATOM     70  F   UNL A   1      40.420  34.025  34.572  1.00  0.00    -0.203 F 
ATOM     71  C   UNL A   1      39.234  34.258  36.593  1.00  0.00     0.198 A 
ATOM     72  C   UNL A   1      37.985  32.409  37.469  1.00  0.00     0.198 A 
ATOM     73  F   UNL A   1      37.980  30.349  36.334  1.00  0.00    -0.203 F 
ATOM     74  F   UNL A   1      39.690  35.512  36.717  1.00  0.00    -0.200 F 
ATOM     75  C   UNL A   1      38.418  33.720  37.576  1.00  0.00     0.200 A 
ATOM     76  F   UNL A   1      37.192  31.884  38.414  1.00  0.00    -0.200 F 
ATOM     77  F   UNL A   1      38.062  34.460  38.636  1.00  0.00    -0.200 F 
ENDBRANCH  43  67
BRANCH  55  78
ATOM     78  C   UNL A   1      44.402  27.578  34.673  1.00  0.00     0.064 A 
ATOM     79  C   UNL A   1      45.617  28.255  34.854  1.00  0.00     0.173 A 
ATOM     80  C   UNL A   1      44.165  26.432  35.446  1.00  0.00     0.173 A 
ATOM     81  F   UNL A   1      45.897  29.347  34.128  1.00  0.00    -0.203 F 
ATOM     82  C   UNL A   1      46.566  27.791  35.763  1.00  0.00     0.198 A 
ATOM     83  C   UNL A   1      45.105  25.986  36.373  1.00  0.00     0.198 A 
ATOM     84  F   UNL A   1      43.017  25.753  35.316  1.00  0.00    -0.203 F 
ATOM     85  F   UNL A   1      47.736  28.432  35.893  1.00  0.00    -0.200 F 
ATOM     86  C   UNL A   1      46.306  26.662  36.526  1.00  0.00     0.200 A 
ATOM     87  F   UNL A   1      44.848  24.902  37.118  1.00  0.00    -0.200 F 
ATOM     88  F   UNL A   1      47.216  26.223  37.406  1.00  0.00    -0.200 F 
ENDBRANCH  55  78
ENDBRANCH  29  30
ENDBRANCH  22  24
ENDBRANCH  21  22
ENDBRANCH  20  21
ENDBRANCH   1  20
TORSDOF 15
ENDMDL
MODEL 2
REMARK VINA RESULT:     -10.9      4.504      9.654
REMARK SMILES CC[N@H+](CC(C)(C)C(=O)OCCOC(=O)c1ccc(-c2c3nc(c(-c4c(F)c(F)c(F)c(F)c4F)c4ccc([nH]4)c(-c4c(F)c(F)c(F)c(F)c4F)c4nc(c(-c5c(F)c(F)c(F)c(F)c5F)c5ccc2[nH]5)C=C4)C=C3)cc1)[C@H]1CC[NH2+]C1
REMARK SMILES IDX 11 1 10 2 8 3 9 4 5 5 6 6 7 7 4 8 3 9 2 11 1 12 79 13 80 14
REMARK SMILES IDX 83 15 81 16 82 17 12 20 13 21 14 22 15 23 16 24 17 25 78 26
REMARK SMILES IDX 18 27 77 28 19 29 20 30 21 31 71 32 22 33 76 34 70 35 72 36
REMARK SMILES IDX 23 37 75 38 69 39 68 40 24 42 56 43 36 44 55 45 37 46 40 47
REMARK SMILES IDX 54 48 73 49 38 50 39 51 53 53 74 54 41 55 25 56 26 57 34 58
REMARK SMILES IDX 27 59 28 60 32 61 35 62 29 63 30 64 33 65 31 66 57 67 58 68
REMARK SMILES IDX 66 69 59 70 60 71 64 72 67 73 61 74 62 75 65 76 63 77 42 78
REMARK SMILES IDX 43 79 51 80 44 81 45 82 49 83 52 84 46 85 47 86 50 87 48 88
REMARK H PARENT 3 10 82 18 82 19 72 41 40 52
REMARK Flexibility Score: inf
ROOT
ATOM      1  C   UNL A   1      36.811  22.544  23.480  1.00  0.00     0.274 C 
ENDROOT
BRANCH   1   2
ATOM      2  O   UNL A   1      36.077  23.651  24.049  1.00  0.00    -0.461 OA
BRANCH   2   3
ATOM      3  C   UNL A   1      34.805  23.809  23.578  1.00  0.00     0.317 C 
ATOM      4  O   UNL A   1      34.521  23.595  22.409  1.00  0.00    -0.251 OA
BRANCH   3   5
ATOM      5  C   UNL A   1      33.826  24.340  24.649  1.00  0.00     0.111 C 
ATOM      6  C   UNL A   1      33.597  25.835  24.409  1.00  0.00     0.029 C 
ATOM      7  C   UNL A   1      34.492  24.163  26.042  1.00  0.00     0.029 C 
BRANCH   5   8
ATOM      8  C   UNL A   1      32.462  23.556  24.729  1.00  0.00     0.280 C 
BRANCH   8   9
ATOM      9  N   UNL A   1      32.068  22.589  25.790  1.00  0.00    -0.327 N 
ATOM     10  H   UNL A   1      32.708  22.781  26.562  1.00  0.00     0.348 HD
BRANCH   9  11
ATOM     11  C   UNL A   1      30.701  22.800  26.306  1.00  0.00     0.259 C 
ATOM     12  C   UNL A   1      30.193  24.236  26.428  1.00  0.00     0.071 C 
ENDBRANCH   9  11
BRANCH   9  13
ATOM     13  C   UNL A   1      32.261  21.173  25.375  1.00  0.00     0.245 C 
ATOM     14  C   UNL A   1      32.405  20.806  23.894  1.00  0.00     0.132 C 
ATOM     15  C   UNL A   1      33.540  20.531  25.946  1.00  0.00     0.326 C 
ATOM     16  C   UNL A   1      32.886  19.371  23.991  1.00  0.00     0.267 C 
ATOM     17  N   UNL A   1      33.877  19.385  25.073  1.00  0.00    -0.341 N 
ATOM     18  H   UNL A   1      34.815  19.500  24.689  1.00  0.00     0.346 HD
ATOM     19  H   UNL A   1      33.860  18.509  25.596  1.00  0.00     0.346 HD
ENDBRANCH   9  13
ENDBRANCH   8   9
ENDBRANCH   5   8
ENDBRANCH   3   5
ENDBRANCH   2   3
ENDBRANCH   1   2
BRANCH   1  20
ATOM     20  C   UNL A   1      36.921  21.372  24.459  1.00  0.00     0.275 C 
BRANCH  20  21
ATOM     21  O   UNL A   1      37.384  21.828  25.747  1.00  0.00    -0.458 OA
BRANCH  21  22
ATOM     22  C   UNL A   1      38.678  21.591  26.042  1.00  0.00     0.338 C 
ATOM     23  O   UNL A   1      39.327  20.576  25.793  1.00  0.00    -0.246 OA
BRANCH  22  24
ATOM     24  C   UNL A   1      39.282  22.778  26.668  1.00  0.00     0.060 A 
ATOM     25  C   UNL A   1      38.835  24.030  26.265  1.00  0.00     0.016 A 
ATOM     26  C   UNL A   1      40.379  22.686  27.524  1.00  0.00     0.016 A 
ATOM     27  C   UNL A   1      39.509  25.185  26.655  1.00  0.00     0.010 A 
ATOM     28  C   UNL A   1      41.022  23.856  27.967  1.00  0.00     0.010 A 
ATOM     29  C   UNL A   1      40.613  25.122  27.507  1.00  0.00    -0.014 A 
BRANCH  29  30
ATOM     30  C   UNL A   1      41.389  26.367  27.785  1.00  0.00     0.031 A 
ATOM     31  C   UNL A   1      40.792  27.430  28.670  1.00  0.00     0.074 A 
ATOM     32  C   UNL A   1      42.667  26.517  27.382  1.00  0.00     0.049 A 
ATOM     33  N   UNL A   1      41.220  28.639  28.929  1.00  0.00    -0.248 NA
ATOM     34  C   UNL A   1      39.554  27.068  29.379  1.00  0.00     0.031 C 
ATOM     35  C   UNL A   1      43.455  25.516  26.665  1.00  0.00     0.029 A 
ATOM     36  N   UNL A   1      43.542  27.567  27.549  1.00  0.00    -0.354 N 
ATOM     37  C   UNL A   1      40.282  29.201  29.783  1.00  0.00     0.074 A 
ATOM     38  C   UNL A   1      39.269  28.193  30.019  1.00  0.00     0.031 C 
ATOM     39  C   UNL A   1      44.703  25.981  26.490  1.00  0.00     0.029 A 
ATOM     40  C   UNL A   1      44.779  27.352  26.991  1.00  0.00     0.049 A 
ATOM     41  H   UNL A   1      43.302  28.395  28.026  1.00  0.00     0.167 HD
ATOM     42  C   UNL A   1      40.258  30.447  30.314  1.00  0.00     0.037 A 
ATOM     43  C   UNL A   1      45.836  28.178  26.850  1.00  0.00     0.037 A 
ATOM     44  C   UNL A   1      41.281  31.440  30.121  1.00  0.00     0.049 A 
ATOM     45  C   UNL A   1      45.736  29.602  27.340  1.00  0.00     0.074 A 
ATOM     46  C   UNL A   1      41.309  32.751  30.565  1.00  0.00     0.029 A 
ATOM     47  N   UNL A   1      42.471  31.223  29.443  1.00  0.00    -0.354 N 
ATOM     48  N   UNL A   1      44.779  30.180  28.023  1.00  0.00    -0.248 NA
ATOM     49  C   UNL A   1      46.855  30.498  27.004  1.00  0.00     0.031 C 
ATOM     50  C   UNL A   1      42.499  33.340  30.123  1.00  0.00     0.029 A 
ATOM     51  C   UNL A   1      43.232  32.383  29.443  1.00  0.00     0.049 A 
ATOM     52  H   UNL A   1      42.736  30.373  29.024  1.00  0.00     0.167 HD
ATOM     53  C   UNL A   1      45.184  31.497  28.208  1.00  0.00     0.074 A 
ATOM     54  C   UNL A   1      46.484  31.630  27.587  1.00  0.00     0.031 C 
ATOM     55  C   UNL A   1      44.528  32.507  28.830  1.00  0.00     0.037 A 
BRANCH  42  56
ATOM     56  C   UNL A   1      39.039  30.835  31.095  1.00  0.00     0.064 A 
ATOM     57  C   UNL A   1      38.948  30.646  32.481  1.00  0.00     0.173 A 
ATOM     58  C   UNL A   1      37.949  31.425  30.436  1.00  0.00     0.173 A 
ATOM     59  F   UNL A   1      39.955  30.068  33.151  1.00  0.00    -0.203 F 
ATOM     60  C   UNL A   1      37.798  31.016  33.176  1.00  0.00     0.198 A 
ATOM     61  C   UNL A   1      36.813  31.816  31.138  1.00  0.00     0.198 A 
ATOM     62  F   UNL A   1      37.991  31.628  29.111  1.00  0.00    -0.203 F 
ATOM     63  F   UNL A   1      37.711  30.787  34.494  1.00  0.00    -0.200 F 
ATOM     64  C   UNL A   1      36.736  31.605  32.505  1.00  0.00     0.200 A 
ATOM     65  F   UNL A   1      35.793  32.393  30.488  1.00  0.00    -0.200 F 
ATOM     66  F   UNL A   1      35.631  31.961  33.176  1.00  0.00    -0.200 F 
ENDBRANCH  42  56
BRANCH  43  67
ATOM     67  C   UNL A   1      47.062  27.719  26.141  1.00  0.00     0.064 A 
ATOM     68  C   UNL A   1      47.142  27.734  24.741  1.00  0.00     0.173 A 
ATOM     69  C   UNL A   1      48.160  27.205  26.848  1.00  0.00     0.173 A 
ATOM     70  F   UNL A   1      46.102  28.172  24.016  1.00  0.00    -0.203 F 
ATOM     71  C   UNL A   1      48.265  27.241  24.078  1.00  0.00     0.198 A 
ATOM     72  C   UNL A   1      49.295  26.744  26.186  1.00  0.00     0.198 A 
ATOM     73  F   UNL A   1      48.129  27.145  28.188  1.00  0.00    -0.203 F 
ATOM     74  F   UNL A   1      48.291  27.211  22.739  1.00  0.00    -0.200 F 
ATOM     75  C   UNL A   1      49.343  26.754  24.801  1.00  0.00     0.200 A 
ATOM     76  F   UNL A   1      50.336  26.279  26.890  1.00  0.00    -0.200 F 
ATOM     77  F   UNL A   1      50.422  26.277  24.164  1.00  0.00    -0.200 F 
ENDBRANCH  43  67
BRANCH  55  78
ATOM     78  C   UNL A   1      45.210  33.844  28.893  1.00  0.00     0.064 A 
ATOM     79  C   UNL A   1      46.107  34.161  29.924  1.00  0.00     0.173 A 
ATOM     80  C   UNL A   1      45.001  34.798  27.886  1.00  0.00     0.173 A 
ATOM     81  F   UNL A   1      46.330  33.287  30.917  1.00  0.00    -0.203 F 
ATOM     82  C   UNL A   1      46.756  35.393  29.954  1.00  0.00     0.198 A 
ATOM     83  C   UNL A   1      45.671  36.019  27.906  1.00  0.00     0.198 A 
ATOM     84  F   UNL A   1      44.158  34.542  26.875  1.00  0.00    -0.203 F 
ATOM     85  F   UNL A   1      47.581  35.689  30.968  1.00  0.00    -0.200 F 
ATOM     86  C   UNL A   1      46.544  36.317  28.941  1.00  0.00     0.200 A 
ATOM     87  F   UNL A   1      45.474  36.906  26.921  1.00  0.00    -0.200 F 
ATOM     88  F   UNL A   1      47.176  37.498  28.968  1.00  0.00    -0.200 F 
ENDBRANCH  55  78
ENDBRANCH  29  30
ENDBRANCH  22  24
ENDBRANCH  21  22
ENDBRANCH  20  21
ENDBRANCH   1  20
TORSDOF 15
ENDMDL
MODEL 3
REMARK VINA RESULT:     -10.8      4.510      9.722
REMARK SMILES CC[N@H+](CC(C)(C)C(=O)OCCOC(=O)c1ccc(-c2c3nc(c(-c4c(F)c(F)c(F)c(F)c4F)c4ccc([nH]4)c(-c4c(F)c(F)c(F)c(F)c4F)c4nc(c(-c5c(F)c(F)c(F)c(F)c5F)c5ccc2[nH]5)C=C4)C=C3)cc1)[C@H]1CC[NH2+]C1
REMARK SMILES IDX 11 1 10 2 8 3 9 4 5 5 6 6 7 7 4 8 3 9 2 11 1 12 79 13 80 14
REMARK SMILES IDX 83 15 81 16 82 17 12 20 13 21 14 22 15 23 16 24 17 25 78 26
REMARK SMILES IDX 18 27 77 28 19 29 20 30 21 31 71 32 22 33 76 34 70 35 72 36
REMARK SMILES IDX 23 37 75 38 69 39 68 40 24 42 56 43 36 44 55 45 37 46 40 47
REMARK SMILES IDX 54 48 73 49 38 50 39 51 53 53 74 54 41 55 25 56 26 57 34 58
REMARK SMILES IDX 27 59 28 60 32 61 35 62 29 63 30 64 33 65 31 66 57 67 58 68
REMARK SMILES IDX 66 69 59 70 60 71 64 72 67 73 61 74 62 75 65 76 63 77 42 78
REMARK SMILES IDX 43 79 51 80 44 81 45 82 49 83 52 84 46 85 47 86 50 87 48 88
REMARK H PARENT 3 10 82 18 82 19 72 41 40 52
REMARK Flexibility Score: inf
ROOT
ATOM      1  C   UNL A   1      36.666  22.574  23.521  1.00  0.00     0.274 C 
ENDROOT
BRANCH   1   2
ATOM      2  O   UNL A   1      36.129  23.692  24.263  1.00  0.00    -0.461 OA
BRANCH   2   3
ATOM      3  C   UNL A   1      34.876  24.089  23.893  1.00  0.00     0.317 C 
ATOM      4  O   UNL A   1      34.584  24.288  22.724  1.00  0.00    -0.251 OA
BRANCH   3   5
ATOM      5  C   UNL A   1      33.934  24.313  25.097  1.00  0.00     0.111 C 
ATOM      6  C   UNL A   1      33.773  25.819  25.322  1.00  0.00     0.029 C 
ATOM      7  C   UNL A   1      34.605  23.697  26.357  1.00  0.00     0.029 C 
BRANCH   5   8
ATOM      8  C   UNL A   1      32.536  23.598  24.971  1.00  0.00     0.280 C 
BRANCH   8   9
ATOM      9  N   UNL A   1      32.026  22.508  25.847  1.00  0.00    -0.327 N 
ATOM     10  H   UNL A   1      32.679  22.484  26.632  1.00  0.00     0.348 HD
BRANCH   9  11
ATOM     11  C   UNL A   1      30.690  22.778  26.413  1.00  0.00     0.259 C 
ATOM     12  C   UNL A   1      30.173  24.216  26.381  1.00  0.00     0.071 C 
ENDBRANCH   9  11
BRANCH   9  13
ATOM     13  C   UNL A   1      32.057  21.177  25.183  1.00  0.00     0.245 C 
ATOM     14  C   UNL A   1      32.244  21.065  23.666  1.00  0.00     0.132 C 
ATOM     15  C   UNL A   1      33.204  20.270  25.670  1.00  0.00     0.326 C 
ATOM     16  C   UNL A   1      32.525  19.583  23.510  1.00  0.00     0.267 C 
ATOM     17  N   UNL A   1      33.441  19.263  24.612  1.00  0.00    -0.341 N 
ATOM     18  H   UNL A   1      34.407  19.313  24.290  1.00  0.00     0.346 HD
ATOM     19  H   UNL A   1      33.278  18.320  24.961  1.00  0.00     0.346 HD
ENDBRANCH   9  13
ENDBRANCH   8   9
ENDBRANCH   5   8
ENDBRANCH   3   5
ENDBRANCH   2   3
ENDBRANCH   1   2
BRANCH   1  20
ATOM     20  C   UNL A   1      36.926  21.365  24.423  1.00  0.00     0.275 C 
BRANCH  20  21
ATOM     21  O   UNL A   1      37.402  21.789  25.716  1.00  0.00    -0.458 OA
BRANCH  21  22
ATOM     22  C   UNL A   1      38.701  21.551  25.990  1.00  0.00     0.338 C 
ATOM     23  O   UNL A   1      39.345  20.536  25.729  1.00  0.00    -0.246 OA
BRANCH  22  24
ATOM     24  C   UNL A   1      39.316  22.738  26.606  1.00  0.00     0.060 A 
ATOM     25  C   UNL A   1      38.908  23.991  26.166  1.00  0.00     0.016 A 
ATOM     26  C   UNL A   1      40.389  22.639  27.491  1.00  0.00     0.016 A 
ATOM     27  C   UNL A   1      39.597  25.138  26.549  1.00  0.00     0.010 A 
ATOM     28  C   UNL A   1      41.047  23.804  27.926  1.00  0.00     0.010 A 
ATOM     29  C   UNL A   1      40.679  25.069  27.430  1.00  0.00    -0.014 A 
BRANCH  29  30
ATOM     30  C   UNL A   1      41.475  26.302  27.702  1.00  0.00     0.031 A 
ATOM     31  C   UNL A   1      40.903  27.371  28.595  1.00  0.00     0.074 A 
ATOM     32  C   UNL A   1      42.751  26.434  27.285  1.00  0.00     0.049 A 
ATOM     33  N   UNL A   1      41.352  28.574  28.852  1.00  0.00    -0.248 NA
ATOM     34  C   UNL A   1      39.668  27.026  29.317  1.00  0.00     0.031 C 
ATOM     35  C   UNL A   1      43.517  25.423  26.557  1.00  0.00     0.029 A 
ATOM     36  N   UNL A   1      43.643  27.471  27.445  1.00  0.00    -0.354 N 
ATOM     37  C   UNL A   1      40.431  29.148  29.717  1.00  0.00     0.074 A 
ATOM     38  C   UNL A   1      39.407  28.154  29.962  1.00  0.00     0.031 C 
ATOM     39  C   UNL A   1      44.769  25.871  26.370  1.00  0.00     0.029 A 
ATOM     40  C   UNL A   1      44.871  27.239  26.873  1.00  0.00     0.049 A 
ATOM     41  H   UNL A   1      43.420  28.301  27.925  1.00  0.00     0.167 HD
ATOM     42  C   UNL A   1      40.431  30.394  30.250  1.00  0.00     0.037 A 
ATOM     43  C   UNL A   1      45.938  28.050  26.722  1.00  0.00     0.037 A 
ATOM     44  C   UNL A   1      41.467  31.372  30.048  1.00  0.00     0.049 A 
ATOM     45  C   UNL A   1      45.865  29.474  27.215  1.00  0.00     0.074 A 
ATOM     46  C   UNL A   1      41.519  32.681  30.494  1.00  0.00     0.029 A 
ATOM     47  N   UNL A   1      42.646  31.139  29.356  1.00  0.00    -0.354 N 
ATOM     48  N   UNL A   1      44.924  30.065  27.909  1.00  0.00    -0.248 NA
ATOM     49  C   UNL A   1      46.993  30.354  26.869  1.00  0.00     0.031 C 
ATOM     50  C   UNL A   1      42.712  33.253  30.040  1.00  0.00     0.029 A 
ATOM     51  C   UNL A   1      43.424  32.287  29.350  1.00  0.00     0.049 A 
ATOM     52  H   UNL A   1      42.894  30.286  28.933  1.00  0.00     0.167 HD
ATOM     53  C   UNL A   1      45.349  31.375  28.093  1.00  0.00     0.074 A 
ATOM     54  C   UNL A   1      46.644  31.490  27.457  1.00  0.00     0.031 C 
ATOM     55  C   UNL A   1      44.715  32.394  28.723  1.00  0.00     0.037 A 
BRANCH  42  56
ATOM     56  C   UNL A   1      39.227  30.798  31.045  1.00  0.00     0.064 A 
ATOM     57  C   UNL A   1      38.104  31.391  30.452  1.00  0.00     0.173 A 
ATOM     58  C   UNL A   1      39.198  30.565  32.429  1.00  0.00     0.173 A 
ATOM     59  F   UNL A   1      38.094  31.652  29.137  1.00  0.00    -0.203 F 
ATOM     60  C   UNL A   1      37.003  31.758  31.223  1.00  0.00     0.198 A 
ATOM     61  C   UNL A   1      38.086  30.909  33.191  1.00  0.00     0.198 A 
ATOM     62  F   UNL A   1      40.249  29.998  33.041  1.00  0.00    -0.203 F 
ATOM     63  F   UNL A   1      35.956  32.365  30.646  1.00  0.00    -0.200 F 
ATOM     64  C   UNL A   1      36.993  31.512  32.589  1.00  0.00     0.200 A 
ATOM     65  F   UNL A   1      38.076  30.662  34.508  1.00  0.00    -0.200 F 
ATOM     66  F   UNL A   1      35.931  31.864  33.327  1.00  0.00    -0.200 F 
ENDBRANCH  42  56
BRANCH  43  67
ATOM     67  C   UNL A   1      47.150  27.574  25.998  1.00  0.00     0.064 A 
ATOM     68  C   UNL A   1      48.245  27.038  26.689  1.00  0.00     0.173 A 
ATOM     69  C   UNL A   1      47.258  27.697  24.604  1.00  0.00     0.173 A 
ATOM     70  F   UNL A   1      48.212  26.942  28.026  1.00  0.00    -0.203 F 
ATOM     71  C   UNL A   1      49.405  26.656  26.016  1.00  0.00     0.198 A 
ATOM     72  C   UNL A   1      48.404  27.284  23.929  1.00  0.00     0.198 A 
ATOM     73  F   UNL A   1      46.249  28.224  23.895  1.00  0.00    -0.203 F 
ATOM     74  F   UNL A   1      50.460  26.203  26.706  1.00  0.00    -0.200 F 
ATOM     75  C   UNL A   1      49.480  26.772  24.636  1.00  0.00     0.200 A 
ATOM     76  F   UNL A   1      48.469  27.394  22.595  1.00  0.00    -0.200 F 
ATOM     77  F   UNL A   1      50.596  26.408  23.989  1.00  0.00    -0.200 F 
ENDBRANCH  43  67
BRANCH  55  78
ATOM     78  C   UNL A   1      45.417  33.720  28.781  1.00  0.00     0.064 A 
ATOM     79  C   UNL A   1      45.229  34.693  27.789  1.00  0.00     0.173 A 
ATOM     80  C   UNL A   1      46.248  34.039  29.865  1.00  0.00     0.173 A 
ATOM     81  F   UNL A   1      44.455  34.431  26.725  1.00  0.00    -0.203 F 
ATOM     82  C   UNL A   1      45.862  35.931  27.871  1.00  0.00     0.198 A 
ATOM     83  C   UNL A   1      46.859  35.287  29.957  1.00  0.00     0.198 A 
ATOM     84  F   UNL A   1      46.456  33.146  30.844  1.00  0.00    -0.203 F 
ATOM     85  F   UNL A   1      45.697  36.832  26.892  1.00  0.00    -0.200 F 
ATOM     86  C   UNL A   1      46.670  36.229  28.958  1.00  0.00     0.200 A 
ATOM     87  F   UNL A   1      47.631  35.578  31.013  1.00  0.00    -0.200 F 
ATOM     88  F   UNL A   1      47.271  37.424  29.039  1.00  0.00    -0.200 F 
ENDBRANCH  55  78
ENDBRANCH  29  30
ENDBRANCH  22  24
ENDBRANCH  21  22
ENDBRANCH  20  21
ENDBRANCH   1  20
TORSDOF 15
ENDMDL
