MODEL 1
REMARK VINA RESULT:     -11.7      0.000      0.000
REMARK SMILES COCC[C@@]1(C(=O)OCCOC(=O)c2ccc(-c3c4nc(c(-c5c(F)c(F)c(F)c(F)c5F)c5ccc([nH]5)c(-c5c(F)c(F)c(F)c(F)c5F)c5nc(c(-c6c(F)c(F)c(F)c(F)c6F)c6ccc3[nH]6)C=C5)C=C4)cc2)CCCN(C(=O)NCc2ccc(OC)cc2)C1
REMARK SMILES IDX 9 1 8 2 6 3 7 4 5 5 77 6 93 7 78 8 80 9 79 10 4 11 3 12 2 13
REMARK SMILES IDX 1 14 81 15 82 16 83 17 84 19 85 20 86 21 92 22 87 23 91 24
REMARK SMILES IDX 88 25 89 26 90 27 10 28 11 29 12 30 13 31 14 32 15 33 76 34
REMARK SMILES IDX 16 35 75 36 17 37 18 38 19 39 69 40 20 41 74 42 68 43 70 44
REMARK SMILES IDX 21 45 73 46 67 47 66 48 22 50 54 51 34 52 53 53 35 54 38 55
REMARK SMILES IDX 52 56 71 57 36 58 37 59 51 61 72 62 39 63 23 64 24 65 32 66
REMARK SMILES IDX 25 67 26 68 30 69 33 70 27 71 28 72 31 73 29 74 55 75 56 76
REMARK SMILES IDX 64 77 57 78 58 79 62 80 65 81 59 82 60 83 63 84 61 85 40 86
REMARK SMILES IDX 41 87 49 88 42 89 43 90 47 91 50 92 44 93 45 94 48 95 46 96
REMARK H PARENT 83 18 70 49 38 60
REMARK Flexibility Score: inf
ROOT
ATOM      1  C   UNL A   1      36.034  20.827  24.946  1.00  0.00     0.274 C 
ENDROOT
BRANCH   1   2
ATOM      2  O   UNL A   1      34.923  21.550  24.376  1.00  0.00    -0.462 OA
BRANCH   2   3
ATOM      3  C   UNL A   1      33.816  21.748  25.139  1.00  0.00     0.314 C 
ATOM      4  O   UNL A   1      33.851  22.143  26.298  1.00  0.00    -0.252 OA
BRANCH   3   5
ATOM      5  C   UNL A   1      32.512  21.374  24.388  1.00  0.00     0.088 C 
ATOM      6  C   UNL A   1      32.577  22.057  22.994  1.00  0.00     0.022 C 
ATOM      7  C   UNL A   1      31.290  21.859  25.204  1.00  0.00     0.140 C 
ATOM      8  C   UNL A   1      32.236  23.549  23.014  1.00  0.00     0.023 C 
ATOM      9  N   UNL A   1      31.041  23.297  25.109  1.00  0.00    -0.324 N 
ATOM     10  C   UNL A   1      30.917  23.765  23.741  1.00  0.00     0.121 C 
BRANCH   5  11
ATOM     11  C   UNL A   1      32.493  19.806  24.163  1.00  0.00     0.049 C 
BRANCH  11  12
ATOM     12  C   UNL A   1      32.854  18.890  25.342  1.00  0.00     0.161 C 
BRANCH  12  13
ATOM     13  O   UNL A   1      32.129  17.669  25.244  1.00  0.00    -0.385 OA
ATOM     14  C   UNL A   1      32.767  16.534  25.809  1.00  0.00     0.194 C 
ENDBRANCH  12  13
ENDBRANCH  11  12
ENDBRANCH   5  11
BRANCH   9  15
ATOM     15  C   UNL A   1      30.880  23.987  26.274  1.00  0.00     0.317 C 
ATOM     16  O   UNL A   1      29.980  23.702  27.071  1.00  0.00    -0.249 OA
ATOM     17  N   UNL A   1      31.688  24.976  26.670  1.00  0.00    -0.334 N 
ATOM     18  H   UNL A   1      31.353  25.405  27.491  1.00  0.00     0.165 HD
BRANCH  17  19
ATOM     19  C   UNL A   1      32.921  25.588  26.221  1.00  0.00     0.153 C 
BRANCH  19  20
ATOM     20  C   UNL A   1      32.891  27.070  26.501  1.00  0.00    -0.028 A 
ATOM     21  C   UNL A   1      33.882  27.932  26.021  1.00  0.00     0.009 A 
ATOM     22  C   UNL A   1      31.810  27.622  27.208  1.00  0.00     0.009 A 
ATOM     23  C   UNL A   1      33.775  29.312  26.215  1.00  0.00     0.047 A 
ATOM     24  C   UNL A   1      31.710  29.001  27.409  1.00  0.00     0.047 A 
ATOM     25  C   UNL A   1      32.690  29.854  26.906  1.00  0.00     0.118 A 
BRANCH  25  26
ATOM     26  O   UNL A   1      32.701  31.217  27.016  1.00  0.00    -0.497 OA
ATOM     27  C   UNL A   1      31.522  31.899  26.609  1.00  0.00     0.278 C 
ENDBRANCH  25  26
ENDBRANCH  19  20
ENDBRANCH  17  19
ENDBRANCH   9  15
ENDBRANCH   3   5
ENDBRANCH   2   3
ENDBRANCH   1   2
BRANCH   1  28
ATOM     28  C   UNL A   1      37.333  21.561  24.613  1.00  0.00     0.275 C 
BRANCH  28  29
ATOM     29  O   UNL A   1      37.816  22.142  25.832  1.00  0.00    -0.458 OA
BRANCH  29  30
ATOM     30  C   UNL A   1      39.086  21.850  26.183  1.00  0.00     0.338 C 
ATOM     31  O   UNL A   1      39.643  20.766  26.125  1.00  0.00    -0.246 OA
BRANCH  30  32
ATOM     32  C   UNL A   1      39.704  23.090  26.703  1.00  0.00     0.060 A 
ATOM     33  C   UNL A   1      39.349  24.329  26.167  1.00  0.00     0.016 A 
ATOM     34  C   UNL A   1      40.651  23.026  27.724  1.00  0.00     0.016 A 
ATOM     35  C   UNL A   1      39.951  25.497  26.624  1.00  0.00     0.010 A 
ATOM     36  C   UNL A   1      41.202  24.210  28.233  1.00  0.00     0.010 A 
ATOM     37  C   UNL A   1      40.868  25.459  27.678  1.00  0.00    -0.014 A 
BRANCH  37  38
ATOM     38  C   UNL A   1      41.494  26.719  28.169  1.00  0.00     0.031 A 
ATOM     39  C   UNL A   1      40.654  27.761  28.852  1.00  0.00     0.074 A 
ATOM     40  C   UNL A   1      42.819  26.926  28.028  1.00  0.00     0.049 A 
ATOM     41  N   UNL A   1      40.961  28.989  29.184  1.00  0.00    -0.248 NA
ATOM     42  C   UNL A   1      39.277  27.373  29.193  1.00  0.00     0.031 C 
ATOM     43  C   UNL A   1      43.768  25.983  27.435  1.00  0.00     0.029 A 
ATOM     44  N   UNL A   1      43.601  27.999  28.386  1.00  0.00    -0.354 N 
ATOM     45  C   UNL A   1      39.798  29.541  29.706  1.00  0.00     0.074 A 
ATOM     46  C   UNL A   1      38.782  28.512  29.654  1.00  0.00     0.031 C 
ATOM     47  C   UNL A   1      45.004  26.498  27.507  1.00  0.00     0.029 A 
ATOM     48  C   UNL A   1      44.926  27.844  28.061  1.00  0.00     0.049 A 
ATOM     49  H   UNL A   1      43.244  28.801  28.831  1.00  0.00     0.167 HD
ATOM     50  C   UNL A   1      39.598  30.797  30.175  1.00  0.00     0.037 A 
ATOM     51  C   UNL A   1      45.959  28.704  28.152  1.00  0.00     0.037 A 
ATOM     52  C   UNL A   1      40.631  31.797  30.284  1.00  0.00     0.049 A 
ATOM     53  C   UNL A   1      45.715  30.093  28.669  1.00  0.00     0.074 A 
ATOM     54  C   UNL A   1      40.534  33.088  30.773  1.00  0.00     0.029 A 
ATOM     55  N   UNL A   1      41.954  31.610  29.912  1.00  0.00    -0.354 N 
ATOM     56  N   UNL A   1      44.597  30.631  29.093  1.00  0.00    -0.248 NA
ATOM     57  C   UNL A   1      46.869  31.001  28.696  1.00  0.00     0.031 C 
ATOM     58  C   UNL A   1      41.790  33.695  30.661  1.00  0.00     0.029 A 
ATOM     59  C   UNL A   1      42.681  32.767  30.146  1.00  0.00     0.049 A 
ATOM     60  H   UNL A   1      42.323  30.776  29.539  1.00  0.00     0.167 HD
ATOM     61  C   UNL A   1      44.908  31.941  29.429  1.00  0.00     0.074 A 
ATOM     62  C   UNL A   1      46.329  32.105  29.193  1.00  0.00     0.031 C 
ATOM     63  C   UNL A   1      44.089  32.921  29.884  1.00  0.00     0.037 A 
BRANCH  50  64
ATOM     64  C   UNL A   1      38.197  31.176  30.555  1.00  0.00     0.064 A 
ATOM     65  C   UNL A   1      37.208  31.447  29.598  1.00  0.00     0.173 A 
ATOM     66  C   UNL A   1      37.838  31.257  31.910  1.00  0.00     0.173 A 
ATOM     67  F   UNL A   1      37.502  31.400  28.291  1.00  0.00    -0.203 F 
ATOM     68  C   UNL A   1      35.921  31.816  29.985  1.00  0.00     0.198 A 
ATOM     69  C   UNL A   1      36.543  31.597  32.293  1.00  0.00     0.198 A 
ATOM     70  F   UNL A   1      38.744  31.005  32.866  1.00  0.00    -0.203 F 
ATOM     71  F   UNL A   1      35.006  32.123  29.055  1.00  0.00    -0.200 F 
ATOM     72  C   UNL A   1      35.588  31.885  31.330  1.00  0.00     0.200 A 
ATOM     73  F   UNL A   1      36.221  31.652  33.593  1.00  0.00    -0.200 F 
ATOM     74  F   UNL A   1      34.349  32.239  31.699  1.00  0.00    -0.200 F 
ENDBRANCH  50  64
BRANCH  51  75
ATOM     75  C   UNL A   1      47.307  28.280  27.691  1.00  0.00     0.064 A 
ATOM     76  C   UNL A   1      48.236  27.726  28.581  1.00  0.00     0.173 A 
ATOM     77  C   UNL A   1      47.679  28.387  26.341  1.00  0.00     0.173 A 
ATOM     78  F   UNL A   1      47.939  27.631  29.885  1.00  0.00    -0.203 F 
ATOM     79  C   UNL A   1      49.483  27.290  28.139  1.00  0.00     0.198 A 
ATOM     80  C   UNL A   1      48.913  27.922  25.895  1.00  0.00     0.198 A 
ATOM     81  F   UNL A   1      46.827  28.915  25.450  1.00  0.00    -0.203 F 
ATOM     82  F   UNL A   1      50.365  26.790  29.014  1.00  0.00    -0.200 F 
ATOM     83  C   UNL A   1      49.816  27.376  26.794  1.00  0.00     0.200 A 
ATOM     84  F   UNL A   1      49.223  27.993  24.594  1.00  0.00    -0.200 F 
ATOM     85  F   UNL A   1      51.007  26.937  26.367  1.00  0.00    -0.200 F 
ENDBRANCH  51  75
BRANCH  63  86
ATOM     86  C   UNL A   1      44.716  34.257  30.151  1.00  0.00     0.064 A 
ATOM     87  C   UNL A   1      45.273  34.567  31.401  1.00  0.00     0.173 A 
ATOM     88  C   UNL A   1      44.770  35.234  29.146  1.00  0.00     0.173 A 
ATOM     89  F   UNL A   1      45.230  33.672  32.399  1.00  0.00    -0.203 F 
ATOM     90  C   UNL A   1      45.836  35.817  31.644  1.00  0.00     0.198 A 
ATOM     91  C   UNL A   1      45.357  36.474  29.384  1.00  0.00     0.198 A 
ATOM     92  F   UNL A   1      44.255  34.986  27.932  1.00  0.00    -0.203 F 
ATOM     93  F   UNL A   1      46.315  36.110  32.860  1.00  0.00    -0.200 F 
ATOM     94  C   UNL A   1      45.881  36.767  30.633  1.00  0.00     0.200 A 
ATOM     95  F   UNL A   1      45.409  37.387  28.405  1.00  0.00    -0.200 F 
ATOM     96  F   UNL A   1      46.421  37.971  30.870  1.00  0.00    -0.200 F 
ENDBRANCH  63  86
ENDBRANCH  37  38
ENDBRANCH  30  32
ENDBRANCH  29  30
ENDBRANCH  28  29
ENDBRANCH   1  28
TORSDOF 18
ENDMDL
MODEL 2
REMARK VINA RESULT:     -11.6      4.281      8.954
REMARK SMILES COCC[C@@]1(C(=O)OCCOC(=O)c2ccc(-c3c4nc(c(-c5c(F)c(F)c(F)c(F)c5F)c5ccc([nH]5)c(-c5c(F)c(F)c(F)c(F)c5F)c5nc(c(-c6c(F)c(F)c(F)c(F)c6F)c6ccc3[nH]6)C=C5)C=C4)cc2)CCCN(C(=O)NCc2ccc(OC)cc2)C1
REMARK SMILES IDX 9 1 8 2 6 3 7 4 5 5 77 6 93 7 78 8 80 9 79 10 4 11 3 12 2 13
REMARK SMILES IDX 1 14 81 15 82 16 83 17 84 19 85 20 86 21 92 22 87 23 91 24
REMARK SMILES IDX 88 25 89 26 90 27 10 28 11 29 12 30 13 31 14 32 15 33 76 34
REMARK SMILES IDX 16 35 75 36 17 37 18 38 19 39 69 40 20 41 74 42 68 43 70 44
REMARK SMILES IDX 21 45 73 46 67 47 66 48 22 50 54 51 34 52 53 53 35 54 38 55
REMARK SMILES IDX 52 56 71 57 36 58 37 59 51 61 72 62 39 63 23 64 24 65 32 66
REMARK SMILES IDX 25 67 26 68 30 69 33 70 27 71 28 72 31 73 29 74 55 75 56 76
REMARK SMILES IDX 64 77 57 78 58 79 62 80 65 81 59 82 60 83 63 84 61 85 40 86
REMARK SMILES IDX 41 87 49 88 42 89 43 90 47 91 50 92 44 93 45 94 48 95 46 96
REMARK H PARENT 83 18 70 49 38 60
REMARK Flexibility Score: inf
ROOT
ATOM      1  C   UNL A   1      33.362  28.314  24.395  1.00  0.00     0.274 C 
ENDROOT
BRANCH   1   2
ATOM      2  O   UNL A   1      33.540  27.007  24.980  1.00  0.00    -0.462 OA
BRANCH   2   3
ATOM      3  C   UNL A   1      33.773  25.952  24.156  1.00  0.00     0.314 C 
ATOM      4  O   UNL A   1      34.036  26.064  22.964  1.00  0.00    -0.252 OA
BRANCH   3   5
ATOM      5  C   UNL A   1      33.623  24.592  24.887  1.00  0.00     0.088 C 
ATOM      6  C   UNL A   1      33.465  23.501  23.793  1.00  0.00     0.022 C 
ATOM      7  C   UNL A   1      32.391  24.643  25.823  1.00  0.00     0.140 C 
ATOM      8  C   UNL A   1      32.062  23.424  23.187  1.00  0.00     0.023 C 
ATOM      9  N   UNL A   1      31.109  24.517  25.131  1.00  0.00    -0.324 N 
ATOM     10  C   UNL A   1      31.027  23.331  24.298  1.00  0.00     0.121 C 
BRANCH   5  11
ATOM     11  C   UNL A   1      34.962  24.298  25.681  1.00  0.00     0.049 C 
BRANCH  11  12
ATOM     12  C   UNL A   1      36.092  23.545  24.962  1.00  0.00     0.161 C 
BRANCH  12  13
ATOM     13  O   UNL A   1      36.525  22.449  25.761  1.00  0.00    -0.385 OA
ATOM     14  C   UNL A   1      35.525  21.493  26.079  1.00  0.00     0.194 C 
ENDBRANCH  12  13
ENDBRANCH  11  12
ENDBRANCH   5  11
BRANCH   9  15
ATOM     15  C   UNL A   1      30.152  25.448  25.403  1.00  0.00     0.317 C 
ATOM     16  O   UNL A   1      29.583  25.485  26.499  1.00  0.00    -0.249 OA
ATOM     17  N   UNL A   1      29.785  26.409  24.548  1.00  0.00    -0.334 N 
ATOM     18  H   UNL A   1      29.019  26.923  24.894  1.00  0.00     0.165 HD
BRANCH  17  19
ATOM     19  C   UNL A   1      30.207  26.900  23.253  1.00  0.00     0.153 C 
BRANCH  19  20
ATOM     20  C   UNL A   1      29.524  28.211  22.953  1.00  0.00    -0.028 A 
ATOM     21  C   UNL A   1      30.210  29.286  22.376  1.00  0.00     0.009 A 
ATOM     22  C   UNL A   1      28.148  28.350  23.194  1.00  0.00     0.009 A 
ATOM     23  C   UNL A   1      29.528  30.453  22.022  1.00  0.00     0.047 A 
ATOM     24  C   UNL A   1      27.469  29.521  22.847  1.00  0.00     0.047 A 
ATOM     25  C   UNL A   1      28.156  30.577  22.251  1.00  0.00     0.118 A 
BRANCH  25  26
ATOM     26  O   UNL A   1      27.612  31.764  21.847  1.00  0.00    -0.497 OA
ATOM     27  C   UNL A   1      28.028  32.257  20.580  1.00  0.00     0.278 C 
ENDBRANCH  25  26
ENDBRANCH  19  20
ENDBRANCH  17  19
ENDBRANCH   9  15
ENDBRANCH   3   5
ENDBRANCH   2   3
ENDBRANCH   1   2
BRANCH   1  28
ATOM     28  C   UNL A   1      32.542  29.182  25.349  1.00  0.00     0.275 C 
BRANCH  28  29
ATOM     29  O   UNL A   1      33.266  30.405  25.539  1.00  0.00    -0.458 OA
BRANCH  29  30
ATOM     30  C   UNL A   1      33.110  31.025  26.728  1.00  0.00     0.338 C 
ATOM     31  O   UNL A   1      32.172  31.717  27.088  1.00  0.00    -0.246 OA
BRANCH  30  32
ATOM     32  C   UNL A   1      34.318  30.752  27.538  1.00  0.00     0.060 A 
ATOM     33  C   UNL A   1      35.209  31.784  27.840  1.00  0.00     0.016 A 
ATOM     34  C   UNL A   1      34.579  29.462  27.996  1.00  0.00     0.016 A 
ATOM     35  C   UNL A   1      36.365  31.531  28.570  1.00  0.00     0.010 A 
ATOM     36  C   UNL A   1      35.706  29.223  28.793  1.00  0.00     0.010 A 
ATOM     37  C   UNL A   1      36.621  30.254  29.077  1.00  0.00    -0.014 A 
BRANCH  37  38
ATOM     38  C   UNL A   1      37.856  29.999  29.871  1.00  0.00     0.031 A 
ATOM     39  C   UNL A   1      38.967  29.170  29.289  1.00  0.00     0.074 A 
ATOM     40  C   UNL A   1      38.000  30.527  31.103  1.00  0.00     0.049 A 
ATOM     41  N   UNL A   1      40.032  28.682  29.872  1.00  0.00    -0.248 NA
ATOM     42  C   UNL A   1      38.856  28.833  27.862  1.00  0.00     0.031 C 
ATOM     43  C   UNL A   1      37.031  31.394  31.774  1.00  0.00     0.029 A 
ATOM     44  N   UNL A   1      39.029  30.419  32.009  1.00  0.00    -0.354 N 
ATOM     45  C   UNL A   1      40.678  27.923  28.906  1.00  0.00     0.074 A 
ATOM     46  C   UNL A   1      39.890  28.022  27.695  1.00  0.00     0.031 C 
ATOM     47  C   UNL A   1      37.526  31.772  32.962  1.00  0.00     0.029 A 
ATOM     48  C   UNL A   1      38.802  31.099  33.180  1.00  0.00     0.049 A 
ATOM     49  H   UNL A   1      39.849  29.903  31.834  1.00  0.00     0.167 HD
ATOM     50  C   UNL A   1      41.819  27.202  29.023  1.00  0.00     0.037 A 
ATOM     51  C   UNL A   1      39.513  31.142  34.323  1.00  0.00     0.037 A 
ATOM     52  C   UNL A   1      42.634  27.160  30.212  1.00  0.00     0.049 A 
ATOM     53  C   UNL A   1      40.772  30.330  34.435  1.00  0.00     0.074 A 
ATOM     54  C   UNL A   1      43.823  26.482  30.420  1.00  0.00     0.029 A 
ATOM     55  N   UNL A   1      42.350  27.837  31.388  1.00  0.00    -0.354 N 
ATOM     56  N   UNL A   1      41.338  29.558  33.541  1.00  0.00    -0.248 NA
ATOM     57  C   UNL A   1      41.476  30.376  35.723  1.00  0.00     0.031 C 
ATOM     58  C   UNL A   1      44.237  26.718  31.736  1.00  0.00     0.029 A 
ATOM     59  C   UNL A   1      43.332  27.580  32.333  1.00  0.00     0.049 A 
ATOM     60  H   UNL A   1      41.566  28.417  31.531  1.00  0.00     0.167 HD
ATOM     61  C   UNL A   1      42.459  29.019  34.156  1.00  0.00     0.074 A 
ATOM     62  C   UNL A   1      42.511  29.582  35.491  1.00  0.00     0.031 C 
ATOM     63  C   UNL A   1      43.357  28.131  33.664  1.00  0.00     0.037 A 
BRANCH  50  64
ATOM     64  C   UNL A   1      42.225  26.356  27.852  1.00  0.00     0.064 A 
ATOM     65  C   UNL A   1      41.663  25.094  27.607  1.00  0.00     0.173 A 
ATOM     66  C   UNL A   1      43.190  26.830  26.948  1.00  0.00     0.173 A 
ATOM     67  F   UNL A   1      40.750  24.588  28.448  1.00  0.00    -0.203 F 
ATOM     68  C   UNL A   1      42.077  24.326  26.521  1.00  0.00     0.198 A 
ATOM     69  C   UNL A   1      43.579  26.072  25.847  1.00  0.00     0.198 A 
ATOM     70  F   UNL A   1      43.756  28.032  27.132  1.00  0.00    -0.203 F 
ATOM     71  F   UNL A   1      41.566  23.100  26.337  1.00  0.00    -0.200 F 
ATOM     72  C   UNL A   1      43.029  24.817  25.639  1.00  0.00     0.200 A 
ATOM     73  F   UNL A   1      44.490  26.554  24.991  1.00  0.00    -0.200 F 
ATOM     74  F   UNL A   1      43.423  24.076  24.595  1.00  0.00    -0.200 F 
ENDBRANCH  50  64
BRANCH  51  75
ATOM     75  C   UNL A   1      39.012  31.948  35.466  1.00  0.00     0.064 A 
ATOM     76  C   UNL A   1      38.232  31.368  36.475  1.00  0.00     0.173 A 
ATOM     77  C   UNL A   1      39.335  33.309  35.593  1.00  0.00     0.173 A 
ATOM     78  F   UNL A   1      37.870  30.080  36.384  1.00  0.00    -0.203 F 
ATOM     79  C   UNL A   1      37.799  32.115  37.569  1.00  0.00     0.198 A 
ATOM     80  C   UNL A   1      38.929  34.046  36.701  1.00  0.00     0.198 A 
ATOM     81  F   UNL A   1      40.076  33.912  34.651  1.00  0.00    -0.203 F 
ATOM     82  F   UNL A   1      37.029  31.545  38.505  1.00  0.00    -0.200 F 
ATOM     83  C   UNL A   1      38.158  33.450  37.687  1.00  0.00     0.200 A 
ATOM     84  F   UNL A   1      39.293  35.330  36.819  1.00  0.00    -0.200 F 
ATOM     85  F   UNL A   1      37.760  34.162  38.749  1.00  0.00    -0.200 F 
ENDBRANCH  51  75
BRANCH  63  86
ATOM     86  C   UNL A   1      44.470  27.716  34.579  1.00  0.00     0.064 A 
ATOM     87  C   UNL A   1      45.673  28.436  34.642  1.00  0.00     0.173 A 
ATOM     88  C   UNL A   1      44.331  26.594  35.410  1.00  0.00     0.173 A 
ATOM     89  F   UNL A   1      45.861  29.505  33.854  1.00  0.00    -0.203 F 
ATOM     90  C   UNL A   1      46.707  28.031  35.482  1.00  0.00     0.198 A 
ATOM     91  C   UNL A   1      45.356  26.207  36.268  1.00  0.00     0.198 A 
ATOM     92  F   UNL A   1      43.199  25.874  35.390  1.00  0.00    -0.203 F 
ATOM     93  F   UNL A   1      47.866  28.702  35.488  1.00  0.00    -0.200 F 
ATOM     94  C   UNL A   1      46.545  26.919  36.297  1.00  0.00     0.200 A 
ATOM     95  F   UNL A   1      45.196  25.140  37.062  1.00  0.00    -0.200 F 
ATOM     96  F   UNL A   1      47.542  26.529  37.104  1.00  0.00    -0.200 F 
ENDBRANCH  63  86
ENDBRANCH  37  38
ENDBRANCH  30  32
ENDBRANCH  29  30
ENDBRANCH  28  29
ENDBRANCH   1  28
TORSDOF 18
ENDMDL
MODEL 3
REMARK VINA RESULT:     -11.6      4.341      9.661
REMARK SMILES COCC[C@@]1(C(=O)OCCOC(=O)c2ccc(-c3c4nc(c(-c5c(F)c(F)c(F)c(F)c5F)c5ccc([nH]5)c(-c5c(F)c(F)c(F)c(F)c5F)c5nc(c(-c6c(F)c(F)c(F)c(F)c6F)c6ccc3[nH]6)C=C5)C=C4)cc2)CCCN(C(=O)NCc2ccc(OC)cc2)C1
REMARK SMILES IDX 9 1 8 2 6 3 7 4 5 5 77 6 93 7 78 8 80 9 79 10 4 11 3 12 2 13
REMARK SMILES IDX 1 14 81 15 82 16 83 17 84 19 85 20 86 21 92 22 87 23 91 24
REMARK SMILES IDX 88 25 89 26 90 27 10 28 11 29 12 30 13 31 14 32 15 33 76 34
REMARK SMILES IDX 16 35 75 36 17 37 18 38 19 39 69 40 20 41 74 42 68 43 70 44
REMARK SMILES IDX 21 45 73 46 67 47 66 48 22 50 54 51 34 52 53 53 35 54 38 55
REMARK SMILES IDX 52 56 71 57 36 58 37 59 51 61 72 62 39 63 23 64 24 65 32 66
REMARK SMILES IDX 25 67 26 68 30 69 33 70 27 71 28 72 31 73 29 74 55 75 56 76
REMARK SMILES IDX 64 77 57 78 58 79 62 80 65 81 59 82 60 83 63 84 61 85 40 86
REMARK SMILES IDX 41 87 49 88 42 89 43 90 47 91 50 92 44 93 45 94 48 95 46 96
REMARK H PARENT 83 18 70 49 38 60
REMARK Flexibility Score: inf
ROOT
ATOM      1  C   UNL A   1      31.954  28.816  26.361  1.00  0.00     0.274 C 
ENDROOT
BRANCH   1   2
ATOM      2  O   UNL A   1      30.946  28.594  25.353  1.00  0.00    -0.462 OA
BRANCH   2   3
ATOM      3  C   UNL A   1      31.343  28.372  24.073  1.00  0.00     0.314 C 
ATOM      4  O   UNL A   1      32.435  28.713  23.631  1.00  0.00    -0.252 OA
BRANCH   3   5
ATOM      5  C   UNL A   1      30.242  27.680  23.229  1.00  0.00     0.088 C 
ATOM      6  C   UNL A   1      29.512  26.678  24.165  1.00  0.00     0.022 C 
ATOM      7  C   UNL A   1      30.893  26.962  22.022  1.00  0.00     0.140 C 
ATOM      8  C   UNL A   1      30.274  25.371  24.395  1.00  0.00     0.023 C 
ATOM      9  N   UNL A   1      31.553  25.702  22.362  1.00  0.00    -0.324 N 
ATOM     10  C   UNL A   1      30.682  24.772  23.057  1.00  0.00     0.121 C 
BRANCH   5  11
ATOM     11  C   UNL A   1      29.193  28.776  22.774  1.00  0.00     0.049 C 
BRANCH  11  12
ATOM     12  C   UNL A   1      27.707  28.547  23.090  1.00  0.00     0.161 C 
BRANCH  12  13
ATOM     13  O   UNL A   1      27.060  29.799  23.294  1.00  0.00    -0.385 OA
ATOM     14  C   UNL A   1      27.917  30.930  23.329  1.00  0.00     0.194 C 
ENDBRANCH  12  13
ENDBRANCH  11  12
ENDBRANCH   5  11
BRANCH   9  15
ATOM     15  C   UNL A   1      32.833  25.525  21.929  1.00  0.00     0.317 C 
ATOM     16  O   UNL A   1      33.129  25.626  20.734  1.00  0.00    -0.249 OA
ATOM     17  N   UNL A   1      33.866  25.280  22.743  1.00  0.00    -0.334 N 
ATOM     18  H   UNL A   1      34.688  25.095  22.233  1.00  0.00     0.165 HD
BRANCH  17  19
ATOM     19  C   UNL A   1      34.104  25.213  24.170  1.00  0.00     0.153 C 
BRANCH  19  20
ATOM     20  C   UNL A   1      35.153  24.169  24.467  1.00  0.00    -0.028 A 
ATOM     21  C   UNL A   1      35.571  23.247  23.502  1.00  0.00     0.009 A 
ATOM     22  C   UNL A   1      35.781  24.154  25.723  1.00  0.00     0.009 A 
ATOM     23  C   UNL A   1      36.612  22.357  23.779  1.00  0.00     0.047 A 
ATOM     24  C   UNL A   1      36.816  23.256  26.000  1.00  0.00     0.047 A 
ATOM     25  C   UNL A   1      37.242  22.357  25.025  1.00  0.00     0.118 A 
BRANCH  25  26
ATOM     26  O   UNL A   1      38.251  21.444  25.159  1.00  0.00    -0.497 OA
ATOM     27  C   UNL A   1      39.280  21.765  26.085  1.00  0.00     0.278 C 
ENDBRANCH  25  26
ENDBRANCH  19  20
ENDBRANCH  17  19
ENDBRANCH   9  15
ENDBRANCH   3   5
ENDBRANCH   2   3
ENDBRANCH   1   2
BRANCH   1  28
ATOM     28  C   UNL A   1      31.851  30.254  26.866  1.00  0.00     0.275 C 
BRANCH  28  29
ATOM     29  O   UNL A   1      33.070  30.919  26.507  1.00  0.00    -0.458 OA
BRANCH  29  30
ATOM     30  C   UNL A   1      33.410  32.002  27.237  1.00  0.00     0.338 C 
ATOM     31  O   UNL A   1      32.848  33.085  27.267  1.00  0.00    -0.246 OA
BRANCH  30  32
ATOM     32  C   UNL A   1      34.636  31.666  27.994  1.00  0.00     0.060 A 
ATOM     33  C   UNL A   1      34.849  30.361  28.443  1.00  0.00     0.016 A 
ATOM     34  C   UNL A   1      35.582  32.652  28.271  1.00  0.00     0.016 A 
ATOM     35  C   UNL A   1      35.981  30.042  29.185  1.00  0.00     0.010 A 
ATOM     36  C   UNL A   1      36.756  32.314  28.956  1.00  0.00     0.010 A 
ATOM     37  C   UNL A   1      36.963  31.007  29.434  1.00  0.00    -0.014 A 
BRANCH  37  38
ATOM     38  C   UNL A   1      38.178  30.649  30.218  1.00  0.00     0.031 A 
ATOM     39  C   UNL A   1      39.265  29.824  29.587  1.00  0.00     0.074 A 
ATOM     40  C   UNL A   1      38.327  31.080  31.487  1.00  0.00     0.049 A 
ATOM     41  N   UNL A   1      40.305  29.256  30.143  1.00  0.00    -0.248 NA
ATOM     42  C   UNL A   1      39.159  29.597  28.138  1.00  0.00     0.031 C 
ATOM     43  C   UNL A   1      37.382  31.931  32.211  1.00  0.00     0.029 A 
ATOM     44  N   UNL A   1      39.340  30.868  32.392  1.00  0.00    -0.354 N 
ATOM     45  C   UNL A   1      40.934  28.546  29.129  1.00  0.00     0.074 A 
ATOM     46  C   UNL A   1      40.165  28.763  27.922  1.00  0.00     0.031 C 
ATOM     47  C   UNL A   1      37.876  32.202  33.428  1.00  0.00     0.029 A 
ATOM     48  C   UNL A   1      39.124  31.469  33.608  1.00  0.00     0.049 A 
ATOM     49  H   UNL A   1      40.142  30.336  32.187  1.00  0.00     0.167 HD
ATOM     50  C   UNL A   1      42.047  27.777  29.204  1.00  0.00     0.037 A 
ATOM     51  C   UNL A   1      39.822  31.402  34.757  1.00  0.00     0.037 A 
ATOM     52  C   UNL A   1      42.845  27.618  30.394  1.00  0.00     0.049 A 
ATOM     53  C   UNL A   1      41.049  30.538  34.821  1.00  0.00     0.074 A 
ATOM     54  C   UNL A   1      44.006  26.882  30.563  1.00  0.00     0.029 A 
ATOM     55  N   UNL A   1      42.572  28.217  31.614  1.00  0.00    -0.354 N 
ATOM     56  N   UNL A   1      41.598  29.812  33.878  1.00  0.00    -0.248 NA
ATOM     57  C   UNL A   1      41.739  30.464  36.115  1.00  0.00     0.031 C 
ATOM     58  C   UNL A   1      44.413  27.007  31.896  1.00  0.00     0.029 A 
ATOM     59  C   UNL A   1      43.533  27.856  32.546  1.00  0.00     0.049 A 
ATOM     60  H   UNL A   1      41.808  28.813  31.792  1.00  0.00     0.167 HD
ATOM     61  C   UNL A   1      42.691  29.189  34.462  1.00  0.00     0.074 A 
ATOM     62  C   UNL A   1      42.748  29.650  35.835  1.00  0.00     0.031 C 
ATOM     63  C   UNL A   1      43.562  28.307  33.914  1.00  0.00     0.037 A 
BRANCH  50  64
ATOM     64  C   UNL A   1      42.436  27.004  27.977  1.00  0.00     0.064 A 
ATOM     65  C   UNL A   1      43.300  27.527  27.004  1.00  0.00     0.173 A 
ATOM     66  C   UNL A   1      41.939  25.705  27.783  1.00  0.00     0.173 A 
ATOM     67  F   UNL A   1      43.790  28.768  27.133  1.00  0.00    -0.203 F 
ATOM     68  C   UNL A   1      43.625  26.790  25.866  1.00  0.00     0.198 A 
ATOM     69  C   UNL A   1      42.290  24.961  26.660  1.00  0.00     0.198 A 
ATOM     70  F   UNL A   1      41.113  25.155  28.685  1.00  0.00    -0.203 F 
ATOM     71  F   UNL A   1      44.409  27.330  24.922  1.00  0.00    -0.200 F 
ATOM     72  C   UNL A   1      43.126  25.507  25.699  1.00  0.00     0.200 A 
ATOM     73  F   UNL A   1      41.815  23.717  26.506  1.00  0.00    -0.200 F 
ATOM     74  F   UNL A   1      43.441  24.801  24.604  1.00  0.00    -0.200 F 
ENDBRANCH  50  64
BRANCH  51  75
ATOM     75  C   UNL A   1      39.337  32.140  35.952  1.00  0.00     0.064 A 
ATOM     76  C   UNL A   1      38.408  31.567  36.830  1.00  0.00     0.173 A 
ATOM     77  C   UNL A   1      39.821  33.421  36.260  1.00  0.00     0.173 A 
ATOM     78  F   UNL A   1      37.893  30.358  36.564  1.00  0.00    -0.203 F 
ATOM     79  C   UNL A   1      37.987  32.243  37.974  1.00  0.00     0.198 A 
ATOM     80  C   UNL A   1      39.424  34.083  37.418  1.00  0.00     0.198 A 
ATOM     81  F   UNL A   1      40.708  34.016  35.448  1.00  0.00    -0.203 F 
ATOM     82  F   UNL A   1      37.076  31.685  38.783  1.00  0.00    -0.200 F 
ATOM     83  C   UNL A   1      38.505  33.495  38.273  1.00  0.00     0.200 A 
ATOM     84  F   UNL A   1      39.939  35.284  37.711  1.00  0.00    -0.200 F 
ATOM     85  F   UNL A   1      38.115  34.136  39.383  1.00  0.00    -0.200 F 
ENDBRANCH  51  75
BRANCH  63  86
ATOM     86  C   UNL A   1      44.648  27.785  34.807  1.00  0.00     0.064 A 
ATOM     87  C   UNL A   1      45.893  28.427  34.899  1.00  0.00     0.173 A 
ATOM     88  C   UNL A   1      44.442  26.637  35.587  1.00  0.00     0.173 A 
ATOM     89  F   UNL A   1      46.144  29.518  34.159  1.00  0.00    -0.203 F 
ATOM     90  C   UNL A   1      46.900  27.924  35.717  1.00  0.00     0.198 A 
ATOM     91  C   UNL A   1      45.442  26.151  36.424  1.00  0.00     0.198 A 
ATOM     92  F   UNL A   1      43.269  25.988  35.539  1.00  0.00    -0.203 F 
ATOM     93  F   UNL A   1      48.097  28.524  35.750  1.00  0.00    -0.200 F 
ATOM     94  C   UNL A   1      46.672  26.789  36.482  1.00  0.00     0.200 A 
ATOM     95  F   UNL A   1      45.219  25.061  37.170  1.00  0.00    -0.200 F 
ATOM     96  F   UNL A   1      47.644  26.304  37.267  1.00  0.00    -0.200 F 
ENDBRANCH  63  86
ENDBRANCH  37  38
ENDBRANCH  30  32
ENDBRANCH  29  30
ENDBRANCH  28  29
ENDBRANCH   1  28
TORSDOF 18
ENDMDL
