MODEL 1
REMARK VINA RESULT:      -9.9      0.000      0.000
REMARK SMILES Cc1cccc(C)c1Nc1ccccc1CC(=O)OCCOC(=O)c1ccc(-c2c3nc(c(-c4c(F)c(F)c(F)c(F)c4F)c4ccc([nH]4)c(-c4c(F)c(F)c(F)c(F)c4F)c4nc(c(-c5c(F)c(F)c(F)c(F)c5F)c5ccc2[nH]5)C=C4)C=C3)cc1
REMARK SMILES IDX 20 1 19 2 17 3 18 4 16 5 15 6 10 7 11 8 12 9 14 10 13 11
REMARK SMILES IDX 9 12 8 14 1 15 2 16 3 17 4 18 6 19 5 20 7 21 21 22 22 23
REMARK SMILES IDX 23 24 24 25 25 26 26 27 87 28 27 29 86 30 28 31 29 32 30 33
REMARK SMILES IDX 80 34 31 35 85 36 79 37 81 38 32 39 84 40 78 41 77 42 33 44
REMARK SMILES IDX 65 45 45 46 64 47 46 48 49 49 63 50 82 51 47 52 48 53 62 55
REMARK SMILES IDX 83 56 50 57 34 58 35 59 43 60 36 61 37 62 41 63 44 64 38 65
REMARK SMILES IDX 39 66 42 67 40 68 66 69 67 70 75 71 68 72 69 73 73 74 76 75
REMARK SMILES IDX 70 76 71 77 74 78 72 79 51 80 52 81 60 82 53 83 54 84 58 85
REMARK SMILES IDX 61 86 55 87 56 88 59 89 57 90
REMARK H PARENT 9 13 81 43 49 54
REMARK Flexibility Score: inf
ROOT
ATOM      1  C   UNL A   1      33.788  34.218  28.996  1.00  0.00     0.274 C 
ENDROOT
BRANCH   1   2
ATOM      2  O   UNL A   1      33.653  33.732  30.344  1.00  0.00    -0.462 OA
BRANCH   2   3
ATOM      3  C   UNL A   1      34.525  34.258  31.243  1.00  0.00     0.310 C 
ATOM      4  O   UNL A   1      34.422  35.377  31.739  1.00  0.00    -0.252 OA
BRANCH   3   5
ATOM      5  C   UNL A   1      35.710  33.373  31.524  1.00  0.00     0.160 C 
BRANCH   5   6
ATOM      6  C   UNL A   1      37.074  33.782  31.003  1.00  0.00    -0.013 A 
ATOM      7  C   UNL A   1      38.123  34.099  31.895  1.00  0.00     0.042 A 
ATOM      8  C   UNL A   1      39.357  34.529  31.376  1.00  0.00     0.026 A 
ATOM      9  C   UNL A   1      39.585  34.578  30.002  1.00  0.00     0.002 A 
ATOM     10  C   UNL A   1      37.338  33.798  29.620  1.00  0.00     0.006 A 
ATOM     11  C   UNL A   1      38.582  34.192  29.124  1.00  0.00     0.000 A 
BRANCH   7  12
ATOM     12  N   UNL A   1      38.041  33.902  33.288  1.00  0.00    -0.355 N 
ATOM     13  H   UNL A   1      37.395  34.486  33.747  1.00  0.00     0.167 HD
BRANCH  12  14
ATOM     14  C   UNL A   1      38.733  33.007  34.138  1.00  0.00     0.044 A 
ATOM     15  C   UNL A   1      40.103  34.991  34.972  1.00  0.00     0.046 C 
ATOM     16  C   UNL A   1      39.742  33.529  34.986  1.00  0.00    -0.027 A 
ATOM     17  C   UNL A   1      40.377  32.692  35.919  1.00  0.00     0.005 A 
ATOM     18  C   UNL A   1      40.028  31.350  36.018  1.00  0.00     0.001 A 
ATOM     19  C   UNL A   1      38.413  31.631  34.221  1.00  0.00    -0.027 A 
ATOM     20  C   UNL A   1      39.054  30.825  35.177  1.00  0.00     0.005 A 
ATOM     21  C   UNL A   1      37.401  30.961  33.326  1.00  0.00     0.046 C 
ENDBRANCH  12  14
ENDBRANCH   7  12
ENDBRANCH   5   6
ENDBRANCH   3   5
ENDBRANCH   2   3
ENDBRANCH   1   2
BRANCH   1  22
ATOM     22  C   UNL A   1      33.962  33.064  28.012  1.00  0.00     0.275 C 
BRANCH  22  23
ATOM     23  O   UNL A   1      34.530  31.924  28.681  1.00  0.00    -0.458 OA
BRANCH  23  24
ATOM     24  C   UNL A   1      34.741  30.832  27.915  1.00  0.00     0.338 C 
ATOM     25  O   UNL A   1      34.020  30.385  27.040  1.00  0.00    -0.246 OA
BRANCH  24  26
ATOM     26  C   UNL A   1      36.014  30.199  28.291  1.00  0.00     0.060 A 
ATOM     27  C   UNL A   1      36.214  29.703  29.582  1.00  0.00     0.016 A 
ATOM     28  C   UNL A   1      37.059  30.208  27.368  1.00  0.00     0.016 A 
ATOM     29  C   UNL A   1      37.475  29.238  29.962  1.00  0.00     0.010 A 
ATOM     30  C   UNL A   1      38.307  29.703  27.736  1.00  0.00     0.010 A 
ATOM     31  C   UNL A   1      38.532  29.235  29.042  1.00  0.00    -0.014 A 
BRANCH  31  32
ATOM     32  C   UNL A   1      39.893  28.785  29.428  1.00  0.00     0.031 A 
ATOM     33  C   UNL A   1      40.760  29.675  30.273  1.00  0.00     0.074 A 
ATOM     34  C   UNL A   1      40.369  27.604  28.992  1.00  0.00     0.049 A 
ATOM     35  N   UNL A   1      42.037  29.576  30.546  1.00  0.00    -0.248 NA
ATOM     36  C   UNL A   1      40.102  30.839  30.887  1.00  0.00     0.031 C 
ATOM     37  C   UNL A   1      39.619  26.625  28.208  1.00  0.00     0.029 A 
ATOM     38  N   UNL A   1      41.612  27.038  29.135  1.00  0.00    -0.354 N 
ATOM     39  C   UNL A   1      42.341  30.677  31.337  1.00  0.00     0.074 A 
ATOM     40  C   UNL A   1      41.119  31.438  31.492  1.00  0.00     0.031 C 
ATOM     41  C   UNL A   1      40.415  25.578  27.935  1.00  0.00     0.029 A 
ATOM     42  C   UNL A   1      41.747  25.842  28.473  1.00  0.00     0.049 A 
ATOM     43  H   UNL A   1      42.336  27.449  29.660  1.00  0.00     0.167 HD
ATOM     44  C   UNL A   1      43.532  31.019  31.882  1.00  0.00     0.037 A 
ATOM     45  C   UNL A   1      42.833  25.068  28.285  1.00  0.00     0.037 A 
ATOM     46  C   UNL A   1      44.743  30.251  31.745  1.00  0.00     0.049 A 
ATOM     47  C   UNL A   1      44.158  25.503  28.848  1.00  0.00     0.074 A 
ATOM     48  C   UNL A   1      46.002  30.522  32.252  1.00  0.00     0.029 A 
ATOM     49  N   UNL A   1      44.839  29.053  31.053  1.00  0.00    -0.354 N 
ATOM     50  N   UNL A   1      44.449  26.566  29.556  1.00  0.00    -0.248 NA
ATOM     51  C   UNL A   1      45.311  24.634  28.570  1.00  0.00     0.031 C 
ATOM     52  C   UNL A   1      46.867  29.500  31.847  1.00  0.00     0.029 A 
ATOM     53  C   UNL A   1      46.139  28.575  31.117  1.00  0.00     0.049 A 
ATOM     54  H   UNL A   1      44.096  28.608  30.587  1.00  0.00     0.167 HD
ATOM     55  C   UNL A   1      45.807  26.485  29.828  1.00  0.00     0.074 A 
ATOM     56  C   UNL A   1      46.284  25.261  29.217  1.00  0.00     0.031 C 
ATOM     57  C   UNL A   1      46.591  27.349  30.516  1.00  0.00     0.037 A 
BRANCH  44  58
ATOM     58  C   UNL A   1      43.595  32.294  32.668  1.00  0.00     0.064 A 
ATOM     59  C   UNL A   1      43.543  32.297  34.069  1.00  0.00     0.173 A 
ATOM     60  C   UNL A   1      43.757  33.525  32.013  1.00  0.00     0.173 A 
ATOM     61  F   UNL A   1      43.376  31.147  34.740  1.00  0.00    -0.203 F 
ATOM     62  C   UNL A   1      43.637  33.486  34.786  1.00  0.00     0.198 A 
ATOM     63  C   UNL A   1      43.872  34.709  32.733  1.00  0.00     0.198 A 
ATOM     64  F   UNL A   1      43.816  33.575  30.673  1.00  0.00    -0.203 F 
ATOM     65  F   UNL A   1      43.553  33.469  36.123  1.00  0.00    -0.200 F 
ATOM     66  C   UNL A   1      43.808  34.691  34.118  1.00  0.00     0.200 A 
ATOM     67  F   UNL A   1      44.048  35.871  32.087  1.00  0.00    -0.200 F 
ATOM     68  F   UNL A   1      43.907  35.834  34.811  1.00  0.00    -0.200 F 
ENDBRANCH  44  58
BRANCH  45  69
ATOM     69  C   UNL A   1      42.722  23.811  27.504  1.00  0.00     0.064 A 
ATOM     70  C   UNL A   1      42.282  22.627  28.109  1.00  0.00     0.173 A 
ATOM     71  C   UNL A   1      43.068  23.763  26.145  1.00  0.00     0.173 A 
ATOM     72  F   UNL A   1      41.968  22.618  29.413  1.00  0.00    -0.203 F 
ATOM     73  C   UNL A   1      42.207  21.436  27.388  1.00  0.00     0.198 A 
ATOM     74  C   UNL A   1      42.967  22.579  25.420  1.00  0.00     0.198 A 
ATOM     75  F   UNL A   1      43.499  24.870  25.522  1.00  0.00    -0.203 F 
ATOM     76  F   UNL A   1      41.827  20.308  28.003  1.00  0.00    -0.200 F 
ATOM     77  C   UNL A   1      42.544  21.415  26.044  1.00  0.00     0.200 A 
ATOM     78  F   UNL A   1      43.286  22.563  24.118  1.00  0.00    -0.200 F 
ATOM     79  F   UNL A   1      42.471  20.269  25.351  1.00  0.00    -0.200 F 
ENDBRANCH  45  69
BRANCH  57  80
ATOM     80  C   UNL A   1      48.035  26.979  30.682  1.00  0.00     0.064 A 
ATOM     81  C   UNL A   1      48.458  26.113  31.701  1.00  0.00     0.173 A 
ATOM     82  C   UNL A   1      49.001  27.475  29.794  1.00  0.00     0.173 A 
ATOM     83  F   UNL A   1      47.572  25.627  32.584  1.00  0.00    -0.203 F 
ATOM     84  C   UNL A   1      49.801  25.772  31.835  1.00  0.00     0.198 A 
ATOM     85  C   UNL A   1      50.339  27.114  29.919  1.00  0.00     0.198 A 
ATOM     86  F   UNL A   1      48.644  28.304  28.802  1.00  0.00    -0.203 F 
ATOM     87  F   UNL A   1      50.189  24.974  32.841  1.00  0.00    -0.200 F 
ATOM     88  C   UNL A   1      50.739  26.268  30.942  1.00  0.00     0.200 A 
ATOM     89  F   UNL A   1      51.243  27.589  29.051  1.00  0.00    -0.200 F 
ATOM     90  F   UNL A   1      52.031  25.938  31.074  1.00  0.00    -0.200 F 
ENDBRANCH  57  80
ENDBRANCH  31  32
ENDBRANCH  24  26
ENDBRANCH  23  24
ENDBRANCH  22  23
ENDBRANCH   1  22
TORSDOF 14
ENDMDL
MODEL 2
REMARK VINA RESULT:      -9.7      4.118      7.615
REMARK SMILES Cc1cccc(C)c1Nc1ccccc1CC(=O)OCCOC(=O)c1ccc(-c2c3nc(c(-c4c(F)c(F)c(F)c(F)c4F)c4ccc([nH]4)c(-c4c(F)c(F)c(F)c(F)c4F)c4nc(c(-c5c(F)c(F)c(F)c(F)c5F)c5ccc2[nH]5)C=C4)C=C3)cc1
REMARK SMILES IDX 20 1 19 2 17 3 18 4 16 5 15 6 10 7 11 8 12 9 14 10 13 11
REMARK SMILES IDX 9 12 8 14 1 15 2 16 3 17 4 18 6 19 5 20 7 21 21 22 22 23
REMARK SMILES IDX 23 24 24 25 25 26 26 27 87 28 27 29 86 30 28 31 29 32 30 33
REMARK SMILES IDX 80 34 31 35 85 36 79 37 81 38 32 39 84 40 78 41 77 42 33 44
REMARK SMILES IDX 65 45 45 46 64 47 46 48 49 49 63 50 82 51 47 52 48 53 62 55
REMARK SMILES IDX 83 56 50 57 34 58 35 59 43 60 36 61 37 62 41 63 44 64 38 65
REMARK SMILES IDX 39 66 42 67 40 68 66 69 67 70 75 71 68 72 69 73 73 74 76 75
REMARK SMILES IDX 70 76 71 77 74 78 72 79 51 80 52 81 60 82 53 83 54 84 58 85
REMARK SMILES IDX 61 86 55 87 56 88 59 89 57 90
REMARK H PARENT 9 13 81 43 49 54
REMARK Flexibility Score: inf
ROOT
ATOM      1  C   UNL A   1      33.367  36.095  28.953  1.00  0.00     0.274 C 
ENDROOT
BRANCH   1   2
ATOM      2  O   UNL A   1      32.973  34.723  29.134  1.00  0.00    -0.462 OA
BRANCH   2   3
ATOM      3  C   UNL A   1      33.986  33.818  29.112  1.00  0.00     0.310 C 
ATOM      4  O   UNL A   1      35.029  33.926  29.751  1.00  0.00    -0.252 OA
BRANCH   3   5
ATOM      5  C   UNL A   1      33.762  32.684  28.148  1.00  0.00     0.160 C 
BRANCH   5   6
ATOM      6  C   UNL A   1      34.846  31.639  27.974  1.00  0.00    -0.013 A 
ATOM      7  C   UNL A   1      34.516  30.277  27.793  1.00  0.00     0.042 A 
ATOM      8  C   UNL A   1      35.550  29.328  27.693  1.00  0.00     0.026 A 
ATOM      9  C   UNL A   1      36.888  29.716  27.698  1.00  0.00     0.002 A 
ATOM     10  C   UNL A   1      36.203  32.014  27.935  1.00  0.00     0.006 A 
ATOM     11  C   UNL A   1      37.214  31.061  27.797  1.00  0.00     0.000 A 
BRANCH   7  12
ATOM     12  N   UNL A   1      33.198  29.820  27.593  1.00  0.00    -0.355 N 
ATOM     13  H   UNL A   1      32.711  29.599  28.419  1.00  0.00     0.167 HD
BRANCH  12  14
ATOM     14  C   UNL A   1      32.457  29.625  26.403  1.00  0.00     0.044 A 
ATOM     15  C   UNL A   1      33.482  27.294  26.248  1.00  0.00     0.046 C 
ATOM     16  C   UNL A   1      32.573  28.381  25.735  1.00  0.00    -0.027 A 
ATOM     17  C   UNL A   1      31.774  28.110  24.611  1.00  0.00     0.005 A 
ATOM     18  C   UNL A   1      30.870  29.054  24.142  1.00  0.00     0.001 A 
ATOM     19  C   UNL A   1      31.560  30.595  25.894  1.00  0.00    -0.027 A 
ATOM     20  C   UNL A   1      30.763  30.286  24.778  1.00  0.00     0.005 A 
ATOM     21  C   UNL A   1      31.403  31.971  26.489  1.00  0.00     0.046 C 
ENDBRANCH  12  14
ENDBRANCH   7  12
ENDBRANCH   5   6
ENDBRANCH   3   5
ENDBRANCH   2   3
ENDBRANCH   1   2
BRANCH   1  22
ATOM     22  C   UNL A   1      33.014  36.933  30.180  1.00  0.00     0.275 C 
BRANCH  22  23
ATOM     23  O   UNL A   1      32.104  36.210  31.028  1.00  0.00    -0.458 OA
BRANCH  23  24
ATOM     24  C   UNL A   1      32.405  36.198  32.344  1.00  0.00     0.338 C 
ATOM     25  O   UNL A   1      31.858  36.817  33.240  1.00  0.00    -0.246 OA
BRANCH  24  26
ATOM     26  C   UNL A   1      33.549  35.306  32.584  1.00  0.00     0.060 A 
ATOM     27  C   UNL A   1      33.354  33.954  32.883  1.00  0.00     0.016 A 
ATOM     28  C   UNL A   1      34.828  35.861  32.622  1.00  0.00     0.016 A 
ATOM     29  C   UNL A   1      34.442  33.158  33.249  1.00  0.00     0.010 A 
ATOM     30  C   UNL A   1      35.919  35.053  32.945  1.00  0.00     0.010 A 
ATOM     31  C   UNL A   1      35.734  33.701  33.283  1.00  0.00    -0.014 A 
BRANCH  31  32
ATOM     32  C   UNL A   1      36.903  32.891  33.707  1.00  0.00     0.031 A 
ATOM     33  C   UNL A   1      37.561  33.167  35.030  1.00  0.00     0.074 A 
ATOM     34  C   UNL A   1      37.401  31.939  32.897  1.00  0.00     0.049 A 
ATOM     35  N   UNL A   1      38.703  32.732  35.497  1.00  0.00    -0.248 NA
ATOM     36  C   UNL A   1      36.838  34.063  35.947  1.00  0.00     0.031 C 
ATOM     37  C   UNL A   1      36.833  31.537  31.612  1.00  0.00     0.029 A 
ATOM     38  N   UNL A   1      38.517  31.149  33.032  1.00  0.00    -0.354 N 
ATOM     39  C   UNL A   1      38.851  33.321  36.746  1.00  0.00     0.074 A 
ATOM     40  C   UNL A   1      37.686  34.154  36.961  1.00  0.00     0.031 C 
ATOM     41  C   UNL A   1      37.602  30.577  31.073  1.00  0.00     0.029 A 
ATOM     42  C   UNL A   1      38.749  30.341  31.946  1.00  0.00     0.049 A 
ATOM     43  H   UNL A   1      39.093  31.161  33.830  1.00  0.00     0.167 HD
ATOM     44  C   UNL A   1      39.866  33.177  37.631  1.00  0.00     0.037 A 
ATOM     45  C   UNL A   1      39.790  29.535  31.667  1.00  0.00     0.037 A 
ATOM     46  C   UNL A   1      41.014  32.333  37.425  1.00  0.00     0.049 A 
ATOM     47  C   UNL A   1      40.935  29.442  32.638  1.00  0.00     0.074 A 
ATOM     48  C   UNL A   1      42.100  32.129  38.259  1.00  0.00     0.029 A 
ATOM     49  N   UNL A   1      41.217  31.542  36.304  1.00  0.00    -0.354 N 
ATOM     50  N   UNL A   1      41.090  30.035  33.796  1.00  0.00    -0.248 NA
ATOM     51  C   UNL A   1      42.061  28.578  32.253  1.00  0.00     0.031 C 
ATOM     52  C   UNL A   1      42.973  31.234  37.632  1.00  0.00     0.029 A 
ATOM     53  C   UNL A   1      42.415  30.853  36.424  1.00  0.00     0.049 A 
ATOM     54  H   UNL A   1      40.603  31.478  35.538  1.00  0.00     0.167 HD
ATOM     55  C   UNL A   1      42.313  29.601  34.288  1.00  0.00     0.074 A 
ATOM     56  C   UNL A   1      42.857  28.685  33.307  1.00  0.00     0.031 C 
ATOM     57  C   UNL A   1      42.933  29.935  35.445  1.00  0.00     0.037 A 
BRANCH  44  58
ATOM     58  C   UNL A   1      39.794  33.968  38.903  1.00  0.00     0.064 A 
ATOM     59  C   UNL A   1      40.389  35.232  39.015  1.00  0.00     0.173 A 
ATOM     60  C   UNL A   1      39.080  33.476  40.006  1.00  0.00     0.173 A 
ATOM     61  F   UNL A   1      41.094  35.740  37.993  1.00  0.00    -0.203 F 
ATOM     62  C   UNL A   1      40.285  35.970  40.192  1.00  0.00     0.198 A 
ATOM     63  C   UNL A   1      38.959  34.225  41.172  1.00  0.00     0.198 A 
ATOM     64  F   UNL A   1      38.488  32.273  39.946  1.00  0.00    -0.203 F 
ATOM     65  F   UNL A   1      40.889  37.162  40.290  1.00  0.00    -0.200 F 
ATOM     66  C   UNL A   1      39.564  35.468  41.267  1.00  0.00     0.200 A 
ATOM     67  F   UNL A   1      38.253  33.744  42.206  1.00  0.00    -0.200 F 
ATOM     68  F   UNL A   1      39.457  36.184  42.395  1.00  0.00    -0.200 F 
ENDBRANCH  44  58
BRANCH  45  69
ATOM     69  C   UNL A   1      39.816  28.768  30.396  1.00  0.00     0.064 A 
ATOM     70  C   UNL A   1      40.364  29.325  29.234  1.00  0.00     0.173 A 
ATOM     71  C   UNL A   1      39.278  27.475  30.313  1.00  0.00     0.173 A 
ATOM     72  F   UNL A   1      40.863  30.570  29.259  1.00  0.00    -0.203 F 
ATOM     73  C   UNL A   1      40.361  28.623  28.030  1.00  0.00     0.198 A 
ATOM     74  C   UNL A   1      39.300  26.764  29.115  1.00  0.00     0.198 A 
ATOM     75  F   UNL A   1      38.738  26.901  31.397  1.00  0.00    -0.203 F 
ATOM     76  F   UNL A   1      40.851  29.197  26.922  1.00  0.00    -0.200 F 
ATOM     77  C   UNL A   1      39.834  27.342  27.974  1.00  0.00     0.200 A 
ATOM     78  F   UNL A   1      38.797  25.523  29.066  1.00  0.00    -0.200 F 
ATOM     79  F   UNL A   1      39.832  26.667  26.815  1.00  0.00    -0.200 F 
ENDBRANCH  45  69
BRANCH  57  80
ATOM     80  C   UNL A   1      44.247  29.273  35.733  1.00  0.00     0.064 A 
ATOM     81  C   UNL A   1      44.319  28.052  36.418  1.00  0.00     0.173 A 
ATOM     82  C   UNL A   1      45.445  29.855  35.292  1.00  0.00     0.173 A 
ATOM     83  F   UNL A   1      43.200  27.467  36.872  1.00  0.00    -0.203 F 
ATOM     84  C   UNL A   1      45.546  27.446  36.669  1.00  0.00     0.198 A 
ATOM     85  C   UNL A   1      46.669  29.235  35.526  1.00  0.00     0.198 A 
ATOM     86  F   UNL A   1      45.427  31.021  34.631  1.00  0.00    -0.203 F 
ATOM     87  F   UNL A   1      45.596  26.298  37.361  1.00  0.00    -0.200 F 
ATOM     88  C   UNL A   1      46.719  28.035  36.219  1.00  0.00     0.200 A 
ATOM     89  F   UNL A   1      47.801  29.801  35.085  1.00  0.00    -0.200 F 
ATOM     90  F   UNL A   1      47.900  27.448  36.462  1.00  0.00    -0.200 F 
ENDBRANCH  57  80
ENDBRANCH  31  32
ENDBRANCH  24  26
ENDBRANCH  23  24
ENDBRANCH  22  23
ENDBRANCH   1  22
TORSDOF 14
ENDMDL
MODEL 3
REMARK VINA RESULT:      -9.7      5.153      9.333
REMARK SMILES Cc1cccc(C)c1Nc1ccccc1CC(=O)OCCOC(=O)c1ccc(-c2c3nc(c(-c4c(F)c(F)c(F)c(F)c4F)c4ccc([nH]4)c(-c4c(F)c(F)c(F)c(F)c4F)c4nc(c(-c5c(F)c(F)c(F)c(F)c5F)c5ccc2[nH]5)C=C4)C=C3)cc1
REMARK SMILES IDX 20 1 19 2 17 3 18 4 16 5 15 6 10 7 11 8 12 9 14 10 13 11
REMARK SMILES IDX 9 12 8 14 1 15 2 16 3 17 4 18 6 19 5 20 7 21 21 22 22 23
REMARK SMILES IDX 23 24 24 25 25 26 26 27 87 28 27 29 86 30 28 31 29 32 30 33
REMARK SMILES IDX 80 34 31 35 85 36 79 37 81 38 32 39 84 40 78 41 77 42 33 44
REMARK SMILES IDX 65 45 45 46 64 47 46 48 49 49 63 50 82 51 47 52 48 53 62 55
REMARK SMILES IDX 83 56 50 57 34 58 35 59 43 60 36 61 37 62 41 63 44 64 38 65
REMARK SMILES IDX 39 66 42 67 40 68 66 69 67 70 75 71 68 72 69 73 73 74 76 75
REMARK SMILES IDX 70 76 71 77 74 78 72 79 51 80 52 81 60 82 53 83 54 84 58 85
REMARK SMILES IDX 61 86 55 87 56 88 59 89 57 90
REMARK H PARENT 9 13 81 43 49 54
REMARK Flexibility Score: inf
ROOT
ATOM      1  C   UNL A   1      36.156  21.888  23.955  1.00  0.00     0.274 C 
ENDROOT
BRANCH   1   2
ATOM      2  O   UNL A   1      36.388  23.273  24.272  1.00  0.00    -0.462 OA
BRANCH   2   3
ATOM      3  C   UNL A   1      35.282  24.061  24.281  1.00  0.00     0.310 C 
ATOM      4  O   UNL A   1      34.653  24.390  23.279  1.00  0.00    -0.252 OA
BRANCH   3   5
ATOM      5  C   UNL A   1      34.929  24.589  25.647  1.00  0.00     0.160 C 
BRANCH   5   6
ATOM      6  C   UNL A   1      33.741  25.520  25.792  1.00  0.00    -0.013 A 
ATOM      7  C   UNL A   1      32.447  25.007  26.036  1.00  0.00     0.042 A 
ATOM      8  C   UNL A   1      31.360  25.897  26.108  1.00  0.00     0.026 A 
ATOM      9  C   UNL A   1      31.546  27.274  26.015  1.00  0.00     0.002 A 
ATOM     10  C   UNL A   1      33.913  26.916  25.742  1.00  0.00     0.006 A 
ATOM     11  C   UNL A   1      32.827  27.785  25.853  1.00  0.00     0.000 A 
BRANCH   7  12
ATOM     12  N   UNL A   1      32.193  23.652  26.326  1.00  0.00    -0.355 N 
ATOM     13  H   UNL A   1      31.757  23.493  27.195  1.00  0.00     0.167 HD
BRANCH  12  14
ATOM     14  C   UNL A   1      32.461  22.480  25.579  1.00  0.00     0.044 A 
ATOM     15  C   UNL A   1      33.750  21.592  27.593  1.00  0.00     0.046 C 
ATOM     16  C   UNL A   1      33.214  21.448  26.193  1.00  0.00    -0.027 A 
ATOM     17  C   UNL A   1      33.409  20.229  25.523  1.00  0.00     0.005 A 
ATOM     18  C   UNL A   1      32.875  20.022  24.258  1.00  0.00     0.001 A 
ATOM     19  C   UNL A   1      31.953  22.274  24.274  1.00  0.00    -0.027 A 
ATOM     20  C   UNL A   1      32.151  21.036  23.639  1.00  0.00     0.005 A 
ATOM     21  C   UNL A   1      31.192  23.325  23.506  1.00  0.00     0.046 C 
ENDBRANCH  12  14
ENDBRANCH   7  12
ENDBRANCH   5   6
ENDBRANCH   3   5
ENDBRANCH   2   3
ENDBRANCH   1   2
BRANCH   1  22
ATOM     22  C   UNL A   1      36.919  20.972  24.909  1.00  0.00     0.275 C 
BRANCH  22  23
ATOM     23  O   UNL A   1      37.527  21.747  25.959  1.00  0.00    -0.458 OA
BRANCH  23  24
ATOM     24  C   UNL A   1      38.852  21.562  26.138  1.00  0.00     0.338 C 
ATOM     25  O   UNL A   1      39.495  20.543  25.955  1.00  0.00    -0.246 OA
BRANCH  24  26
ATOM     26  C   UNL A   1      39.466  22.809  26.621  1.00  0.00     0.060 A 
ATOM     27  C   UNL A   1      39.103  24.044  26.077  1.00  0.00     0.016 A 
ATOM     28  C   UNL A   1      40.501  22.723  27.551  1.00  0.00     0.016 A 
ATOM     29  C   UNL A   1      39.799  25.198  26.445  1.00  0.00     0.010 A 
ATOM     30  C   UNL A   1      41.166  23.883  27.950  1.00  0.00     0.010 A 
ATOM     31  C   UNL A   1      40.836  25.127  27.385  1.00  0.00    -0.014 A 
BRANCH  31  32
ATOM     32  C   UNL A   1      41.620  26.329  27.765  1.00  0.00     0.031 A 
ATOM     33  C   UNL A   1      40.966  27.424  28.560  1.00  0.00     0.074 A 
ATOM     34  C   UNL A   1      42.898  26.463  27.366  1.00  0.00     0.049 A 
ATOM     35  N   UNL A   1      41.392  28.635  28.815  1.00  0.00    -0.248 NA
ATOM     36  C   UNL A   1      39.649  27.115  29.141  1.00  0.00     0.031 C 
ATOM     37  C   UNL A   1      43.667  25.459  26.632  1.00  0.00     0.029 A 
ATOM     38  N   UNL A   1      43.770  27.515  27.509  1.00  0.00    -0.354 N 
ATOM     39  C   UNL A   1      40.387  29.241  29.558  1.00  0.00     0.074 A 
ATOM     40  C   UNL A   1      39.324  28.270  29.704  1.00  0.00     0.031 C 
ATOM     41  C   UNL A   1      44.896  25.941  26.386  1.00  0.00     0.029 A 
ATOM     42  C   UNL A   1      44.979  27.309  26.891  1.00  0.00     0.049 A 
ATOM     43  H   UNL A   1      43.550  28.335  28.006  1.00  0.00     0.167 HD
ATOM     44  C   UNL A   1      40.357  30.495  30.070  1.00  0.00     0.037 A 
ATOM     45  C   UNL A   1      46.020  28.145  26.714  1.00  0.00     0.037 A 
ATOM     46  C   UNL A   1      41.424  31.454  29.941  1.00  0.00     0.049 A 
ATOM     47  C   UNL A   1      45.936  29.553  27.238  1.00  0.00     0.074 A 
ATOM     48  C   UNL A   1      41.483  32.753  30.416  1.00  0.00     0.029 A 
ATOM     49  N   UNL A   1      42.626  31.211  29.294  1.00  0.00    -0.354 N 
ATOM     50  N   UNL A   1      44.966  30.134  27.899  1.00  0.00    -0.248 NA
ATOM     51  C   UNL A   1      47.089  30.426  26.973  1.00  0.00     0.031 C 
ATOM     52  C   UNL A   1      42.710  33.304  30.036  1.00  0.00     0.029 A 
ATOM     53  C   UNL A   1      43.431  32.338  29.354  1.00  0.00     0.049 A 
ATOM     54  H   UNL A   1      42.872  30.363  28.858  1.00  0.00     0.167 HD
ATOM     55  C   UNL A   1      45.397  31.429  28.150  1.00  0.00     0.074 A 
ATOM     56  C   UNL A   1      46.723  31.547  27.579  1.00  0.00     0.031 C 
ATOM     57  C   UNL A   1      44.752  32.432  28.792  1.00  0.00     0.037 A 
BRANCH  44  58
ATOM     58  C   UNL A   1      39.120  30.915  30.805  1.00  0.00     0.064 A 
ATOM     59  C   UNL A   1      38.036  31.503  30.139  1.00  0.00     0.173 A 
ATOM     60  C   UNL A   1      38.999  30.680  32.183  1.00  0.00     0.173 A 
ATOM     61  F   UNL A   1      38.109  31.759  28.825  1.00  0.00    -0.203 F 
ATOM     62  C   UNL A   1      36.879  31.857  30.830  1.00  0.00     0.198 A 
ATOM     63  C   UNL A   1      37.833  31.014  32.865  1.00  0.00     0.198 A 
ATOM     64  F   UNL A   1      40.007  30.115  32.864  1.00  0.00    -0.203 F 
ATOM     65  F   UNL A   1      35.867  32.448  30.180  1.00  0.00    -0.200 F 
ATOM     66  C   UNL A   1      36.776  31.605  32.191  1.00  0.00     0.200 A 
ATOM     67  F   UNL A   1      37.731  30.760  34.178  1.00  0.00    -0.200 F 
ATOM     68  F   UNL A   1      35.659  31.938  32.852  1.00  0.00    -0.200 F 
ENDBRANCH  44  58
BRANCH  45  69
ATOM     69  C   UNL A   1      47.226  27.683  25.983  1.00  0.00     0.064 A 
ATOM     70  C   UNL A   1      47.273  27.717  24.583  1.00  0.00     0.173 A 
ATOM     71  C   UNL A   1      48.347  27.184  26.664  1.00  0.00     0.173 A 
ATOM     72  F   UNL A   1      46.214  28.160  23.888  1.00  0.00    -0.203 F 
ATOM     73  C   UNL A   1      48.390  27.255  23.890  1.00  0.00     0.198 A 
ATOM     74  C   UNL A   1      49.472  26.747  25.971  1.00  0.00     0.198 A 
ATOM     75  F   UNL A   1      48.348  27.127  28.003  1.00  0.00    -0.203 F 
ATOM     76  F   UNL A   1      48.391  27.256  22.550  1.00  0.00    -0.200 F 
ATOM     77  C   UNL A   1      49.490  26.776  24.584  1.00  0.00     0.200 A 
ATOM     78  F   UNL A   1      50.537  26.291  26.645  1.00  0.00    -0.200 F 
ATOM     79  F   UNL A   1      50.564  26.331  23.917  1.00  0.00    -0.200 F 
ENDBRANCH  45  69
BRANCH  57  80
ATOM     80  C   UNL A   1      45.488  33.730  28.948  1.00  0.00     0.064 A 
ATOM     81  C   UNL A   1      45.369  34.757  28.002  1.00  0.00     0.173 A 
ATOM     82  C   UNL A   1      46.297  33.956  30.071  1.00  0.00     0.173 A 
ATOM     83  F   UNL A   1      44.620  34.580  26.903  1.00  0.00    -0.203 F 
ATOM     84  C   UNL A   1      46.051  35.960  28.166  1.00  0.00     0.198 A 
ATOM     85  C   UNL A   1      46.959  35.168  30.243  1.00  0.00     0.198 A 
ATOM     86  F   UNL A   1      46.439  33.003  31.005  1.00  0.00    -0.203 F 
ATOM     87  F   UNL A   1      45.956  36.915  27.229  1.00  0.00    -0.200 F 
ATOM     88  C   UNL A   1      46.841  36.166  29.287  1.00  0.00     0.200 A 
ATOM     89  F   UNL A   1      47.716  35.368  31.330  1.00  0.00    -0.200 F 
ATOM     90  F   UNL A   1      47.496  37.325  29.443  1.00  0.00    -0.200 F 
ENDBRANCH  57  80
ENDBRANCH  31  32
ENDBRANCH  24  26
ENDBRANCH  23  24
ENDBRANCH  22  23
ENDBRANCH   1  22
TORSDOF 14
ENDMDL
