MODEL 1
REMARK VINA RESULT:     -12.3      0.000      0.000
REMARK SMILES CSc1nc2nnc(C(=O)OCCOC(=O)c3ccc(-c4c5nc(c(-c6c(F)c(F)c(F)c(F)c6F)c6ccc([nH]6)c(-c6c(F)c(F)c(F)c(F)c6F)c6nc(c(-c7c(F)c(F)c(F)c(F)c7F)c7ccc4[nH]7)C=C6)C=C5)cc3)c(O)n2n1
REMARK SMILES IDX 13 1 12 2 11 3 9 4 10 5 8 6 3 7 4 8 83 9 5 10 82 11 6 12
REMARK SMILES IDX 80 13 7 14 2 15 1 16 81 17 14 19 15 20 16 21 17 22 18 23
REMARK SMILES IDX 79 24 19 25 78 26 20 27 21 28 22 29 72 30 23 31 77 32 71 33
REMARK SMILES IDX 73 34 24 35 76 36 70 37 69 38 25 40 57 41 37 42 56 43 38 44
REMARK SMILES IDX 41 45 55 46 74 47 39 48 40 49 54 51 75 52 42 53 26 54 27 55
REMARK SMILES IDX 35 56 28 57 29 58 33 59 36 60 30 61 31 62 34 63 32 64 58 65
REMARK SMILES IDX 59 66 67 67 60 68 61 69 65 70 68 71 62 72 63 73 66 74 64 75
REMARK SMILES IDX 43 76 44 77 52 78 45 79 46 80 50 81 53 82 47 83 48 84 51 85
REMARK SMILES IDX 49 86
REMARK H PARENT 81 18 73 39 41 50
REMARK Flexibility Score: inf
ROOT
ATOM      1  C   UNL A   1      34.294  34.063  27.761  1.00  0.00     0.275 C 
ENDROOT
BRANCH   1   2
ATOM      2  C   UNL A   1      34.159  35.320  28.619  1.00  0.00     0.275 C 
BRANCH   2   3
ATOM      3  O   UNL A   1      32.925  35.346  29.360  1.00  0.00    -0.457 OA
BRANCH   3   4
ATOM      4  C   UNL A   1      33.032  35.779  30.642  1.00  0.00     0.364 C 
ATOM      5  O   UNL A   1      32.429  36.732  31.124  1.00  0.00    -0.244 OA
BRANCH   4   6
ATOM      6  C   UNL A   1      33.858  34.864  31.475  1.00  0.00     0.232 A 
ATOM      7  C   UNL A   1      36.682  33.571  34.514  1.00  0.00     0.210 A 
ATOM      8  N   UNL A   1      36.153  32.554  33.775  1.00  0.00    -0.182 NA
ATOM      9  N   UNL A   1      36.233  34.789  34.225  1.00  0.00    -0.134 NA
ATOM     10  C   UNL A   1      35.307  33.174  32.974  1.00  0.00     0.275 A 
ATOM     11  N   UNL A   1      35.370  34.542  33.213  1.00  0.00    -0.159 N 
ATOM     12  N   UNL A   1      34.472  32.698  32.001  1.00  0.00    -0.108 NA
ATOM     13  C   UNL A   1      34.633  35.428  32.429  1.00  0.00     0.251 A 
ATOM     14  N   UNL A   1      33.780  33.492  31.298  1.00  0.00    -0.134 NA
BRANCH   7  15
ATOM     15  S   UNL A   1      37.882  33.352  35.756  1.00  0.00    -0.088 SA
ATOM     16  C   UNL A   1      38.180  31.581  35.611  1.00  0.00     0.094 C 
ENDBRANCH   7  15
BRANCH  13  17
ATOM     17  O   UNL A   1      34.743  36.791  32.678  1.00  0.00    -0.491 OA
ATOM     18  H   UNL A   1      35.124  37.092  33.480  1.00  0.00     0.295 HD
ENDBRANCH  13  17
ENDBRANCH   4   6
ENDBRANCH   3   4
ENDBRANCH   2   3
ENDBRANCH   1   2
BRANCH   1  19
ATOM     19  O   UNL A   1      35.415  33.242  28.113  1.00  0.00    -0.458 OA
BRANCH  19  20
ATOM     20  C   UNL A   1      35.227  31.920  27.913  1.00  0.00     0.338 C 
ATOM     21  O   UNL A   1      34.246  31.385  27.410  1.00  0.00    -0.246 OA
BRANCH  20  22
ATOM     22  C   UNL A   1      36.300  31.142  28.538  1.00  0.00     0.060 A 
ATOM     23  C   UNL A   1      37.324  31.846  29.179  1.00  0.00     0.016 A 
ATOM     24  C   UNL A   1      36.412  29.772  28.270  1.00  0.00     0.016 A 
ATOM     25  C   UNL A   1      38.517  31.201  29.446  1.00  0.00     0.010 A 
ATOM     26  C   UNL A   1      37.605  29.128  28.542  1.00  0.00     0.010 A 
ATOM     27  C   UNL A   1      38.670  29.862  29.069  1.00  0.00    -0.014 A 
BRANCH  27  28
ATOM     28  C   UNL A   1      39.971  29.239  29.276  1.00  0.00     0.031 A 
ATOM     29  C   UNL A   1      40.362  29.006  30.692  1.00  0.00     0.074 A 
ATOM     30  C   UNL A   1      40.708  28.758  28.255  1.00  0.00     0.049 A 
ATOM     31  N   UNL A   1      41.468  29.311  31.290  1.00  0.00    -0.248 NA
ATOM     32  C   UNL A   1      39.356  28.379  31.567  1.00  0.00     0.031 C 
ATOM     33  C   UNL A   1      40.320  28.638  26.847  1.00  0.00     0.029 A 
ATOM     34  N   UNL A   1      41.930  28.156  28.297  1.00  0.00    -0.354 N 
ATOM     35  C   UNL A   1      41.357  28.799  32.580  1.00  0.00     0.074 A 
ATOM     36  C   UNL A   1      40.010  28.311  32.724  1.00  0.00     0.031 C 
ATOM     37  C   UNL A   1      41.185  27.812  26.220  1.00  0.00     0.029 A 
ATOM     38  C   UNL A   1      42.246  27.453  27.146  1.00  0.00     0.049 A 
ATOM     39  H   UNL A   1      42.533  28.216  29.073  1.00  0.00     0.167 HD
ATOM     40  C   UNL A   1      42.426  28.644  33.404  1.00  0.00     0.037 A 
ATOM     41  C   UNL A   1      43.263  26.572  26.998  1.00  0.00     0.037 A 
ATOM     42  C   UNL A   1      43.539  29.462  33.021  1.00  0.00     0.049 A 
ATOM     43  C   UNL A   1      44.248  26.823  28.075  1.00  0.00     0.074 A 
ATOM     44  C   UNL A   1      43.776  30.820  32.967  1.00  0.00     0.029 A 
ATOM     45  N   UNL A   1      44.563  28.872  32.330  1.00  0.00    -0.354 N 
ATOM     46  N   UNL A   1      45.003  27.881  28.159  1.00  0.00    -0.248 NA
ATOM     47  C   UNL A   1      44.181  26.008  29.279  1.00  0.00     0.031 C 
ATOM     48  C   UNL A   1      44.692  31.003  31.892  1.00  0.00     0.029 A 
ATOM     49  C   UNL A   1      44.960  29.745  31.351  1.00  0.00     0.049 A 
ATOM     50  H   UNL A   1      44.945  27.982  32.505  1.00  0.00     0.167 HD
ATOM     51  C   UNL A   1      45.180  28.080  29.518  1.00  0.00     0.074 A 
ATOM     52  C   UNL A   1      44.786  26.825  30.142  1.00  0.00     0.031 C 
ATOM     53  C   UNL A   1      45.359  29.334  30.024  1.00  0.00     0.037 A 
BRANCH  40  54
ATOM     54  C   UNL A   1      42.549  27.516  34.389  1.00  0.00     0.064 A 
ATOM     55  C   UNL A   1      43.068  26.273  33.985  1.00  0.00     0.173 A 
ATOM     56  C   UNL A   1      41.919  27.540  35.652  1.00  0.00     0.173 A 
ATOM     57  F   UNL A   1      43.642  26.133  32.781  1.00  0.00    -0.203 F 
ATOM     58  C   UNL A   1      42.938  25.130  34.779  1.00  0.00     0.198 A 
ATOM     59  C   UNL A   1      41.837  26.411  36.464  1.00  0.00     0.198 A 
ATOM     60  F   UNL A   1      41.270  28.627  36.092  1.00  0.00    -0.203 F 
ATOM     61  F   UNL A   1      43.357  23.946  34.314  1.00  0.00    -0.200 F 
ATOM     62  C   UNL A   1      42.326  25.201  36.018  1.00  0.00     0.200 A 
ATOM     63  F   UNL A   1      41.217  26.493  37.650  1.00  0.00    -0.200 F 
ATOM     64  F   UNL A   1      42.163  24.099  36.760  1.00  0.00    -0.200 F 
ENDBRANCH  40  54
BRANCH  41  65
ATOM     65  C   UNL A   1      43.306  25.354  26.157  1.00  0.00     0.064 A 
ATOM     66  C   UNL A   1      44.386  25.116  25.292  1.00  0.00     0.173 A 
ATOM     67  C   UNL A   1      42.433  24.270  26.380  1.00  0.00     0.173 A 
ATOM     68  F   UNL A   1      45.288  26.081  25.058  1.00  0.00    -0.203 F 
ATOM     69  C   UNL A   1      44.598  23.863  24.711  1.00  0.00     0.198 A 
ATOM     70  C   UNL A   1      42.637  23.025  25.787  1.00  0.00     0.198 A 
ATOM     71  F   UNL A   1      41.419  24.368  27.252  1.00  0.00    -0.203 F 
ATOM     72  F   UNL A   1      45.680  23.655  23.948  1.00  0.00    -0.200 F 
ATOM     73  C   UNL A   1      43.729  22.816  24.967  1.00  0.00     0.200 A 
ATOM     74  F   UNL A   1      41.804  22.012  26.069  1.00  0.00    -0.200 F 
ATOM     75  F   UNL A   1      43.964  21.599  24.459  1.00  0.00    -0.200 F 
ENDBRANCH  41  65
BRANCH  53  76
ATOM     76  C   UNL A   1      45.722  30.422  29.056  1.00  0.00     0.064 A 
ATOM     77  C   UNL A   1      47.043  30.728  28.691  1.00  0.00     0.173 A 
ATOM     78  C   UNL A   1      44.691  31.089  28.381  1.00  0.00     0.173 A 
ATOM     79  F   UNL A   1      48.076  30.060  29.220  1.00  0.00    -0.203 F 
ATOM     80  C   UNL A   1      47.318  31.697  27.728  1.00  0.00     0.198 A 
ATOM     81  C   UNL A   1      44.968  32.030  27.393  1.00  0.00     0.198 A 
ATOM     82  F   UNL A   1      43.409  30.793  28.649  1.00  0.00    -0.203 F 
ATOM     83  F   UNL A   1      48.589  31.987  27.409  1.00  0.00    -0.200 F 
ATOM     84  C   UNL A   1      46.280  32.343  27.076  1.00  0.00     0.200 A 
ATOM     85  F   UNL A   1      43.962  32.616  26.730  1.00  0.00    -0.200 F 
ATOM     86  F   UNL A   1      46.545  33.247  26.122  1.00  0.00    -0.200 F 
ENDBRANCH  53  76
ENDBRANCH  27  28
ENDBRANCH  20  22
ENDBRANCH  19  20
ENDBRANCH   1  19
TORSDOF 13
ENDMDL
MODEL 2
REMARK VINA RESULT:     -12.2      5.099     11.553
REMARK SMILES CSc1nc2nnc(C(=O)OCCOC(=O)c3ccc(-c4c5nc(c(-c6c(F)c(F)c(F)c(F)c6F)c6ccc([nH]6)c(-c6c(F)c(F)c(F)c(F)c6F)c6nc(c(-c7c(F)c(F)c(F)c(F)c7F)c7ccc4[nH]7)C=C6)C=C5)cc3)c(O)n2n1
REMARK SMILES IDX 13 1 12 2 11 3 9 4 10 5 8 6 3 7 4 8 83 9 5 10 82 11 6 12
REMARK SMILES IDX 80 13 7 14 2 15 1 16 81 17 14 19 15 20 16 21 17 22 18 23
REMARK SMILES IDX 79 24 19 25 78 26 20 27 21 28 22 29 72 30 23 31 77 32 71 33
REMARK SMILES IDX 73 34 24 35 76 36 70 37 69 38 25 40 57 41 37 42 56 43 38 44
REMARK SMILES IDX 41 45 55 46 74 47 39 48 40 49 54 51 75 52 42 53 26 54 27 55
REMARK SMILES IDX 35 56 28 57 29 58 33 59 36 60 30 61 31 62 34 63 32 64 58 65
REMARK SMILES IDX 59 66 67 67 60 68 61 69 65 70 68 71 62 72 63 73 66 74 64 75
REMARK SMILES IDX 43 76 44 77 52 78 45 79 46 80 50 81 53 82 47 83 48 84 51 85
REMARK SMILES IDX 49 86
REMARK H PARENT 81 18 73 39 41 50
REMARK Flexibility Score: inf
ROOT
ATOM      1  C   UNL A   1      41.148  19.933  27.466  1.00  0.00     0.275 C 
ENDROOT
BRANCH   1   2
ATOM      2  C   UNL A   1      42.306  19.068  26.970  1.00  0.00     0.275 C 
BRANCH   2   3
ATOM      3  O   UNL A   1      42.496  19.174  25.547  1.00  0.00    -0.457 OA
BRANCH   3   4
ATOM      4  C   UNL A   1      43.777  19.391  25.152  1.00  0.00     0.364 C 
ATOM      5  O   UNL A   1      44.565  18.524  24.788  1.00  0.00    -0.244 OA
BRANCH   4   6
ATOM      6  C   UNL A   1      44.094  20.841  25.051  1.00  0.00     0.232 A 
ATOM      7  C   UNL A   1      46.404  24.517  25.220  1.00  0.00     0.210 A 
ATOM      8  N   UNL A   1      45.101  24.692  24.857  1.00  0.00    -0.182 NA
ATOM      9  N   UNL A   1      46.781  23.259  25.428  1.00  0.00    -0.134 NA
ATOM     10  C   UNL A   1      44.630  23.461  24.826  1.00  0.00     0.275 A 
ATOM     11  N   UNL A   1      45.633  22.577  25.207  1.00  0.00    -0.159 N 
ATOM     12  N   UNL A   1      43.385  22.978  24.529  1.00  0.00    -0.108 NA
ATOM     13  C   UNL A   1      45.360  21.217  25.341  1.00  0.00     0.251 A 
ATOM     14  N   UNL A   1      43.131  21.741  24.626  1.00  0.00    -0.134 NA
BRANCH   7  15
ATOM     15  S   UNL A   1      47.542  25.817  25.427  1.00  0.00    -0.088 SA
ATOM     16  C   UNL A   1      46.648  27.163  24.628  1.00  0.00     0.094 C 
ENDBRANCH   7  15
BRANCH  13  17
ATOM     17  O   UNL A   1      46.382  20.368  25.751  1.00  0.00    -0.491 OA
ATOM     18  H   UNL A   1      46.176  19.544  26.147  1.00  0.00     0.295 HD
ENDBRANCH  13  17
ENDBRANCH   4   6
ENDBRANCH   3   4
ENDBRANCH   2   3
ENDBRANCH   1   2
BRANCH   1  19
ATOM     19  O   UNL A   1      41.449  21.334  27.501  1.00  0.00    -0.458 OA
BRANCH  19  20
ATOM     20  C   UNL A   1      40.525  22.120  26.908  1.00  0.00     0.338 C 
ATOM     21  O   UNL A   1      39.599  21.756  26.193  1.00  0.00    -0.246 OA
BRANCH  20  22
ATOM     22  C   UNL A   1      40.857  23.536  27.087  1.00  0.00     0.060 A 
ATOM     23  C   UNL A   1      41.941  23.850  27.912  1.00  0.00     0.016 A 
ATOM     24  C   UNL A   1      39.960  24.520  26.653  1.00  0.00     0.016 A 
ATOM     25  C   UNL A   1      42.060  25.137  28.403  1.00  0.00     0.010 A 
ATOM     26  C   UNL A   1      40.084  25.807  27.142  1.00  0.00     0.010 A 
ATOM     27  C   UNL A   1      41.094  26.091  28.064  1.00  0.00    -0.014 A 
BRANCH  27  28
ATOM     28  C   UNL A   1      41.193  27.410  28.674  1.00  0.00     0.031 A 
ATOM     29  C   UNL A   1      42.345  28.244  28.236  1.00  0.00     0.074 A 
ATOM     30  C   UNL A   1      40.224  27.911  29.465  1.00  0.00     0.049 A 
ATOM     31  N   UNL A   1      43.205  28.886  28.959  1.00  0.00    -0.248 NA
ATOM     32  C   UNL A   1      42.585  28.340  26.786  1.00  0.00     0.031 C 
ATOM     33  C   UNL A   1      38.902  27.337  29.737  1.00  0.00     0.029 A 
ATOM     34  N   UNL A   1      40.179  29.117  30.099  1.00  0.00    -0.354 N 
ATOM     35  C   UNL A   1      44.017  29.574  28.062  1.00  0.00     0.074 A 
ATOM     36  C   UNL A   1      43.648  29.139  26.740  1.00  0.00     0.031 C 
ATOM     37  C   UNL A   1      38.116  28.286  30.290  1.00  0.00     0.029 A 
ATOM     38  C   UNL A   1      38.911  29.479  30.522  1.00  0.00     0.049 A 
ATOM     39  H   UNL A   1      40.975  29.678  30.244  1.00  0.00     0.167 HD
ATOM     40  C   UNL A   1      44.830  30.594  28.441  1.00  0.00     0.037 A 
ATOM     41  C   UNL A   1      38.529  30.704  30.952  1.00  0.00     0.037 A 
ATOM     42  C   UNL A   1      45.122  30.573  29.845  1.00  0.00     0.049 A 
ATOM     43  C   UNL A   1      39.745  31.453  31.345  1.00  0.00     0.074 A 
ATOM     44  C   UNL A   1      45.802  29.717  30.685  1.00  0.00     0.029 A 
ATOM     45  N   UNL A   1      44.428  31.430  30.658  1.00  0.00    -0.354 N 
ATOM     46  N   UNL A   1      40.486  31.176  32.380  1.00  0.00    -0.248 NA
ATOM     47  C   UNL A   1      40.341  32.364  30.378  1.00  0.00     0.031 C 
ATOM     48  C   UNL A   1      45.153  29.829  31.949  1.00  0.00     0.029 A 
ATOM     49  C   UNL A   1      44.111  30.748  31.804  1.00  0.00     0.049 A 
ATOM     50  H   UNL A   1      44.198  32.365  30.455  1.00  0.00     0.167 HD
ATOM     51  C   UNL A   1      41.767  31.546  32.006  1.00  0.00     0.074 A 
ATOM     52  C   UNL A   1      41.591  32.401  30.841  1.00  0.00     0.031 C 
ATOM     53  C   UNL A   1      42.857  30.896  32.505  1.00  0.00     0.037 A 
BRANCH  40  54
ATOM     54  C   UNL A   1      45.119  31.785  27.571  1.00  0.00     0.064 A 
ATOM     55  C   UNL A   1      46.415  31.998  27.067  1.00  0.00     0.173 A 
ATOM     56  C   UNL A   1      44.221  32.867  27.443  1.00  0.00     0.173 A 
ATOM     57  F   UNL A   1      47.357  31.051  27.185  1.00  0.00    -0.203 F 
ATOM     58  C   UNL A   1      46.789  33.220  26.501  1.00  0.00     0.198 A 
ATOM     59  C   UNL A   1      44.583  34.064  26.830  1.00  0.00     0.198 A 
ATOM     60  F   UNL A   1      43.002  32.837  27.999  1.00  0.00    -0.203 F 
ATOM     61  F   UNL A   1      48.060  33.417  26.124  1.00  0.00    -0.200 F 
ATOM     62  C   UNL A   1      45.873  34.250  26.380  1.00  0.00     0.200 A 
ATOM     63  F   UNL A   1      43.688  35.060  26.747  1.00  0.00    -0.200 F 
ATOM     64  F   UNL A   1      46.243  35.434  25.878  1.00  0.00    -0.200 F 
ENDBRANCH  40  54
BRANCH  41  65
ATOM     65  C   UNL A   1      37.214  31.365  30.789  1.00  0.00     0.064 A 
ATOM     66  C   UNL A   1      36.383  31.596  31.897  1.00  0.00     0.173 A 
ATOM     67  C   UNL A   1      36.863  32.026  29.594  1.00  0.00     0.173 A 
ATOM     68  F   UNL A   1      36.670  31.038  33.082  1.00  0.00    -0.203 F 
ATOM     69  C   UNL A   1      35.287  32.459  31.823  1.00  0.00     0.198 A 
ATOM     70  C   UNL A   1      35.760  32.875  29.519  1.00  0.00     0.198 A 
ATOM     71  F   UNL A   1      37.636  31.938  28.503  1.00  0.00    -0.203 F 
ATOM     72  F   UNL A   1      34.560  32.710  32.922  1.00  0.00    -0.200 F 
ATOM     73  C   UNL A   1      34.982  33.106  30.637  1.00  0.00     0.200 A 
ATOM     74  F   UNL A   1      35.495  33.518  28.373  1.00  0.00    -0.200 F 
ATOM     75  F   UNL A   1      33.968  33.980  30.582  1.00  0.00    -0.200 F 
ENDBRANCH  41  65
BRANCH  53  76
ATOM     76  C   UNL A   1      42.652  30.041  33.721  1.00  0.00     0.064 A 
ATOM     77  C   UNL A   1      42.781  30.517  35.037  1.00  0.00     0.173 A 
ATOM     78  C   UNL A   1      42.186  28.732  33.548  1.00  0.00     0.173 A 
ATOM     79  F   UNL A   1      43.124  31.789  35.278  1.00  0.00    -0.203 F 
ATOM     80  C   UNL A   1      42.503  29.698  36.129  1.00  0.00     0.198 A 
ATOM     81  C   UNL A   1      41.874  27.928  34.641  1.00  0.00     0.198 A 
ATOM     82  F   UNL A   1      41.989  28.245  32.312  1.00  0.00    -0.203 F 
ATOM     83  F   UNL A   1      42.651  30.168  37.377  1.00  0.00    -0.200 F 
ATOM     84  C   UNL A   1      42.044  28.406  35.930  1.00  0.00     0.200 A 
ATOM     85  F   UNL A   1      41.383  26.696  34.444  1.00  0.00    -0.200 F 
ATOM     86  F   UNL A   1      41.739  27.631  36.981  1.00  0.00    -0.200 F 
ENDBRANCH  53  76
ENDBRANCH  27  28
ENDBRANCH  20  22
ENDBRANCH  19  20
ENDBRANCH   1  19
TORSDOF 13
ENDMDL
MODEL 3
REMARK VINA RESULT:     -12.2      0.207      1.179
REMARK SMILES CSc1nc2nnc(C(=O)OCCOC(=O)c3ccc(-c4c5nc(c(-c6c(F)c(F)c(F)c(F)c6F)c6ccc([nH]6)c(-c6c(F)c(F)c(F)c(F)c6F)c6nc(c(-c7c(F)c(F)c(F)c(F)c7F)c7ccc4[nH]7)C=C6)C=C5)cc3)c(O)n2n1
REMARK SMILES IDX 13 1 12 2 11 3 9 4 10 5 8 6 3 7 4 8 83 9 5 10 82 11 6 12
REMARK SMILES IDX 80 13 7 14 2 15 1 16 81 17 14 19 15 20 16 21 17 22 18 23
REMARK SMILES IDX 79 24 19 25 78 26 20 27 21 28 22 29 72 30 23 31 77 32 71 33
REMARK SMILES IDX 73 34 24 35 76 36 70 37 69 38 25 40 57 41 37 42 56 43 38 44
REMARK SMILES IDX 41 45 55 46 74 47 39 48 40 49 54 51 75 52 42 53 26 54 27 55
REMARK SMILES IDX 35 56 28 57 29 58 33 59 36 60 30 61 31 62 34 63 32 64 58 65
REMARK SMILES IDX 59 66 67 67 60 68 61 69 65 70 68 71 62 72 63 73 66 74 64 75
REMARK SMILES IDX 43 76 44 77 52 78 45 79 46 80 50 81 53 82 47 83 48 84 51 85
REMARK SMILES IDX 49 86
REMARK H PARENT 81 18 73 39 41 50
REMARK Flexibility Score: inf
ROOT
ATOM      1  C   UNL A   1      34.447  34.081  27.695  1.00  0.00     0.275 C 
ENDROOT
BRANCH   1   2
ATOM      2  C   UNL A   1      34.144  35.384  28.433  1.00  0.00     0.275 C 
BRANCH   2   3
ATOM      3  O   UNL A   1      32.963  35.287  29.250  1.00  0.00    -0.457 OA
BRANCH   3   4
ATOM      4  C   UNL A   1      33.074  35.825  30.491  1.00  0.00     0.364 C 
ATOM      5  O   UNL A   1      32.528  36.856  30.871  1.00  0.00    -0.244 OA
BRANCH   4   6
ATOM      6  C   UNL A   1      33.820  34.937  31.422  1.00  0.00     0.232 A 
ATOM      7  C   UNL A   1      36.470  33.738  34.651  1.00  0.00     0.210 A 
ATOM      8  N   UNL A   1      35.905  32.696  33.975  1.00  0.00    -0.182 NA
ATOM      9  N   UNL A   1      36.100  34.952  34.252  1.00  0.00    -0.134 NA
ATOM     10  C   UNL A   1      35.122  33.295  33.099  1.00  0.00     0.275 A 
ATOM     11  N   UNL A   1      35.256  34.672  33.231  1.00  0.00    -0.159 N 
ATOM     12  N   UNL A   1      34.292  32.789  32.137  1.00  0.00    -0.108 NA
ATOM     13  C   UNL A   1      34.596  35.532  32.355  1.00  0.00     0.251 A 
ATOM     14  N   UNL A   1      33.669  33.561  31.350  1.00  0.00    -0.134 NA
BRANCH   7  15
ATOM     15  S   UNL A   1      37.616  33.555  35.948  1.00  0.00    -0.088 SA
ATOM     16  C   UNL A   1      38.153  31.857  35.668  1.00  0.00     0.094 C 
ENDBRANCH   7  15
BRANCH  13  17
ATOM     17  O   UNL A   1      34.777  36.903  32.501  1.00  0.00    -0.491 OA
ATOM     18  H   UNL A   1      34.726  37.465  31.752  1.00  0.00     0.295 HD
ENDBRANCH  13  17
ENDBRANCH   4   6
ENDBRANCH   3   4
ENDBRANCH   2   3
ENDBRANCH   1   2
BRANCH   1  19
ATOM     19  O   UNL A   1      35.236  33.158  28.457  1.00  0.00    -0.458 OA
BRANCH  19  20
ATOM     20  C   UNL A   1      35.216  31.888  27.995  1.00  0.00     0.338 C 
ATOM     21  O   UNL A   1      34.363  31.382  27.274  1.00  0.00    -0.246 OA
BRANCH  20  22
ATOM     22  C   UNL A   1      36.286  31.096  28.606  1.00  0.00     0.060 A 
ATOM     23  C   UNL A   1      37.321  31.786  29.246  1.00  0.00     0.016 A 
ATOM     24  C   UNL A   1      36.383  29.728  28.327  1.00  0.00     0.016 A 
ATOM     25  C   UNL A   1      38.509  31.127  29.500  1.00  0.00     0.010 A 
ATOM     26  C   UNL A   1      37.572  29.070  28.586  1.00  0.00     0.010 A 
ATOM     27  C   UNL A   1      38.648  29.790  29.111  1.00  0.00    -0.014 A 
BRANCH  27  28
ATOM     28  C   UNL A   1      39.943  29.154  29.304  1.00  0.00     0.031 A 
ATOM     29  C   UNL A   1      40.355  28.934  30.717  1.00  0.00     0.074 A 
ATOM     30  C   UNL A   1      40.657  28.650  28.278  1.00  0.00     0.049 A 
ATOM     31  N   UNL A   1      41.476  29.232  31.293  1.00  0.00    -0.248 NA
ATOM     32  C   UNL A   1      39.357  28.330  31.616  1.00  0.00     0.031 C 
ATOM     33  C   UNL A   1      40.244  28.517  26.878  1.00  0.00     0.029 A 
ATOM     34  N   UNL A   1      41.873  28.033  28.307  1.00  0.00    -0.354 N 
ATOM     35  C   UNL A   1      41.379  28.738  32.590  1.00  0.00     0.074 A 
ATOM     36  C   UNL A   1      40.029  28.269  32.763  1.00  0.00     0.031 C 
ATOM     37  C   UNL A   1      41.089  27.672  26.248  1.00  0.00     0.029 A 
ATOM     38  C   UNL A   1      42.161  27.311  27.160  1.00  0.00     0.049 A 
ATOM     39  H   UNL A   1      42.489  28.095  29.072  1.00  0.00     0.167 HD
ATOM     40  C   UNL A   1      42.460  28.579  33.398  1.00  0.00     0.037 A 
ATOM     41  C   UNL A   1      43.163  26.416  27.007  1.00  0.00     0.037 A 
ATOM     42  C   UNL A   1      43.577  29.379  32.987  1.00  0.00     0.049 A 
ATOM     43  C   UNL A   1      44.170  26.668  28.064  1.00  0.00     0.074 A 
ATOM     44  C   UNL A   1      43.830  30.733  32.911  1.00  0.00     0.029 A 
ATOM     45  N   UNL A   1      44.582  28.767  32.286  1.00  0.00    -0.354 N 
ATOM     46  N   UNL A   1      44.939  27.717  28.122  1.00  0.00    -0.248 NA
ATOM     47  C   UNL A   1      44.113  25.869  29.280  1.00  0.00     0.031 C 
ATOM     48  C   UNL A   1      44.730  30.891  31.818  1.00  0.00     0.029 A 
ATOM     49  C   UNL A   1      44.973  29.622  31.289  1.00  0.00     0.049 A 
ATOM     50  H   UNL A   1      44.955  27.874  32.466  1.00  0.00     0.167 HD
ATOM     51  C   UNL A   1      45.141  27.932  29.475  1.00  0.00     0.074 A 
ATOM     52  C   UNL A   1      44.742  26.690  30.121  1.00  0.00     0.031 C 
ATOM     53  C   UNL A   1      45.344  29.190  29.962  1.00  0.00     0.037 A 
BRANCH  40  54
ATOM     54  C   UNL A   1      42.586  27.463  34.396  1.00  0.00     0.064 A 
ATOM     55  C   UNL A   1      43.091  26.211  34.001  1.00  0.00     0.173 A 
ATOM     56  C   UNL A   1      41.970  27.507  35.666  1.00  0.00     0.173 A 
ATOM     57  F   UNL A   1      43.649  26.051  32.792  1.00  0.00    -0.203 F 
ATOM     58  C   UNL A   1      42.960  25.079  34.811  1.00  0.00     0.198 A 
ATOM     59  C   UNL A   1      41.890  26.389  36.492  1.00  0.00     0.198 A 
ATOM     60  F   UNL A   1      41.335  28.604  36.100  1.00  0.00    -0.203 F 
ATOM     61  F   UNL A   1      43.364  23.885  34.356  1.00  0.00    -0.200 F 
ATOM     62  C   UNL A   1      42.364  25.170  36.056  1.00  0.00     0.200 A 
ATOM     63  F   UNL A   1      41.284  26.491  37.684  1.00  0.00    -0.200 F 
ATOM     64  F   UNL A   1      42.200  24.078  36.813  1.00  0.00    -0.200 F 
ENDBRANCH  40  54
BRANCH  41  65
ATOM     65  C   UNL A   1      43.177  25.187  26.181  1.00  0.00     0.064 A 
ATOM     66  C   UNL A   1      44.225  24.939  25.280  1.00  0.00     0.173 A 
ATOM     67  C   UNL A   1      42.315  24.106  26.450  1.00  0.00     0.173 A 
ATOM     68  F   UNL A   1      45.116  25.901  25.000  1.00  0.00    -0.203 F 
ATOM     69  C   UNL A   1      44.417  23.678  24.708  1.00  0.00     0.198 A 
ATOM     70  C   UNL A   1      42.498  22.853  25.867  1.00  0.00     0.198 A 
ATOM     71  F   UNL A   1      41.334  24.214  27.358  1.00  0.00    -0.203 F 
ATOM     72  F   UNL A   1      45.471  23.461  23.908  1.00  0.00    -0.200 F 
ATOM     73  C   UNL A   1      43.560  22.634  25.009  1.00  0.00     0.200 A 
ATOM     74  F   UNL A   1      41.679  21.843  26.193  1.00  0.00    -0.200 F 
ATOM     75  F   UNL A   1      43.778  21.410  24.510  1.00  0.00    -0.200 F 
ENDBRANCH  41  65
BRANCH  53  76
ATOM     76  C   UNL A   1      45.704  30.261  28.974  1.00  0.00     0.064 A 
ATOM     77  C   UNL A   1      44.756  30.998  28.246  1.00  0.00     0.173 A 
ATOM     78  C   UNL A   1      47.049  30.638  28.856  1.00  0.00     0.173 A 
ATOM     79  F   UNL A   1      43.445  30.762  28.385  1.00  0.00    -0.203 F 
ATOM     80  C   UNL A   1      45.145  32.035  27.399  1.00  0.00     0.198 A 
ATOM     81  C   UNL A   1      47.431  31.697  28.037  1.00  0.00     0.198 A 
ATOM     82  F   UNL A   1      47.991  30.004  29.573  1.00  0.00    -0.203 F 
ATOM     83  F   UNL A   1      44.223  32.713  26.700  1.00  0.00    -0.200 F 
ATOM     84  C   UNL A   1      46.481  32.387  27.301  1.00  0.00     0.200 A 
ATOM     85  F   UNL A   1      48.718  32.067  27.983  1.00  0.00    -0.200 F 
ATOM     86  F   UNL A   1      46.851  33.409  26.516  1.00  0.00    -0.200 F 
ENDBRANCH  53  76
ENDBRANCH  27  28
ENDBRANCH  20  22
ENDBRANCH  19  20
ENDBRANCH   1  19
TORSDOF 13
ENDMDL
