MODEL 1
REMARK VINA RESULT:     -12.3      0.000      0.000
REMARK SMILES CC[C@H]1SC[C@H](C(=O)OCCOC(=O)c2ccc(-c3c4nc(c(-c5c(F)c(F)c(F)c(F)c5F)c5ccc([nH]5)c(-c5c(F)c(F)c(F)c(F)c5F)c5nc(c(-c6c(F)c(F)c(F)c(F)c6F)c6ccc3[nH]6)C=C5)C=C4)cc2)N1C(=O)Cc1ccc(F)c(F)c1
REMARK SMILES IDX 10 1 9 2 7 3 8 4 6 5 3 6 4 7 78 8 5 9 2 10 1 11 79 12 80 13
REMARK SMILES IDX 81 14 82 15 83 16 89 17 84 18 87 19 85 20 88 21 86 22 11 23
REMARK SMILES IDX 12 24 13 25 14 26 15 27 16 28 77 29 17 30 76 31 18 32 19 33
REMARK SMILES IDX 20 34 70 35 21 36 75 37 69 38 71 39 22 40 74 41 68 42 67 43
REMARK SMILES IDX 23 45 55 46 35 47 54 48 36 49 39 50 53 51 72 52 37 53 38 54
REMARK SMILES IDX 52 56 73 57 40 58 24 59 25 60 33 61 26 62 27 63 31 64 34 65
REMARK SMILES IDX 28 66 29 67 32 68 30 69 56 70 57 71 65 72 58 73 59 74 63 75
REMARK SMILES IDX 66 76 60 77 61 78 64 79 62 80 41 81 42 82 50 83 43 84 44 85
REMARK SMILES IDX 48 86 51 87 45 88 46 89 49 90 47 91
REMARK H PARENT 71 44 39 55
REMARK Flexibility Score: inf
ROOT
ATOM      1  C   UNL A   1      32.195  28.126  26.602  1.00  0.00     0.274 C 
ENDROOT
BRANCH   1   2
ATOM      2  O   UNL A   1      31.072  27.283  26.928  1.00  0.00    -0.461 OA
BRANCH   2   3
ATOM      3  C   UNL A   1      30.700  26.390  25.969  1.00  0.00     0.329 C 
ATOM      4  O   UNL A   1      29.677  25.717  26.004  1.00  0.00    -0.250 OA
BRANCH   3   5
ATOM      5  C   UNL A   1      31.725  26.348  24.824  1.00  0.00     0.206 C 
ATOM      6  C   UNL A   1      31.300  25.874  22.429  1.00  0.00     0.144 C 
ATOM      7  S   UNL A   1      31.232  24.260  23.254  1.00  0.00    -0.134 SA
ATOM      8  N   UNL A   1      31.204  26.836  23.517  1.00  0.00    -0.316 N 
ATOM      9  C   UNL A   1      32.149  24.876  24.685  1.00  0.00     0.109 C 
BRANCH   6  10
ATOM     10  C   UNL A   1      32.608  25.958  21.599  1.00  0.00     0.033 C 
ATOM     11  C   UNL A   1      32.529  25.571  20.127  1.00  0.00     0.007 C 
ENDBRANCH   6  10
BRANCH   8  12
ATOM     12  C   UNL A   1      30.883  28.175  23.365  1.00  0.00     0.228 C 
ATOM     13  O   UNL A   1      31.753  29.001  23.084  1.00  0.00    -0.274 OA
BRANCH  12  14
ATOM     14  C   UNL A   1      29.454  28.637  23.652  1.00  0.00     0.135 C 
BRANCH  14  15
ATOM     15  C   UNL A   1      28.997  29.877  22.926  1.00  0.00    -0.036 A 
ATOM     16  C   UNL A   1      28.465  29.801  21.628  1.00  0.00     0.007 A 
ATOM     17  C   UNL A   1      29.133  31.139  23.530  1.00  0.00     0.046 A 
ATOM     18  C   UNL A   1      28.021  30.954  20.974  1.00  0.00     0.043 A 
ATOM     19  C   UNL A   1      28.682  32.281  22.874  1.00  0.00     0.159 A 
ATOM     20  C   UNL A   1      28.122  32.189  21.608  1.00  0.00     0.158 A 
ATOM     21  F   UNL A   1      28.780  33.468  23.487  1.00  0.00    -0.204 F 
ATOM     22  F   UNL A   1      27.672  33.288  20.987  1.00  0.00    -0.204 F 
ENDBRANCH  14  15
ENDBRANCH  12  14
ENDBRANCH   8  12
ENDBRANCH   3   5
ENDBRANCH   2   3
ENDBRANCH   1   2
BRANCH   1  23
ATOM     23  C   UNL A   1      31.797  29.602  26.626  1.00  0.00     0.275 C 
BRANCH  23  24
ATOM     24  O   UNL A   1      32.915  30.399  26.201  1.00  0.00    -0.458 OA
BRANCH  24  25
ATOM     25  C   UNL A   1      33.283  31.392  27.039  1.00  0.00     0.338 C 
ATOM     26  O   UNL A   1      32.694  32.436  27.254  1.00  0.00    -0.246 OA
BRANCH  25  27
ATOM     27  C   UNL A   1      34.569  31.046  27.679  1.00  0.00     0.060 A 
ATOM     28  C   UNL A   1      34.877  29.728  28.025  1.00  0.00     0.016 A 
ATOM     29  C   UNL A   1      35.447  32.074  28.021  1.00  0.00     0.016 A 
ATOM     30  C   UNL A   1      36.023  29.440  28.764  1.00  0.00     0.010 A 
ATOM     31  C   UNL A   1      36.633  31.776  28.696  1.00  0.00     0.010 A 
ATOM     32  C   UNL A   1      36.919  30.461  29.099  1.00  0.00    -0.014 A 
BRANCH  32  33
ATOM     33  C   UNL A   1      38.137  30.175  29.898  1.00  0.00     0.031 A 
ATOM     34  C   UNL A   1      39.212  29.289  29.332  1.00  0.00     0.074 A 
ATOM     35  C   UNL A   1      38.278  30.691  31.134  1.00  0.00     0.049 A 
ATOM     36  N   UNL A   1      40.242  28.747  29.930  1.00  0.00    -0.248 NA
ATOM     37  C   UNL A   1      39.106  28.961  27.902  1.00  0.00     0.031 C 
ATOM     38  C   UNL A   1      37.339  31.607  31.782  1.00  0.00     0.029 A 
ATOM     39  N   UNL A   1      39.265  30.509  32.070  1.00  0.00    -0.354 N 
ATOM     40  C   UNL A   1      40.876  27.974  28.966  1.00  0.00     0.074 A 
ATOM     41  C   UNL A   1      40.119  28.120  27.741  1.00  0.00     0.031 C 
ATOM     42  C   UNL A   1      37.800  31.919  33.002  1.00  0.00     0.029 A 
ATOM     43  C   UNL A   1      39.025  31.167  33.252  1.00  0.00     0.049 A 
ATOM     44  H   UNL A   1      40.067  29.962  31.911  1.00  0.00     0.167 HD
ATOM     45  C   UNL A   1      41.984  27.207  29.098  1.00  0.00     0.037 A 
ATOM     46  C   UNL A   1      39.690  31.129  34.422  1.00  0.00     0.037 A 
ATOM     47  C   UNL A   1      42.756  27.098  30.308  1.00  0.00     0.049 A 
ATOM     48  C   UNL A   1      40.898  30.245  34.554  1.00  0.00     0.074 A 
ATOM     49  C   UNL A   1      43.902  26.357  30.540  1.00  0.00     0.029 A 
ATOM     50  N   UNL A   1      42.467  27.765  31.490  1.00  0.00    -0.354 N 
ATOM     51  N   UNL A   1      41.457  29.472  33.656  1.00  0.00    -0.248 NA
ATOM     52  C   UNL A   1      41.554  30.213  35.868  1.00  0.00     0.031 C 
ATOM     53  C   UNL A   1      44.289  26.551  31.870  1.00  0.00     0.029 A 
ATOM     54  C   UNL A   1      43.406  27.445  32.456  1.00  0.00     0.049 A 
ATOM     55  H   UNL A   1      41.706  28.377  31.621  1.00  0.00     0.167 HD
ATOM     56  C   UNL A   1      42.532  28.867  34.291  1.00  0.00     0.074 A 
ATOM     57  C   UNL A   1      42.560  29.380  35.646  1.00  0.00     0.031 C 
ATOM     58  C   UNL A   1      43.414  27.964  33.798  1.00  0.00     0.037 A 
BRANCH  45  59
ATOM     59  C   UNL A   1      42.409  26.394  27.912  1.00  0.00     0.064 A 
ATOM     60  C   UNL A   1      41.877  25.122  27.657  1.00  0.00     0.173 A 
ATOM     61  C   UNL A   1      43.338  26.913  26.997  1.00  0.00     0.173 A 
ATOM     62  F   UNL A   1      41.000  24.575  28.512  1.00  0.00    -0.203 F 
ATOM     63  C   UNL A   1      42.274  24.392  26.540  1.00  0.00     0.198 A 
ATOM     64  C   UNL A   1      43.714  26.191  25.869  1.00  0.00     0.198 A 
ATOM     65  F   UNL A   1      43.875  28.127  27.196  1.00  0.00    -0.203 F 
ATOM     66  F   UNL A   1      41.782  23.162  26.335  1.00  0.00    -0.200 F 
ATOM     67  C   UNL A   1      43.186  24.929  25.643  1.00  0.00     0.200 A 
ATOM     68  F   UNL A   1      44.589  26.716  25.000  1.00  0.00    -0.200 F 
ATOM     69  F   UNL A   1      43.562  24.227  24.565  1.00  0.00    -0.200 F 
ENDBRANCH  45  59
BRANCH  46  70
ATOM     70  C   UNL A   1      39.198  31.928  35.574  1.00  0.00     0.064 A 
ATOM     71  C   UNL A   1      39.559  33.273  35.722  1.00  0.00     0.173 A 
ATOM     72  C   UNL A   1      38.349  31.367  36.539  1.00  0.00     0.173 A 
ATOM     73  F   UNL A   1      40.390  33.844  34.839  1.00  0.00    -0.203 F 
ATOM     74  C   UNL A   1      39.092  34.027  36.797  1.00  0.00     0.198 A 
ATOM     75  C   UNL A   1      37.861  32.129  37.598  1.00  0.00     0.198 A 
ATOM     76  F   UNL A   1      37.977  30.082  36.442  1.00  0.00    -0.203 F 
ATOM     77  F   UNL A   1      39.479  35.303  36.936  1.00  0.00    -0.200 F 
ATOM     78  C   UNL A   1      38.237  33.457  37.729  1.00  0.00     0.200 A 
ATOM     79  F   UNL A   1      37.027  31.578  38.489  1.00  0.00    -0.200 F 
ATOM     80  F   UNL A   1      37.781  34.186  38.757  1.00  0.00    -0.200 F 
ENDBRANCH  46  70
BRANCH  58  81
ATOM     81  C   UNL A   1      44.492  27.491  34.726  1.00  0.00     0.064 A 
ATOM     82  C   UNL A   1      45.703  28.188  34.853  1.00  0.00     0.173 A 
ATOM     83  C   UNL A   1      44.300  26.348  35.515  1.00  0.00     0.173 A 
ATOM     84  F   UNL A   1      45.936  29.276  34.106  1.00  0.00    -0.203 F 
ATOM     85  C   UNL A   1      46.693  27.741  35.723  1.00  0.00     0.198 A 
ATOM     86  C   UNL A   1      45.285  25.919  36.400  1.00  0.00     0.198 A 
ATOM     87  F   UNL A   1      43.157  25.652  35.430  1.00  0.00    -0.203 F 
ATOM     88  F   UNL A   1      47.860  28.397  35.799  1.00  0.00    -0.200 F 
ATOM     89  C   UNL A   1      46.482  26.611  36.499  1.00  0.00     0.200 A 
ATOM     90  F   UNL A   1      45.077  24.830  37.155  1.00  0.00    -0.200 F 
ATOM     91  F   UNL A   1      47.437  26.185  37.336  1.00  0.00    -0.200 F 
ENDBRANCH  58  81
ENDBRANCH  32  33
ENDBRANCH  25  27
ENDBRANCH  24  25
ENDBRANCH  23  24
ENDBRANCH   1  23
TORSDOF 15
ENDMDL
MODEL 2
REMARK VINA RESULT:     -12.3      0.412      1.762
REMARK SMILES CC[C@H]1SC[C@H](C(=O)OCCOC(=O)c2ccc(-c3c4nc(c(-c5c(F)c(F)c(F)c(F)c5F)c5ccc([nH]5)c(-c5c(F)c(F)c(F)c(F)c5F)c5nc(c(-c6c(F)c(F)c(F)c(F)c6F)c6ccc3[nH]6)C=C5)C=C4)cc2)N1C(=O)Cc1ccc(F)c(F)c1
REMARK SMILES IDX 10 1 9 2 7 3 8 4 6 5 3 6 4 7 78 8 5 9 2 10 1 11 79 12 80 13
REMARK SMILES IDX 81 14 82 15 83 16 89 17 84 18 87 19 85 20 88 21 86 22 11 23
REMARK SMILES IDX 12 24 13 25 14 26 15 27 16 28 77 29 17 30 76 31 18 32 19 33
REMARK SMILES IDX 20 34 70 35 21 36 75 37 69 38 71 39 22 40 74 41 68 42 67 43
REMARK SMILES IDX 23 45 55 46 35 47 54 48 36 49 39 50 53 51 72 52 37 53 38 54
REMARK SMILES IDX 52 56 73 57 40 58 24 59 25 60 33 61 26 62 27 63 31 64 34 65
REMARK SMILES IDX 28 66 29 67 32 68 30 69 56 70 57 71 65 72 58 73 59 74 63 75
REMARK SMILES IDX 66 76 60 77 61 78 64 79 62 80 41 81 42 82 50 83 43 84 44 85
REMARK SMILES IDX 48 86 51 87 45 88 46 89 49 90 47 91
REMARK H PARENT 71 44 39 55
REMARK Flexibility Score: inf
ROOT
ATOM      1  C   UNL A   1      32.482  28.213  26.618  1.00  0.00     0.274 C 
ENDROOT
BRANCH   1   2
ATOM      2  O   UNL A   1      31.422  27.340  27.054  1.00  0.00    -0.461 OA
BRANCH   2   3
ATOM      3  C   UNL A   1      30.964  26.451  26.128  1.00  0.00     0.329 C 
ATOM      4  O   UNL A   1      29.904  25.844  26.212  1.00  0.00    -0.250 OA
BRANCH   3   5
ATOM      5  C   UNL A   1      31.947  26.322  24.952  1.00  0.00     0.206 C 
ATOM      6  C   UNL A   1      31.469  25.489  22.667  1.00  0.00     0.144 C 
ATOM      7  S   UNL A   1      31.555  24.005  23.707  1.00  0.00    -0.134 SA
ATOM      8  N   UNL A   1      31.342  26.585  23.617  1.00  0.00    -0.316 N 
ATOM      9  C   UNL A   1      32.475  24.878  24.996  1.00  0.00     0.109 C 
BRANCH   6  10
ATOM     10  C   UNL A   1      32.736  25.548  21.773  1.00  0.00     0.033 C 
ATOM     11  C   UNL A   1      32.525  25.580  20.263  1.00  0.00     0.007 C 
ENDBRANCH   6  10
BRANCH   8  12
ATOM     12  C   UNL A   1      30.915  27.863  23.300  1.00  0.00     0.228 C 
ATOM     13  O   UNL A   1      31.730  28.770  23.116  1.00  0.00    -0.274 OA
BRANCH  12  14
ATOM     14  C   UNL A   1      29.417  28.167  23.279  1.00  0.00     0.135 C 
BRANCH  14  15
ATOM     15  C   UNL A   1      29.027  29.575  22.905  1.00  0.00    -0.036 A 
ATOM     16  C   UNL A   1      29.177  30.633  23.816  1.00  0.00     0.007 A 
ATOM     17  C   UNL A   1      28.469  29.840  21.643  1.00  0.00     0.046 A 
ATOM     18  C   UNL A   1      28.836  31.939  23.448  1.00  0.00     0.043 A 
ATOM     19  C   UNL A   1      28.138  31.144  21.284  1.00  0.00     0.159 A 
ATOM     20  C   UNL A   1      28.328  32.188  22.177  1.00  0.00     0.158 A 
ATOM     21  F   UNL A   1      27.650  31.380  20.059  1.00  0.00    -0.204 F 
ATOM     22  F   UNL A   1      28.026  33.444  21.822  1.00  0.00    -0.204 F 
ENDBRANCH  14  15
ENDBRANCH  12  14
ENDBRANCH   8  12
ENDBRANCH   3   5
ENDBRANCH   2   3
ENDBRANCH   1   2
BRANCH   1  23
ATOM     23  C   UNL A   1      32.027  29.673  26.620  1.00  0.00     0.275 C 
BRANCH  23  24
ATOM     24  O   UNL A   1      33.137  30.514  26.272  1.00  0.00    -0.458 OA
BRANCH  24  25
ATOM     25  C   UNL A   1      33.481  31.446  27.187  1.00  0.00     0.338 C 
ATOM     26  O   UNL A   1      32.873  32.461  27.474  1.00  0.00    -0.246 OA
BRANCH  25  27
ATOM     27  C   UNL A   1      34.765  31.071  27.814  1.00  0.00     0.060 A 
ATOM     28  C   UNL A   1      34.988  29.780  28.299  1.00  0.00     0.016 A 
ATOM     29  C   UNL A   1      35.734  32.057  28.000  1.00  0.00     0.016 A 
ATOM     30  C   UNL A   1      36.143  29.486  29.022  1.00  0.00     0.010 A 
ATOM     31  C   UNL A   1      36.924  31.743  28.660  1.00  0.00     0.010 A 
ATOM     32  C   UNL A   1      37.129  30.462  29.202  1.00  0.00    -0.014 A 
BRANCH  32  33
ATOM     33  C   UNL A   1      38.358  30.171  29.982  1.00  0.00     0.031 A 
ATOM     34  C   UNL A   1      39.420  29.280  29.399  1.00  0.00     0.074 A 
ATOM     35  C   UNL A   1      38.520  30.686  31.216  1.00  0.00     0.049 A 
ATOM     36  N   UNL A   1      40.456  28.733  29.981  1.00  0.00    -0.248 NA
ATOM     37  C   UNL A   1      39.290  28.953  27.970  1.00  0.00     0.031 C 
ATOM     38  C   UNL A   1      37.595  31.606  31.878  1.00  0.00     0.029 A 
ATOM     39  N   UNL A   1      39.521  30.499  32.136  1.00  0.00    -0.354 N 
ATOM     40  C   UNL A   1      41.072  27.957  29.007  1.00  0.00     0.074 A 
ATOM     41  C   UNL A   1      40.296  28.107  27.794  1.00  0.00     0.031 C 
ATOM     42  C   UNL A   1      38.077  31.915  33.091  1.00  0.00     0.029 A 
ATOM     43  C   UNL A   1      39.302  31.157  33.322  1.00  0.00     0.049 A 
ATOM     44  H   UNL A   1      40.317  29.948  31.964  1.00  0.00     0.167 HD
ATOM     45  C   UNL A   1      42.178  27.186  29.121  1.00  0.00     0.037 A 
ATOM     46  C   UNL A   1      39.985  31.117  34.481  1.00  0.00     0.037 A 
ATOM     47  C   UNL A   1      42.969  27.073  30.319  1.00  0.00     0.049 A 
ATOM     48  C   UNL A   1      41.190  30.227  34.594  1.00  0.00     0.074 A 
ATOM     49  C   UNL A   1      44.114  26.326  30.533  1.00  0.00     0.029 A 
ATOM     50  N   UNL A   1      42.701  27.741  31.505  1.00  0.00    -0.354 N 
ATOM     51  N   UNL A   1      41.732  29.452  33.687  1.00  0.00    -0.248 NA
ATOM     52  C   UNL A   1      41.867  30.192  35.898  1.00  0.00     0.031 C 
ATOM     53  C   UNL A   1      44.523  26.519  31.857  1.00  0.00     0.029 A 
ATOM     54  C   UNL A   1      43.654  27.416  32.457  1.00  0.00     0.049 A 
ATOM     55  H   UNL A   1      41.945  28.356  31.649  1.00  0.00     0.167 HD
ATOM     56  C   UNL A   1      42.814  28.842  34.306  1.00  0.00     0.074 A 
ATOM     57  C   UNL A   1      42.866  29.354  35.660  1.00  0.00     0.031 C 
ATOM     58  C   UNL A   1      43.685  27.935  33.799  1.00  0.00     0.037 A 
BRANCH  45  59
ATOM     59  C   UNL A   1      42.582  26.371  27.929  1.00  0.00     0.064 A 
ATOM     60  C   UNL A   1      43.517  26.837  26.995  1.00  0.00     0.173 A 
ATOM     61  C   UNL A   1      42.048  25.087  27.740  1.00  0.00     0.173 A 
ATOM     62  F   UNL A   1      44.042  28.065  27.122  1.00  0.00    -0.203 F 
ATOM     63  C   UNL A   1      43.890  26.055  25.905  1.00  0.00     0.198 A 
ATOM     64  C   UNL A   1      42.441  24.298  26.663  1.00  0.00     0.198 A 
ATOM     65  F   UNL A   1      41.150  24.594  28.607  1.00  0.00    -0.203 F 
ATOM     66  F   UNL A   1      44.757  26.535  25.003  1.00  0.00    -0.200 F 
ATOM     67  C   UNL A   1      43.357  24.784  25.744  1.00  0.00     0.200 A 
ATOM     68  F   UNL A   1      41.931  23.068  26.513  1.00  0.00    -0.200 F 
ATOM     69  F   UNL A   1      43.722  24.031  24.696  1.00  0.00    -0.200 F 
ENDBRANCH  45  59
BRANCH  46  70
ATOM     70  C   UNL A   1      39.514  31.917  35.640  1.00  0.00     0.064 A 
ATOM     71  C   UNL A   1      40.026  33.198  35.885  1.00  0.00     0.173 A 
ATOM     72  C   UNL A   1      38.537  31.424  36.517  1.00  0.00     0.173 A 
ATOM     73  F   UNL A   1      40.981  33.700  35.089  1.00  0.00    -0.203 F 
ATOM     74  C   UNL A   1      39.580  33.954  36.966  1.00  0.00     0.198 A 
ATOM     75  C   UNL A   1      38.073  32.192  37.583  1.00  0.00     0.198 A 
ATOM     76  F   UNL A   1      38.019  30.201  36.327  1.00  0.00    -0.203 F 
ATOM     77  F   UNL A   1      40.110  35.164  37.200  1.00  0.00    -0.200 F 
ATOM     78  C   UNL A   1      38.599  33.454  37.810  1.00  0.00     0.200 A 
ATOM     79  F   UNL A   1      37.117  31.709  38.387  1.00  0.00    -0.200 F 
ATOM     80  F   UNL A   1      38.164  34.187  38.844  1.00  0.00    -0.200 F 
ENDBRANCH  46  70
BRANCH  58  81
ATOM     81  C   UNL A   1      44.775  27.457  34.710  1.00  0.00     0.064 A 
ATOM     82  C   UNL A   1      44.618  26.309  35.498  1.00  0.00     0.173 A 
ATOM     83  C   UNL A   1      45.999  28.140  34.772  1.00  0.00     0.173 A 
ATOM     84  F   UNL A   1      43.459  25.634  35.483  1.00  0.00    -0.203 F 
ATOM     85  C   UNL A   1      45.641  25.873  36.334  1.00  0.00     0.198 A 
ATOM     86  C   UNL A   1      47.027  27.688  35.593  1.00  0.00     0.198 A 
ATOM     87  F   UNL A   1      46.196  29.242  34.033  1.00  0.00    -0.203 F 
ATOM     88  F   UNL A   1      45.456  24.797  37.112  1.00  0.00    -0.200 F 
ATOM     89  C   UNL A   1      46.845  26.559  36.378  1.00  0.00     0.200 A 
ATOM     90  F   UNL A   1      48.194  28.348  35.628  1.00  0.00    -0.200 F 
ATOM     91  F   UNL A   1      47.829  26.137  37.183  1.00  0.00    -0.200 F 
ENDBRANCH  58  81
ENDBRANCH  32  33
ENDBRANCH  25  27
ENDBRANCH  24  25
ENDBRANCH  23  24
ENDBRANCH   1  23
TORSDOF 15
ENDMDL
MODEL 3
REMARK VINA RESULT:     -12.2      2.963      4.799
REMARK SMILES CC[C@H]1SC[C@H](C(=O)OCCOC(=O)c2ccc(-c3c4nc(c(-c5c(F)c(F)c(F)c(F)c5F)c5ccc([nH]5)c(-c5c(F)c(F)c(F)c(F)c5F)c5nc(c(-c6c(F)c(F)c(F)c(F)c6F)c6ccc3[nH]6)C=C5)C=C4)cc2)N1C(=O)Cc1ccc(F)c(F)c1
REMARK SMILES IDX 10 1 9 2 7 3 8 4 6 5 3 6 4 7 78 8 5 9 2 10 1 11 79 12 80 13
REMARK SMILES IDX 81 14 82 15 83 16 89 17 84 18 87 19 85 20 88 21 86 22 11 23
REMARK SMILES IDX 12 24 13 25 14 26 15 27 16 28 77 29 17 30 76 31 18 32 19 33
REMARK SMILES IDX 20 34 70 35 21 36 75 37 69 38 71 39 22 40 74 41 68 42 67 43
REMARK SMILES IDX 23 45 55 46 35 47 54 48 36 49 39 50 53 51 72 52 37 53 38 54
REMARK SMILES IDX 52 56 73 57 40 58 24 59 25 60 33 61 26 62 27 63 31 64 34 65
REMARK SMILES IDX 28 66 29 67 32 68 30 69 56 70 57 71 65 72 58 73 59 74 63 75
REMARK SMILES IDX 66 76 60 77 61 78 64 79 62 80 41 81 42 82 50 83 43 84 44 85
REMARK SMILES IDX 48 86 51 87 45 88 46 89 49 90 47 91
REMARK H PARENT 71 44 39 55
REMARK Flexibility Score: inf
ROOT
ATOM      1  C   UNL A   1      31.915  27.978  26.434  1.00  0.00     0.274 C 
ENDROOT
BRANCH   1   2
ATOM      2  O   UNL A   1      32.744  27.103  25.644  1.00  0.00    -0.461 OA
BRANCH   2   3
ATOM      3  C   UNL A   1      32.138  25.980  25.165  1.00  0.00     0.329 C 
ATOM      4  O   UNL A   1      31.238  25.976  24.334  1.00  0.00    -0.250 OA
BRANCH   3   5
ATOM      5  C   UNL A   1      32.743  24.714  25.793  1.00  0.00     0.206 C 
ATOM      6  C   UNL A   1      32.345  22.358  25.131  1.00  0.00     0.144 C 
ATOM      7  S   UNL A   1      30.861  22.853  26.050  1.00  0.00    -0.134 SA
ATOM      8  N   UNL A   1      33.010  23.616  24.823  1.00  0.00    -0.316 N 
ATOM      9  C   UNL A   1      31.726  24.230  26.841  1.00  0.00     0.109 C 
BRANCH   6  10
ATOM     10  C   UNL A   1      33.175  21.383  26.007  1.00  0.00     0.033 C 
ATOM     11  C   UNL A   1      33.586  20.056  25.377  1.00  0.00     0.007 C 
ENDBRANCH   6  10
BRANCH   8  12
ATOM     12  C   UNL A   1      33.995  23.778  23.862  1.00  0.00     0.228 C 
ATOM     13  O   UNL A   1      33.813  23.390  22.706  1.00  0.00    -0.274 OA
BRANCH  12  14
ATOM     14  C   UNL A   1      35.353  24.348  24.272  1.00  0.00     0.135 C 
BRANCH  14  15
ATOM     15  C   UNL A   1      36.384  23.349  24.731  1.00  0.00    -0.036 A 
ATOM     16  C   UNL A   1      36.410  22.045  24.210  1.00  0.00     0.007 A 
ATOM     17  C   UNL A   1      37.316  23.703  25.723  1.00  0.00     0.046 A 
ATOM     18  C   UNL A   1      37.387  21.135  24.626  1.00  0.00     0.043 A 
ATOM     19  C   UNL A   1      38.289  22.792  26.126  1.00  0.00     0.159 A 
ATOM     20  C   UNL A   1      38.330  21.519  25.575  1.00  0.00     0.158 A 
ATOM     21  F   UNL A   1      39.195  23.165  27.039  1.00  0.00    -0.204 F 
ATOM     22  F   UNL A   1      39.279  20.651  25.951  1.00  0.00    -0.204 F 
ENDBRANCH  14  15
ENDBRANCH  12  14
ENDBRANCH   8  12
ENDBRANCH   3   5
ENDBRANCH   2   3
ENDBRANCH   1   2
BRANCH   1  23
ATOM     23  C   UNL A   1      31.778  29.349  25.771  1.00  0.00     0.275 C 
BRANCH  23  24
ATOM     24  O   UNL A   1      33.052  30.011  25.788  1.00  0.00    -0.458 OA
BRANCH  24  25
ATOM     25  C   UNL A   1      33.248  30.887  26.797  1.00  0.00     0.338 C 
ATOM     26  O   UNL A   1      32.507  31.786  27.151  1.00  0.00    -0.246 OA
BRANCH  25  27
ATOM     27  C   UNL A   1      34.552  30.618  27.439  1.00  0.00     0.060 A 
ATOM     28  C   UNL A   1      34.916  29.328  27.831  1.00  0.00     0.016 A 
ATOM     29  C   UNL A   1      35.389  31.693  27.733  1.00  0.00     0.016 A 
ATOM     30  C   UNL A   1      36.079  29.115  28.570  1.00  0.00     0.010 A 
ATOM     31  C   UNL A   1      36.592  31.470  28.408  1.00  0.00     0.010 A 
ATOM     32  C   UNL A   1      36.935  30.184  28.857  1.00  0.00    -0.014 A 
BRANCH  32  33
ATOM     33  C   UNL A   1      38.170  29.978  29.655  1.00  0.00     0.031 A 
ATOM     34  C   UNL A   1      39.277  29.119  29.111  1.00  0.00     0.074 A 
ATOM     35  C   UNL A   1      38.297  30.543  30.872  1.00  0.00     0.049 A 
ATOM     36  N   UNL A   1      40.334  28.643  29.719  1.00  0.00    -0.248 NA
ATOM     37  C   UNL A   1      39.176  28.737  27.694  1.00  0.00     0.031 C 
ATOM     38  C   UNL A   1      37.324  31.440  31.495  1.00  0.00     0.029 A 
ATOM     39  N   UNL A   1      39.298  30.436  31.805  1.00  0.00    -0.354 N 
ATOM     40  C   UNL A   1      40.994  27.864  28.777  1.00  0.00     0.074 A 
ATOM     41  C   UNL A   1      40.222  27.935  27.554  1.00  0.00     0.031 C 
ATOM     42  C   UNL A   1      37.781  31.815  32.700  1.00  0.00     0.029 A 
ATOM     43  C   UNL A   1      39.038  31.124  32.965  1.00  0.00     0.049 A 
ATOM     44  H   UNL A   1      40.121  29.918  31.657  1.00  0.00     0.167 HD
ATOM     45  C   UNL A   1      42.134  27.151  28.926  1.00  0.00     0.037 A 
ATOM     46  C   UNL A   1      39.713  31.156  34.130  1.00  0.00     0.037 A 
ATOM     47  C   UNL A   1      42.919  27.117  30.132  1.00  0.00     0.049 A 
ATOM     48  C   UNL A   1      40.958  30.329  34.282  1.00  0.00     0.074 A 
ATOM     49  C   UNL A   1      44.097  26.433  30.379  1.00  0.00     0.029 A 
ATOM     50  N   UNL A   1      42.610  27.812  31.292  1.00  0.00    -0.354 N 
ATOM     51  N   UNL A   1      41.544  29.549  33.406  1.00  0.00    -0.248 NA
ATOM     52  C   UNL A   1      41.625  30.372  35.591  1.00  0.00     0.031 C 
ATOM     53  C   UNL A   1      44.485  26.691  31.699  1.00  0.00     0.029 A 
ATOM     54  C   UNL A   1      43.569  27.566  32.261  1.00  0.00     0.049 A 
ATOM     55  H   UNL A   1      41.825  28.395  31.409  1.00  0.00     0.167 HD
ATOM     56  C   UNL A   1      42.648  29.014  34.053  1.00  0.00     0.074 A 
ATOM     57  C   UNL A   1      42.664  29.574  35.389  1.00  0.00     0.031 C 
ATOM     58  C   UNL A   1      43.564  28.132  33.584  1.00  0.00     0.037 A 
BRANCH  45  59
ATOM     59  C   UNL A   1      42.586  26.315  27.765  1.00  0.00     0.064 A 
ATOM     60  C   UNL A   1      42.083  25.025  27.541  1.00  0.00     0.173 A 
ATOM     61  C   UNL A   1      43.510  26.829  26.843  1.00  0.00     0.173 A 
ATOM     62  F   UNL A   1      41.211  24.482  28.404  1.00  0.00    -0.203 F 
ATOM     63  C   UNL A   1      42.503  24.274  26.447  1.00  0.00     0.198 A 
ATOM     64  C   UNL A   1      43.909  26.085  25.737  1.00  0.00     0.198 A 
ATOM     65  F   UNL A   1      44.019  28.059  27.012  1.00  0.00    -0.203 F 
ATOM     66  F   UNL A   1      42.039  23.029  26.273  1.00  0.00    -0.200 F 
ATOM     67  C   UNL A   1      43.410  24.807  25.542  1.00  0.00     0.200 A 
ATOM     68  F   UNL A   1      44.779  26.605  24.860  1.00  0.00    -0.200 F 
ATOM     69  F   UNL A   1      43.808  24.084  24.486  1.00  0.00    -0.200 F 
ENDBRANCH  45  59
BRANCH  46  70
ATOM     70  C   UNL A   1      39.195  31.973  35.257  1.00  0.00     0.064 A 
ATOM     71  C   UNL A   1      38.444  31.386  36.284  1.00  0.00     0.173 A 
ATOM     72  C   UNL A   1      39.451  33.349  35.337  1.00  0.00     0.173 A 
ATOM     73  F   UNL A   1      38.152  30.078  36.236  1.00  0.00    -0.203 F 
ATOM     74  C   UNL A   1      37.965  32.148  37.347  1.00  0.00     0.198 A 
ATOM     75  C   UNL A   1      38.992  34.105  36.414  1.00  0.00     0.198 A 
ATOM     76  F   UNL A   1      40.162  33.957  34.376  1.00  0.00    -0.203 F 
ATOM     77  F   UNL A   1      37.219  31.570  38.300  1.00  0.00    -0.200 F 
ATOM     78  C   UNL A   1      38.246  33.504  37.416  1.00  0.00     0.200 A 
ATOM     79  F   UNL A   1      39.277  35.412  36.482  1.00  0.00    -0.200 F 
ATOM     80  F   UNL A   1      37.791  34.234  38.444  1.00  0.00    -0.200 F 
ENDBRANCH  46  70
BRANCH  58  81
ATOM     81  C   UNL A   1      44.669  27.739  34.518  1.00  0.00     0.064 A 
ATOM     82  C   UNL A   1      44.557  26.615  35.349  1.00  0.00     0.173 A 
ATOM     83  C   UNL A   1      45.860  28.478  34.560  1.00  0.00     0.173 A 
ATOM     84  F   UNL A   1      43.429  25.889  35.354  1.00  0.00    -0.203 F 
ATOM     85  C   UNL A   1      45.593  26.258  36.207  1.00  0.00     0.198 A 
ATOM     86  C   UNL A   1      46.902  28.103  35.404  1.00  0.00     0.198 A 
ATOM     87  F   UNL A   1      46.014  29.558  33.781  1.00  0.00    -0.203 F 
ATOM     88  F   UNL A   1      45.450  25.205  37.024  1.00  0.00    -0.200 F 
ATOM     89  C   UNL A   1      46.765  26.998  36.231  1.00  0.00     0.200 A 
ATOM     90  F   UNL A   1      48.038  28.815  35.420  1.00  0.00    -0.200 F 
ATOM     91  F   UNL A   1      47.761  26.651  37.057  1.00  0.00    -0.200 F 
ENDBRANCH  58  81
ENDBRANCH  32  33
ENDBRANCH  25  27
ENDBRANCH  24  25
ENDBRANCH  23  24
ENDBRANCH   1  23
TORSDOF 15
ENDMDL
