MODEL 1
REMARK VINA RESULT:     -11.5      0.000      0.000
REMARK SMILES CC[C@@](C)(NC(=O)[C@@H](C)NC(=O)c1ccco1)C(=O)OCCOC(=O)c1ccc(-c2c3nc(c(-c4c(F)c(F)c(F)c(F)c4F)c4ccc([nH]4)c(-c4c(F)c(F)c(F)c(F)c4F)c4nc(c(-c5c(F)c(F)c(F)c(F)c5F)c5ccc2[nH]5)C=C4)C=C3)cc1
REMARK SMILES IDX 21 1 20 2 18 3 19 4 3 5 4 6 2 7 1 8 5 9 6 10 7 12 8 13 9 14
REMARK SMILES IDX 10 15 11 16 12 18 13 19 14 20 17 21 15 22 16 23 22 24 23 25
REMARK SMILES IDX 24 26 25 27 26 28 27 29 88 30 28 31 87 32 29 33 30 34 31 35
REMARK SMILES IDX 81 36 32 37 86 38 80 39 82 40 33 41 85 42 79 43 78 44 34 46
REMARK SMILES IDX 66 47 46 48 65 49 47 50 50 51 64 52 83 53 48 54 49 55 63 57
REMARK SMILES IDX 84 58 51 59 35 60 36 61 44 62 37 63 38 64 42 65 45 66 39 67
REMARK SMILES IDX 40 68 43 69 41 70 67 71 68 72 76 73 69 74 70 75 74 76 77 77
REMARK SMILES IDX 71 78 72 79 75 80 73 81 52 82 53 83 61 84 54 85 55 86 59 87
REMARK SMILES IDX 62 88 56 89 57 90 60 91 58 92
REMARK H PARENT 5 11 10 17 82 45 50 56
REMARK Flexibility Score: inf
ROOT
ATOM      1  C   UNL A   1      31.614  28.315  27.100  1.00  0.00     0.274 C 
ENDROOT
BRANCH   1   2
ATOM      2  O   UNL A   1      32.645  27.381  26.679  1.00  0.00    -0.460 OA
BRANCH   2   3
ATOM      3  C   UNL A   1      32.259  26.151  26.255  1.00  0.00     0.331 C 
ATOM      4  O   UNL A   1      31.778  25.313  27.011  1.00  0.00    -0.249 OA
BRANCH   3   5
ATOM      5  C   UNL A   1      32.588  25.875  24.737  1.00  0.00     0.135 C 
ATOM      6  C   UNL A   1      33.773  26.819  24.432  1.00  0.00     0.047 C 
BRANCH   5   7
ATOM      7  C   UNL A   1      33.027  24.396  24.533  1.00  0.00     0.037 C 
ATOM      8  C   UNL A   1      34.495  24.057  24.805  1.00  0.00     0.007 C 
ENDBRANCH   5   7
BRANCH   5   9
ATOM      9  N   UNL A   1      31.525  26.225  23.720  1.00  0.00    -0.339 N 
ATOM     10  C   UNL A   1      30.286  26.771  24.024  1.00  0.00     0.243 C 
ATOM     11  H   UNL A   1      31.726  26.051  22.771  1.00  0.00     0.164 HD
ATOM     12  O   UNL A   1      29.396  26.039  24.460  1.00  0.00    -0.273 OA
BRANCH  10  13
ATOM     13  C   UNL A   1      29.992  28.199  23.464  1.00  0.00     0.168 C 
ATOM     14  C   UNL A   1      31.005  28.544  22.372  1.00  0.00     0.041 C 
BRANCH  13  15
ATOM     15  N   UNL A   1      28.594  28.232  23.052  1.00  0.00    -0.338 N 
ATOM     16  C   UNL A   1      27.677  29.241  23.032  1.00  0.00     0.287 C 
ATOM     17  H   UNL A   1      28.249  27.368  22.730  1.00  0.00     0.164 HD
ATOM     18  O   UNL A   1      26.528  28.952  23.366  1.00  0.00    -0.266 OA
BRANCH  16  19
ATOM     19  C   UNL A   1      28.049  30.533  22.520  1.00  0.00     0.191 A 
ATOM     20  C   UNL A   1      28.135  31.043  21.239  1.00  0.00     0.056 A 
ATOM     21  O   UNL A   1      28.207  31.552  23.421  1.00  0.00    -0.459 OA
ATOM     22  C   UNL A   1      28.353  32.434  21.364  1.00  0.00     0.043 A 
ATOM     23  C   UNL A   1      28.394  32.693  22.712  1.00  0.00     0.196 A 
ENDBRANCH  16  19
ENDBRANCH  13  15
ENDBRANCH  10  13
ENDBRANCH   5   9
ENDBRANCH   3   5
ENDBRANCH   2   3
ENDBRANCH   1   2
BRANCH   1  24
ATOM     24  C   UNL A   1      31.755  29.692  26.423  1.00  0.00     0.275 C 
BRANCH  24  25
ATOM     25  O   UNL A   1      33.132  30.071  26.195  1.00  0.00    -0.458 OA
BRANCH  25  26
ATOM     26  C   UNL A   1      33.536  31.101  26.953  1.00  0.00     0.338 C 
ATOM     27  O   UNL A   1      32.860  32.078  27.276  1.00  0.00    -0.246 OA
BRANCH  26  28
ATOM     28  C   UNL A   1      34.827  30.919  27.594  1.00  0.00     0.060 A 
ATOM     29  C   UNL A   1      35.028  29.648  28.121  1.00  0.00     0.016 A 
ATOM     30  C   UNL A   1      35.690  31.966  27.909  1.00  0.00     0.016 A 
ATOM     31  C   UNL A   1      36.043  29.413  29.023  1.00  0.00     0.010 A 
ATOM     32  C   UNL A   1      36.792  31.700  28.733  1.00  0.00     0.010 A 
ATOM     33  C   UNL A   1      36.976  30.419  29.287  1.00  0.00    -0.014 A 
BRANCH  33  34
ATOM     34  C   UNL A   1      38.192  30.046  30.043  1.00  0.00     0.031 A 
ATOM     35  C   UNL A   1      39.250  29.175  29.444  1.00  0.00     0.074 A 
ATOM     36  C   UNL A   1      38.341  30.565  31.279  1.00  0.00     0.049 A 
ATOM     37  N   UNL A   1      40.314  28.669  30.013  1.00  0.00    -0.248 NA
ATOM     38  C   UNL A   1      39.100  28.826  28.024  1.00  0.00     0.031 C 
ATOM     39  C   UNL A   1      37.397  31.483  31.926  1.00  0.00     0.029 A 
ATOM     40  N   UNL A   1      39.342  30.420  32.203  1.00  0.00    -0.354 N 
ATOM     41  C   UNL A   1      40.943  27.911  29.035  1.00  0.00     0.074 A 
ATOM     42  C   UNL A   1      40.143  28.027  27.833  1.00  0.00     0.031 C 
ATOM     43  C   UNL A   1      37.885  31.854  33.116  1.00  0.00     0.029 A 
ATOM     44  C   UNL A   1      39.111  31.114  33.365  1.00  0.00     0.049 A 
ATOM     45  H   UNL A   1      40.146  29.873  32.048  1.00  0.00     0.167 HD
ATOM     46  C   UNL A   1      42.078  27.181  29.151  1.00  0.00     0.037 A 
ATOM     47  C   UNL A   1      39.782  31.110  34.530  1.00  0.00     0.037 A 
ATOM     48  C   UNL A   1      42.863  27.099  30.358  1.00  0.00     0.049 A 
ATOM     49  C   UNL A   1      40.991  30.233  34.649  1.00  0.00     0.074 A 
ATOM     50  C   UNL A   1      44.020  26.376  30.592  1.00  0.00     0.029 A 
ATOM     51  N   UNL A   1      42.567  27.768  31.540  1.00  0.00    -0.354 N 
ATOM     52  N   UNL A   1      41.548  29.470  33.740  1.00  0.00    -0.248 NA
ATOM     53  C   UNL A   1      41.650  30.195  35.959  1.00  0.00     0.031 C 
ATOM     54  C   UNL A   1      44.396  26.570  31.925  1.00  0.00     0.029 A 
ATOM     55  C   UNL A   1      43.507  27.458  32.511  1.00  0.00     0.049 A 
ATOM     56  H   UNL A   1      41.802  28.374  31.668  1.00  0.00     0.167 HD
ATOM     57  C   UNL A   1      42.634  28.872  34.361  1.00  0.00     0.074 A 
ATOM     58  C   UNL A   1      42.666  29.379  35.719  1.00  0.00     0.031 C 
ATOM     59  C   UNL A   1      43.518  27.979  33.855  1.00  0.00     0.037 A 
BRANCH  46  60
ATOM     60  C   UNL A   1      42.510  26.370  27.963  1.00  0.00     0.064 A 
ATOM     61  C   UNL A   1      42.016  25.080  27.719  1.00  0.00     0.173 A 
ATOM     62  C   UNL A   1      43.411  26.912  27.031  1.00  0.00     0.173 A 
ATOM     63  F   UNL A   1      41.162  24.511  28.582  1.00  0.00    -0.203 F 
ATOM     64  C   UNL A   1      42.427  24.354  26.603  1.00  0.00     0.198 A 
ATOM     65  C   UNL A   1      43.799  26.195  25.904  1.00  0.00     0.198 A 
ATOM     66  F   UNL A   1      43.911  28.143  27.212  1.00  0.00    -0.203 F 
ATOM     67  F   UNL A   1      41.977  23.106  26.414  1.00  0.00    -0.200 F 
ATOM     68  C   UNL A   1      43.312  24.913  25.694  1.00  0.00     0.200 A 
ATOM     69  F   UNL A   1      44.645  26.742  25.020  1.00  0.00    -0.200 F 
ATOM     70  F   UNL A   1      43.703  24.215  24.618  1.00  0.00    -0.200 F 
ENDBRANCH  46  60
BRANCH  47  71
ATOM     71  C   UNL A   1      39.280  31.913  35.675  1.00  0.00     0.064 A 
ATOM     72  C   UNL A   1      38.382  31.367  36.602  1.00  0.00     0.173 A 
ATOM     73  C   UNL A   1      39.706  33.235  35.879  1.00  0.00     0.173 A 
ATOM     74  F   UNL A   1      37.932  30.115  36.440  1.00  0.00    -0.203 F 
ATOM     75  C   UNL A   1      37.920  32.118  37.681  1.00  0.00     0.198 A 
ATOM     76  C   UNL A   1      39.272  33.972  36.977  1.00  0.00     0.198 A 
ATOM     77  F   UNL A   1      40.570  33.803  35.024  1.00  0.00    -0.203 F 
ATOM     78  F   UNL A   1      37.029  31.588  38.529  1.00  0.00    -0.200 F 
ATOM     79  C   UNL A   1      38.372  33.416  37.873  1.00  0.00     0.200 A 
ATOM     80  F   UNL A   1      39.728  35.217  37.169  1.00  0.00    -0.200 F 
ATOM     81  F   UNL A   1      37.935  34.133  38.916  1.00  0.00    -0.200 F 
ENDBRANCH  47  71
BRANCH  59  82
ATOM     82  C   UNL A   1      44.616  27.528  34.772  1.00  0.00     0.064 A 
ATOM     83  C   UNL A   1      45.829  28.225  34.865  1.00  0.00     0.173 A 
ATOM     84  C   UNL A   1      44.442  26.393  35.577  1.00  0.00     0.173 A 
ATOM     85  F   UNL A   1      46.050  29.301  34.096  1.00  0.00    -0.203 F 
ATOM     86  C   UNL A   1      46.841  27.784  35.712  1.00  0.00     0.198 A 
ATOM     87  C   UNL A   1      45.444  25.974  36.447  1.00  0.00     0.198 A 
ATOM     88  F   UNL A   1      43.297  25.695  35.526  1.00  0.00    -0.203 F 
ATOM     89  F   UNL A   1      48.013  28.432  35.746  1.00  0.00    -0.200 F 
ATOM     90  C   UNL A   1      46.645  26.665  36.509  1.00  0.00     0.200 A 
ATOM     91  F   UNL A   1      45.248  24.900  37.223  1.00  0.00    -0.200 F 
ATOM     92  F   UNL A   1      47.618  26.245  37.327  1.00  0.00    -0.200 F 
ENDBRANCH  59  82
ENDBRANCH  33  34
ENDBRANCH  26  28
ENDBRANCH  25  26
ENDBRANCH  24  25
ENDBRANCH   1  24
TORSDOF 16
ENDMDL
MODEL 2
REMARK VINA RESULT:     -11.2      0.500      2.106
REMARK SMILES CC[C@@](C)(NC(=O)[C@@H](C)NC(=O)c1ccco1)C(=O)OCCOC(=O)c1ccc(-c2c3nc(c(-c4c(F)c(F)c(F)c(F)c4F)c4ccc([nH]4)c(-c4c(F)c(F)c(F)c(F)c4F)c4nc(c(-c5c(F)c(F)c(F)c(F)c5F)c5ccc2[nH]5)C=C4)C=C3)cc1
REMARK SMILES IDX 21 1 20 2 18 3 19 4 3 5 4 6 2 7 1 8 5 9 6 10 7 12 8 13 9 14
REMARK SMILES IDX 10 15 11 16 12 18 13 19 14 20 17 21 15 22 16 23 22 24 23 25
REMARK SMILES IDX 24 26 25 27 26 28 27 29 88 30 28 31 87 32 29 33 30 34 31 35
REMARK SMILES IDX 81 36 32 37 86 38 80 39 82 40 33 41 85 42 79 43 78 44 34 46
REMARK SMILES IDX 66 47 46 48 65 49 47 50 50 51 64 52 83 53 48 54 49 55 63 57
REMARK SMILES IDX 84 58 51 59 35 60 36 61 44 62 37 63 38 64 42 65 45 66 39 67
REMARK SMILES IDX 40 68 43 69 41 70 67 71 68 72 76 73 69 74 70 75 74 76 77 77
REMARK SMILES IDX 71 78 72 79 75 80 73 81 52 82 53 83 61 84 54 85 55 86 59 87
REMARK SMILES IDX 62 88 56 89 57 90 60 91 58 92
REMARK H PARENT 5 11 10 17 82 45 50 56
REMARK Flexibility Score: inf
ROOT
ATOM      1  C   UNL A   1      31.715  28.798  27.249  1.00  0.00     0.274 C 
ENDROOT
BRANCH   1   2
ATOM      2  O   UNL A   1      32.682  27.784  26.864  1.00  0.00    -0.460 OA
BRANCH   2   3
ATOM      3  C   UNL A   1      32.214  26.589  26.423  1.00  0.00     0.331 C 
ATOM      4  O   UNL A   1      31.589  25.819  27.144  1.00  0.00    -0.249 OA
BRANCH   3   5
ATOM      5  C   UNL A   1      32.645  26.251  24.944  1.00  0.00     0.135 C 
ATOM      6  C   UNL A   1      33.785  27.251  24.646  1.00  0.00     0.047 C 
BRANCH   5   7
ATOM      7  C   UNL A   1      33.186  24.794  24.851  1.00  0.00     0.037 C 
ATOM      8  C   UNL A   1      34.697  24.598  24.996  1.00  0.00     0.007 C 
ENDBRANCH   5   7
BRANCH   5   9
ATOM      9  N   UNL A   1      31.622  26.473  23.852  1.00  0.00    -0.339 N 
ATOM     10  C   UNL A   1      30.305  26.857  24.067  1.00  0.00     0.243 C 
ATOM     11  H   UNL A   1      31.910  26.334  22.921  1.00  0.00     0.164 HD
ATOM     12  O   UNL A   1      29.485  26.016  24.438  1.00  0.00    -0.273 OA
BRANCH  10  13
ATOM     13  C   UNL A   1      29.876  28.242  23.486  1.00  0.00     0.168 C 
ATOM     14  C   UNL A   1      30.845  28.663  22.382  1.00  0.00     0.041 C 
BRANCH  13  15
ATOM     15  N   UNL A   1      28.478  28.136  23.084  1.00  0.00    -0.338 N 
ATOM     16  C   UNL A   1      27.447  29.026  23.142  1.00  0.00     0.287 C 
ATOM     17  H   UNL A   1      28.235  27.263  22.700  1.00  0.00     0.164 HD
ATOM     18  O   UNL A   1      26.345  28.577  23.459  1.00  0.00    -0.266 OA
BRANCH  16  19
ATOM     19  C   UNL A   1      27.654  30.387  22.727  1.00  0.00     0.191 A 
ATOM     20  C   UNL A   1      27.670  31.584  23.417  1.00  0.00     0.056 A 
ATOM     21  O   UNL A   1      28.083  30.604  21.444  1.00  0.00    -0.459 OA
ATOM     22  C   UNL A   1      28.130  32.572  22.516  1.00  0.00     0.043 A 
ATOM     23  C   UNL A   1      28.362  31.925  21.328  1.00  0.00     0.196 A 
ENDBRANCH  16  19
ENDBRANCH  13  15
ENDBRANCH  10  13
ENDBRANCH   5   9
ENDBRANCH   3   5
ENDBRANCH   2   3
ENDBRANCH   1   2
BRANCH   1  24
ATOM     24  C   UNL A   1      31.879  30.104  26.446  1.00  0.00     0.275 C 
BRANCH  24  25
ATOM     25  O   UNL A   1      33.262  30.486  26.267  1.00  0.00    -0.458 OA
BRANCH  25  26
ATOM     26  C   UNL A   1      33.700  31.353  27.192  1.00  0.00     0.338 C 
ATOM     27  O   UNL A   1      33.168  32.418  27.504  1.00  0.00    -0.246 OA
BRANCH  26  28
ATOM     28  C   UNL A   1      34.795  30.867  28.015  1.00  0.00     0.060 A 
ATOM     29  C   UNL A   1      35.771  31.820  28.286  1.00  0.00     0.016 A 
ATOM     30  C   UNL A   1      35.017  29.521  28.293  1.00  0.00     0.016 A 
ATOM     31  C   UNL A   1      37.005  31.445  28.769  1.00  0.00     0.010 A 
ATOM     32  C   UNL A   1      36.228  29.152  28.896  1.00  0.00     0.010 A 
ATOM     33  C   UNL A   1      37.224  30.115  29.142  1.00  0.00    -0.014 A 
BRANCH  33  34
ATOM     34  C   UNL A   1      38.457  29.809  29.901  1.00  0.00     0.031 A 
ATOM     35  C   UNL A   1      39.540  28.955  29.321  1.00  0.00     0.074 A 
ATOM     36  C   UNL A   1      38.598  30.373  31.117  1.00  0.00     0.049 A 
ATOM     37  N   UNL A   1      40.625  28.504  29.898  1.00  0.00    -0.248 NA
ATOM     38  C   UNL A   1      39.391  28.553  27.915  1.00  0.00     0.031 C 
ATOM     39  C   UNL A   1      37.628  31.280  31.741  1.00  0.00     0.029 A 
ATOM     40  N   UNL A   1      39.610  30.294  32.036  1.00  0.00    -0.354 N 
ATOM     41  C   UNL A   1      41.272  27.736  28.940  1.00  0.00     0.074 A 
ATOM     42  C   UNL A   1      40.459  27.784  27.742  1.00  0.00     0.031 C 
ATOM     43  C   UNL A   1      38.112  31.707  32.914  1.00  0.00     0.029 A 
ATOM     44  C   UNL A   1      39.365  31.018  33.176  1.00  0.00     0.049 A 
ATOM     45  H   UNL A   1      40.431  29.770  31.893  1.00  0.00     0.167 HD
ATOM     46  C   UNL A   1      42.432  27.049  29.069  1.00  0.00     0.037 A 
ATOM     47  C   UNL A   1      40.044  31.076  34.335  1.00  0.00     0.037 A 
ATOM     48  C   UNL A   1      43.228  27.033  30.272  1.00  0.00     0.049 A 
ATOM     49  C   UNL A   1      41.283  30.244  34.472  1.00  0.00     0.074 A 
ATOM     50  C   UNL A   1      44.411  26.359  30.520  1.00  0.00     0.029 A 
ATOM     51  N   UNL A   1      42.919  27.732  31.434  1.00  0.00    -0.354 N 
ATOM     52  N   UNL A   1      41.859  29.471  33.584  1.00  0.00    -0.248 NA
ATOM     53  C   UNL A   1      41.953  30.273  35.778  1.00  0.00     0.031 C 
ATOM     54  C   UNL A   1      44.791  26.610  31.842  1.00  0.00     0.029 A 
ATOM     55  C   UNL A   1      43.876  27.487  32.406  1.00  0.00     0.049 A 
ATOM     56  H   UNL A   1      42.134  28.316  31.548  1.00  0.00     0.167 HD
ATOM     57  C   UNL A   1      42.969  28.932  34.215  1.00  0.00     0.074 A 
ATOM     58  C   UNL A   1      42.994  29.484  35.556  1.00  0.00     0.031 C 
ATOM     59  C   UNL A   1      43.880  28.052  33.732  1.00  0.00     0.037 A 
BRANCH  46  60
ATOM     60  C   UNL A   1      42.882  26.214  27.905  1.00  0.00     0.064 A 
ATOM     61  C   UNL A   1      43.788  26.692  26.948  1.00  0.00     0.173 A 
ATOM     62  C   UNL A   1      42.420  24.894  27.766  1.00  0.00     0.173 A 
ATOM     63  F   UNL A   1      44.251  27.948  27.027  1.00  0.00    -0.203 F 
ATOM     64  C   UNL A   1      44.196  25.892  25.883  1.00  0.00     0.198 A 
ATOM     65  C   UNL A   1      42.849  24.088  26.716  1.00  0.00     0.198 A 
ATOM     66  F   UNL A   1      41.556  24.384  28.656  1.00  0.00    -0.203 F 
ATOM     67  F   UNL A   1      45.028  26.385  24.956  1.00  0.00    -0.200 F 
ATOM     68  C   UNL A   1      43.732  24.589  25.771  1.00  0.00     0.200 A 
ATOM     69  F   UNL A   1      42.409  22.826  26.618  1.00  0.00    -0.200 F 
ATOM     70  F   UNL A   1      44.128  23.819  24.748  1.00  0.00    -0.200 F 
ENDBRANCH  46  60
BRANCH  47  71
ATOM     71  C   UNL A   1      39.524  31.899  35.458  1.00  0.00     0.064 A 
ATOM     72  C   UNL A   1      39.930  33.229  35.627  1.00  0.00     0.173 A 
ATOM     73  C   UNL A   1      38.594  31.378  36.372  1.00  0.00     0.173 A 
ATOM     74  F   UNL A   1      40.830  33.766  34.791  1.00  0.00    -0.203 F 
ATOM     75  C   UNL A   1      39.433  34.002  36.675  1.00  0.00     0.198 A 
ATOM     76  C   UNL A   1      38.072  32.163  37.396  1.00  0.00     0.198 A 
ATOM     77  F   UNL A   1      38.169  30.111  36.251  1.00  0.00    -0.203 F 
ATOM     78  F   UNL A   1      39.869  35.258  36.841  1.00  0.00    -0.200 F 
ATOM     79  C   UNL A   1      38.499  33.471  37.553  1.00  0.00     0.200 A 
ATOM     80  F   UNL A   1      37.154  31.651  38.227  1.00  0.00    -0.200 F 
ATOM     81  F   UNL A   1      38.016  34.220  38.553  1.00  0.00    -0.200 F 
ENDBRANCH  47  71
BRANCH  59  82
ATOM     82  C   UNL A   1      44.999  27.670  34.654  1.00  0.00     0.064 A 
ATOM     83  C   UNL A   1      44.910  26.551  35.494  1.00  0.00     0.173 A 
ATOM     84  C   UNL A   1      46.180  28.427  34.683  1.00  0.00     0.173 A 
ATOM     85  F   UNL A   1      43.791  25.812  35.518  1.00  0.00    -0.203 F 
ATOM     86  C   UNL A   1      45.954  26.219  36.352  1.00  0.00     0.198 A 
ATOM     87  C   UNL A   1      47.234  28.072  35.518  1.00  0.00     0.198 A 
ATOM     88  F   UNL A   1      46.313  29.505  33.895  1.00  0.00    -0.203 F 
ATOM     89  F   UNL A   1      45.828  25.178  37.186  1.00  0.00    -0.200 F 
ATOM     90  C   UNL A   1      47.118  26.975  36.357  1.00  0.00     0.200 A 
ATOM     91  F   UNL A   1      48.361  28.797  35.515  1.00  0.00    -0.200 F 
ATOM     92  F   UNL A   1      48.124  26.650  37.180  1.00  0.00    -0.200 F 
ENDBRANCH  59  82
ENDBRANCH  33  34
ENDBRANCH  26  28
ENDBRANCH  25  26
ENDBRANCH  24  25
ENDBRANCH   1  24
TORSDOF 16
ENDMDL
MODEL 3
REMARK VINA RESULT:     -11.1      0.571      7.403
REMARK SMILES CC[C@@](C)(NC(=O)[C@@H](C)NC(=O)c1ccco1)C(=O)OCCOC(=O)c1ccc(-c2c3nc(c(-c4c(F)c(F)c(F)c(F)c4F)c4ccc([nH]4)c(-c4c(F)c(F)c(F)c(F)c4F)c4nc(c(-c5c(F)c(F)c(F)c(F)c5F)c5ccc2[nH]5)C=C4)C=C3)cc1
REMARK SMILES IDX 21 1 20 2 18 3 19 4 3 5 4 6 2 7 1 8 5 9 6 10 7 12 8 13 9 14
REMARK SMILES IDX 10 15 11 16 12 18 13 19 14 20 17 21 15 22 16 23 22 24 23 25
REMARK SMILES IDX 24 26 25 27 26 28 27 29 88 30 28 31 87 32 29 33 30 34 31 35
REMARK SMILES IDX 81 36 32 37 86 38 80 39 82 40 33 41 85 42 79 43 78 44 34 46
REMARK SMILES IDX 66 47 46 48 65 49 47 50 50 51 64 52 83 53 48 54 49 55 63 57
REMARK SMILES IDX 84 58 51 59 35 60 36 61 44 62 37 63 38 64 42 65 45 66 39 67
REMARK SMILES IDX 40 68 43 69 41 70 67 71 68 72 76 73 69 74 70 75 74 76 77 77
REMARK SMILES IDX 71 78 72 79 75 80 73 81 52 82 53 83 61 84 54 85 55 86 59 87
REMARK SMILES IDX 62 88 56 89 57 90 60 91 58 92
REMARK H PARENT 5 11 10 17 82 45 50 56
REMARK Flexibility Score: inf
ROOT
ATOM      1  C   UNL A   1      31.526  28.710  27.121  1.00  0.00     0.274 C 
ENDROOT
BRANCH   1   2
ATOM      2  O   UNL A   1      32.577  27.747  26.838  1.00  0.00    -0.460 OA
BRANCH   2   3
ATOM      3  C   UNL A   1      32.218  26.537  26.337  1.00  0.00     0.331 C 
ATOM      4  O   UNL A   1      31.624  25.696  27.005  1.00  0.00    -0.249 OA
BRANCH   3   5
ATOM      5  C   UNL A   1      32.730  26.286  24.867  1.00  0.00     0.135 C 
ATOM      6  C   UNL A   1      33.924  27.255  24.713  1.00  0.00     0.047 C 
BRANCH   5   7
ATOM      7  C   UNL A   1      33.221  24.818  24.701  1.00  0.00     0.037 C 
ATOM      8  C   UNL A   1      34.627  24.488  25.208  1.00  0.00     0.007 C 
ENDBRANCH   5   7
BRANCH   5   9
ATOM      9  N   UNL A   1      31.789  26.628  23.733  1.00  0.00    -0.339 N 
ATOM     10  C   UNL A   1      30.446  26.945  23.887  1.00  0.00     0.243 C 
ATOM     11  H   UNL A   1      32.155  26.624  22.819  1.00  0.00     0.164 HD
ATOM     12  O   UNL A   1      29.631  26.040  24.073  1.00  0.00    -0.273 OA
BRANCH  10  13
ATOM     13  C   UNL A   1      30.013  28.384  23.462  1.00  0.00     0.168 C 
ATOM     14  C   UNL A   1      30.980  28.926  22.409  1.00  0.00     0.041 C 
BRANCH  13  15
ATOM     15  N   UNL A   1      28.615  28.320  23.053  1.00  0.00    -0.338 N 
ATOM     16  C   UNL A   1      27.658  29.284  22.937  1.00  0.00     0.287 C 
ATOM     17  H   UNL A   1      28.306  27.416  22.816  1.00  0.00     0.164 HD
ATOM     18  O   UNL A   1      26.521  28.983  23.300  1.00  0.00    -0.266 OA
BRANCH  16  19
ATOM     19  C   UNL A   1      27.978  30.535  22.302  1.00  0.00     0.191 A 
ATOM     20  C   UNL A   1      27.986  30.939  20.981  1.00  0.00     0.056 A 
ATOM     21  O   UNL A   1      28.164  31.628  23.107  1.00  0.00    -0.459 OA
ATOM     22  C   UNL A   1      28.184  32.339  20.980  1.00  0.00     0.043 A 
ATOM     23  C   UNL A   1      28.292  32.708  22.298  1.00  0.00     0.196 A 
ENDBRANCH  16  19
ENDBRANCH  13  15
ENDBRANCH  10  13
ENDBRANCH   5   9
ENDBRANCH   3   5
ENDBRANCH   2   3
ENDBRANCH   1   2
BRANCH   1  24
ATOM     24  C   UNL A   1      31.745  30.051  26.393  1.00  0.00     0.275 C 
BRANCH  24  25
ATOM     25  O   UNL A   1      33.143  30.371  26.208  1.00  0.00    -0.458 OA
BRANCH  25  26
ATOM     26  C   UNL A   1      33.568  31.379  26.981  1.00  0.00     0.338 C 
ATOM     27  O   UNL A   1      32.923  32.379  27.297  1.00  0.00    -0.246 OA
BRANCH  26  28
ATOM     28  C   UNL A   1      34.837  31.145  27.649  1.00  0.00     0.060 A 
ATOM     29  C   UNL A   1      34.978  29.864  28.172  1.00  0.00     0.016 A 
ATOM     30  C   UNL A   1      35.731  32.157  27.991  1.00  0.00     0.016 A 
ATOM     31  C   UNL A   1      35.963  29.585  29.094  1.00  0.00     0.010 A 
ATOM     32  C   UNL A   1      36.804  31.845  28.837  1.00  0.00     0.010 A 
ATOM     33  C   UNL A   1      36.927  30.554  29.386  1.00  0.00    -0.014 A 
BRANCH  33  34
ATOM     34  C   UNL A   1      38.111  30.131  30.167  1.00  0.00     0.031 A 
ATOM     35  C   UNL A   1      38.319  30.581  31.578  1.00  0.00     0.074 A 
ATOM     36  C   UNL A   1      38.973  29.278  29.579  1.00  0.00     0.049 A 
ATOM     37  N   UNL A   1      39.355  30.390  32.355  1.00  0.00    -0.248 NA
ATOM     38  C   UNL A   1      37.227  31.342  32.203  1.00  0.00     0.031 C 
ATOM     39  C   UNL A   1      38.822  28.724  28.229  1.00  0.00     0.029 A 
ATOM     40  N   UNL A   1      40.131  28.706  30.038  1.00  0.00    -0.354 N 
ATOM     41  C   UNL A   1      39.058  31.037  33.547  1.00  0.00     0.074 A 
ATOM     42  C   UNL A   1      37.743  31.623  33.393  1.00  0.00     0.031 C 
ATOM     43  C   UNL A   1      39.817  27.862  27.988  1.00  0.00     0.029 A 
ATOM     44  C   UNL A   1      40.735  27.889  29.115  1.00  0.00     0.049 A 
ATOM     45  H   UNL A   1      40.492  28.865  30.940  1.00  0.00     0.167 HD
ATOM     46  C   UNL A   1      39.832  31.133  34.655  1.00  0.00     0.037 A 
ATOM     47  C   UNL A   1      41.930  27.274  29.146  1.00  0.00     0.037 A 
ATOM     48  C   UNL A   1      41.133  30.524  34.784  1.00  0.00     0.049 A 
ATOM     49  C   UNL A   1      42.794  27.464  30.356  1.00  0.00     0.074 A 
ATOM     50  C   UNL A   1      42.009  30.571  35.854  1.00  0.00     0.029 A 
ATOM     51  N   UNL A   1      41.744  29.751  33.804  1.00  0.00    -0.354 N 
ATOM     52  N   UNL A   1      42.535  28.126  31.457  1.00  0.00    -0.248 NA
ATOM     53  C   UNL A   1      44.122  26.842  30.319  1.00  0.00     0.031 C 
ATOM     54  C   UNL A   1      43.167  29.868  35.504  1.00  0.00     0.029 A 
ATOM     55  C   UNL A   1      42.993  29.334  34.237  1.00  0.00     0.049 A 
ATOM     56  H   UNL A   1      41.347  29.531  32.930  1.00  0.00     0.167 HD
ATOM     57  C   UNL A   1      43.661  27.990  32.254  1.00  0.00     0.074 A 
ATOM     58  C   UNL A   1      44.595  27.163  31.515  1.00  0.00     0.031 C 
ATOM     59  C   UNL A   1      43.903  28.508  33.482  1.00  0.00     0.037 A 
BRANCH  46  60
ATOM     60  C   UNL A   1      39.319  31.970  35.792  1.00  0.00     0.064 A 
ATOM     61  C   UNL A   1      38.438  31.460  36.757  1.00  0.00     0.173 A 
ATOM     62  C   UNL A   1      39.748  33.300  35.935  1.00  0.00     0.173 A 
ATOM     63  F   UNL A   1      37.989  30.201  36.661  1.00  0.00    -0.203 F 
ATOM     64  C   UNL A   1      37.986  32.257  37.807  1.00  0.00     0.198 A 
ATOM     65  C   UNL A   1      39.316  34.085  37.000  1.00  0.00     0.198 A 
ATOM     66  F   UNL A   1      40.594  33.837  35.044  1.00  0.00    -0.203 F 
ATOM     67  F   UNL A   1      37.111  31.763  38.693  1.00  0.00    -0.200 F 
ATOM     68  C   UNL A   1      38.430  33.565  37.932  1.00  0.00     0.200 A 
ATOM     69  F   UNL A   1      39.756  35.344  37.125  1.00  0.00    -0.200 F 
ATOM     70  F   UNL A   1      37.998  34.329  38.945  1.00  0.00    -0.200 F 
ENDBRANCH  46  60
BRANCH  47  71
ATOM     71  C   UNL A   1      42.388  26.487  27.972  1.00  0.00     0.064 A 
ATOM     72  C   UNL A   1      41.995  25.154  27.798  1.00  0.00     0.173 A 
ATOM     73  C   UNL A   1      43.211  27.060  26.988  1.00  0.00     0.173 A 
ATOM     74  F   UNL A   1      41.226  24.557  28.719  1.00  0.00    -0.203 F 
ATOM     75  C   UNL A   1      42.418  24.420  26.690  1.00  0.00     0.198 A 
ATOM     76  C   UNL A   1      43.602  26.337  25.865  1.00  0.00     0.198 A 
ATOM     77  F   UNL A   1      43.611  28.335  27.105  1.00  0.00    -0.203 F 
ATOM     78  F   UNL A   1      42.064  23.134  26.569  1.00  0.00    -0.200 F 
ATOM     79  C   UNL A   1      43.214  25.014  25.722  1.00  0.00     0.200 A 
ATOM     80  F   UNL A   1      44.352  26.923  24.922  1.00  0.00    -0.200 F 
ATOM     81  F   UNL A   1      43.610  24.311  24.653  1.00  0.00    -0.200 F 
ENDBRANCH  47  71
BRANCH  59  82
ATOM     82  C   UNL A   1      45.218  28.159  34.112  1.00  0.00     0.064 A 
ATOM     83  C   UNL A   1      45.373  27.010  34.901  1.00  0.00     0.173 A 
ATOM     84  C   UNL A   1      46.339  28.978  33.909  1.00  0.00     0.173 A 
ATOM     85  F   UNL A   1      44.325  26.210  35.142  1.00  0.00    -0.203 F 
ATOM     86  C   UNL A   1      46.599  26.708  35.487  1.00  0.00     0.198 A 
ATOM     87  C   UNL A   1      47.570  28.656  34.471  1.00  0.00     0.198 A 
ATOM     88  F   UNL A   1      46.240  30.087  33.160  1.00  0.00    -0.203 F 
ATOM     89  F   UNL A   1      46.713  25.635  36.282  1.00  0.00    -0.200 F 
ATOM     90  C   UNL A   1      47.698  27.526  35.265  1.00  0.00     0.200 A 
ATOM     91  F   UNL A   1      48.632  29.441  34.247  1.00  0.00    -0.200 F 
ATOM     92  F   UNL A   1      48.877  27.232  35.827  1.00  0.00    -0.200 F 
ENDBRANCH  59  82
ENDBRANCH  33  34
ENDBRANCH  26  28
ENDBRANCH  25  26
ENDBRANCH  24  25
ENDBRANCH   1  24
TORSDOF 16
ENDMDL
