MODEL 1
REMARK VINA RESULT:     -14.4      0.000      0.000
REMARK SMILES Cc1ccc(C(=O)OCCOC(=O)c2ccc(-c3c4nc(c(-c5c(F)c(F)c(F)c(F)c5F)c5ccc([nH]5)c(-c5c(F)c(F)c(F)c(F)c5F)c5nc(c(-c6c(F)c(F)c(F)c(F)c6F)c6ccc3[nH]6)C=C5)C=C4)cc2)cc1N1C(=O)/C(=C/c2ccc([N+](=O)[O-])cc2)SC1=S
REMARK SMILES IDX 9 1 8 2 6 3 7 4 5 5 1 6 2 7 3 8 78 9 4 10 77 11 79 12 80 13
REMARK SMILES IDX 94 14 81 15 82 16 93 17 95 18 83 19 84 20 85 21 92 22 86 23
REMARK SMILES IDX 91 24 87 25 88 26 89 27 90 28 10 29 11 30 12 31 13 32 14 33
REMARK SMILES IDX 15 34 76 35 16 36 75 37 17 38 18 39 19 40 69 41 20 42 74 43
REMARK SMILES IDX 68 44 70 45 21 46 73 47 67 48 66 49 22 51 54 52 34 53 53 54
REMARK SMILES IDX 35 55 38 56 52 57 71 58 36 59 37 60 51 62 72 63 39 64 23 65
REMARK SMILES IDX 24 66 32 67 25 68 26 69 30 70 33 71 27 72 28 73 31 74 29 75
REMARK SMILES IDX 55 76 56 77 64 78 57 79 58 80 62 81 65 82 59 83 60 84 63 85
REMARK SMILES IDX 61 86 40 87 41 88 49 89 42 90 43 91 47 92 50 93 44 94 45 95
REMARK SMILES IDX 48 96 46 97
REMARK H PARENT 70 50 38 61
REMARK Flexibility Score: inf
ROOT
ATOM      1  C   UNL A   1      32.889  29.389  27.204  1.00  0.00     0.275 C 
ENDROOT
BRANCH   1   2
ATOM      2  O   UNL A   1      33.076  27.970  27.239  1.00  0.00    -0.458 OA
BRANCH   2   3
ATOM      3  C   UNL A   1      32.028  27.317  26.674  1.00  0.00     0.338 C 
ATOM      4  O   UNL A   1      31.028  26.920  27.258  1.00  0.00    -0.246 OA
BRANCH   3   5
ATOM      5  C   UNL A   1      32.262  26.980  25.259  1.00  0.00     0.062 A 
ATOM      6  C   UNL A   1      32.845  25.608  21.203  1.00  0.00     0.046 C 
ATOM      7  C   UNL A   1      32.692  26.054  22.630  1.00  0.00    -0.027 A 
ATOM      8  C   UNL A   1      32.610  27.429  22.909  1.00  0.00     0.006 A 
ATOM      9  C   UNL A   1      32.604  25.159  23.706  1.00  0.00     0.054 A 
ATOM     10  C   UNL A   1      32.467  27.891  24.226  1.00  0.00     0.016 A 
ATOM     11  C   UNL A   1      32.294  25.619  24.986  1.00  0.00     0.042 A 
BRANCH   9  12
ATOM     12  N   UNL A   1      33.046  23.821  23.623  1.00  0.00    -0.261 N 
ATOM     13  C   UNL A   1      32.183  22.826  23.183  1.00  0.00     0.270 C 
ATOM     14  C   UNL A   1      34.260  23.421  24.175  1.00  0.00     0.152 C 
ATOM     15  O   UNL A   1      31.094  22.955  22.666  1.00  0.00    -0.268 OA
ATOM     16  C   UNL A   1      32.779  21.504  23.533  1.00  0.00     0.081 C 
ATOM     17  S   UNL A   1      34.417  21.684  24.027  1.00  0.00    -0.054 SA
ATOM     18  S   UNL A   1      35.463  24.337  24.895  1.00  0.00    -0.051 S 
ATOM     19  C   UNL A   1      32.064  20.374  23.566  1.00  0.00     0.029 C 
BRANCH  19  20
ATOM     20  C   UNL A   1      32.635  19.095  23.990  1.00  0.00    -0.024 A 
ATOM     21  C   UNL A   1      33.186  18.209  23.053  1.00  0.00     0.015 A 
ATOM     22  C   UNL A   1      32.538  18.722  25.334  1.00  0.00     0.015 A 
ATOM     23  C   UNL A   1      33.658  16.960  23.464  1.00  0.00     0.086 A 
ATOM     24  C   UNL A   1      33.006  17.476  25.753  1.00  0.00     0.086 A 
ATOM     25  C   UNL A   1      33.574  16.602  24.816  1.00  0.00     0.269 A 
BRANCH  25  26
ATOM     26  N   UNL A   1      34.089  15.302  25.262  1.00  0.00     0.062 N 
ATOM     27  O   UNL A   1      35.318  15.164  25.339  1.00  0.00    -0.258 OA
ATOM     28  O   UNL A   1      33.264  14.421  25.539  1.00  0.00    -0.258 OA
ENDBRANCH  25  26
ENDBRANCH  19  20
ENDBRANCH   9  12
ENDBRANCH   3   5
ENDBRANCH   2   3
ENDBRANCH   1   2
BRANCH   1  29
ATOM     29  C   UNL A   1      34.186  30.200  27.293  1.00  0.00     0.275 C 
BRANCH  29  30
ATOM     30  O   UNL A   1      34.431  31.086  28.418  1.00  0.00    -0.458 OA
BRANCH  30  31
ATOM     31  C   UNL A   1      35.583  31.545  28.949  1.00  0.00     0.338 C 
ATOM     32  O   UNL A   1      35.684  32.677  29.404  1.00  0.00    -0.246 OA
BRANCH  31  33
ATOM     33  C   UNL A   1      36.738  30.639  29.004  1.00  0.00     0.060 A 
ATOM     34  C   UNL A   1      36.778  29.670  30.021  1.00  0.00     0.016 A 
ATOM     35  C   UNL A   1      37.733  30.708  28.036  1.00  0.00     0.016 A 
ATOM     36  C   UNL A   1      37.758  28.685  30.007  1.00  0.00     0.010 A 
ATOM     37  C   UNL A   1      38.664  29.696  27.975  1.00  0.00     0.010 A 
ATOM     38  C   UNL A   1      38.697  28.710  28.977  1.00  0.00    -0.014 A 
BRANCH  38  39
ATOM     39  C   UNL A   1      39.987  28.057  29.101  1.00  0.00     0.031 A 
ATOM     40  C   UNL A   1      40.271  26.680  28.676  1.00  0.00     0.074 A 
ATOM     41  C   UNL A   1      40.938  28.940  29.468  1.00  0.00     0.049 A 
ATOM     42  N   UNL A   1      41.309  26.016  29.062  1.00  0.00    -0.248 NA
ATOM     43  C   UNL A   1      39.400  25.909  27.796  1.00  0.00     0.031 C 
ATOM     44  C   UNL A   1      42.380  28.872  29.350  1.00  0.00     0.029 A 
ATOM     45  N   UNL A   1      40.700  30.130  30.182  1.00  0.00    -0.354 N 
ATOM     46  C   UNL A   1      41.413  24.901  28.258  1.00  0.00     0.074 A 
ATOM     47  C   UNL A   1      40.144  24.818  27.571  1.00  0.00     0.031 C 
ATOM     48  C   UNL A   1      42.914  29.788  30.182  1.00  0.00     0.029 A 
ATOM     49  C   UNL A   1      41.821  30.324  30.988  1.00  0.00     0.049 A 
ATOM     50  H   UNL A   1      39.905  30.707  30.122  1.00  0.00     0.167 HD
ATOM     51  C   UNL A   1      42.630  24.296  28.122  1.00  0.00     0.037 A 
ATOM     52  C   UNL A   1      41.693  30.170  32.340  1.00  0.00     0.037 A 
ATOM     53  C   UNL A   1      43.625  24.971  28.952  1.00  0.00     0.049 A 
ATOM     54  C   UNL A   1      42.577  29.059  32.843  1.00  0.00     0.074 A 
ATOM     55  C   UNL A   1      44.520  25.984  28.649  1.00  0.00     0.029 A 
ATOM     56  N   UNL A   1      43.532  24.926  30.340  1.00  0.00    -0.354 N 
ATOM     57  N   UNL A   1      42.840  27.975  32.166  1.00  0.00    -0.248 NA
ATOM     58  C   UNL A   1      43.264  29.119  34.126  1.00  0.00     0.031 C 
ATOM     59  C   UNL A   1      44.906  26.605  29.858  1.00  0.00     0.029 A 
ATOM     60  C   UNL A   1      44.269  25.953  30.899  1.00  0.00     0.049 A 
ATOM     61  H   UNL A   1      43.017  24.258  30.850  1.00  0.00     0.167 HD
ATOM     62  C   UNL A   1      43.780  27.251  32.847  1.00  0.00     0.074 A 
ATOM     63  C   UNL A   1      43.986  27.987  34.084  1.00  0.00     0.031 C 
ATOM     64  C   UNL A   1      44.362  26.129  32.336  1.00  0.00     0.037 A 
BRANCH  51  65
ATOM     65  C   UNL A   1      42.993  23.385  26.964  1.00  0.00     0.064 A 
ATOM     66  C   UNL A   1      42.699  22.002  27.009  1.00  0.00     0.173 A 
ATOM     67  C   UNL A   1      43.692  23.796  25.815  1.00  0.00     0.173 A 
ATOM     68  F   UNL A   1      41.930  21.477  27.971  1.00  0.00    -0.203 F 
ATOM     69  C   UNL A   1      43.186  21.093  26.067  1.00  0.00     0.198 A 
ATOM     70  C   UNL A   1      44.210  22.882  24.886  1.00  0.00     0.198 A 
ATOM     71  F   UNL A   1      43.861  25.097  25.538  1.00  0.00    -0.203 F 
ATOM     72  F   UNL A   1      42.899  19.789  26.190  1.00  0.00    -0.200 F 
ATOM     73  C   UNL A   1      43.974  21.528  25.024  1.00  0.00     0.200 A 
ATOM     74  F   UNL A   1      44.946  23.324  23.856  1.00  0.00    -0.200 F 
ATOM     75  F   UNL A   1      44.482  20.653  24.147  1.00  0.00    -0.200 F 
ENDBRANCH  51  65
BRANCH  52  76
ATOM     76  C   UNL A   1      40.339  30.488  32.895  1.00  0.00     0.064 A 
ATOM     77  C   UNL A   1      39.964  31.839  33.070  1.00  0.00     0.173 A 
ATOM     78  C   UNL A   1      39.325  29.531  33.024  1.00  0.00     0.173 A 
ATOM     79  F   UNL A   1      40.885  32.810  32.960  1.00  0.00    -0.203 F 
ATOM     80  C   UNL A   1      38.636  32.214  33.279  1.00  0.00     0.198 A 
ATOM     81  C   UNL A   1      37.995  29.910  33.244  1.00  0.00     0.198 A 
ATOM     82  F   UNL A   1      39.594  28.228  32.871  1.00  0.00    -0.203 F 
ATOM     83  F   UNL A   1      38.313  33.513  33.358  1.00  0.00    -0.200 F 
ATOM     84  C   UNL A   1      37.649  31.248  33.351  1.00  0.00     0.200 A 
ATOM     85  F   UNL A   1      37.033  28.976  33.292  1.00  0.00    -0.200 F 
ATOM     86  F   UNL A   1      36.363  31.603  33.491  1.00  0.00    -0.200 F 
ENDBRANCH  52  76
BRANCH  64  87
ATOM     87  C   UNL A   1      45.205  25.166  33.120  1.00  0.00     0.064 A 
ATOM     88  C   UNL A   1      44.706  23.959  33.631  1.00  0.00     0.173 A 
ATOM     89  C   UNL A   1      46.602  25.357  33.231  1.00  0.00     0.173 A 
ATOM     90  F   UNL A   1      43.416  23.624  33.488  1.00  0.00    -0.203 F 
ATOM     91  C   UNL A   1      45.536  23.032  34.259  1.00  0.00     0.198 A 
ATOM     92  C   UNL A   1      47.436  24.403  33.805  1.00  0.00     0.198 A 
ATOM     93  F   UNL A   1      47.202  26.461  32.761  1.00  0.00    -0.203 F 
ATOM     94  F   UNL A   1      45.009  21.909  34.768  1.00  0.00    -0.200 F 
ATOM     95  C   UNL A   1      46.901  23.245  34.332  1.00  0.00     0.200 A 
ATOM     96  F   UNL A   1      48.762  24.602  33.822  1.00  0.00    -0.200 F 
ATOM     97  F   UNL A   1      47.700  22.328  34.890  1.00  0.00    -0.200 F 
ENDBRANCH  64  87
ENDBRANCH  38  39
ENDBRANCH  31  33
ENDBRANCH  30  31
ENDBRANCH  29  30
ENDBRANCH   1  29
TORSDOF 14
ENDMDL
MODEL 2
REMARK VINA RESULT:     -14.4      4.143     10.487
REMARK SMILES Cc1ccc(C(=O)OCCOC(=O)c2ccc(-c3c4nc(c(-c5c(F)c(F)c(F)c(F)c5F)c5ccc([nH]5)c(-c5c(F)c(F)c(F)c(F)c5F)c5nc(c(-c6c(F)c(F)c(F)c(F)c6F)c6ccc3[nH]6)C=C5)C=C4)cc2)cc1N1C(=O)/C(=C/c2ccc([N+](=O)[O-])cc2)SC1=S
REMARK SMILES IDX 9 1 8 2 6 3 7 4 5 5 1 6 2 7 3 8 78 9 4 10 77 11 79 12 80 13
REMARK SMILES IDX 94 14 81 15 82 16 93 17 95 18 83 19 84 20 85 21 92 22 86 23
REMARK SMILES IDX 91 24 87 25 88 26 89 27 90 28 10 29 11 30 12 31 13 32 14 33
REMARK SMILES IDX 15 34 76 35 16 36 75 37 17 38 18 39 19 40 69 41 20 42 74 43
REMARK SMILES IDX 68 44 70 45 21 46 73 47 67 48 66 49 22 51 54 52 34 53 53 54
REMARK SMILES IDX 35 55 38 56 52 57 71 58 36 59 37 60 51 62 72 63 39 64 23 65
REMARK SMILES IDX 24 66 32 67 25 68 26 69 30 70 33 71 27 72 28 73 31 74 29 75
REMARK SMILES IDX 55 76 56 77 64 78 57 79 58 80 62 81 65 82 59 83 60 84 63 85
REMARK SMILES IDX 61 86 40 87 41 88 49 89 42 90 43 91 47 92 50 93 44 94 45 95
REMARK SMILES IDX 48 96 46 97
REMARK H PARENT 70 50 38 61
REMARK Flexibility Score: inf
ROOT
ATOM      1  C   UNL A   1      38.059  21.397  25.326  1.00  0.00     0.275 C 
ENDROOT
BRANCH   1   2
ATOM      2  O   UNL A   1      36.876  21.196  26.108  1.00  0.00    -0.458 OA
BRANCH   2   3
ATOM      3  C   UNL A   1      35.970  22.187  25.902  1.00  0.00     0.338 C 
ATOM      4  O   UNL A   1      35.952  23.273  26.468  1.00  0.00    -0.246 OA
BRANCH   3   5
ATOM      5  C   UNL A   1      34.874  21.781  25.006  1.00  0.00     0.062 A 
ATOM      6  C   UNL A   1      31.638  20.980  22.257  1.00  0.00     0.046 C 
ATOM      7  C   UNL A   1      32.724  21.290  23.248  1.00  0.00    -0.027 A 
ATOM      8  C   UNL A   1      33.467  20.230  23.798  1.00  0.00     0.006 A 
ATOM      9  C   UNL A   1      33.051  22.595  23.642  1.00  0.00     0.054 A 
ATOM     10  C   UNL A   1      34.490  20.472  24.727  1.00  0.00     0.016 A 
ATOM     11  C   UNL A   1      34.176  22.835  24.433  1.00  0.00     0.042 A 
BRANCH   9  12
ATOM     12  N   UNL A   1      32.169  23.684  23.479  1.00  0.00    -0.261 N 
ATOM     13  C   UNL A   1      32.431  24.660  22.525  1.00  0.00     0.270 C 
ATOM     14  C   UNL A   1      31.150  23.936  24.393  1.00  0.00     0.152 C 
ATOM     15  O   UNL A   1      33.257  24.635  21.639  1.00  0.00    -0.268 OA
ATOM     16  C   UNL A   1      31.562  25.838  22.814  1.00  0.00     0.081 C 
ATOM     17  S   UNL A   1      30.355  25.439  23.972  1.00  0.00    -0.054 SA
ATOM     18  S   UNL A   1      30.656  23.043  25.721  1.00  0.00    -0.051 S 
ATOM     19  C   UNL A   1      31.805  27.054  22.312  1.00  0.00     0.029 C 
BRANCH  19  20
ATOM     20  C   UNL A   1      30.998  28.224  22.664  1.00  0.00    -0.024 A 
ATOM     21  C   UNL A   1      31.289  28.977  23.811  1.00  0.00     0.015 A 
ATOM     22  C   UNL A   1      29.870  28.526  21.895  1.00  0.00     0.015 A 
ATOM     23  C   UNL A   1      30.464  30.044  24.175  1.00  0.00     0.086 A 
ATOM     24  C   UNL A   1      29.040  29.589  22.252  1.00  0.00     0.086 A 
ATOM     25  C   UNL A   1      29.346  30.351  23.387  1.00  0.00     0.269 A 
BRANCH  25  26
ATOM     26  N   UNL A   1      28.487  31.485  23.748  1.00  0.00     0.062 N 
ATOM     27  O   UNL A   1      29.008  32.607  23.809  1.00  0.00    -0.258 OA
ATOM     28  O   UNL A   1      27.289  31.253  23.965  1.00  0.00    -0.258 OA
ENDBRANCH  25  26
ENDBRANCH  19  20
ENDBRANCH   9  12
ENDBRANCH   3   5
ENDBRANCH   2   3
ENDBRANCH   1   2
BRANCH   1  29
ATOM     29  C   UNL A   1      39.282  21.841  26.134  1.00  0.00     0.275 C 
BRANCH  29  30
ATOM     30  O   UNL A   1      39.410  23.214  26.592  1.00  0.00    -0.458 OA
BRANCH  30  31
ATOM     31  C   UNL A   1      40.402  23.834  27.264  1.00  0.00     0.338 C 
ATOM     32  O   UNL A   1      41.462  23.276  27.520  1.00  0.00    -0.246 OA
BRANCH  31  33
ATOM     33  C   UNL A   1      40.205  25.231  27.672  1.00  0.00     0.060 A 
ATOM     34  C   UNL A   1      40.496  26.245  26.743  1.00  0.00     0.016 A 
ATOM     35  C   UNL A   1      39.689  25.533  28.926  1.00  0.00     0.016 A 
ATOM     36  C   UNL A   1      40.161  27.564  27.021  1.00  0.00     0.010 A 
ATOM     37  C   UNL A   1      39.289  26.825  29.182  1.00  0.00     0.010 A 
ATOM     38  C   UNL A   1      39.558  27.841  28.247  1.00  0.00    -0.014 A 
BRANCH  38  39
ATOM     39  C   UNL A   1      39.585  29.169  28.832  1.00  0.00     0.031 A 
ATOM     40  C   UNL A   1      38.544  30.187  28.644  1.00  0.00     0.074 A 
ATOM     41  C   UNL A   1      40.587  29.277  29.729  1.00  0.00     0.049 A 
ATOM     42  N   UNL A   1      38.718  31.440  28.904  1.00  0.00    -0.248 NA
ATOM     43  C   UNL A   1      37.214  29.896  28.121  1.00  0.00     0.031 C 
ATOM     44  C   UNL A   1      40.782  30.220  30.811  1.00  0.00     0.029 A 
ATOM     45  N   UNL A   1      41.766  28.507  29.717  1.00  0.00    -0.354 N 
ATOM     46  C   UNL A   1      37.478  32.042  28.898  1.00  0.00     0.074 A 
ATOM     47  C   UNL A   1      36.594  31.072  28.293  1.00  0.00     0.031 C 
ATOM     48  C   UNL A   1      42.078  30.176  31.178  1.00  0.00     0.029 A 
ATOM     49  C   UNL A   1      42.773  29.341  30.203  1.00  0.00     0.049 A 
ATOM     50  H   UNL A   1      41.859  27.571  29.426  1.00  0.00     0.167 HD
ATOM     51  C   UNL A   1      37.308  33.211  29.586  1.00  0.00     0.037 A 
ATOM     52  C   UNL A   1      43.737  29.778  29.340  1.00  0.00     0.037 A 
ATOM     53  C   UNL A   1      38.574  33.633  30.182  1.00  0.00     0.049 A 
ATOM     54  C   UNL A   1      43.721  31.280  29.227  1.00  0.00     0.074 A 
ATOM     55  C   UNL A   1      39.099  33.410  31.445  1.00  0.00     0.029 A 
ATOM     56  N   UNL A   1      39.636  34.028  29.375  1.00  0.00    -0.354 N 
ATOM     57  N   UNL A   1      42.636  32.003  29.285  1.00  0.00    -0.248 NA
ATOM     58  C   UNL A   1      44.935  32.073  29.089  1.00  0.00     0.031 C 
ATOM     59  C   UNL A   1      40.499  33.592  31.376  1.00  0.00     0.029 A 
ATOM     60  C   UNL A   1      40.822  33.954  30.081  1.00  0.00     0.049 A 
ATOM     61  H   UNL A   1      39.554  34.318  28.437  1.00  0.00     0.167 HD
ATOM     62  C   UNL A   1      42.991  33.324  29.294  1.00  0.00     0.074 A 
ATOM     63  C   UNL A   1      44.435  33.319  29.132  1.00  0.00     0.031 C 
ATOM     64  C   UNL A   1      42.089  34.330  29.482  1.00  0.00     0.037 A 
BRANCH  51  65
ATOM     65  C   UNL A   1      35.958  33.730  30.044  1.00  0.00     0.064 A 
ATOM     66  C   UNL A   1      35.057  34.317  29.126  1.00  0.00     0.173 A 
ATOM     67  C   UNL A   1      35.522  33.743  31.381  1.00  0.00     0.173 A 
ATOM     68  F   UNL A   1      35.268  34.269  27.805  1.00  0.00    -0.203 F 
ATOM     69  C   UNL A   1      33.897  34.985  29.525  1.00  0.00     0.198 A 
ATOM     70  C   UNL A   1      34.376  34.441  31.788  1.00  0.00     0.198 A 
ATOM     71  F   UNL A   1      36.170  33.048  32.327  1.00  0.00    -0.203 F 
ATOM     72  F   UNL A   1      33.105  35.552  28.603  1.00  0.00    -0.200 F 
ATOM     73  C   UNL A   1      33.575  35.081  30.861  1.00  0.00     0.200 A 
ATOM     74  F   UNL A   1      34.055  34.496  33.089  1.00  0.00    -0.200 F 
ATOM     75  F   UNL A   1      32.489  35.762  31.250  1.00  0.00    -0.200 F 
ENDBRANCH  51  65
BRANCH  52  76
ATOM     76  C   UNL A   1      44.051  28.850  28.206  1.00  0.00     0.064 A 
ATOM     77  C   UNL A   1      44.821  27.693  28.454  1.00  0.00     0.173 A 
ATOM     78  C   UNL A   1      43.419  28.931  26.959  1.00  0.00     0.173 A 
ATOM     79  F   UNL A   1      45.454  27.548  29.630  1.00  0.00    -0.203 F 
ATOM     80  C   UNL A   1      44.888  26.641  27.539  1.00  0.00     0.198 A 
ATOM     81  C   UNL A   1      43.497  27.879  26.038  1.00  0.00     0.198 A 
ATOM     82  F   UNL A   1      42.668  29.994  26.643  1.00  0.00    -0.203 F 
ATOM     83  F   UNL A   1      45.565  25.526  27.850  1.00  0.00    -0.200 F 
ATOM     84  C   UNL A   1      44.212  26.729  26.336  1.00  0.00     0.200 A 
ATOM     85  F   UNL A   1      42.823  27.953  24.880  1.00  0.00    -0.200 F 
ATOM     86  F   UNL A   1      44.220  25.699  25.477  1.00  0.00    -0.200 F 
ENDBRANCH  52  76
BRANCH  64  87
ATOM     87  C   UNL A   1      42.370  35.787  29.260  1.00  0.00     0.064 A 
ATOM     88  C   UNL A   1      43.180  36.546  30.118  1.00  0.00     0.173 A 
ATOM     89  C   UNL A   1      41.964  36.424  28.065  1.00  0.00     0.173 A 
ATOM     90  F   UNL A   1      43.711  36.011  31.226  1.00  0.00    -0.203 F 
ATOM     91  C   UNL A   1      43.516  37.868  29.828  1.00  0.00     0.198 A 
ATOM     92  C   UNL A   1      42.349  37.724  27.751  1.00  0.00     0.198 A 
ATOM     93  F   UNL A   1      41.204  35.797  27.154  1.00  0.00    -0.203 F 
ATOM     94  F   UNL A   1      44.260  38.567  30.696  1.00  0.00    -0.200 F 
ATOM     95  C   UNL A   1      43.114  38.451  28.640  1.00  0.00     0.200 A 
ATOM     96  F   UNL A   1      41.994  38.257  26.573  1.00  0.00    -0.200 F 
ATOM     97  F   UNL A   1      43.481  39.703  28.343  1.00  0.00    -0.200 F 
ENDBRANCH  64  87
ENDBRANCH  38  39
ENDBRANCH  31  33
ENDBRANCH  30  31
ENDBRANCH  29  30
ENDBRANCH   1  29
TORSDOF 14
ENDMDL
MODEL 3
REMARK VINA RESULT:     -14.2      1.191      1.932
REMARK SMILES Cc1ccc(C(=O)OCCOC(=O)c2ccc(-c3c4nc(c(-c5c(F)c(F)c(F)c(F)c5F)c5ccc([nH]5)c(-c5c(F)c(F)c(F)c(F)c5F)c5nc(c(-c6c(F)c(F)c(F)c(F)c6F)c6ccc3[nH]6)C=C5)C=C4)cc2)cc1N1C(=O)/C(=C/c2ccc([N+](=O)[O-])cc2)SC1=S
REMARK SMILES IDX 9 1 8 2 6 3 7 4 5 5 1 6 2 7 3 8 78 9 4 10 77 11 79 12 80 13
REMARK SMILES IDX 94 14 81 15 82 16 93 17 95 18 83 19 84 20 85 21 92 22 86 23
REMARK SMILES IDX 91 24 87 25 88 26 89 27 90 28 10 29 11 30 12 31 13 32 14 33
REMARK SMILES IDX 15 34 76 35 16 36 75 37 17 38 18 39 19 40 69 41 20 42 74 43
REMARK SMILES IDX 68 44 70 45 21 46 73 47 67 48 66 49 22 51 54 52 34 53 53 54
REMARK SMILES IDX 35 55 38 56 52 57 71 58 36 59 37 60 51 62 72 63 39 64 23 65
REMARK SMILES IDX 24 66 32 67 25 68 26 69 30 70 33 71 27 72 28 73 31 74 29 75
REMARK SMILES IDX 55 76 56 77 64 78 57 79 58 80 62 81 65 82 59 83 60 84 63 85
REMARK SMILES IDX 61 86 40 87 41 88 49 89 42 90 43 91 47 92 50 93 44 94 45 95
REMARK SMILES IDX 48 96 46 97
REMARK H PARENT 70 50 38 61
REMARK Flexibility Score: inf
ROOT
ATOM      1  C   UNL A   1      33.123  29.683  25.179  1.00  0.00     0.275 C 
ENDROOT
BRANCH   1   2
ATOM      2  O   UNL A   1      33.759  28.757  24.291  1.00  0.00    -0.458 OA
BRANCH   2   3
ATOM      3  C   UNL A   1      32.851  28.103  23.522  1.00  0.00     0.338 C 
ATOM      4  O   UNL A   1      32.572  28.366  22.359  1.00  0.00    -0.246 OA
BRANCH   3   5
ATOM      5  C   UNL A   1      32.086  27.094  24.274  1.00  0.00     0.062 A 
ATOM      6  C   UNL A   1      30.191  23.926  26.521  1.00  0.00     0.046 C 
ATOM      7  C   UNL A   1      30.856  24.989  25.692  1.00  0.00    -0.027 A 
ATOM      8  C   UNL A   1      30.195  26.215  25.499  1.00  0.00     0.006 A 
ATOM      9  C   UNL A   1      32.124  24.827  25.115  1.00  0.00     0.054 A 
ATOM     10  C   UNL A   1      30.779  27.236  24.734  1.00  0.00     0.016 A 
ATOM     11  C   UNL A   1      32.764  25.904  24.500  1.00  0.00     0.042 A 
BRANCH   9  12
ATOM     12  N   UNL A   1      32.710  23.561  24.905  1.00  0.00    -0.261 N 
ATOM     13  C   UNL A   1      32.111  22.648  24.045  1.00  0.00     0.270 C 
ATOM     14  C   UNL A   1      33.758  23.104  25.698  1.00  0.00     0.152 C 
ATOM     15  O   UNL A   1      31.201  22.839  23.268  1.00  0.00    -0.268 OA
ATOM     16  C   UNL A   1      32.723  21.309  24.288  1.00  0.00     0.081 C 
ATOM     17  S   UNL A   1      34.132  21.449  25.265  1.00  0.00    -0.054 SA
ATOM     18  S   UNL A   1      34.612  23.894  26.904  1.00  0.00    -0.051 S 
ATOM     19  C   UNL A   1      32.149  20.169  23.888  1.00  0.00     0.029 C 
BRANCH  19  20
ATOM     20  C   UNL A   1      32.712  18.855  24.201  1.00  0.00    -0.024 A 
ATOM     21  C   UNL A   1      33.343  18.090  23.210  1.00  0.00     0.015 A 
ATOM     22  C   UNL A   1      32.527  18.327  25.483  1.00  0.00     0.015 A 
ATOM     23  C   UNL A   1      33.808  16.806  23.507  1.00  0.00     0.086 A 
ATOM     24  C   UNL A   1      32.987  17.045  25.788  1.00  0.00     0.086 A 
ATOM     25  C   UNL A   1      33.635  16.292  24.800  1.00  0.00     0.269 A 
BRANCH  25  26
ATOM     26  N   UNL A   1      34.140  14.953  25.128  1.00  0.00     0.062 N 
ATOM     27  O   UNL A   1      33.313  14.085  25.436  1.00  0.00    -0.258 OA
ATOM     28  O   UNL A   1      35.364  14.771  25.071  1.00  0.00    -0.258 OA
ENDBRANCH  25  26
ENDBRANCH  19  20
ENDBRANCH   9  12
ENDBRANCH   3   5
ENDBRANCH   2   3
ENDBRANCH   1   2
BRANCH   1  29
ATOM     29  C   UNL A   1      33.525  29.527  26.649  1.00  0.00     0.275 C 
BRANCH  29  30
ATOM     30  O   UNL A   1      34.915  29.326  27.020  1.00  0.00    -0.458 OA
BRANCH  30  31
ATOM     31  C   UNL A   1      35.690  29.958  27.926  1.00  0.00     0.338 C 
ATOM     32  O   UNL A   1      35.295  30.935  28.550  1.00  0.00    -0.246 OA
BRANCH  31  33
ATOM     33  C   UNL A   1      37.037  29.433  28.183  1.00  0.00     0.060 A 
ATOM     34  C   UNL A   1      38.057  29.732  27.263  1.00  0.00     0.016 A 
ATOM     35  C   UNL A   1      37.302  28.710  29.340  1.00  0.00     0.016 A 
ATOM     36  C   UNL A   1      39.376  29.407  27.554  1.00  0.00     0.010 A 
ATOM     37  C   UNL A   1      38.613  28.447  29.668  1.00  0.00     0.010 A 
ATOM     38  C   UNL A   1      39.640  28.763  28.762  1.00  0.00    -0.014 A 
BRANCH  38  39
ATOM     39  C   UNL A   1      40.848  27.985  28.966  1.00  0.00     0.031 A 
ATOM     40  C   UNL A   1      41.074  26.634  28.435  1.00  0.00     0.074 A 
ATOM     41  C   UNL A   1      41.813  28.738  29.534  1.00  0.00     0.049 A 
ATOM     42  N   UNL A   1      41.999  25.844  28.868  1.00  0.00    -0.248 NA
ATOM     43  C   UNL A   1      40.262  26.034  27.382  1.00  0.00     0.031 C 
ATOM     44  C   UNL A   1      43.248  28.549  29.581  1.00  0.00     0.029 A 
ATOM     45  N   UNL A   1      41.581  29.871  30.337  1.00  0.00    -0.354 N 
ATOM     46  C   UNL A   1      42.114  24.806  27.969  1.00  0.00     0.074 A 
ATOM     47  C   UNL A   1      40.940  24.905  27.132  1.00  0.00     0.031 C 
ATOM     48  C   UNL A   1      43.743  29.330  30.562  1.00  0.00     0.029 A 
ATOM     49  C   UNL A   1      42.603  29.885  31.286  1.00  0.00     0.049 A 
ATOM     50  H   UNL A   1      40.848  30.522  30.246  1.00  0.00     0.167 HD
ATOM     51  C   UNL A   1      43.287  24.107  27.913  1.00  0.00     0.037 A 
ATOM     52  C   UNL A   1      42.294  29.615  32.589  1.00  0.00     0.037 A 
ATOM     53  C   UNL A   1      44.219  24.607  28.922  1.00  0.00     0.049 A 
ATOM     54  C   UNL A   1      43.016  28.384  33.072  1.00  0.00     0.074 A 
ATOM     55  C   UNL A   1      45.223  25.557  28.835  1.00  0.00     0.029 A 
ATOM     56  N   UNL A   1      43.949  24.438  30.277  1.00  0.00    -0.354 N 
ATOM     57  N   UNL A   1      43.275  27.350  32.320  1.00  0.00    -0.248 NA
ATOM     58  C   UNL A   1      43.537  28.258  34.426  1.00  0.00     0.031 C 
ATOM     59  C   UNL A   1      45.501  26.023  30.140  1.00  0.00     0.029 A 
ATOM     60  C   UNL A   1      44.688  25.336  31.023  1.00  0.00     0.049 A 
ATOM     61  H   UNL A   1      43.322  23.775  30.648  1.00  0.00     0.167 HD
ATOM     62  C   UNL A   1      44.061  26.482  33.027  1.00  0.00     0.074 A 
ATOM     63  C   UNL A   1      44.167  27.075  34.350  1.00  0.00     0.031 C 
ATOM     64  C   UNL A   1      44.612  25.365  32.472  1.00  0.00     0.037 A 
BRANCH  51  65
ATOM     65  C   UNL A   1      43.720  23.281  26.717  1.00  0.00     0.064 A 
ATOM     66  C   UNL A   1      43.298  21.939  26.571  1.00  0.00     0.173 A 
ATOM     67  C   UNL A   1      44.603  23.728  25.718  1.00  0.00     0.173 A 
ATOM     68  F   UNL A   1      42.361  21.406  27.364  1.00  0.00    -0.203 F 
ATOM     69  C   UNL A   1      43.824  21.081  25.602  1.00  0.00     0.198 A 
ATOM     70  C   UNL A   1      45.157  22.860  24.766  1.00  0.00     0.198 A 
ATOM     71  F   UNL A   1      44.925  25.025  25.610  1.00  0.00    -0.203 F 
ATOM     72  F   UNL A   1      43.405  19.808  25.543  1.00  0.00    -0.200 F 
ATOM     73  C   UNL A   1      44.783  21.531  24.722  1.00  0.00     0.200 A 
ATOM     74  F   UNL A   1      46.064  23.322  23.892  1.00  0.00    -0.200 F 
ATOM     75  F   UNL A   1      45.324  20.698  23.824  1.00  0.00    -0.200 F 
ENDBRANCH  51  65
BRANCH  52  76
ATOM     76  C   UNL A   1      40.910  30.002  33.011  1.00  0.00     0.064 A 
ATOM     77  C   UNL A   1      40.621  31.360  33.270  1.00  0.00     0.173 A 
ATOM     78  C   UNL A   1      39.817  29.129  32.929  1.00  0.00     0.173 A 
ATOM     79  F   UNL A   1      41.620  32.252  33.361  1.00  0.00    -0.203 F 
ATOM     80  C   UNL A   1      39.310  31.831  33.359  1.00  0.00     0.198 A 
ATOM     81  C   UNL A   1      38.503  29.603  33.029  1.00  0.00     0.198 A 
ATOM     82  F   UNL A   1      40.002  27.826  32.685  1.00  0.00    -0.203 F 
ATOM     83  F   UNL A   1      39.080  33.141  33.525  1.00  0.00    -0.200 F 
ATOM     84  C   UNL A   1      38.250  30.953  33.223  1.00  0.00     0.200 A 
ATOM     85  F   UNL A   1      37.473  28.757  32.875  1.00  0.00    -0.200 F 
ATOM     86  F   UNL A   1      36.988  31.405  33.246  1.00  0.00    -0.200 F 
ENDBRANCH  52  76
BRANCH  64  87
ATOM     87  C   UNL A   1      45.270  24.258  33.244  1.00  0.00     0.064 A 
ATOM     88  C   UNL A   1      46.533  24.391  33.839  1.00  0.00     0.173 A 
ATOM     89  C   UNL A   1      44.559  23.075  33.553  1.00  0.00     0.173 A 
ATOM     90  F   UNL A   1      47.251  25.515  33.702  1.00  0.00    -0.203 F 
ATOM     91  C   UNL A   1      47.073  23.388  34.643  1.00  0.00     0.198 A 
ATOM     92  C   UNL A   1      45.076  22.102  34.403  1.00  0.00     0.198 A 
ATOM     93  F   UNL A   1      43.333  22.840  33.062  1.00  0.00    -0.203 F 
ATOM     94  F   UNL A   1      48.300  23.542  35.160  1.00  0.00    -0.200 F 
ATOM     95  C   UNL A   1      46.339  22.253  34.938  1.00  0.00     0.200 A 
ATOM     96  F   UNL A   1      44.333  21.032  34.719  1.00  0.00    -0.200 F 
ATOM     97  F   UNL A   1      46.841  21.316  35.751  1.00  0.00    -0.200 F 
ENDBRANCH  64  87
ENDBRANCH  38  39
ENDBRANCH  31  33
ENDBRANCH  30  31
ENDBRANCH  29  30
ENDBRANCH   1  29
TORSDOF 14
ENDMDL
