MODEL 1
REMARK VINA RESULT:     -12.3      0.000      0.000
REMARK SMILES Cc1ccc([C@@H](C)Nc2ccc(N)cc2C(=O)OCCOC(=O)c2ccc(-c3c4nc(c(-c5c(F)c(F)c(F)c(F)c5F)c5ccc([nH]5)c(-c5c(F)c(F)c(F)c(F)c5F)c5nc(c(-c6c(F)c(F)c(F)c(F)c6F)c6ccc3[nH]6)C=C5)C=C4)cc2)cc1F
REMARK SMILES IDX 19 1 18 2 16 3 17 4 15 5 9 6 10 7 11 8 14 9 12 10 8 11 6 13
REMARK SMILES IDX 7 14 5 15 1 16 2 17 3 18 88 19 4 20 87 21 89 22 13 23 20 26
REMARK SMILES IDX 21 27 22 28 23 29 24 30 25 31 86 32 26 33 85 34 27 35 28 36
REMARK SMILES IDX 29 37 79 38 30 39 84 40 78 41 80 42 31 43 83 44 77 45 76 46
REMARK SMILES IDX 32 48 64 49 44 50 63 51 45 52 48 53 62 54 81 55 46 56 47 57
REMARK SMILES IDX 61 59 82 60 49 61 33 62 34 63 42 64 35 65 36 66 40 67 43 68
REMARK SMILES IDX 37 69 38 70 41 71 39 72 65 73 66 74 74 75 67 76 68 77 72 78
REMARK SMILES IDX 75 79 69 80 70 81 73 82 71 83 50 84 51 85 59 86 52 87 53 88
REMARK SMILES IDX 57 89 60 90 54 91 55 92 58 93 56 94
REMARK H PARENT 8 12 13 24 13 25 80 47 48 58
REMARK Flexibility Score: inf
ROOT
ATOM      1  C   UNL A   1      43.575  18.978  25.075  1.00  0.00     0.275 C 
ENDROOT
BRANCH   1   2
ATOM      2  O   UNL A   1      42.835  19.341  26.261  1.00  0.00    -0.458 OA
BRANCH   2   3
ATOM      3  C   UNL A   1      41.518  19.654  26.092  1.00  0.00     0.340 C 
ATOM      4  O   UNL A   1      40.673  18.932  25.613  1.00  0.00    -0.246 OA
BRANCH   3   5
ATOM      5  C   UNL A   1      41.197  20.982  26.679  1.00  0.00     0.085 A 
ATOM      6  C   UNL A   1      40.136  21.817  26.305  1.00  0.00     0.049 A 
ATOM      7  C   UNL A   1      39.996  23.003  27.073  1.00  0.00     0.029 A 
ATOM      8  C   UNL A   1      40.847  23.353  28.128  1.00  0.00     0.027 A 
ATOM      9  C   UNL A   1      42.052  21.341  27.760  1.00  0.00     0.043 A 
ATOM     10  C   UNL A   1      41.911  22.538  28.464  1.00  0.00     0.032 A 
BRANCH   6  11
ATOM     11  N   UNL A   1      39.139  21.638  25.369  1.00  0.00    -0.378 N 
ATOM     12  H   UNL A   1      39.465  21.813  24.456  1.00  0.00     0.161 HD
BRANCH  11  13
ATOM     13  C   UNL A   1      37.728  21.259  25.371  1.00  0.00     0.106 C 
ATOM     14  C   UNL A   1      37.448  19.826  24.927  1.00  0.00     0.036 C 
BRANCH  13  15
ATOM     15  C   UNL A   1      36.788  22.388  24.954  1.00  0.00    -0.023 A 
ATOM     16  C   UNL A   1      33.561  25.047  23.770  1.00  0.00     0.047 C 
ATOM     17  C   UNL A   1      34.698  24.151  24.156  1.00  0.00    -0.015 A 
ATOM     18  C   UNL A   1      35.482  23.499  23.201  1.00  0.00     0.007 A 
ATOM     19  C   UNL A   1      34.997  23.946  25.499  1.00  0.00     0.126 A 
ATOM     20  C   UNL A   1      36.505  22.621  23.597  1.00  0.00     0.006 A 
ATOM     21  C   UNL A   1      36.031  23.100  25.897  1.00  0.00     0.045 A 
ATOM     22  F   UNL A   1      34.230  24.512  26.442  1.00  0.00    -0.207 F 
ENDBRANCH  13  15
ENDBRANCH  11  13
ENDBRANCH   6  11
BRANCH  10  23
ATOM     23  N   UNL A   1      42.709  22.836  29.557  1.00  0.00    -0.399 N 
ATOM     24  H   UNL A   1      42.366  23.419  30.273  1.00  0.00     0.156 HD
ATOM     25  H   UNL A   1      43.619  22.467  29.618  1.00  0.00     0.156 HD
ENDBRANCH  10  23
ENDBRANCH   3   5
ENDBRANCH   2   3
ENDBRANCH   1   2
BRANCH   1  26
ATOM     26  C   UNL A   1      44.636  20.007  24.708  1.00  0.00     0.275 C 
BRANCH  26  27
ATOM     27  O   UNL A   1      44.578  21.149  25.573  1.00  0.00    -0.458 OA
BRANCH  27  28
ATOM     28  C   UNL A   1      44.697  22.304  24.886  1.00  0.00     0.338 C 
ATOM     29  O   UNL A   1      44.102  22.614  23.865  1.00  0.00    -0.246 OA
BRANCH  28  30
ATOM     30  C   UNL A   1      45.909  23.054  25.268  1.00  0.00     0.060 A 
ATOM     31  C   UNL A   1      46.107  22.927  26.655  1.00  0.00     0.016 A 
ATOM     32  C   UNL A   1      45.852  24.318  24.671  1.00  0.00     0.016 A 
ATOM     33  C   UNL A   1      45.705  23.977  27.461  1.00  0.00     0.010 A 
ATOM     34  C   UNL A   1      45.455  25.367  25.465  1.00  0.00     0.010 A 
ATOM     35  C   UNL A   1      45.307  25.166  26.846  1.00  0.00    -0.014 A 
BRANCH  35  36
ATOM     36  C   UNL A   1      45.044  26.361  27.610  1.00  0.00     0.031 A 
ATOM     37  C   UNL A   1      43.666  26.866  27.527  1.00  0.00     0.074 A 
ATOM     38  C   UNL A   1      45.950  26.907  28.445  1.00  0.00     0.049 A 
ATOM     39  N   UNL A   1      43.319  28.085  27.748  1.00  0.00    -0.248 NA
ATOM     40  C   UNL A   1      42.562  26.013  27.089  1.00  0.00     0.031 C 
ATOM     41  C   UNL A   1      45.662  27.815  29.547  1.00  0.00     0.029 A 
ATOM     42  N   UNL A   1      47.347  26.860  28.381  1.00  0.00    -0.354 N 
ATOM     43  C   UNL A   1      41.948  28.087  27.826  1.00  0.00     0.074 A 
ATOM     44  C   UNL A   1      41.524  26.832  27.253  1.00  0.00     0.031 C 
ATOM     45  C   UNL A   1      46.795  28.432  29.912  1.00  0.00     0.029 A 
ATOM     46  C   UNL A   1      47.807  28.083  28.936  1.00  0.00     0.049 A 
ATOM     47  H   UNL A   1      47.899  26.127  28.024  1.00  0.00     0.167 HD
ATOM     48  C   UNL A   1      41.332  29.052  28.561  1.00  0.00     0.037 A 
ATOM     49  C   UNL A   1      48.500  28.989  28.177  1.00  0.00     0.037 A 
ATOM     50  C   UNL A   1      42.308  29.977  29.137  1.00  0.00     0.049 A 
ATOM     51  C   UNL A   1      47.805  30.308  27.968  1.00  0.00     0.074 A 
ATOM     52  C   UNL A   1      42.908  30.085  30.382  1.00  0.00     0.029 A 
ATOM     53  N   UNL A   1      43.081  30.744  28.286  1.00  0.00    -0.354 N 
ATOM     54  N   UNL A   1      46.611  30.579  28.414  1.00  0.00    -0.248 NA
ATOM     55  C   UNL A   1      48.354  31.393  27.158  1.00  0.00     0.031 C 
ATOM     56  C   UNL A   1      44.013  30.977  30.273  1.00  0.00     0.029 A 
ATOM     57  C   UNL A   1      44.081  31.414  28.964  1.00  0.00     0.049 A 
ATOM     58  H   UNL A   1      42.937  30.806  27.313  1.00  0.00     0.167 HD
ATOM     59  C   UNL A   1      46.206  31.796  27.942  1.00  0.00     0.074 A 
ATOM     60  C   UNL A   1      47.332  32.265  27.153  1.00  0.00     0.031 C 
ATOM     61  C   UNL A   1      44.962  32.292  28.211  1.00  0.00     0.037 A 
BRANCH  48  62
ATOM     62  C   UNL A   1      39.900  28.930  29.017  1.00  0.00     0.064 A 
ATOM     63  C   UNL A   1      38.840  29.289  28.161  1.00  0.00     0.173 A 
ATOM     64  C   UNL A   1      39.506  28.520  30.307  1.00  0.00     0.173 A 
ATOM     65  F   UNL A   1      39.050  29.579  26.871  1.00  0.00    -0.203 F 
ATOM     66  C   UNL A   1      37.518  29.368  28.600  1.00  0.00     0.198 A 
ATOM     67  C   UNL A   1      38.193  28.658  30.765  1.00  0.00     0.198 A 
ATOM     68  F   UNL A   1      40.372  27.932  31.144  1.00  0.00    -0.203 F 
ATOM     69  F   UNL A   1      36.556  29.728  27.738  1.00  0.00    -0.200 F 
ATOM     70  C   UNL A   1      37.200  29.094  29.913  1.00  0.00     0.200 A 
ATOM     71  F   UNL A   1      37.899  28.364  32.040  1.00  0.00    -0.200 F 
ATOM     72  F   UNL A   1      35.939  29.221  30.346  1.00  0.00    -0.200 F 
ENDBRANCH  48  62
BRANCH  49  73
ATOM     73  C   UNL A   1      49.398  28.319  27.201  1.00  0.00     0.064 A 
ATOM     74  C   UNL A   1      50.621  27.884  27.738  1.00  0.00     0.173 A 
ATOM     75  C   UNL A   1      48.834  27.589  26.147  1.00  0.00     0.173 A 
ATOM     76  F   UNL A   1      51.211  28.589  28.717  1.00  0.00    -0.203 F 
ATOM     77  C   UNL A   1      51.087  26.612  27.454  1.00  0.00     0.198 A 
ATOM     78  C   UNL A   1      49.344  26.335  25.821  1.00  0.00     0.198 A 
ATOM     79  F   UNL A   1      47.696  28.002  25.570  1.00  0.00    -0.203 F 
ATOM     80  F   UNL A   1      52.063  26.092  28.212  1.00  0.00    -0.200 F 
ATOM     81  C   UNL A   1      50.433  25.826  26.519  1.00  0.00     0.200 A 
ATOM     82  F   UNL A   1      48.697  25.577  24.930  1.00  0.00    -0.200 F 
ATOM     83  F   UNL A   1      50.823  24.560  26.343  1.00  0.00    -0.200 F 
ENDBRANCH  49  73
BRANCH  61  84
ATOM     84  C   UNL A   1      44.445  33.631  27.746  1.00  0.00     0.064 A 
ATOM     85  C   UNL A   1      44.433  34.771  28.562  1.00  0.00     0.173 A 
ATOM     86  C   UNL A   1      43.850  33.795  26.471  1.00  0.00     0.173 A 
ATOM     87  F   UNL A   1      44.817  34.708  29.845  1.00  0.00    -0.203 F 
ATOM     88  C   UNL A   1      43.984  36.009  28.092  1.00  0.00     0.198 A 
ATOM     89  C   UNL A   1      43.355  35.015  26.024  1.00  0.00     0.198 A 
ATOM     90  F   UNL A   1      43.735  32.785  25.600  1.00  0.00    -0.203 F 
ATOM     91  F   UNL A   1      44.066  37.087  28.885  1.00  0.00    -0.200 F 
ATOM     92  C   UNL A   1      43.450  36.131  26.823  1.00  0.00     0.200 A 
ATOM     93  F   UNL A   1      42.794  35.096  24.809  1.00  0.00    -0.200 F 
ATOM     94  F   UNL A   1      43.018  37.317  26.375  1.00  0.00    -0.200 F 
ENDBRANCH  61  84
ENDBRANCH  35  36
ENDBRANCH  28  30
ENDBRANCH  27  28
ENDBRANCH  26  27
ENDBRANCH   1  26
TORSDOF 15
ENDMDL
MODEL 2
REMARK VINA RESULT:     -12.2      5.536     10.869
REMARK SMILES Cc1ccc([C@@H](C)Nc2ccc(N)cc2C(=O)OCCOC(=O)c2ccc(-c3c4nc(c(-c5c(F)c(F)c(F)c(F)c5F)c5ccc([nH]5)c(-c5c(F)c(F)c(F)c(F)c5F)c5nc(c(-c6c(F)c(F)c(F)c(F)c6F)c6ccc3[nH]6)C=C5)C=C4)cc2)cc1F
REMARK SMILES IDX 19 1 18 2 16 3 17 4 15 5 9 6 10 7 11 8 14 9 12 10 8 11 6 13
REMARK SMILES IDX 7 14 5 15 1 16 2 17 3 18 88 19 4 20 87 21 89 22 13 23 20 26
REMARK SMILES IDX 21 27 22 28 23 29 24 30 25 31 86 32 26 33 85 34 27 35 28 36
REMARK SMILES IDX 29 37 79 38 30 39 84 40 78 41 80 42 31 43 83 44 77 45 76 46
REMARK SMILES IDX 32 48 64 49 44 50 63 51 45 52 48 53 62 54 81 55 46 56 47 57
REMARK SMILES IDX 61 59 82 60 49 61 33 62 34 63 42 64 35 65 36 66 40 67 43 68
REMARK SMILES IDX 37 69 38 70 41 71 39 72 65 73 66 74 74 75 67 76 68 77 72 78
REMARK SMILES IDX 75 79 69 80 70 81 73 82 71 83 50 84 51 85 59 86 52 87 53 88
REMARK SMILES IDX 57 89 60 90 54 91 55 92 58 93 56 94
REMARK H PARENT 8 12 13 24 13 25 80 47 48 58
REMARK Flexibility Score: inf
ROOT
ATOM      1  C   UNL A   1      33.962  29.302  27.276  1.00  0.00     0.275 C 
ENDROOT
BRANCH   1   2
ATOM      2  O   UNL A   1      32.691  29.409  26.598  1.00  0.00    -0.458 OA
BRANCH   2   3
ATOM      3  C   UNL A   1      31.824  28.366  26.748  1.00  0.00     0.340 C 
ATOM      4  O   UNL A   1      31.527  27.836  27.795  1.00  0.00    -0.246 OA
BRANCH   3   5
ATOM      5  C   UNL A   1      31.180  28.007  25.458  1.00  0.00     0.085 A 
ATOM      6  C   UNL A   1      30.665  26.750  25.111  1.00  0.00     0.049 A 
ATOM      7  C   UNL A   1      30.027  26.683  23.844  1.00  0.00     0.029 A 
ATOM      8  C   UNL A   1      29.912  27.772  22.972  1.00  0.00     0.027 A 
ATOM      9  C   UNL A   1      31.049  29.111  24.567  1.00  0.00     0.043 A 
ATOM     10  C   UNL A   1      30.454  28.996  23.310  1.00  0.00     0.032 A 
BRANCH   6  11
ATOM     11  N   UNL A   1      30.591  25.580  25.835  1.00  0.00    -0.378 N 
ATOM     12  H   UNL A   1      30.046  25.692  26.648  1.00  0.00     0.161 HD
BRANCH  11  13
ATOM     13  C   UNL A   1      31.108  24.217  25.719  1.00  0.00     0.106 C 
ATOM     14  C   UNL A   1      30.629  23.256  26.804  1.00  0.00     0.036 C 
BRANCH  13  15
ATOM     15  C   UNL A   1      32.545  24.146  25.212  1.00  0.00    -0.023 A 
ATOM     16  C   UNL A   1      36.596  23.187  23.964  1.00  0.00     0.047 C 
ATOM     17  C   UNL A   1      35.212  23.553  24.406  1.00  0.00    -0.015 A 
ATOM     18  C   UNL A   1      34.944  24.000  25.702  1.00  0.00     0.007 A 
ATOM     19  C   UNL A   1      34.148  23.448  23.515  1.00  0.00     0.126 A 
ATOM     20  C   UNL A   1      33.627  24.281  26.101  1.00  0.00     0.006 A 
ATOM     21  C   UNL A   1      32.844  23.756  23.897  1.00  0.00     0.045 A 
ATOM     22  F   UNL A   1      34.362  22.970  22.281  1.00  0.00    -0.207 F 
ENDBRANCH  13  15
ENDBRANCH  11  13
ENDBRANCH   6  11
BRANCH  10  23
ATOM     23  N   UNL A   1      30.275  30.098  22.488  1.00  0.00    -0.399 N 
ATOM     24  H   UNL A   1      29.534  30.723  22.658  1.00  0.00     0.156 HD
ATOM     25  H   UNL A   1      30.888  30.255  21.735  1.00  0.00     0.156 HD
ENDBRANCH  10  23
ENDBRANCH   3   5
ENDBRANCH   2   3
ENDBRANCH   1   2
BRANCH   1  26
ATOM     26  C   UNL A   1      34.705  30.630  27.344  1.00  0.00     0.275 C 
BRANCH  26  27
ATOM     27  O   UNL A   1      34.621  31.209  28.653  1.00  0.00    -0.458 OA
BRANCH  27  28
ATOM     28  C   UNL A   1      34.481  32.549  28.600  1.00  0.00     0.338 C 
ATOM     29  O   UNL A   1      34.041  33.204  27.666  1.00  0.00    -0.246 OA
BRANCH  28  30
ATOM     30  C   UNL A   1      35.259  33.231  29.651  1.00  0.00     0.060 A 
ATOM     31  C   UNL A   1      36.335  33.913  29.054  1.00  0.00     0.016 A 
ATOM     32  C   UNL A   1      35.482  32.324  30.693  1.00  0.00     0.016 A 
ATOM     33  C   UNL A   1      37.581  33.314  29.100  1.00  0.00     0.010 A 
ATOM     34  C   UNL A   1      36.719  31.725  30.746  1.00  0.00     0.010 A 
ATOM     35  C   UNL A   1      37.737  32.173  29.890  1.00  0.00    -0.014 A 
BRANCH  35  36
ATOM     36  C   UNL A   1      39.035  31.593  30.132  1.00  0.00     0.031 A 
ATOM     37  C   UNL A   1      39.219  30.232  29.609  1.00  0.00     0.074 A 
ATOM     38  C   UNL A   1      40.053  32.285  30.680  1.00  0.00     0.049 A 
ATOM     39  N   UNL A   1      40.080  29.387  30.055  1.00  0.00    -0.248 NA
ATOM     40  C   UNL A   1      38.351  29.687  28.565  1.00  0.00     0.031 C 
ATOM     41  C   UNL A   1      41.467  31.956  30.575  1.00  0.00     0.029 A 
ATOM     42  N   UNL A   1      40.006  33.365  31.569  1.00  0.00    -0.354 N 
ATOM     43  C   UNL A   1      40.115  28.356  29.148  1.00  0.00     0.074 A 
ATOM     44  C   UNL A   1      38.925  28.505  28.345  1.00  0.00     0.031 C 
ATOM     45  C   UNL A   1      42.142  32.624  31.522  1.00  0.00     0.029 A 
ATOM     46  C   UNL A   1      41.163  33.254  32.383  1.00  0.00     0.049 A 
ATOM     47  H   UNL A   1      39.311  34.060  31.619  1.00  0.00     0.167 HD
ATOM     48  C   UNL A   1      41.251  27.617  29.033  1.00  0.00     0.037 A 
ATOM     49  C   UNL A   1      41.063  33.041  33.732  1.00  0.00     0.037 A 
ATOM     50  C   UNL A   1      42.270  28.071  29.980  1.00  0.00     0.049 A 
ATOM     51  C   UNL A   1      41.617  31.725  34.212  1.00  0.00     0.074 A 
ATOM     52  C   UNL A   1      43.373  28.905  29.875  1.00  0.00     0.029 A 
ATOM     53  N   UNL A   1      42.017  27.962  31.335  1.00  0.00    -0.354 N 
ATOM     54  N   UNL A   1      42.111  30.815  33.422  1.00  0.00    -0.248 NA
ATOM     55  C   UNL A   1      41.572  31.288  35.605  1.00  0.00     0.031 C 
ATOM     56  C   UNL A   1      43.811  29.240  31.187  1.00  0.00     0.029 A 
ATOM     57  C   UNL A   1      42.978  28.606  32.090  1.00  0.00     0.049 A 
ATOM     58  H   UNL A   1      41.246  27.483  31.716  1.00  0.00     0.167 HD
ATOM     59  C   UNL A   1      42.397  29.687  34.140  1.00  0.00     0.074 A 
ATOM     60  C   UNL A   1      42.036  30.031  35.505  1.00  0.00     0.031 C 
ATOM     61  C   UNL A   1      42.871  28.555  33.539  1.00  0.00     0.037 A 
BRANCH  48  62
ATOM     62  C   UNL A   1      41.526  26.736  27.841  1.00  0.00     0.064 A 
ATOM     63  C   UNL A   1      40.959  25.450  27.752  1.00  0.00     0.173 A 
ATOM     64  C   UNL A   1      42.388  27.078  26.780  1.00  0.00     0.173 A 
ATOM     65  F   UNL A   1      40.027  25.034  28.619  1.00  0.00    -0.203 F 
ATOM     66  C   UNL A   1      41.330  24.536  26.765  1.00  0.00     0.198 A 
ATOM     67  C   UNL A   1      42.807  26.144  25.828  1.00  0.00     0.198 A 
ATOM     68  F   UNL A   1      42.812  28.338  26.607  1.00  0.00    -0.203 F 
ATOM     69  F   UNL A   1      40.761  23.322  26.742  1.00  0.00    -0.200 F 
ATOM     70  C   UNL A   1      42.285  24.868  25.829  1.00  0.00     0.200 A 
ATOM     71  F   UNL A   1      43.720  26.493  24.910  1.00  0.00    -0.200 F 
ATOM     72  F   UNL A   1      42.679  23.971  24.914  1.00  0.00    -0.200 F 
ENDBRANCH  48  62
BRANCH  49  73
ATOM     73  C   UNL A   1      39.900  33.756  34.319  1.00  0.00     0.064 A 
ATOM     74  C   UNL A   1      38.836  32.921  34.701  1.00  0.00     0.173 A 
ATOM     75  C   UNL A   1      40.120  34.932  35.047  1.00  0.00     0.173 A 
ATOM     76  F   UNL A   1      38.569  31.811  33.995  1.00  0.00    -0.203 F 
ATOM     77  C   UNL A   1      38.232  33.092  35.936  1.00  0.00     0.198 A 
ATOM     78  C   UNL A   1      39.465  35.131  36.259  1.00  0.00     0.198 A 
ATOM     79  F   UNL A   1      41.090  35.783  34.681  1.00  0.00    -0.203 F 
ATOM     80  F   UNL A   1      37.460  32.112  36.423  1.00  0.00    -0.200 F 
ATOM     81  C   UNL A   1      38.568  34.178  36.727  1.00  0.00     0.200 A 
ATOM     82  F   UNL A   1      39.806  36.173  37.025  1.00  0.00    -0.200 F 
ATOM     83  F   UNL A   1      38.066  34.265  37.963  1.00  0.00    -0.200 F 
ENDBRANCH  49  73
BRANCH  61  84
ATOM     84  C   UNL A   1      43.229  27.279  34.259  1.00  0.00     0.064 A 
ATOM     85  C   UNL A   1      42.271  26.350  34.690  1.00  0.00     0.173 A 
ATOM     86  C   UNL A   1      44.564  26.983  34.626  1.00  0.00     0.173 A 
ATOM     87  F   UNL A   1      40.960  26.592  34.550  1.00  0.00    -0.203 F 
ATOM     88  C   UNL A   1      42.633  25.156  35.321  1.00  0.00     0.198 A 
ATOM     89  C   UNL A   1      44.918  25.820  35.302  1.00  0.00     0.198 A 
ATOM     90  F   UNL A   1      45.584  27.801  34.337  1.00  0.00    -0.203 F 
ATOM     91  F   UNL A   1      41.686  24.264  35.644  1.00  0.00    -0.200 F 
ATOM     92  C   UNL A   1      43.956  24.890  35.622  1.00  0.00     0.200 A 
ATOM     93  F   UNL A   1      46.201  25.609  35.628  1.00  0.00    -0.200 F 
ATOM     94  F   UNL A   1      44.301  23.747  36.228  1.00  0.00    -0.200 F 
ENDBRANCH  61  84
ENDBRANCH  35  36
ENDBRANCH  28  30
ENDBRANCH  27  28
ENDBRANCH  26  27
ENDBRANCH   1  26
TORSDOF 15
ENDMDL
MODEL 3
REMARK VINA RESULT:     -12.1      4.940     10.299
REMARK SMILES Cc1ccc([C@@H](C)Nc2ccc(N)cc2C(=O)OCCOC(=O)c2ccc(-c3c4nc(c(-c5c(F)c(F)c(F)c(F)c5F)c5ccc([nH]5)c(-c5c(F)c(F)c(F)c(F)c5F)c5nc(c(-c6c(F)c(F)c(F)c(F)c6F)c6ccc3[nH]6)C=C5)C=C4)cc2)cc1F
REMARK SMILES IDX 19 1 18 2 16 3 17 4 15 5 9 6 10 7 11 8 14 9 12 10 8 11 6 13
REMARK SMILES IDX 7 14 5 15 1 16 2 17 3 18 88 19 4 20 87 21 89 22 13 23 20 26
REMARK SMILES IDX 21 27 22 28 23 29 24 30 25 31 86 32 26 33 85 34 27 35 28 36
REMARK SMILES IDX 29 37 79 38 30 39 84 40 78 41 80 42 31 43 83 44 77 45 76 46
REMARK SMILES IDX 32 48 64 49 44 50 63 51 45 52 48 53 62 54 81 55 46 56 47 57
REMARK SMILES IDX 61 59 82 60 49 61 33 62 34 63 42 64 35 65 36 66 40 67 43 68
REMARK SMILES IDX 37 69 38 70 41 71 39 72 65 73 66 74 74 75 67 76 68 77 72 78
REMARK SMILES IDX 75 79 69 80 70 81 73 82 71 83 50 84 51 85 59 86 52 87 53 88
REMARK SMILES IDX 57 89 60 90 54 91 55 92 58 93 56 94
REMARK H PARENT 8 12 13 24 13 25 80 47 48 58
REMARK Flexibility Score: inf
ROOT
ATOM      1  C   UNL A   1      32.853  31.100  26.768  1.00  0.00     0.275 C 
ENDROOT
BRANCH   1   2
ATOM      2  O   UNL A   1      33.058  29.808  26.155  1.00  0.00    -0.458 OA
BRANCH   2   3
ATOM      3  C   UNL A   1      32.070  28.882  26.327  1.00  0.00     0.340 C 
ATOM      4  O   UNL A   1      31.530  28.609  27.375  1.00  0.00    -0.246 OA
BRANCH   3   5
ATOM      5  C   UNL A   1      31.639  28.303  25.028  1.00  0.00     0.085 A 
ATOM      6  C   UNL A   1      31.363  26.952  24.775  1.00  0.00     0.049 A 
ATOM      7  C   UNL A   1      30.891  26.663  23.468  1.00  0.00     0.029 A 
ATOM      8  C   UNL A   1      30.712  27.630  22.472  1.00  0.00     0.027 A 
ATOM      9  C   UNL A   1      31.445  29.282  24.011  1.00  0.00     0.043 A 
ATOM     10  C   UNL A   1      31.021  28.953  22.723  1.00  0.00     0.032 A 
BRANCH   6  11
ATOM     11  N   UNL A   1      31.385  25.859  25.615  1.00  0.00    -0.378 N 
ATOM     12  H   UNL A   1      31.385  26.131  26.562  1.00  0.00     0.161 HD
BRANCH  11  13
ATOM     13  C   UNL A   1      31.409  24.404  25.475  1.00  0.00     0.106 C 
ATOM     14  C   UNL A   1      30.584  23.647  26.512  1.00  0.00     0.036 C 
BRANCH  13  15
ATOM     15  C   UNL A   1      32.757  23.854  25.017  1.00  0.00    -0.023 A 
ATOM     16  C   UNL A   1      36.652  22.955  23.311  1.00  0.00     0.047 C 
ATOM     17  C   UNL A   1      35.300  23.227  23.897  1.00  0.00    -0.015 A 
ATOM     18  C   UNL A   1      34.123  22.831  23.256  1.00  0.00     0.007 A 
ATOM     19  C   UNL A   1      35.191  23.895  25.113  1.00  0.00     0.126 A 
ATOM     20  C   UNL A   1      32.871  23.151  23.804  1.00  0.00     0.006 A 
ATOM     21  C   UNL A   1      33.951  24.187  25.677  1.00  0.00     0.045 A 
ATOM     22  F   UNL A   1      36.298  24.337  25.727  1.00  0.00    -0.207 F 
ENDBRANCH  13  15
ENDBRANCH  11  13
ENDBRANCH   6  11
BRANCH  10  23
ATOM     23  N   UNL A   1      30.773  29.928  21.770  1.00  0.00    -0.399 N 
ATOM     24  H   UNL A   1      29.905  29.951  21.304  1.00  0.00     0.156 HD
ATOM     25  H   UNL A   1      31.462  30.596  21.557  1.00  0.00     0.156 HD
ENDBRANCH  10  23
ENDBRANCH   3   5
ENDBRANCH   2   3
ENDBRANCH   1   2
BRANCH   1  26
ATOM     26  C   UNL A   1      33.713  31.305  28.008  1.00  0.00     0.275 C 
BRANCH  26  27
ATOM     27  O   UNL A   1      35.009  31.815  27.667  1.00  0.00    -0.458 OA
BRANCH  27  28
ATOM     28  C   UNL A   1      35.965  31.347  28.494  1.00  0.00     0.338 C 
ATOM     29  O   UNL A   1      36.793  32.006  29.106  1.00  0.00    -0.246 OA
BRANCH  28  30
ATOM     30  C   UNL A   1      36.182  29.897  28.326  1.00  0.00     0.060 A 
ATOM     31  C   UNL A   1      36.456  29.328  29.584  1.00  0.00     0.016 A 
ATOM     32  C   UNL A   1      37.057  29.703  27.252  1.00  0.00     0.016 A 
ATOM     33  C   UNL A   1      37.778  29.069  29.898  1.00  0.00     0.010 A 
ATOM     34  C   UNL A   1      38.373  29.445  27.557  1.00  0.00     0.010 A 
ATOM     35  C   UNL A   1      38.735  29.209  28.892  1.00  0.00    -0.014 A 
BRANCH  35  36
ATOM     36  C   UNL A   1      40.103  28.791  29.086  1.00  0.00     0.031 A 
ATOM     37  C   UNL A   1      40.389  27.397  28.717  1.00  0.00     0.074 A 
ATOM     38  C   UNL A   1      41.081  29.642  29.452  1.00  0.00     0.049 A 
ATOM     39  N   UNL A   1      41.365  26.703  29.184  1.00  0.00    -0.248 NA
ATOM     40  C   UNL A   1      39.505  26.641  27.829  1.00  0.00     0.031 C 
ATOM     41  C   UNL A   1      42.510  29.438  29.262  1.00  0.00     0.029 A 
ATOM     42  N   UNL A   1      40.988  30.818  30.204  1.00  0.00    -0.354 N 
ATOM     43  C   UNL A   1      41.438  25.570  28.410  1.00  0.00     0.074 A 
ATOM     44  C   UNL A   1      40.181  25.500  27.704  1.00  0.00     0.031 C 
ATOM     45  C   UNL A   1      43.181  30.283  30.056  1.00  0.00     0.029 A 
ATOM     46  C   UNL A   1      42.210  30.925  30.918  1.00  0.00     0.049 A 
ATOM     47  H   UNL A   1      40.230  31.445  30.231  1.00  0.00     0.167 HD
ATOM     48  C   UNL A   1      42.634  24.934  28.285  1.00  0.00     0.037 A 
ATOM     49  C   UNL A   1      42.237  30.881  32.287  1.00  0.00     0.037 A 
ATOM     50  C   UNL A   1      43.669  25.602  29.074  1.00  0.00     0.049 A 
ATOM     51  C   UNL A   1      42.962  29.697  32.872  1.00  0.00     0.074 A 
ATOM     52  C   UNL A   1      44.667  26.516  28.770  1.00  0.00     0.029 A 
ATOM     53  N   UNL A   1      43.534  25.647  30.450  1.00  0.00    -0.354 N 
ATOM     54  N   UNL A   1      43.486  28.742  32.158  1.00  0.00    -0.248 NA
ATOM     55  C   UNL A   1      43.070  29.442  34.306  1.00  0.00     0.031 C 
ATOM     56  C   UNL A   1      45.167  27.058  29.988  1.00  0.00     0.029 A 
ATOM     57  C   UNL A   1      44.477  26.472  31.032  1.00  0.00     0.049 A 
ATOM     58  H   UNL A   1      42.849  25.150  30.954  1.00  0.00     0.167 HD
ATOM     59  C   UNL A   1      43.944  27.750  32.979  1.00  0.00     0.074 A 
ATOM     60  C   UNL A   1      43.654  28.233  34.318  1.00  0.00     0.031 C 
ATOM     61  C   UNL A   1      44.487  26.599  32.480  1.00  0.00     0.037 A 
BRANCH  48  62
ATOM     62  C   UNL A   1      42.909  23.936  27.189  1.00  0.00     0.064 A 
ATOM     63  C   UNL A   1      42.557  22.581  27.347  1.00  0.00     0.173 A 
ATOM     64  C   UNL A   1      43.568  24.239  25.981  1.00  0.00     0.173 A 
ATOM     65  F   UNL A   1      41.818  22.165  28.383  1.00  0.00    -0.203 F 
ATOM     66  C   UNL A   1      42.955  21.595  26.444  1.00  0.00     0.198 A 
ATOM     67  C   UNL A   1      44.021  23.246  25.108  1.00  0.00     0.198 A 
ATOM     68  F   UNL A   1      43.752  25.508  25.590  1.00  0.00    -0.203 F 
ATOM     69  F   UNL A   1      42.597  20.320  26.657  1.00  0.00    -0.200 F 
ATOM     70  C   UNL A   1      43.723  21.921  25.347  1.00  0.00     0.200 A 
ATOM     71  F   UNL A   1      44.747  23.586  24.033  1.00  0.00    -0.200 F 
ATOM     72  F   UNL A   1      44.149  20.967  24.509  1.00  0.00    -0.200 F 
ENDBRANCH  48  62
BRANCH  49  73
ATOM     73  C   UNL A   1      41.053  31.552  32.884  1.00  0.00     0.064 A 
ATOM     74  C   UNL A   1      41.066  32.953  32.783  1.00  0.00     0.173 A 
ATOM     75  C   UNL A   1      39.817  30.893  32.871  1.00  0.00     0.173 A 
ATOM     76  F   UNL A   1      42.231  33.619  32.841  1.00  0.00    -0.203 F 
ATOM     77  C   UNL A   1      39.930  33.627  32.367  1.00  0.00     0.198 A 
ATOM     78  C   UNL A   1      38.665  31.587  32.512  1.00  0.00     0.198 A 
ATOM     79  F   UNL A   1      39.759  29.561  33.020  1.00  0.00    -0.203 F 
ATOM     80  F   UNL A   1      40.039  34.900  31.964  1.00  0.00    -0.200 F 
ATOM     81  C   UNL A   1      38.738  32.940  32.203  1.00  0.00     0.200 A 
ATOM     82  F   UNL A   1      37.522  30.914  32.340  1.00  0.00    -0.200 F 
ATOM     83  F   UNL A   1      37.683  33.578  31.688  1.00  0.00    -0.200 F 
ENDBRANCH  49  73
BRANCH  61  84
ATOM     84  C   UNL A   1      45.032  25.467  33.315  1.00  0.00     0.064 A 
ATOM     85  C   UNL A   1      46.391  25.122  33.342  1.00  0.00     0.173 A 
ATOM     86  C   UNL A   1      44.178  24.617  34.060  1.00  0.00     0.173 A 
ATOM     87  F   UNL A   1      47.279  25.745  32.553  1.00  0.00    -0.203 F 
ATOM     88  C   UNL A   1      46.874  24.093  34.155  1.00  0.00     0.198 A 
ATOM     89  C   UNL A   1      44.655  23.559  34.826  1.00  0.00     0.198 A 
ATOM     90  F   UNL A   1      42.850  24.782  34.088  1.00  0.00    -0.203 F 
ATOM     91  F   UNL A   1      48.192  23.853  34.205  1.00  0.00    -0.200 F 
ATOM     92  C   UNL A   1      46.007  23.315  34.899  1.00  0.00     0.200 A 
ATOM     93  F   UNL A   1      43.789  22.787  35.499  1.00  0.00    -0.200 F 
ATOM     94  F   UNL A   1      46.471  22.328  35.676  1.00  0.00    -0.200 F 
ENDBRANCH  61  84
ENDBRANCH  35  36
ENDBRANCH  28  30
ENDBRANCH  27  28
ENDBRANCH  26  27
ENDBRANCH   1  26
TORSDOF 15
ENDMDL
