MODEL 1
REMARK VINA RESULT:     -11.9      0.000      0.000
REMARK SMILES O=C(OCCOC(=O)c1cn(C2CN(C(=O)Nc3ccsc3)C2)nn1)c1ccc(-c2c3nc(c(-c4c(F)c(F)c(F)c(F)c4F)c4ccc([nH]4)c(-c4c(F)c(F)c(F)c(F)c4F)c4nc(c(-c5c(F)c(F)c(F)c(F)c5F)c5ccc2[nH]5)C=C4)C=C3)cc1
REMARK SMILES IDX 4 1 3 2 2 3 1 4 26 5 27 6 88 7 28 8 87 9 29 10 30 11 31 12
REMARK SMILES IDX 81 13 32 14 86 15 80 16 82 17 33 18 85 19 79 20 78 21 34 23
REMARK SMILES IDX 66 24 46 25 65 26 47 27 50 28 64 29 83 30 48 31 49 32 63 34
REMARK SMILES IDX 84 35 51 36 35 37 36 38 44 39 37 40 38 41 42 42 45 43 39 44
REMARK SMILES IDX 40 45 43 46 41 47 67 48 68 49 76 50 69 51 70 52 74 53 77 54
REMARK SMILES IDX 71 55 72 56 75 57 73 58 52 59 53 60 61 61 54 62 55 63 59 64
REMARK SMILES IDX 62 65 56 66 57 67 60 68 58 69 5 70 6 71 7 72 8 73 9 74 10 75
REMARK SMILES IDX 25 76 11 77 24 78 12 79 13 80 23 81 14 82 15 83 16 84 17 85
REMARK SMILES IDX 18 87 19 88 22 89 20 90 21 91
REMARK H PARENT 82 22 50 33 17 86
REMARK Flexibility Score: inf
ROOT
ATOM      1  C   UNL A   1      42.058  19.572  27.308  1.00  0.00     0.275 C 
ENDROOT
BRANCH   1   2
ATOM      2  O   UNL A   1      40.779  20.177  27.604  1.00  0.00    -0.458 OA
BRANCH   2   3
ATOM      3  C   UNL A   1      40.246  21.061  26.728  1.00  0.00     0.338 C 
ATOM      4  O   UNL A   1      39.574  20.769  25.756  1.00  0.00    -0.246 OA
BRANCH   3   5
ATOM      5  C   UNL A   1      40.506  22.443  27.187  1.00  0.00     0.060 A 
ATOM      6  C   UNL A   1      41.636  22.736  27.961  1.00  0.00     0.016 A 
ATOM      7  C   UNL A   1      39.622  23.463  26.816  1.00  0.00     0.016 A 
ATOM      8  C   UNL A   1      41.850  24.026  28.415  1.00  0.00     0.010 A 
ATOM      9  C   UNL A   1      39.837  24.761  27.274  1.00  0.00     0.010 A 
ATOM     10  C   UNL A   1      40.939  25.033  28.093  1.00  0.00    -0.014 A 
BRANCH  10  11
ATOM     11  C   UNL A   1      41.242  26.378  28.576  1.00  0.00     0.031 A 
ATOM     12  C   UNL A   1      42.516  26.988  28.097  1.00  0.00     0.074 A 
ATOM     13  C   UNL A   1      40.383  27.101  29.319  1.00  0.00     0.049 A 
ATOM     14  N   UNL A   1      43.460  27.533  28.799  1.00  0.00    -0.248 NA
ATOM     15  C   UNL A   1      42.781  26.968  26.651  1.00  0.00     0.031 C 
ATOM     16  C   UNL A   1      38.992  26.772  29.634  1.00  0.00     0.029 A 
ATOM     17  N   UNL A   1      40.544  28.350  29.854  1.00  0.00    -0.354 N 
ATOM     18  C   UNL A   1      44.358  28.077  27.882  1.00  0.00     0.074 A 
ATOM     19  C   UNL A   1      43.941  27.623  26.581  1.00  0.00     0.031 C 
ATOM     20  C   UNL A   1      38.377  27.876  30.109  1.00  0.00     0.029 A 
ATOM     21  C   UNL A   1      39.352  28.948  30.234  1.00  0.00     0.049 A 
ATOM     22  H   UNL A   1      41.422  28.783  29.959  1.00  0.00     0.167 HD
ATOM     23  C   UNL A   1      45.257  29.035  28.242  1.00  0.00     0.037 A 
ATOM     24  C   UNL A   1      39.155  30.249  30.552  1.00  0.00     0.037 A 
ATOM     25  C   UNL A   1      45.544  29.001  29.652  1.00  0.00     0.049 A 
ATOM     26  C   UNL A   1      40.462  30.850  30.906  1.00  0.00     0.074 A 
ATOM     27  C   UNL A   1      46.026  28.051  30.533  1.00  0.00     0.029 A 
ATOM     28  N   UNL A   1      45.093  30.025  30.444  1.00  0.00    -0.354 N 
ATOM     29  N   UNL A   1      41.121  30.603  32.002  1.00  0.00    -0.248 NA
ATOM     30  C   UNL A   1      41.218  31.527  29.863  1.00  0.00     0.031 C 
ATOM     31  C   UNL A   1      45.403  28.342  31.782  1.00  0.00     0.029 A 
ATOM     32  C   UNL A   1      44.595  29.461  31.586  1.00  0.00     0.049 A 
ATOM     33  H   UNL A   1      45.120  30.986  30.231  1.00  0.00     0.167 HD
ATOM     34  C   UNL A   1      42.453  30.694  31.634  1.00  0.00     0.074 A 
ATOM     35  C   UNL A   1      42.449  31.408  30.364  1.00  0.00     0.031 C 
ATOM     36  C   UNL A   1      43.401  29.928  32.246  1.00  0.00     0.037 A 
BRANCH  23  37
ATOM     37  C   UNL A   1      45.591  30.236  27.382  1.00  0.00     0.064 A 
ATOM     38  C   UNL A   1      46.937  30.648  27.268  1.00  0.00     0.173 A 
ATOM     39  C   UNL A   1      44.631  31.180  26.956  1.00  0.00     0.173 A 
ATOM     40  F   UNL A   1      47.935  29.837  27.648  1.00  0.00    -0.203 F 
ATOM     41  C   UNL A   1      47.283  31.944  26.871  1.00  0.00     0.198 A 
ATOM     42  C   UNL A   1      44.985  32.453  26.508  1.00  0.00     0.198 A 
ATOM     43  F   UNL A   1      43.317  30.955  27.057  1.00  0.00    -0.203 F 
ATOM     44  F   UNL A   1      48.563  32.334  26.926  1.00  0.00    -0.200 F 
ATOM     45  C   UNL A   1      46.306  32.849  26.505  1.00  0.00     0.200 A 
ATOM     46  F   UNL A   1      44.022  33.320  26.165  1.00  0.00    -0.200 F 
ATOM     47  F   UNL A   1      46.628  34.112  26.199  1.00  0.00    -0.200 F 
ENDBRANCH  23  37
BRANCH  24  48
ATOM     48  C   UNL A   1      37.935  31.067  30.369  1.00  0.00     0.064 A 
ATOM     49  C   UNL A   1      37.367  31.252  29.098  1.00  0.00     0.173 A 
ATOM     50  C   UNL A   1      37.156  31.483  31.467  1.00  0.00     0.173 A 
ATOM     51  F   UNL A   1      38.016  30.836  28.000  1.00  0.00    -0.203 F 
ATOM     52  C   UNL A   1      36.094  31.806  28.938  1.00  0.00     0.198 A 
ATOM     53  C   UNL A   1      35.894  32.053  31.305  1.00  0.00     0.198 A 
ATOM     54  F   UNL A   1      37.562  31.262  32.725  1.00  0.00    -0.203 F 
ATOM     55  F   UNL A   1      35.560  31.908  27.711  1.00  0.00    -0.200 F 
ATOM     56  C   UNL A   1      35.358  32.203  30.041  1.00  0.00     0.200 A 
ATOM     57  F   UNL A   1      35.179  32.403  32.384  1.00  0.00    -0.200 F 
ATOM     58  F   UNL A   1      34.118  32.689  29.890  1.00  0.00    -0.200 F 
ENDBRANCH  24  48
BRANCH  36  59
ATOM     59  C   UNL A   1      43.050  29.298  33.560  1.00  0.00     0.064 A 
ATOM     60  C   UNL A   1      43.249  29.915  34.805  1.00  0.00     0.173 A 
ATOM     61  C   UNL A   1      42.389  28.062  33.547  1.00  0.00     0.173 A 
ATOM     62  F   UNL A   1      43.769  31.147  34.891  1.00  0.00    -0.203 F 
ATOM     63  C   UNL A   1      42.866  29.286  35.988  1.00  0.00     0.198 A 
ATOM     64  C   UNL A   1      41.970  27.456  34.726  1.00  0.00     0.198 A 
ATOM     65  F   UNL A   1      42.115  27.456  32.380  1.00  0.00    -0.203 F 
ATOM     66  F   UNL A   1      43.093  29.881  37.169  1.00  0.00    -0.200 F 
ATOM     67  C   UNL A   1      42.223  28.060  35.947  1.00  0.00     0.200 A 
ATOM     68  F   UNL A   1      41.301  26.294  34.680  1.00  0.00    -0.200 F 
ATOM     69  F   UNL A   1      41.823  27.471  37.083  1.00  0.00    -0.200 F 
ENDBRANCH  36  59
ENDBRANCH  10  11
ENDBRANCH   3   5
ENDBRANCH   2   3
ENDBRANCH   1   2
BRANCH   1  70
ATOM     70  C   UNL A   1      42.126  18.613  26.124  1.00  0.00     0.275 C 
BRANCH  70  71
ATOM     71  O   UNL A   1      42.811  19.271  25.049  1.00  0.00    -0.457 OA
BRANCH  71  72
ATOM     72  C   UNL A   1      44.170  19.132  25.050  1.00  0.00     0.360 C 
ATOM     73  O   UNL A   1      44.774  18.078  25.093  1.00  0.00    -0.244 OA
BRANCH  72  74
ATOM     74  C   UNL A   1      44.808  20.428  25.069  1.00  0.00     0.190 A 
ATOM     75  C   UNL A   1      44.200  21.648  25.274  1.00  0.00     0.147 A 
ATOM     76  N   UNL A   1      46.153  20.620  24.878  1.00  0.00    -0.123 NA
ATOM     77  N   UNL A   1      45.244  22.526  25.304  1.00  0.00    -0.245 N 
ATOM     78  N   UNL A   1      46.403  21.917  24.995  1.00  0.00    -0.066 NA
BRANCH  77  79
ATOM     79  C   UNL A   1      45.245  23.854  25.825  1.00  0.00     0.148 C 
ATOM     80  C   UNL A   1      45.987  24.117  27.142  1.00  0.00     0.150 C 
ATOM     81  C   UNL A   1      46.373  24.672  25.154  1.00  0.00     0.150 C 
ATOM     82  N   UNL A   1      46.564  25.276  26.454  1.00  0.00    -0.320 N 
ATOM     83  C   UNL A   1      47.409  26.194  26.985  1.00  0.00     0.322 C 
ATOM     84  O   UNL A   1      47.591  26.246  28.204  1.00  0.00    -0.248 OA
ATOM     85  N   UNL A   1      48.183  26.976  26.186  1.00  0.00    -0.307 N 
ATOM     86  H   UNL A   1      48.981  27.342  26.633  1.00  0.00     0.171 HD
BRANCH  85  87
ATOM     87  C   UNL A   1      48.056  27.351  24.861  1.00  0.00     0.053 A 
ATOM     88  C   UNL A   1      47.007  28.096  24.251  1.00  0.00     0.038 A 
ATOM     89  C   UNL A   1      49.059  27.086  23.950  1.00  0.00     0.091 A 
ATOM     90  C   UNL A   1      47.155  28.203  22.885  1.00  0.00     0.067 A 
ATOM     91  S   UNL A   1      48.632  27.529  22.353  1.00  0.00    -0.150 S 
ENDBRANCH  85  87
ENDBRANCH  77  79
ENDBRANCH  72  74
ENDBRANCH  71  72
ENDBRANCH  70  71
ENDBRANCH   1  70
TORSDOF 13
ENDMDL
MODEL 2
REMARK VINA RESULT:     -11.7      3.896      6.513
REMARK SMILES O=C(OCCOC(=O)c1cn(C2CN(C(=O)Nc3ccsc3)C2)nn1)c1ccc(-c2c3nc(c(-c4c(F)c(F)c(F)c(F)c4F)c4ccc([nH]4)c(-c4c(F)c(F)c(F)c(F)c4F)c4nc(c(-c5c(F)c(F)c(F)c(F)c5F)c5ccc2[nH]5)C=C4)C=C3)cc1
REMARK SMILES IDX 4 1 3 2 2 3 1 4 26 5 27 6 88 7 28 8 87 9 29 10 30 11 31 12
REMARK SMILES IDX 81 13 32 14 86 15 80 16 82 17 33 18 85 19 79 20 78 21 34 23
REMARK SMILES IDX 66 24 46 25 65 26 47 27 50 28 64 29 83 30 48 31 49 32 63 34
REMARK SMILES IDX 84 35 51 36 35 37 36 38 44 39 37 40 38 41 42 42 45 43 39 44
REMARK SMILES IDX 40 45 43 46 41 47 67 48 68 49 76 50 69 51 70 52 74 53 77 54
REMARK SMILES IDX 71 55 72 56 75 57 73 58 52 59 53 60 61 61 54 62 55 63 59 64
REMARK SMILES IDX 62 65 56 66 57 67 60 68 58 69 5 70 6 71 7 72 8 73 9 74 10 75
REMARK SMILES IDX 25 76 11 77 24 78 12 79 13 80 23 81 14 82 15 83 16 84 17 85
REMARK SMILES IDX 18 87 19 88 22 89 20 90 21 91
REMARK H PARENT 82 22 50 33 17 86
REMARK Flexibility Score: inf
ROOT
ATOM      1  C   UNL A   1      43.005  19.087  25.763  1.00  0.00     0.275 C 
ENDROOT
BRANCH   1   2
ATOM      2  O   UNL A   1      43.391  19.984  24.699  1.00  0.00    -0.458 OA
BRANCH   2   3
ATOM      3  C   UNL A   1      44.558  20.662  24.793  1.00  0.00     0.338 C 
ATOM      4  O   UNL A   1      45.628  20.286  24.349  1.00  0.00    -0.246 OA
BRANCH   3   5
ATOM      5  C   UNL A   1      44.326  21.981  25.421  1.00  0.00     0.060 A 
ATOM      6  C   UNL A   1      45.114  22.406  26.498  1.00  0.00     0.016 A 
ATOM      7  C   UNL A   1      43.324  22.813  24.909  1.00  0.00     0.016 A 
ATOM      8  C   UNL A   1      44.864  23.626  27.101  1.00  0.00     0.010 A 
ATOM      9  C   UNL A   1      43.071  24.041  25.517  1.00  0.00     0.010 A 
ATOM     10  C   UNL A   1      43.828  24.433  26.628  1.00  0.00    -0.014 A 
BRANCH  10  11
ATOM     11  C   UNL A   1      43.640  25.723  27.288  1.00  0.00     0.031 A 
ATOM     12  C   UNL A   1      44.640  26.784  26.977  1.00  0.00     0.074 A 
ATOM     13  C   UNL A   1      42.565  26.007  28.048  1.00  0.00     0.049 A 
ATOM     14  N   UNL A   1      45.321  27.514  27.805  1.00  0.00    -0.248 NA
ATOM     15  C   UNL A   1      44.934  27.052  25.562  1.00  0.00     0.031 C 
ATOM     16  C   UNL A   1      41.363  25.191  28.222  1.00  0.00     0.029 A 
ATOM     17  N   UNL A   1      42.275  27.152  28.738  1.00  0.00    -0.354 N 
ATOM     18  C   UNL A   1      46.003  28.448  27.025  1.00  0.00     0.074 A 
ATOM     19  C   UNL A   1      45.801  28.061  25.653  1.00  0.00     0.031 C 
ATOM     20  C   UNL A   1      40.395  25.948  28.779  1.00  0.00     0.029 A 
ATOM     21  C   UNL A   1      40.941  27.258  29.101  1.00  0.00     0.049 A 
ATOM     22  H   UNL A   1      42.948  27.836  28.956  1.00  0.00     0.167 HD
ATOM     23  C   UNL A   1      46.510  29.593  27.560  1.00  0.00     0.037 A 
ATOM     24  C   UNL A   1      40.301  28.360  29.557  1.00  0.00     0.037 A 
ATOM     25  C   UNL A   1      46.753  29.466  28.972  1.00  0.00     0.049 A 
ATOM     26  C   UNL A   1      41.314  29.311  30.071  1.00  0.00     0.074 A 
ATOM     27  C   UNL A   1      47.508  28.622  29.766  1.00  0.00     0.029 A 
ATOM     28  N   UNL A   1      45.958  30.161  29.846  1.00  0.00    -0.354 N 
ATOM     29  N   UNL A   1      41.989  29.154  31.174  1.00  0.00    -0.248 NA
ATOM     30  C   UNL A   1      41.820  30.338  29.173  1.00  0.00     0.031 C 
ATOM     31  C   UNL A   1      46.790  28.514  30.994  1.00  0.00     0.029 A 
ATOM     32  C   UNL A   1      45.653  29.312  30.875  1.00  0.00     0.049 A 
ATOM     33  H   UNL A   1      45.661  31.094  29.752  1.00  0.00     0.167 HD
ATOM     34  C   UNL A   1      43.218  29.736  30.916  1.00  0.00     0.074 A 
ATOM     35  C   UNL A   1      43.003  30.573  29.744  1.00  0.00     0.031 C 
ATOM     36  C   UNL A   1      44.355  29.257  31.499  1.00  0.00     0.037 A 
BRANCH  23  37
ATOM     37  C   UNL A   1      46.435  30.942  26.875  1.00  0.00     0.064 A 
ATOM     38  C   UNL A   1      47.586  31.758  26.836  1.00  0.00     0.173 A 
ATOM     39  C   UNL A   1      45.220  31.593  26.567  1.00  0.00     0.173 A 
ATOM     40  F   UNL A   1      48.795  31.251  27.116  1.00  0.00    -0.203 F 
ATOM     41  C   UNL A   1      47.508  33.138  26.623  1.00  0.00     0.198 A 
ATOM     42  C   UNL A   1      45.155  32.960  26.301  1.00  0.00     0.198 A 
ATOM     43  F   UNL A   1      44.042  30.964  26.619  1.00  0.00    -0.203 F 
ATOM     44  F   UNL A   1      48.607  33.892  26.748  1.00  0.00    -0.200 F 
ATOM     45  C   UNL A   1      46.290  33.740  26.369  1.00  0.00     0.200 A 
ATOM     46  F   UNL A   1      43.963  33.528  26.065  1.00  0.00    -0.200 F 
ATOM     47  F   UNL A   1      46.201  35.070  26.242  1.00  0.00    -0.200 F 
ENDBRANCH  23  37
BRANCH  24  48
ATOM     48  C   UNL A   1      38.880  28.738  29.385  1.00  0.00     0.064 A 
ATOM     49  C   UNL A   1      38.038  28.922  30.493  1.00  0.00     0.173 A 
ATOM     50  C   UNL A   1      38.378  29.169  28.141  1.00  0.00     0.173 A 
ATOM     51  F   UNL A   1      38.456  28.589  31.724  1.00  0.00    -0.203 F 
ATOM     52  C   UNL A   1      36.777  29.511  30.366  1.00  0.00     0.198 A 
ATOM     53  C   UNL A   1      37.113  29.740  28.012  1.00  0.00     0.198 A 
ATOM     54  F   UNL A   1      39.140  29.130  27.038  1.00  0.00    -0.203 F 
ATOM     55  F   UNL A   1      36.027  29.727  31.457  1.00  0.00    -0.200 F 
ATOM     56  C   UNL A   1      36.317  29.923  29.126  1.00  0.00     0.200 A 
ATOM     57  F   UNL A   1      36.695  30.164  26.811  1.00  0.00    -0.200 F 
ATOM     58  F   UNL A   1      35.130  30.533  29.012  1.00  0.00    -0.200 F 
ENDBRANCH  24  48
BRANCH  36  59
ATOM     59  C   UNL A   1      44.205  28.372  32.700  1.00  0.00     0.064 A 
ATOM     60  C   UNL A   1      43.973  26.989  32.633  1.00  0.00     0.173 A 
ATOM     61  C   UNL A   1      44.410  28.935  33.968  1.00  0.00     0.173 A 
ATOM     62  F   UNL A   1      43.883  26.359  31.454  1.00  0.00    -0.203 F 
ATOM     63  C   UNL A   1      43.881  26.219  33.791  1.00  0.00     0.198 A 
ATOM     64  C   UNL A   1      44.358  28.157  35.119  1.00  0.00     0.198 A 
ATOM     65  F   UNL A   1      44.698  30.242  34.087  1.00  0.00    -0.203 F 
ATOM     66  F   UNL A   1      43.629  24.905  33.705  1.00  0.00    -0.200 F 
ATOM     67  C   UNL A   1      44.078  26.803  35.032  1.00  0.00     0.200 A 
ATOM     68  F   UNL A   1      44.601  28.715  36.314  1.00  0.00    -0.200 F 
ATOM     69  F   UNL A   1      44.022  26.056  36.143  1.00  0.00    -0.200 F 
ENDBRANCH  36  59
ENDBRANCH  10  11
ENDBRANCH   3   5
ENDBRANCH   2   3
ENDBRANCH   1   2
BRANCH   1  70
ATOM     70  C   UNL A   1      42.053  19.625  26.828  1.00  0.00     0.275 C 
BRANCH  70  71
ATOM     71  O   UNL A   1      40.964  20.286  26.168  1.00  0.00    -0.457 OA
BRANCH  71  72
ATOM     72  C   UNL A   1      40.455  21.369  26.824  1.00  0.00     0.360 C 
ATOM     73  O   UNL A   1      40.911  21.863  27.838  1.00  0.00    -0.244 OA
BRANCH  72  74
ATOM     74  C   UNL A   1      39.236  21.816  26.188  1.00  0.00     0.190 A 
ATOM     75  C   UNL A   1      38.468  21.113  25.287  1.00  0.00     0.147 A 
ATOM     76  N   UNL A   1      38.666  23.044  26.408  1.00  0.00    -0.123 NA
ATOM     77  N   UNL A   1      37.390  21.924  25.081  1.00  0.00    -0.245 N 
ATOM     78  N   UNL A   1      37.548  23.110  25.699  1.00  0.00    -0.066 NA
BRANCH  77  79
ATOM     79  C   UNL A   1      36.126  21.564  24.526  1.00  0.00     0.148 C 
ATOM     80  C   UNL A   1      35.482  20.248  24.980  1.00  0.00     0.150 C 
ATOM     81  C   UNL A   1      34.995  22.262  25.318  1.00  0.00     0.150 C 
ATOM     82  N   UNL A   1      34.255  21.035  25.136  1.00  0.00    -0.320 N 
ATOM     83  C   UNL A   1      33.037  20.568  25.512  1.00  0.00     0.322 C 
ATOM     84  O   UNL A   1      32.813  19.355  25.540  1.00  0.00    -0.248 OA
ATOM     85  N   UNL A   1      32.089  21.408  26.006  1.00  0.00    -0.307 N 
ATOM     86  H   UNL A   1      31.405  20.963  26.556  1.00  0.00     0.171 HD
BRANCH  85  87
ATOM     87  C   UNL A   1      31.910  22.774  25.877  1.00  0.00     0.053 A 
ATOM     88  C   UNL A   1      32.123  23.788  26.855  1.00  0.00     0.038 A 
ATOM     89  C   UNL A   1      31.559  23.332  24.664  1.00  0.00     0.091 A 
ATOM     90  C   UNL A   1      31.749  25.039  26.413  1.00  0.00     0.067 A 
ATOM     91  S   UNL A   1      31.275  25.016  24.772  1.00  0.00    -0.150 S 
ENDBRANCH  85  87
ENDBRANCH  77  79
ENDBRANCH  72  74
ENDBRANCH  71  72
ENDBRANCH  70  71
ENDBRANCH   1  70
TORSDOF 13
ENDMDL
MODEL 3
REMARK VINA RESULT:     -11.6      4.838     11.317
REMARK SMILES O=C(OCCOC(=O)c1cn(C2CN(C(=O)Nc3ccsc3)C2)nn1)c1ccc(-c2c3nc(c(-c4c(F)c(F)c(F)c(F)c4F)c4ccc([nH]4)c(-c4c(F)c(F)c(F)c(F)c4F)c4nc(c(-c5c(F)c(F)c(F)c(F)c5F)c5ccc2[nH]5)C=C4)C=C3)cc1
REMARK SMILES IDX 4 1 3 2 2 3 1 4 26 5 27 6 88 7 28 8 87 9 29 10 30 11 31 12
REMARK SMILES IDX 81 13 32 14 86 15 80 16 82 17 33 18 85 19 79 20 78 21 34 23
REMARK SMILES IDX 66 24 46 25 65 26 47 27 50 28 64 29 83 30 48 31 49 32 63 34
REMARK SMILES IDX 84 35 51 36 35 37 36 38 44 39 37 40 38 41 42 42 45 43 39 44
REMARK SMILES IDX 40 45 43 46 41 47 67 48 68 49 76 50 69 51 70 52 74 53 77 54
REMARK SMILES IDX 71 55 72 56 75 57 73 58 52 59 53 60 61 61 54 62 55 63 59 64
REMARK SMILES IDX 62 65 56 66 57 67 60 68 58 69 5 70 6 71 7 72 8 73 9 74 10 75
REMARK SMILES IDX 25 76 11 77 24 78 12 79 13 80 23 81 14 82 15 83 16 84 17 85
REMARK SMILES IDX 18 87 19 88 22 89 20 90 21 91
REMARK H PARENT 82 22 50 33 17 86
REMARK Flexibility Score: inf
ROOT
ATOM      1  C   UNL A   1      34.491  33.882  28.176  1.00  0.00     0.275 C 
ENDROOT
BRANCH   1   2
ATOM      2  O   UNL A   1      34.646  32.613  28.851  1.00  0.00    -0.458 OA
BRANCH   2   3
ATOM      3  C   UNL A   1      34.777  31.485  28.117  1.00  0.00     0.338 C 
ATOM      4  O   UNL A   1      33.987  31.096  27.275  1.00  0.00    -0.246 OA
BRANCH   3   5
ATOM      5  C   UNL A   1      36.080  30.844  28.407  1.00  0.00     0.060 A 
ATOM      6  C   UNL A   1      37.155  31.603  28.886  1.00  0.00     0.016 A 
ATOM      7  C   UNL A   1      36.217  29.464  28.221  1.00  0.00     0.016 A 
ATOM      8  C   UNL A   1      38.379  31.001  29.119  1.00  0.00     0.010 A 
ATOM      9  C   UNL A   1      37.450  28.858  28.455  1.00  0.00     0.010 A 
ATOM     10  C   UNL A   1      38.534  29.634  28.881  1.00  0.00    -0.014 A 
BRANCH  10  11
ATOM     11  C   UNL A   1      39.842  29.055  29.180  1.00  0.00     0.031 A 
ATOM     12  C   UNL A   1      40.222  28.972  30.619  1.00  0.00     0.074 A 
ATOM     13  C   UNL A   1      40.635  28.509  28.237  1.00  0.00     0.049 A 
ATOM     14  N   UNL A   1      41.313  29.382  31.188  1.00  0.00    -0.248 NA
ATOM     15  C   UNL A   1      39.252  28.373  31.548  1.00  0.00     0.031 C 
ATOM     16  C   UNL A   1      40.296  28.252  26.837  1.00  0.00     0.029 A 
ATOM     17  N   UNL A   1      41.880  27.960  28.370  1.00  0.00    -0.354 N 
ATOM     18  C   UNL A   1      41.247  28.946  32.510  1.00  0.00     0.074 A 
ATOM     19  C   UNL A   1      39.923  28.412  32.700  1.00  0.00     0.031 C 
ATOM     20  C   UNL A   1      41.211  27.410  26.312  1.00  0.00     0.029 A 
ATOM     21  C   UNL A   1      42.251  27.162  27.299  1.00  0.00     0.049 A 
ATOM     22  H   UNL A   1      42.458  28.115  29.152  1.00  0.00     0.167 HD
ATOM     23  C   UNL A   1      42.358  28.863  33.294  1.00  0.00     0.037 A 
ATOM     24  C   UNL A   1      43.289  26.295  27.245  1.00  0.00     0.037 A 
ATOM     25  C   UNL A   1      43.403  29.742  32.839  1.00  0.00     0.049 A 
ATOM     26  C   UNL A   1      44.260  26.658  28.303  1.00  0.00     0.074 A 
ATOM     27  C   UNL A   1      43.515  31.102  32.619  1.00  0.00     0.029 A 
ATOM     28  N   UNL A   1      44.530  29.196  32.281  1.00  0.00    -0.354 N 
ATOM     29  N   UNL A   1      45.034  27.706  28.274  1.00  0.00    -0.248 NA
ATOM     30  C   UNL A   1      44.158  25.995  29.594  1.00  0.00     0.031 C 
ATOM     31  C   UNL A   1      44.438  31.237  31.540  1.00  0.00     0.029 A 
ATOM     32  C   UNL A   1      44.841  29.952  31.183  1.00  0.00     0.049 A 
ATOM     33  H   UNL A   1      45.023  28.409  32.607  1.00  0.00     0.167 HD
ATOM     34  C   UNL A   1      45.163  28.079  29.601  1.00  0.00     0.074 A 
ATOM     35  C   UNL A   1      44.738  26.916  30.366  1.00  0.00     0.031 C 
ATOM     36  C   UNL A   1      45.322  29.390  29.945  1.00  0.00     0.037 A 
BRANCH  23  37
ATOM     37  C   UNL A   1      42.629  27.717  34.246  1.00  0.00     0.064 A 
ATOM     38  C   UNL A   1      43.121  26.498  33.733  1.00  0.00     0.173 A 
ATOM     39  C   UNL A   1      42.112  27.657  35.559  1.00  0.00     0.173 A 
ATOM     40  F   UNL A   1      43.631  26.433  32.495  1.00  0.00    -0.203 F 
ATOM     41  C   UNL A   1      42.996  25.295  34.435  1.00  0.00     0.198 A 
ATOM     42  C   UNL A   1      42.039  26.463  36.277  1.00  0.00     0.198 A 
ATOM     43  F   UNL A   1      41.558  28.717  36.156  1.00  0.00    -0.203 F 
ATOM     44  F   UNL A   1      43.338  24.143  33.844  1.00  0.00    -0.200 F 
ATOM     45  C   UNL A   1      42.442  25.277  35.701  1.00  0.00     0.200 A 
ATOM     46  F   UNL A   1      41.490  26.464  37.500  1.00  0.00    -0.200 F 
ATOM     47  F   UNL A   1      42.249  24.118  36.343  1.00  0.00    -0.200 F 
ENDBRANCH  23  37
BRANCH  24  48
ATOM     48  C   UNL A   1      43.401  25.038  26.470  1.00  0.00     0.064 A 
ATOM     49  C   UNL A   1      44.322  24.911  25.419  1.00  0.00     0.173 A 
ATOM     50  C   UNL A   1      42.780  23.850  26.903  1.00  0.00     0.173 A 
ATOM     51  F   UNL A   1      44.998  25.983  24.978  1.00  0.00    -0.203 F 
ATOM     52  C   UNL A   1      44.612  23.671  24.844  1.00  0.00     0.198 A 
ATOM     53  C   UNL A   1      43.057  22.616  26.318  1.00  0.00     0.198 A 
ATOM     54  F   UNL A   1      41.960  23.846  27.964  1.00  0.00    -0.203 F 
ATOM     55  F   UNL A   1      45.544  23.581  23.884  1.00  0.00    -0.200 F 
ATOM     56  C   UNL A   1      43.982  22.523  25.297  1.00  0.00     0.200 A 
ATOM     57  F   UNL A   1      42.463  21.509  26.788  1.00  0.00    -0.200 F 
ATOM     58  F   UNL A   1      44.297  21.328  24.780  1.00  0.00    -0.200 F 
ENDBRANCH  24  48
BRANCH  36  59
ATOM     59  C   UNL A   1      45.747  30.348  28.874  1.00  0.00     0.064 A 
ATOM     60  C   UNL A   1      44.866  30.938  27.954  1.00  0.00     0.173 A 
ATOM     61  C   UNL A   1      47.086  30.763  28.848  1.00  0.00     0.173 A 
ATOM     62  F   UNL A   1      43.552  30.680  27.992  1.00  0.00    -0.203 F 
ATOM     63  C   UNL A   1      45.322  31.850  27.005  1.00  0.00     0.198 A 
ATOM     64  C   UNL A   1      47.531  31.705  27.927  1.00  0.00     0.198 A 
ATOM     65  F   UNL A   1      47.960  30.279  29.746  1.00  0.00    -0.203 F 
ATOM     66  F   UNL A   1      44.469  32.379  26.116  1.00  0.00    -0.200 F 
ATOM     67  C   UNL A   1      46.653  32.236  26.995  1.00  0.00     0.200 A 
ATOM     68  F   UNL A   1      48.807  32.116  27.954  1.00  0.00    -0.200 F 
ATOM     69  F   UNL A   1      47.085  33.139  26.104  1.00  0.00    -0.200 F 
ENDBRANCH  36  59
ENDBRANCH  10  11
ENDBRANCH   3   5
ENDBRANCH   2   3
ENDBRANCH   1   2
BRANCH   1  70
ATOM     70  C   UNL A   1      33.124  34.556  28.248  1.00  0.00     0.275 C 
BRANCH  70  71
ATOM     71  O   UNL A   1      32.775  34.724  29.629  1.00  0.00    -0.457 OA
BRANCH  71  72
ATOM     72  C   UNL A   1      33.058  35.952  30.156  1.00  0.00     0.360 C 
ATOM     73  O   UNL A   1      32.804  37.022  29.637  1.00  0.00    -0.244 OA
BRANCH  72  74
ATOM     74  C   UNL A   1      33.778  35.810  31.401  1.00  0.00     0.190 A 
ATOM     75  C   UNL A   1      34.395  34.674  31.876  1.00  0.00     0.147 A 
ATOM     76  N   UNL A   1      33.946  36.828  32.306  1.00  0.00    -0.123 NA
ATOM     77  N   UNL A   1      35.011  35.096  33.019  1.00  0.00    -0.245 N 
ATOM     78  N   UNL A   1      34.680  36.368  33.309  1.00  0.00    -0.066 NA
BRANCH  77  79
ATOM     79  C   UNL A   1      36.066  34.446  33.726  1.00  0.00     0.148 C 
ATOM     80  C   UNL A   1      35.985  32.926  33.916  1.00  0.00     0.150 C 
ATOM     81  C   UNL A   1      37.234  34.152  32.756  1.00  0.00     0.150 C 
ATOM     82  N   UNL A   1      37.386  32.913  33.484  1.00  0.00    -0.320 N 
ATOM     83  C   UNL A   1      38.195  31.827  33.397  1.00  0.00     0.322 C 
ATOM     84  O   UNL A   1      37.860  30.755  33.908  1.00  0.00    -0.248 OA
ATOM     85  N   UNL A   1      39.315  31.850  32.628  1.00  0.00    -0.307 N 
ATOM     86  H   UNL A   1      39.633  30.959  32.354  1.00  0.00     0.171 HD
BRANCH  85  87
ATOM     87  C   UNL A   1      40.090  32.895  32.158  1.00  0.00     0.053 A 
ATOM     88  C   UNL A   1      40.156  33.420  30.835  1.00  0.00     0.038 A 
ATOM     89  C   UNL A   1      40.873  33.640  33.017  1.00  0.00     0.091 A 
ATOM     90  C   UNL A   1      41.112  34.403  30.700  1.00  0.00     0.067 A 
ATOM     91  S   UNL A   1      41.834  34.795  32.198  1.00  0.00    -0.150 S 
ENDBRANCH  85  87
ENDBRANCH  77  79
ENDBRANCH  72  74
ENDBRANCH  71  72
ENDBRANCH  70  71
ENDBRANCH   1  70
TORSDOF 13
ENDMDL
