MODEL 1
REMARK VINA RESULT:     -11.6      0.000      0.000
REMARK SMILES Cn1ccnc1SCC[C@@H]1CCC[C@]1([NH3+])C(=O)OCCOC(=O)c1ccc(-c2c3nc(c(-c4c(F)c(F)c(F)c(F)c4F)c4ccc([nH]4)c(-c4c(F)c(F)c(F)c(F)c4F)c4nc(c(-c5c(F)c(F)c(F)c(F)c5F)c5ccc2[nH]5)C=C4)C=C3)cc1
REMARK SMILES IDX 19 1 18 2 16 3 17 4 14 5 10 6 11 7 12 8 13 9 9 10 8 11 7 12
REMARK SMILES IDX 6 13 1 14 2 15 3 16 4 17 5 18 15 19 20 23 21 24 22 25 23 26
REMARK SMILES IDX 24 27 25 28 86 29 26 30 85 31 27 32 28 33 29 34 79 35 30 36
REMARK SMILES IDX 84 37 78 38 80 39 31 40 83 41 77 42 76 43 32 45 64 46 44 47
REMARK SMILES IDX 63 48 45 49 48 50 62 51 81 52 46 53 47 54 61 56 82 57 49 58
REMARK SMILES IDX 33 59 34 60 42 61 35 62 36 63 40 64 43 65 37 66 38 67 41 68
REMARK SMILES IDX 39 69 65 70 66 71 74 72 67 73 68 74 72 75 75 76 69 77 70 78
REMARK SMILES IDX 73 79 71 80 50 81 51 82 59 83 52 84 53 85 57 86 60 87 54 88
REMARK SMILES IDX 55 89 58 90 56 91
REMARK H PARENT 15 20 15 21 15 22 80 44 48 55
REMARK Flexibility Score: inf
ROOT
ATOM      1  C   UNL A   1      31.157  28.742  25.166  1.00  0.00     0.274 C 
ENDROOT
BRANCH   1   2
ATOM      2  O   UNL A   1      31.874  27.669  25.816  1.00  0.00    -0.457 OA
BRANCH   2   3
ATOM      3  C   UNL A   1      31.332  26.431  25.683  1.00  0.00     0.368 C 
ATOM      4  O   UNL A   1      30.450  25.986  26.415  1.00  0.00    -0.245 OA
BRANCH   3   5
ATOM      5  C   UNL A   1      32.040  25.537  24.619  1.00  0.00     0.195 C 
ATOM      6  C   UNL A   1      32.358  24.062  24.929  1.00  0.00     0.063 C 
ATOM      7  C   UNL A   1      33.490  24.156  25.944  1.00  0.00     0.011 C 
ATOM      8  C   UNL A   1      34.387  25.224  25.329  1.00  0.00     0.008 C 
ATOM      9  C   UNL A   1      33.483  26.083  24.429  1.00  0.00     0.081 C 
BRANCH   6  10
ATOM     10  C   UNL A   1      31.273  23.049  25.281  1.00  0.00     0.022 C 
BRANCH  10  11
ATOM     11  C   UNL A   1      31.782  21.620  25.531  1.00  0.00     0.079 C 
BRANCH  11  12
ATOM     12  S   UNL A   1      32.674  20.759  24.189  1.00  0.00    -0.088 SA
BRANCH  12  13
ATOM     13  C   UNL A   1      32.652  19.073  24.586  1.00  0.00     0.167 A 
ATOM     14  C   UNL A   1      32.424  18.077  22.260  1.00  0.00     0.152 C 
ATOM     15  N   UNL A   1      32.555  18.036  23.692  1.00  0.00    -0.329 N 
ATOM     16  C   UNL A   1      32.586  16.868  24.417  1.00  0.00     0.108 A 
ATOM     17  C   UNL A   1      32.666  17.261  25.730  1.00  0.00     0.132 A 
ATOM     18  N   UNL A   1      32.706  18.627  25.824  1.00  0.00    -0.231 NA
ENDBRANCH  12  13
ENDBRANCH  11  12
ENDBRANCH  10  11
ENDBRANCH   6  10
BRANCH   5  19
ATOM     19  N   UNL A   1      31.277  25.692  23.353  1.00  0.00    -0.343 N 
ATOM     20  H   UNL A   1      30.748  24.840  23.168  1.00  0.00     0.345 HD
ATOM     21  H   UNL A   1      31.924  25.865  22.584  1.00  0.00     0.345 HD
ATOM     22  H   UNL A   1      30.634  26.480  23.439  1.00  0.00     0.345 HD
ENDBRANCH   5  19
ENDBRANCH   3   5
ENDBRANCH   2   3
ENDBRANCH   1   2
BRANCH   1  23
ATOM     23  C   UNL A   1      31.786  30.097  25.470  1.00  0.00     0.275 C 
BRANCH  23  24
ATOM     24  O   UNL A   1      32.395  30.063  26.770  1.00  0.00    -0.458 OA
BRANCH  24  25
ATOM     25  C   UNL A   1      33.027  31.194  27.146  1.00  0.00     0.338 C 
ATOM     26  O   UNL A   1      32.542  32.317  27.223  1.00  0.00    -0.246 OA
BRANCH  25  27
ATOM     27  C   UNL A   1      34.427  30.914  27.523  1.00  0.00     0.060 A 
ATOM     28  C   UNL A   1      34.877  29.606  27.700  1.00  0.00     0.016 A 
ATOM     29  C   UNL A   1      35.255  31.980  27.870  1.00  0.00     0.016 A 
ATOM     30  C   UNL A   1      36.082  29.368  28.368  1.00  0.00     0.010 A 
ATOM     31  C   UNL A   1      36.509  31.735  28.437  1.00  0.00     0.010 A 
ATOM     32  C   UNL A   1      36.911  30.428  28.762  1.00  0.00    -0.014 A 
BRANCH  32  33
ATOM     33  C   UNL A   1      38.131  30.212  29.597  1.00  0.00     0.031 A 
ATOM     34  C   UNL A   1      39.286  29.414  29.036  1.00  0.00     0.074 A 
ATOM     35  C   UNL A   1      38.253  30.718  30.840  1.00  0.00     0.049 A 
ATOM     36  N   UNL A   1      40.271  28.819  29.662  1.00  0.00    -0.248 NA
ATOM     37  C   UNL A   1      39.319  29.244  27.575  1.00  0.00     0.031 C 
ATOM     38  C   UNL A   1      37.291  31.592  31.508  1.00  0.00     0.029 A 
ATOM     39  N   UNL A   1      39.260  30.568  31.765  1.00  0.00    -0.354 N 
ATOM     40  C   UNL A   1      40.970  28.116  28.687  1.00  0.00     0.074 A 
ATOM     41  C   UNL A   1      40.318  28.387  27.423  1.00  0.00     0.031 C 
ATOM     42  C   UNL A   1      37.780  31.953  32.704  1.00  0.00     0.029 A 
ATOM     43  C   UNL A   1      39.031  31.240  32.940  1.00  0.00     0.049 A 
ATOM     44  H   UNL A   1      40.068  30.031  31.600  1.00  0.00     0.167 HD
ATOM     45  C   UNL A   1      42.045  27.304  28.840  1.00  0.00     0.037 A 
ATOM     46  C   UNL A   1      39.715  31.240  34.099  1.00  0.00     0.037 A 
ATOM     47  C   UNL A   1      42.758  27.127  30.079  1.00  0.00     0.049 A 
ATOM     48  C   UNL A   1      40.908  30.340  34.256  1.00  0.00     0.074 A 
ATOM     49  C   UNL A   1      43.854  26.324  30.344  1.00  0.00     0.029 A 
ATOM     50  N   UNL A   1      42.468  27.805  31.254  1.00  0.00    -0.354 N 
ATOM     51  N   UNL A   1      41.464  29.543  33.378  1.00  0.00    -0.248 NA
ATOM     52  C   UNL A   1      41.541  30.312  35.583  1.00  0.00     0.031 C 
ATOM     53  C   UNL A   1      44.220  26.508  31.683  1.00  0.00     0.029 A 
ATOM     54  C   UNL A   1      43.371  27.448  32.242  1.00  0.00     0.049 A 
ATOM     55  H   UNL A   1      41.730  28.445  31.368  1.00  0.00     0.167 HD
ATOM     56  C   UNL A   1      42.514  28.921  34.042  1.00  0.00     0.074 A 
ATOM     57  C   UNL A   1      42.529  29.449  35.390  1.00  0.00     0.031 C 
ATOM     58  C   UNL A   1      43.380  27.989  33.575  1.00  0.00     0.037 A 
BRANCH  45  59
ATOM     59  C   UNL A   1      42.483  26.500  27.651  1.00  0.00     0.064 A 
ATOM     60  C   UNL A   1      43.503  26.925  26.790  1.00  0.00     0.173 A 
ATOM     61  C   UNL A   1      41.871  25.264  27.384  1.00  0.00     0.173 A 
ATOM     62  F   UNL A   1      44.108  28.105  26.992  1.00  0.00    -0.203 F 
ATOM     63  C   UNL A   1      43.876  26.156  25.690  1.00  0.00     0.198 A 
ATOM     64  C   UNL A   1      42.267  24.484  26.301  1.00  0.00     0.198 A 
ATOM     65  F   UNL A   1      40.893  24.806  28.182  1.00  0.00    -0.203 F 
ATOM     66  F   UNL A   1      44.822  26.603  24.851  1.00  0.00    -0.200 F 
ATOM     67  C   UNL A   1      43.263  24.935  25.449  1.00  0.00     0.200 A 
ATOM     68  F   UNL A   1      41.680  23.300  26.079  1.00  0.00    -0.200 F 
ATOM     69  F   UNL A   1      43.626  24.196  24.392  1.00  0.00    -0.200 F 
ENDBRANCH  45  59
BRANCH  46  70
ATOM     70  C   UNL A   1      39.256  32.096  35.222  1.00  0.00     0.064 A 
ATOM     71  C   UNL A   1      38.467  31.558  36.249  1.00  0.00     0.173 A 
ATOM     72  C   UNL A   1      39.614  33.448  35.311  1.00  0.00     0.173 A 
ATOM     73  F   UNL A   1      38.075  30.277  36.191  1.00  0.00    -0.203 F 
ATOM     74  C   UNL A   1      38.059  32.342  37.325  1.00  0.00     0.198 A 
ATOM     75  C   UNL A   1      39.230  34.223  36.401  1.00  0.00     0.198 A 
ATOM     76  F   UNL A   1      40.365  34.009  34.351  1.00  0.00    -0.203 F 
ATOM     77  F   UNL A   1      37.284  31.812  38.282  1.00  0.00    -0.200 F 
ATOM     78  C   UNL A   1      38.449  33.670  37.407  1.00  0.00     0.200 A 
ATOM     79  F   UNL A   1      39.621  35.502  36.484  1.00  0.00    -0.200 F 
ATOM     80  F   UNL A   1      38.072  34.420  38.451  1.00  0.00    -0.200 F 
ENDBRANCH  46  70
BRANCH  58  81
ATOM     81  C   UNL A   1      44.439  27.511  34.521  1.00  0.00     0.064 A 
ATOM     82  C   UNL A   1      44.245  26.383  35.330  1.00  0.00     0.173 A 
ATOM     83  C   UNL A   1      45.668  28.181  34.607  1.00  0.00     0.173 A 
ATOM     84  F   UNL A   1      43.078  25.720  35.295  1.00  0.00    -0.203 F 
ATOM     85  C   UNL A   1      45.236  25.955  36.209  1.00  0.00     0.198 A 
ATOM     86  C   UNL A   1      46.665  27.740  35.472  1.00  0.00     0.198 A 
ATOM     87  F   UNL A   1      45.900  29.266  33.851  1.00  0.00    -0.203 F 
ATOM     88  F   UNL A   1      45.015  24.899  37.004  1.00  0.00    -0.200 F 
ATOM     89  C   UNL A   1      46.446  26.631  36.275  1.00  0.00     0.200 A 
ATOM     90  F   UNL A   1      47.835  28.390  35.532  1.00  0.00    -0.200 F 
ATOM     91  F   UNL A   1      47.398  26.220  37.124  1.00  0.00    -0.200 F 
ENDBRANCH  58  81
ENDBRANCH  32  33
ENDBRANCH  25  27
ENDBRANCH  24  25
ENDBRANCH  23  24
ENDBRANCH   1  23
TORSDOF 16
ENDMDL
MODEL 2
REMARK VINA RESULT:     -11.5      1.761      2.702
REMARK SMILES Cn1ccnc1SCC[C@@H]1CCC[C@]1([NH3+])C(=O)OCCOC(=O)c1ccc(-c2c3nc(c(-c4c(F)c(F)c(F)c(F)c4F)c4ccc([nH]4)c(-c4c(F)c(F)c(F)c(F)c4F)c4nc(c(-c5c(F)c(F)c(F)c(F)c5F)c5ccc2[nH]5)C=C4)C=C3)cc1
REMARK SMILES IDX 19 1 18 2 16 3 17 4 14 5 10 6 11 7 12 8 13 9 9 10 8 11 7 12
REMARK SMILES IDX 6 13 1 14 2 15 3 16 4 17 5 18 15 19 20 23 21 24 22 25 23 26
REMARK SMILES IDX 24 27 25 28 86 29 26 30 85 31 27 32 28 33 29 34 79 35 30 36
REMARK SMILES IDX 84 37 78 38 80 39 31 40 83 41 77 42 76 43 32 45 64 46 44 47
REMARK SMILES IDX 63 48 45 49 48 50 62 51 81 52 46 53 47 54 61 56 82 57 49 58
REMARK SMILES IDX 33 59 34 60 42 61 35 62 36 63 40 64 43 65 37 66 38 67 41 68
REMARK SMILES IDX 39 69 65 70 66 71 74 72 67 73 68 74 72 75 75 76 69 77 70 78
REMARK SMILES IDX 73 79 71 80 50 81 51 82 59 83 52 84 53 85 57 86 60 87 54 88
REMARK SMILES IDX 55 89 58 90 56 91
REMARK H PARENT 15 20 15 21 15 22 80 44 48 55
REMARK Flexibility Score: inf
ROOT
ATOM      1  C   UNL A   1      31.847  28.855  24.843  1.00  0.00     0.274 C 
ENDROOT
BRANCH   1   2
ATOM      2  O   UNL A   1      31.093  27.774  25.434  1.00  0.00    -0.457 OA
BRANCH   2   3
ATOM      3  C   UNL A   1      31.821  26.716  25.872  1.00  0.00     0.368 C 
ATOM      4  O   UNL A   1      32.895  26.819  26.461  1.00  0.00    -0.245 OA
BRANCH   3   5
ATOM      5  C   UNL A   1      31.266  25.330  25.420  1.00  0.00     0.195 C 
ATOM      6  C   UNL A   1      32.215  24.262  24.843  1.00  0.00     0.063 C 
ATOM      7  C   UNL A   1      32.581  24.825  23.475  1.00  0.00     0.011 C 
ATOM      8  C   UNL A   1      31.230  25.296  22.948  1.00  0.00     0.008 C 
ATOM      9  C   UNL A   1      30.355  25.568  24.183  1.00  0.00     0.081 C 
BRANCH   6  10
ATOM     10  C   UNL A   1      33.393  23.703  25.634  1.00  0.00     0.022 C 
BRANCH  10  11
ATOM     11  C   UNL A   1      34.776  24.039  25.055  1.00  0.00     0.079 C 
BRANCH  11  12
ATOM     12  S   UNL A   1      35.760  22.698  24.298  1.00  0.00    -0.088 SA
BRANCH  12  13
ATOM     13  C   UNL A   1      37.239  22.606  25.194  1.00  0.00     0.167 A 
ATOM     14  C   UNL A   1      37.790  20.145  24.881  1.00  0.00     0.152 C 
ATOM     15  N   UNL A   1      38.011  21.483  25.362  1.00  0.00    -0.329 N 
ATOM     16  C   UNL A   1      39.097  21.844  26.124  1.00  0.00     0.108 A 
ATOM     17  C   UNL A   1      38.908  23.174  26.414  1.00  0.00     0.132 A 
ATOM     18  N   UNL A   1      37.756  23.635  25.834  1.00  0.00    -0.231 NA
ENDBRANCH  12  13
ENDBRANCH  11  12
ENDBRANCH  10  11
ENDBRANCH   6  10
BRANCH   5  19
ATOM     19  N   UNL A   1      30.451  24.806  26.547  1.00  0.00    -0.343 N 
ATOM     20  H   UNL A   1      29.538  25.260  26.547  1.00  0.00     0.345 HD
ATOM     21  H   UNL A   1      30.927  24.996  27.429  1.00  0.00     0.345 HD
ATOM     22  H   UNL A   1      30.330  23.798  26.438  1.00  0.00     0.345 HD
ENDBRANCH   5  19
ENDBRANCH   3   5
ENDBRANCH   2   3
ENDBRANCH   1   2
BRANCH   1  23
ATOM     23  C   UNL A   1      31.666  30.153  25.623  1.00  0.00     0.275 C 
BRANCH  23  24
ATOM     24  O   UNL A   1      32.429  30.093  26.838  1.00  0.00    -0.458 OA
BRANCH  24  25
ATOM     25  C   UNL A   1      33.078  31.227  27.174  1.00  0.00     0.338 C 
ATOM     26  O   UNL A   1      32.611  32.360  27.209  1.00  0.00    -0.246 OA
BRANCH  25  27
ATOM     27  C   UNL A   1      34.473  30.939  27.564  1.00  0.00     0.060 A 
ATOM     28  C   UNL A   1      34.907  29.630  27.771  1.00  0.00     0.016 A 
ATOM     29  C   UNL A   1      35.312  32.003  27.893  1.00  0.00     0.016 A 
ATOM     30  C   UNL A   1      36.106  29.392  28.450  1.00  0.00     0.010 A 
ATOM     31  C   UNL A   1      36.560  31.756  28.471  1.00  0.00     0.010 A 
ATOM     32  C   UNL A   1      36.945  30.451  28.826  1.00  0.00    -0.014 A 
BRANCH  32  33
ATOM     33  C   UNL A   1      38.159  30.239  29.672  1.00  0.00     0.031 A 
ATOM     34  C   UNL A   1      39.325  29.453  29.118  1.00  0.00     0.074 A 
ATOM     35  C   UNL A   1      38.264  30.737  30.919  1.00  0.00     0.049 A 
ATOM     36  N   UNL A   1      40.308  28.861  29.749  1.00  0.00    -0.248 NA
ATOM     37  C   UNL A   1      39.373  29.292  27.656  1.00  0.00     0.031 C 
ATOM     38  C   UNL A   1      37.289  31.601  31.583  1.00  0.00     0.029 A 
ATOM     39  N   UNL A   1      39.263  30.589  31.853  1.00  0.00    -0.354 N 
ATOM     40  C   UNL A   1      41.021  28.170  28.777  1.00  0.00     0.074 A 
ATOM     41  C   UNL A   1      40.380  28.444  27.508  1.00  0.00     0.031 C 
ATOM     42  C   UNL A   1      37.764  31.957  32.786  1.00  0.00     0.029 A 
ATOM     43  C   UNL A   1      39.017  31.252  33.030  1.00  0.00     0.049 A 
ATOM     44  H   UNL A   1      40.077  30.060  31.692  1.00  0.00     0.167 HD
ATOM     45  C   UNL A   1      42.101  27.365  28.936  1.00  0.00     0.037 A 
ATOM     46  C   UNL A   1      39.690  31.250  34.196  1.00  0.00     0.037 A 
ATOM     47  C   UNL A   1      42.804  27.186  30.180  1.00  0.00     0.049 A 
ATOM     48  C   UNL A   1      40.888  30.358  34.359  1.00  0.00     0.074 A 
ATOM     49  C   UNL A   1      43.903  26.389  30.451  1.00  0.00     0.029 A 
ATOM     50  N   UNL A   1      42.497  27.854  31.356  1.00  0.00    -0.354 N 
ATOM     51  N   UNL A   1      41.459  29.571  33.482  1.00  0.00    -0.248 NA
ATOM     52  C   UNL A   1      41.508  30.326  35.692  1.00  0.00     0.031 C 
ATOM     53  C   UNL A   1      44.255  26.567  31.795  1.00  0.00     0.029 A 
ATOM     54  C   UNL A   1      43.393  27.497  32.351  1.00  0.00     0.049 A 
ATOM     55  H   UNL A   1      41.753  28.488  31.468  1.00  0.00     0.167 HD
ATOM     56  C   UNL A   1      42.506  28.953  34.151  1.00  0.00     0.074 A 
ATOM     57  C   UNL A   1      42.504  29.471  35.504  1.00  0.00     0.031 C 
ATOM     58  C   UNL A   1      43.384  28.030  33.688  1.00  0.00     0.037 A 
BRANCH  45  59
ATOM     59  C   UNL A   1      42.557  26.573  27.745  1.00  0.00     0.064 A 
ATOM     60  C   UNL A   1      42.095  25.278  27.481  1.00  0.00     0.173 A 
ATOM     61  C   UNL A   1      43.468  27.142  26.839  1.00  0.00     0.173 A 
ATOM     62  F   UNL A   1      41.236  24.684  28.323  1.00  0.00    -0.203 F 
ATOM     63  C   UNL A   1      42.548  24.569  26.370  1.00  0.00     0.198 A 
ATOM     64  C   UNL A   1      43.897  26.442  25.714  1.00  0.00     0.198 A 
ATOM     65  F   UNL A   1      43.938  28.383  27.041  1.00  0.00    -0.203 F 
ATOM     66  F   UNL A   1      42.129  23.313  26.161  1.00  0.00    -0.200 F 
ATOM     67  C   UNL A   1      43.442  25.153  25.486  1.00  0.00     0.200 A 
ATOM     68  F   UNL A   1      44.752  27.015  24.856  1.00  0.00    -0.200 F 
ATOM     69  F   UNL A   1      43.874  24.471  24.416  1.00  0.00    -0.200 F 
ENDBRANCH  45  59
BRANCH  46  70
ATOM     70  C   UNL A   1      39.213  32.095  35.320  1.00  0.00     0.064 A 
ATOM     71  C   UNL A   1      38.425  31.543  36.339  1.00  0.00     0.173 A 
ATOM     72  C   UNL A   1      39.554  33.451  35.416  1.00  0.00     0.173 A 
ATOM     73  F   UNL A   1      38.049  30.257  36.274  1.00  0.00    -0.203 F 
ATOM     74  C   UNL A   1      38.000  32.317  37.416  1.00  0.00     0.198 A 
ATOM     75  C   UNL A   1      39.153  34.217  36.508  1.00  0.00     0.198 A 
ATOM     76  F   UNL A   1      40.304  34.025  34.464  1.00  0.00    -0.203 F 
ATOM     77  F   UNL A   1      37.226  31.773  38.366  1.00  0.00    -0.200 F 
ATOM     78  C   UNL A   1      38.374  33.649  37.506  1.00  0.00     0.200 A 
ATOM     79  F   UNL A   1      39.528  35.500  36.598  1.00  0.00    -0.200 F 
ATOM     80  F   UNL A   1      37.981  34.389  38.551  1.00  0.00    -0.200 F 
ENDBRANCH  46  70
BRANCH  58  81
ATOM     81  C   UNL A   1      44.438  27.554  34.641  1.00  0.00     0.064 A 
ATOM     82  C   UNL A   1      45.656  28.231  34.784  1.00  0.00     0.173 A 
ATOM     83  C   UNL A   1      44.218  26.416  35.431  1.00  0.00     0.173 A 
ATOM     84  F   UNL A   1      45.918  29.314  34.037  1.00  0.00    -0.203 F 
ATOM     85  C   UNL A   1      46.629  27.773  35.670  1.00  0.00     0.198 A 
ATOM     86  C   UNL A   1      45.184  25.971  36.329  1.00  0.00     0.198 A 
ATOM     87  F   UNL A   1      43.066  25.735  35.329  1.00  0.00    -0.203 F 
ATOM     88  F   UNL A   1      47.804  28.411  35.761  1.00  0.00    -0.200 F 
ATOM     89  C   UNL A   1      46.389  26.646  36.443  1.00  0.00     0.200 A 
ATOM     90  F   UNL A   1      44.950  24.886  37.080  1.00  0.00    -0.200 F 
ATOM     91  F   UNL A   1      47.327  26.205  37.292  1.00  0.00    -0.200 F 
ENDBRANCH  58  81
ENDBRANCH  32  33
ENDBRANCH  25  27
ENDBRANCH  24  25
ENDBRANCH  23  24
ENDBRANCH   1  23
TORSDOF 16
ENDMDL
MODEL 3
REMARK VINA RESULT:     -11.5      0.957      1.591
REMARK SMILES Cn1ccnc1SCC[C@@H]1CCC[C@]1([NH3+])C(=O)OCCOC(=O)c1ccc(-c2c3nc(c(-c4c(F)c(F)c(F)c(F)c4F)c4ccc([nH]4)c(-c4c(F)c(F)c(F)c(F)c4F)c4nc(c(-c5c(F)c(F)c(F)c(F)c5F)c5ccc2[nH]5)C=C4)C=C3)cc1
REMARK SMILES IDX 19 1 18 2 16 3 17 4 14 5 10 6 11 7 12 8 13 9 9 10 8 11 7 12
REMARK SMILES IDX 6 13 1 14 2 15 3 16 4 17 5 18 15 19 20 23 21 24 22 25 23 26
REMARK SMILES IDX 24 27 25 28 86 29 26 30 85 31 27 32 28 33 29 34 79 35 30 36
REMARK SMILES IDX 84 37 78 38 80 39 31 40 83 41 77 42 76 43 32 45 64 46 44 47
REMARK SMILES IDX 63 48 45 49 48 50 62 51 81 52 46 53 47 54 61 56 82 57 49 58
REMARK SMILES IDX 33 59 34 60 42 61 35 62 36 63 40 64 43 65 37 66 38 67 41 68
REMARK SMILES IDX 39 69 65 70 66 71 74 72 67 73 68 74 72 75 75 76 69 77 70 78
REMARK SMILES IDX 73 79 71 80 50 81 51 82 59 83 52 84 53 85 57 86 60 87 54 88
REMARK SMILES IDX 55 89 58 90 56 91
REMARK H PARENT 15 20 15 21 15 22 80 44 48 55
REMARK Flexibility Score: inf
ROOT
ATOM      1  C   UNL A   1      31.801  28.312  26.813  1.00  0.00     0.274 C 
ENDROOT
BRANCH   1   2
ATOM      2  O   UNL A   1      31.386  27.792  25.531  1.00  0.00    -0.457 OA
BRANCH   2   3
ATOM      3  C   UNL A   1      30.735  26.602  25.559  1.00  0.00     0.368 C 
ATOM      4  O   UNL A   1      30.763  25.826  26.512  1.00  0.00    -0.245 OA
BRANCH   3   5
ATOM      5  C   UNL A   1      30.069  26.209  24.204  1.00  0.00     0.195 C 
ATOM      6  C   UNL A   1      30.636  25.048  23.365  1.00  0.00     0.063 C 
ATOM      7  C   UNL A   1      31.944  25.615  22.827  1.00  0.00     0.011 C 
ATOM      8  C   UNL A   1      31.530  27.011  22.378  1.00  0.00     0.008 C 
ATOM      9  C   UNL A   1      30.292  27.384  23.211  1.00  0.00     0.081 C 
BRANCH   6  10
ATOM     10  C   UNL A   1      30.736  23.624  23.904  1.00  0.00     0.022 C 
BRANCH  10  11
ATOM     11  C   UNL A   1      32.084  22.932  23.649  1.00  0.00     0.079 C 
BRANCH  11  12
ATOM     12  S   UNL A   1      32.108  21.390  22.669  1.00  0.00    -0.088 SA
BRANCH  12  13
ATOM     13  C   UNL A   1      32.427  20.103  23.782  1.00  0.00     0.167 A 
ATOM     14  C   UNL A   1      32.345  18.119  22.196  1.00  0.00     0.152 C 
ATOM     15  N   UNL A   1      32.514  18.769  23.469  1.00  0.00    -0.329 N 
ATOM     16  C   UNL A   1      32.791  18.093  24.634  1.00  0.00     0.108 A 
ATOM     17  C   UNL A   1      32.823  19.057  25.611  1.00  0.00     0.132 A 
ATOM     18  N   UNL A   1      32.596  20.297  25.074  1.00  0.00    -0.231 NA
ENDBRANCH  12  13
ENDBRANCH  11  12
ENDBRANCH  10  11
ENDBRANCH   6  10
BRANCH   5  19
ATOM     19  N   UNL A   1      28.615  26.050  24.471  1.00  0.00    -0.343 N 
ATOM     20  H   UNL A   1      28.340  26.664  25.236  1.00  0.00     0.345 HD
ATOM     21  H   UNL A   1      28.420  25.081  24.724  1.00  0.00     0.345 HD
ATOM     22  H   UNL A   1      28.088  26.294  23.632  1.00  0.00     0.345 HD
ENDBRANCH   5  19
ENDBRANCH   3   5
ENDBRANCH   2   3
ENDBRANCH   1   2
BRANCH   1  23
ATOM     23  C   UNL A   1      31.705  29.833  26.856  1.00  0.00     0.275 C 
BRANCH  23  24
ATOM     24  O   UNL A   1      32.951  30.405  26.428  1.00  0.00    -0.458 OA
BRANCH  24  25
ATOM     25  C   UNL A   1      33.470  31.347  27.244  1.00  0.00     0.338 C 
ATOM     26  O   UNL A   1      32.902  32.344  27.671  1.00  0.00    -0.246 OA
BRANCH  25  27
ATOM     27  C   UNL A   1      34.854  31.004  27.628  1.00  0.00     0.060 A 
ATOM     28  C   UNL A   1      35.234  29.680  27.845  1.00  0.00     0.016 A 
ATOM     29  C   UNL A   1      35.739  32.036  27.940  1.00  0.00     0.016 A 
ATOM     30  C   UNL A   1      36.427  29.399  28.519  1.00  0.00     0.010 A 
ATOM     31  C   UNL A   1      36.980  31.742  28.513  1.00  0.00     0.010 A 
ATOM     32  C   UNL A   1      37.312  30.426  28.879  1.00  0.00    -0.014 A 
BRANCH  32  33
ATOM     33  C   UNL A   1      38.522  30.172  29.719  1.00  0.00     0.031 A 
ATOM     34  C   UNL A   1      39.666  29.362  29.152  1.00  0.00     0.074 A 
ATOM     35  C   UNL A   1      38.643  30.652  30.972  1.00  0.00     0.049 A 
ATOM     36  N   UNL A   1      40.634  28.738  29.774  1.00  0.00    -0.248 NA
ATOM     37  C   UNL A   1      39.707  29.218  27.688  1.00  0.00     0.031 C 
ATOM     38  C   UNL A   1      37.692  31.533  31.648  1.00  0.00     0.029 A 
ATOM     39  N   UNL A   1      39.640  30.467  31.901  1.00  0.00    -0.354 N 
ATOM     40  C   UNL A   1      41.327  28.040  28.792  1.00  0.00     0.074 A 
ATOM     41  C   UNL A   1      40.691  28.346  27.528  1.00  0.00     0.031 C 
ATOM     42  C   UNL A   1      38.179  31.862  32.855  1.00  0.00     0.029 A 
ATOM     43  C   UNL A   1      39.414  31.122  33.087  1.00  0.00     0.049 A 
ATOM     44  H   UNL A   1      40.439  29.918  31.732  1.00  0.00     0.167 HD
ATOM     45  C   UNL A   1      42.386  27.205  28.938  1.00  0.00     0.037 A 
ATOM     46  C   UNL A   1      40.089  31.088  34.251  1.00  0.00     0.037 A 
ATOM     47  C   UNL A   1      43.086  26.992  30.179  1.00  0.00     0.049 A 
ATOM     48  C   UNL A   1      41.264  30.163  34.400  1.00  0.00     0.074 A 
ATOM     49  C   UNL A   1      44.164  26.164  30.438  1.00  0.00     0.029 A 
ATOM     50  N   UNL A   1      42.800  27.654  31.364  1.00  0.00    -0.354 N 
ATOM     51  N   UNL A   1      41.812  29.372  33.512  1.00  0.00    -0.248 NA
ATOM     52  C   UNL A   1      41.886  30.099  35.731  1.00  0.00     0.031 C 
ATOM     53  C   UNL A   1      44.524  26.316  31.782  1.00  0.00     0.029 A 
ATOM     54  C   UNL A   1      43.688  27.262  32.352  1.00  0.00     0.049 A 
ATOM     55  H   UNL A   1      42.073  28.306  31.484  1.00  0.00     0.167 HD
ATOM     56  C   UNL A   1      42.844  28.718  34.172  1.00  0.00     0.074 A 
ATOM     57  C   UNL A   1      42.859  29.221  35.530  1.00  0.00     0.031 C 
ATOM     58  C   UNL A   1      43.696  27.778  33.695  1.00  0.00     0.037 A 
BRANCH  45  59
ATOM     59  C   UNL A   1      42.818  26.415  27.737  1.00  0.00     0.064 A 
ATOM     60  C   UNL A   1      43.767  26.892  26.825  1.00  0.00     0.173 A 
ATOM     61  C   UNL A   1      42.275  25.139  27.513  1.00  0.00     0.173 A 
ATOM     62  F   UNL A   1      44.305  28.110  26.986  1.00  0.00    -0.203 F 
ATOM     63  C   UNL A   1      44.137  26.133  25.716  1.00  0.00     0.198 A 
ATOM     64  C   UNL A   1      42.668  24.371  26.420  1.00  0.00     0.198 A 
ATOM     65  F   UNL A   1      41.367  24.631  28.361  1.00  0.00    -0.203 F 
ATOM     66  F   UNL A   1      45.012  26.629  24.829  1.00  0.00    -0.200 F 
ATOM     67  C   UNL A   1      43.593  24.873  25.517  1.00  0.00     0.200 A 
ATOM     68  F   UNL A   1      42.149  23.149  26.239  1.00  0.00    -0.200 F 
ATOM     69  F   UNL A   1      43.953  24.145  24.452  1.00  0.00    -0.200 F 
ENDBRANCH  45  59
BRANCH  46  70
ATOM     70  C   UNL A   1      39.637  31.932  35.386  1.00  0.00     0.064 A 
ATOM     71  C   UNL A   1      40.166  33.217  35.570  1.00  0.00     0.173 A 
ATOM     72  C   UNL A   1      38.658  31.490  36.287  1.00  0.00     0.173 A 
ATOM     73  F   UNL A   1      41.126  33.670  34.751  1.00  0.00    -0.203 F 
ATOM     74  C   UNL A   1      39.725  34.032  36.611  1.00  0.00     0.198 A 
ATOM     75  C   UNL A   1      38.198  32.316  37.309  1.00  0.00     0.198 A 
ATOM     76  F   UNL A   1      38.125  30.267  36.154  1.00  0.00    -0.203 F 
ATOM     77  F   UNL A   1      40.263  35.247  36.781  1.00  0.00    -0.200 F 
ATOM     78  C   UNL A   1      38.734  33.585  37.472  1.00  0.00     0.200 A 
ATOM     79  F   UNL A   1      37.231  31.887  38.131  1.00  0.00    -0.200 F 
ATOM     80  F   UNL A   1      38.297  34.375  38.462  1.00  0.00    -0.200 F 
ENDBRANCH  46  70
BRANCH  58  81
ATOM     81  C   UNL A   1      44.739  27.263  34.640  1.00  0.00     0.064 A 
ATOM     82  C   UNL A   1      44.517  26.125  35.427  1.00  0.00     0.173 A 
ATOM     83  C   UNL A   1      45.980  27.908  34.746  1.00  0.00     0.173 A 
ATOM     84  F   UNL A   1      43.338  25.486  35.372  1.00  0.00    -0.203 F 
ATOM     85  C   UNL A   1      45.493  25.662  36.305  1.00  0.00     0.198 A 
ATOM     86  C   UNL A   1      46.962  27.432  35.610  1.00  0.00     0.198 A 
ATOM     87  F   UNL A   1      46.238  29.001  34.012  1.00  0.00    -0.203 F 
ATOM     88  F   UNL A   1      45.246  24.597  37.080  1.00  0.00    -0.200 F 
ATOM     89  C   UNL A   1      46.716  26.314  36.392  1.00  0.00     0.200 A 
ATOM     90  F   UNL A   1      48.143  28.059  35.691  1.00  0.00    -0.200 F 
ATOM     91  F   UNL A   1      47.653  25.869  37.241  1.00  0.00    -0.200 F 
ENDBRANCH  58  81
ENDBRANCH  32  33
ENDBRANCH  25  27
ENDBRANCH  24  25
ENDBRANCH  23  24
ENDBRANCH   1  23
TORSDOF 16
ENDMDL
