MODEL 1
REMARK VINA RESULT:     -13.4      0.000      0.000
REMARK SMILES O=C(OCCOC(=O)[C@H]1CC2(CC[NH+](C(=O)C3CC3)CC2)CN1C(=O)CCn1cccn1)c1ccc(-c2c3nc(c(-c4c(F)c(F)c(F)c(F)c4F)c4ccc([nH]4)c(-c4c(F)c(F)c(F)c(F)c4F)c4nc(c(-c5c(F)c(F)c(F)c(F)c5F)c5ccc2[nH]5)C=C4)C=C3)cc1
REMARK SMILES IDX 5 1 4 2 3 3 2 4 1 5 33 6 34 7 95 8 35 9 94 10 36 11 37 12
REMARK SMILES IDX 38 13 88 14 39 15 93 16 87 17 89 18 40 19 92 20 86 21 85 22
REMARK SMILES IDX 41 24 73 25 53 26 72 27 54 28 57 29 71 30 90 31 55 32 56 33
REMARK SMILES IDX 70 35 91 36 58 37 42 38 43 39 51 40 44 41 45 42 49 43 52 44
REMARK SMILES IDX 46 45 47 46 50 47 48 48 74 49 75 50 83 51 76 52 77 53 81 54
REMARK SMILES IDX 84 55 78 56 79 57 82 58 80 59 59 60 60 61 68 62 61 63 62 64
REMARK SMILES IDX 66 65 69 66 63 67 64 68 67 69 65 70 6 71 7 72 8 73 9 74
REMARK SMILES IDX 10 75 23 76 11 77 22 78 12 79 21 80 13 81 20 82 14 83 24 85
REMARK SMILES IDX 25 86 26 87 27 88 28 89 29 90 32 91 30 92 31 93 15 94 16 95
REMARK SMILES IDX 17 96 18 97 19 98
REMARK H PARENT 89 23 57 34 14 84
REMARK Flexibility Score: inf
ROOT
ATOM      1  C   UNL A   1      38.823  21.196  25.657  1.00  0.00     0.274 C 
ENDROOT
BRANCH   1   2
ATOM      2  C   UNL A   1      40.201  21.198  26.352  1.00  0.00     0.275 C 
BRANCH   2   3
ATOM      3  O   UNL A   1      40.162  21.950  27.559  1.00  0.00    -0.458 OA
BRANCH   3   4
ATOM      4  C   UNL A   1      41.345  22.490  27.934  1.00  0.00     0.338 C 
ATOM      5  O   UNL A   1      42.369  21.903  28.238  1.00  0.00    -0.246 OA
BRANCH   4   6
ATOM      6  C   UNL A   1      41.147  23.939  28.123  1.00  0.00     0.060 A 
ATOM      7  C   UNL A   1      42.148  24.746  28.662  1.00  0.00     0.016 A 
ATOM      8  C   UNL A   1      39.957  24.507  27.656  1.00  0.00     0.016 A 
ATOM      9  C   UNL A   1      41.911  26.099  28.799  1.00  0.00     0.010 A 
ATOM     10  C   UNL A   1      39.764  25.875  27.695  1.00  0.00     0.010 A 
ATOM     11  C   UNL A   1      40.707  26.664  28.331  1.00  0.00    -0.014 A 
BRANCH  11  12
ATOM     12  C   UNL A   1      40.494  28.090  28.549  1.00  0.00     0.031 A 
ATOM     13  C   UNL A   1      41.579  28.951  28.014  1.00  0.00     0.074 A 
ATOM     14  C   UNL A   1      39.489  28.606  29.284  1.00  0.00     0.049 A 
ATOM     15  N   UNL A   1      42.597  29.380  28.683  1.00  0.00    -0.248 NA
ATOM     16  C   UNL A   1      41.676  29.176  26.569  1.00  0.00     0.031 C 
ATOM     17  C   UNL A   1      38.238  28.008  29.756  1.00  0.00     0.029 A 
ATOM     18  N   UNL A   1      39.432  29.865  29.802  1.00  0.00    -0.354 N 
ATOM     19  C   UNL A   1      43.409  30.051  27.780  1.00  0.00     0.074 A 
ATOM     20  C   UNL A   1      42.871  29.769  26.474  1.00  0.00     0.031 C 
ATOM     21  C   UNL A   1      37.459  28.964  30.321  1.00  0.00     0.029 A 
ATOM     22  C   UNL A   1      38.232  30.187  30.418  1.00  0.00     0.049 A 
ATOM     23  H   UNL A   1      40.184  30.497  29.742  1.00  0.00     0.167 HD
ATOM     24  C   UNL A   1      44.338  30.941  28.225  1.00  0.00     0.037 A 
ATOM     25  C   UNL A   1      37.920  31.369  31.004  1.00  0.00     0.037 A 
ATOM     26  C   UNL A   1      44.638  30.715  29.620  1.00  0.00     0.049 A 
ATOM     27  C   UNL A   1      39.204  32.007  31.396  1.00  0.00     0.074 A 
ATOM     28  C   UNL A   1      45.196  29.663  30.323  1.00  0.00     0.029 A 
ATOM     29  N   UNL A   1      43.973  31.471  30.555  1.00  0.00    -0.354 N 
ATOM     30  N   UNL A   1      39.975  31.532  32.338  1.00  0.00    -0.248 NA
ATOM     31  C   UNL A   1      39.863  32.857  30.414  1.00  0.00     0.031 C 
ATOM     32  C   UNL A   1      44.420  29.566  31.515  1.00  0.00     0.029 A 
ATOM     33  C   UNL A   1      43.498  30.614  31.514  1.00  0.00     0.049 A 
ATOM     34  H   UNL A   1      43.859  32.449  30.538  1.00  0.00     0.167 HD
ATOM     35  C   UNL A   1      41.262  31.660  31.836  1.00  0.00     0.074 A 
ATOM     36  C   UNL A   1      41.135  32.532  30.670  1.00  0.00     0.031 C 
ATOM     37  C   UNL A   1      42.267  30.829  32.239  1.00  0.00     0.037 A 
BRANCH  24  38
ATOM     38  C   UNL A   1      44.664  32.236  27.526  1.00  0.00     0.064 A 
ATOM     39  C   UNL A   1      45.869  32.338  26.800  1.00  0.00     0.173 A 
ATOM     40  C   UNL A   1      44.018  33.460  27.804  1.00  0.00     0.173 A 
ATOM     41  F   UNL A   1      46.570  31.240  26.477  1.00  0.00    -0.203 F 
ATOM     42  C   UNL A   1      46.433  33.576  26.479  1.00  0.00     0.198 A 
ATOM     43  C   UNL A   1      44.562  34.689  27.444  1.00  0.00     0.198 A 
ATOM     44  F   UNL A   1      42.899  33.530  28.532  1.00  0.00    -0.203 F 
ATOM     45  F   UNL A   1      47.645  33.625  25.910  1.00  0.00    -0.200 F 
ATOM     46  C   UNL A   1      45.787  34.750  26.815  1.00  0.00     0.200 A 
ATOM     47  F   UNL A   1      43.925  35.815  27.794  1.00  0.00    -0.200 F 
ATOM     48  F   UNL A   1      46.359  35.937  26.579  1.00  0.00    -0.200 F 
ENDBRANCH  24  38
BRANCH  25  49
ATOM     49  C   UNL A   1      36.661  32.134  30.838  1.00  0.00     0.064 A 
ATOM     50  C   UNL A   1      35.772  32.313  31.911  1.00  0.00     0.173 A 
ATOM     51  C   UNL A   1      36.449  32.949  29.708  1.00  0.00     0.173 A 
ATOM     52  F   UNL A   1      35.933  31.609  33.042  1.00  0.00    -0.203 F 
ATOM     53  C   UNL A   1      34.750  33.267  31.867  1.00  0.00     0.198 A 
ATOM     54  C   UNL A   1      35.430  33.902  29.666  1.00  0.00     0.198 A 
ATOM     55  F   UNL A   1      37.287  32.902  28.663  1.00  0.00    -0.203 F 
ATOM     56  F   UNL A   1      33.958  33.452  32.933  1.00  0.00    -0.200 F 
ATOM     57  C   UNL A   1      34.588  34.071  30.749  1.00  0.00     0.200 A 
ATOM     58  F   UNL A   1      35.311  34.700  28.595  1.00  0.00    -0.200 F 
ATOM     59  F   UNL A   1      33.653  35.030  30.732  1.00  0.00    -0.200 F 
ENDBRANCH  25  49
BRANCH  37  60
ATOM     60  C   UNL A   1      42.006  29.918  33.406  1.00  0.00     0.064 A 
ATOM     61  C   UNL A   1      41.513  28.606  33.292  1.00  0.00     0.173 A 
ATOM     62  C   UNL A   1      42.437  30.337  34.672  1.00  0.00     0.173 A 
ATOM     63  F   UNL A   1      41.164  28.102  32.101  1.00  0.00    -0.203 F 
ATOM     64  C   UNL A   1      41.437  27.765  34.402  1.00  0.00     0.198 A 
ATOM     65  C   UNL A   1      42.391  29.485  35.771  1.00  0.00     0.198 A 
ATOM     66  F   UNL A   1      42.962  31.562  34.829  1.00  0.00    -0.203 F 
ATOM     67  F   UNL A   1      40.969  26.514  34.271  1.00  0.00    -0.200 F 
ATOM     68  C   UNL A   1      41.885  28.202  35.639  1.00  0.00     0.200 A 
ATOM     69  F   UNL A   1      42.871  29.898  36.953  1.00  0.00    -0.200 F 
ATOM     70  F   UNL A   1      41.860  27.380  36.697  1.00  0.00    -0.200 F 
ENDBRANCH  37  60
ENDBRANCH  11  12
ENDBRANCH   4   6
ENDBRANCH   3   4
ENDBRANCH   2   3
ENDBRANCH   1   2
BRANCH   1  71
ATOM     71  O   UNL A   1      37.853  22.180  26.117  1.00  0.00    -0.461 OA
BRANCH  71  72
ATOM     72  C   UNL A   1      36.959  22.514  25.155  1.00  0.00     0.328 C 
ATOM     73  O   UNL A   1      37.083  22.093  24.018  1.00  0.00    -0.250 OA
BRANCH  72  74
ATOM     74  C   UNL A   1      35.787  23.371  25.588  1.00  0.00     0.195 C 
ATOM     75  C   UNL A   1      35.083  24.278  24.568  1.00  0.00     0.046 C 
ATOM     76  N   UNL A   1      34.612  22.758  26.247  1.00  0.00    -0.328 N 
ATOM     77  C   UNL A   1      33.792  24.783  25.322  1.00  0.00     0.001 C 
ATOM     78  C   UNL A   1      33.784  23.914  26.612  1.00  0.00     0.128 C 
ATOM     79  C   UNL A   1      32.478  24.507  24.561  1.00  0.00     0.071 C 
ATOM     80  C   UNL A   1      33.852  26.299  25.603  1.00  0.00     0.071 C 
ATOM     81  C   UNL A   1      32.306  25.356  23.311  1.00  0.00     0.270 C 
ATOM     82  C   UNL A   1      33.663  27.131  24.323  1.00  0.00     0.270 C 
ATOM     83  N   UNL A   1      32.432  26.774  23.609  1.00  0.00    -0.272 N 
ATOM     84  H   UNL A   1      32.764  27.294  22.843  1.00  0.00     0.356 HD
BRANCH  76  85
ATOM     85  C   UNL A   1      33.927  21.578  25.917  1.00  0.00     0.225 C 
ATOM     86  O   UNL A   1      33.629  20.793  26.833  1.00  0.00    -0.275 OA
BRANCH  85  87
ATOM     87  C   UNL A   1      33.741  21.028  24.490  1.00  0.00     0.124 C 
BRANCH  87  88
ATOM     88  C   UNL A   1      32.679  20.050  23.937  1.00  0.00     0.154 C 
BRANCH  88  89
ATOM     89  N   UNL A   1      32.746  18.630  24.179  1.00  0.00    -0.272 N 
ATOM     90  C   UNL A   1      33.235  17.658  23.356  1.00  0.00     0.108 A 
ATOM     91  N   UNL A   1      32.255  18.122  25.337  1.00  0.00    -0.182 NA
ATOM     92  C   UNL A   1      33.309  16.520  24.129  1.00  0.00     0.042 A 
ATOM     93  C   UNL A   1      32.716  16.873  25.354  1.00  0.00     0.135 A 
ENDBRANCH  88  89
ENDBRANCH  87  88
ENDBRANCH  85  87
ENDBRANCH  76  85
BRANCH  83  94
ATOM     94  C   UNL A   1      31.596  27.815  23.190  1.00  0.00     0.315 C 
ATOM     95  O   UNL A   1      31.972  28.594  22.313  1.00  0.00    -0.231 OA
BRANCH  94  96
ATOM     96  C   UNL A   1      30.239  28.116  23.751  1.00  0.00     0.119 C 
ATOM     97  C   UNL A   1      28.944  28.533  23.120  1.00  0.00     0.019 C 
ATOM     98  C   UNL A   1      29.117  27.116  23.597  1.00  0.00     0.019 C 
ENDBRANCH  94  96
ENDBRANCH  83  94
ENDBRANCH  72  74
ENDBRANCH  71  72
ENDBRANCH   1  71
TORSDOF 17
ENDMDL
MODEL 2
REMARK VINA RESULT:     -13.0      3.400      9.505
REMARK SMILES O=C(OCCOC(=O)[C@H]1CC2(CC[NH+](C(=O)C3CC3)CC2)CN1C(=O)CCn1cccn1)c1ccc(-c2c3nc(c(-c4c(F)c(F)c(F)c(F)c4F)c4ccc([nH]4)c(-c4c(F)c(F)c(F)c(F)c4F)c4nc(c(-c5c(F)c(F)c(F)c(F)c5F)c5ccc2[nH]5)C=C4)C=C3)cc1
REMARK SMILES IDX 5 1 4 2 3 3 2 4 1 5 33 6 34 7 95 8 35 9 94 10 36 11 37 12
REMARK SMILES IDX 38 13 88 14 39 15 93 16 87 17 89 18 40 19 92 20 86 21 85 22
REMARK SMILES IDX 41 24 73 25 53 26 72 27 54 28 57 29 71 30 90 31 55 32 56 33
REMARK SMILES IDX 70 35 91 36 58 37 42 38 43 39 51 40 44 41 45 42 49 43 52 44
REMARK SMILES IDX 46 45 47 46 50 47 48 48 74 49 75 50 83 51 76 52 77 53 81 54
REMARK SMILES IDX 84 55 78 56 79 57 82 58 80 59 59 60 60 61 68 62 61 63 62 64
REMARK SMILES IDX 66 65 69 66 63 67 64 68 67 69 65 70 6 71 7 72 8 73 9 74
REMARK SMILES IDX 10 75 23 76 11 77 22 78 12 79 21 80 13 81 20 82 14 83 24 85
REMARK SMILES IDX 25 86 26 87 27 88 28 89 29 90 32 91 30 92 31 93 15 94 16 95
REMARK SMILES IDX 17 96 18 97 19 98
REMARK H PARENT 89 23 57 34 14 84
REMARK Flexibility Score: inf
ROOT
ATOM      1  C   UNL A   1      33.045  31.375  27.291  1.00  0.00     0.274 C 
ENDROOT
BRANCH   1   2
ATOM      2  C   UNL A   1      33.805  32.512  28.007  1.00  0.00     0.275 C 
BRANCH   2   3
ATOM      3  O   UNL A   1      35.167  32.549  27.599  1.00  0.00    -0.458 OA
BRANCH   3   4
ATOM      4  C   UNL A   1      36.043  32.907  28.568  1.00  0.00     0.338 C 
ATOM      5  O   UNL A   1      36.150  33.991  29.113  1.00  0.00    -0.246 OA
BRANCH   4   6
ATOM      6  C   UNL A   1      37.016  31.810  28.731  1.00  0.00     0.060 A 
ATOM      7  C   UNL A   1      36.851  30.588  28.081  1.00  0.00     0.016 A 
ATOM      8  C   UNL A   1      38.169  32.061  29.484  1.00  0.00     0.016 A 
ATOM      9  C   UNL A   1      37.805  29.606  28.259  1.00  0.00     0.010 A 
ATOM     10  C   UNL A   1      39.173  31.115  29.573  1.00  0.00     0.010 A 
ATOM     11  C   UNL A   1      38.960  29.862  29.022  1.00  0.00    -0.014 A 
BRANCH  11  12
ATOM     12  C   UNL A   1      39.907  28.769  29.215  1.00  0.00     0.031 A 
ATOM     13  C   UNL A   1      40.241  28.503  30.637  1.00  0.00     0.074 A 
ATOM     14  C   UNL A   1      40.546  28.131  28.214  1.00  0.00     0.049 A 
ATOM     15  N   UNL A   1      41.249  28.995  31.277  1.00  0.00    -0.248 NA
ATOM     16  C   UNL A   1      39.265  27.821  31.492  1.00  0.00     0.031 C 
ATOM     17  C   UNL A   1      40.278  28.088  26.775  1.00  0.00     0.029 A 
ATOM     18  N   UNL A   1      41.667  27.365  28.332  1.00  0.00    -0.354 N 
ATOM     19  C   UNL A   1      41.121  28.578  32.595  1.00  0.00     0.074 A 
ATOM     20  C   UNL A   1      39.813  27.986  32.700  1.00  0.00     0.031 C 
ATOM     21  C   UNL A   1      41.091  27.177  26.186  1.00  0.00     0.029 A 
ATOM     22  C   UNL A   1      42.055  26.720  27.168  1.00  0.00     0.049 A 
ATOM     23  H   UNL A   1      42.161  27.276  29.178  1.00  0.00     0.167 HD
ATOM     24  C   UNL A   1      42.201  28.589  33.424  1.00  0.00     0.037 A 
ATOM     25  C   UNL A   1      43.125  25.901  27.020  1.00  0.00     0.037 A 
ATOM     26  C   UNL A   1      43.229  29.467  32.914  1.00  0.00     0.049 A 
ATOM     27  C   UNL A   1      44.100  26.271  28.079  1.00  0.00     0.074 A 
ATOM     28  C   UNL A   1      43.299  30.828  32.677  1.00  0.00     0.029 A 
ATOM     29  N   UNL A   1      44.243  28.911  32.171  1.00  0.00    -0.354 N 
ATOM     30  N   UNL A   1      44.740  27.410  28.089  1.00  0.00    -0.248 NA
ATOM     31  C   UNL A   1      43.978  25.608  29.370  1.00  0.00     0.031 C 
ATOM     32  C   UNL A   1      43.994  30.948  31.438  1.00  0.00     0.029 A 
ATOM     33  C   UNL A   1      44.385  29.670  31.038  1.00  0.00     0.049 A 
ATOM     34  H   UNL A   1      44.770  28.114  32.409  1.00  0.00     0.167 HD
ATOM     35  C   UNL A   1      44.721  27.811  29.416  1.00  0.00     0.074 A 
ATOM     36  C   UNL A   1      44.286  26.635  30.168  1.00  0.00     0.031 C 
ATOM     37  C   UNL A   1      44.789  29.131  29.760  1.00  0.00     0.037 A 
BRANCH  24  38
ATOM     38  C   UNL A   1      42.481  27.525  34.455  1.00  0.00     0.064 A 
ATOM     39  C   UNL A   1      43.066  26.311  34.042  1.00  0.00     0.173 A 
ATOM     40  C   UNL A   1      41.910  27.517  35.745  1.00  0.00     0.173 A 
ATOM     41  F   UNL A   1      43.640  26.200  32.834  1.00  0.00    -0.203 F 
ATOM     42  C   UNL A   1      42.985  25.152  34.821  1.00  0.00     0.198 A 
ATOM     43  C   UNL A   1      41.870  26.372  36.536  1.00  0.00     0.198 A 
ATOM     44  F   UNL A   1      41.269  28.575  36.252  1.00  0.00    -0.203 F 
ATOM     45  F   UNL A   1      43.434  23.989  34.330  1.00  0.00    -0.200 F 
ATOM     46  C   UNL A   1      42.373  25.181  36.060  1.00  0.00     0.200 A 
ATOM     47  F   UNL A   1      41.257  26.420  37.727  1.00  0.00    -0.200 F 
ATOM     48  F   UNL A   1      42.223  24.059  36.774  1.00  0.00    -0.200 F 
ENDBRANCH  24  38
BRANCH  25  49
ATOM     49  C   UNL A   1      43.146  24.586  26.334  1.00  0.00     0.064 A 
ATOM     50  C   UNL A   1      43.983  24.355  25.230  1.00  0.00     0.173 A 
ATOM     51  C   UNL A   1      42.564  23.448  26.926  1.00  0.00     0.173 A 
ATOM     52  F   UNL A   1      44.613  25.381  24.637  1.00  0.00    -0.203 F 
ATOM     53  C   UNL A   1      44.245  23.062  24.764  1.00  0.00     0.198 A 
ATOM     54  C   UNL A   1      42.826  22.158  26.461  1.00  0.00     0.198 A 
ATOM     55  F   UNL A   1      41.807  23.560  28.027  1.00  0.00    -0.203 F 
ATOM     56  F   UNL A   1      45.097  22.876  23.745  1.00  0.00    -0.200 F 
ATOM     57  C   UNL A   1      43.676  21.963  25.389  1.00  0.00     0.200 A 
ATOM     58  F   UNL A   1      42.302  21.102  27.100  1.00  0.00    -0.200 F 
ATOM     59  F   UNL A   1      43.978  20.722  24.986  1.00  0.00    -0.200 F 
ENDBRANCH  25  49
BRANCH  37  60
ATOM     60  C   UNL A   1      45.112  30.126  28.682  1.00  0.00     0.064 A 
ATOM     61  C   UNL A   1      44.159  30.697  27.819  1.00  0.00     0.173 A 
ATOM     62  C   UNL A   1      46.413  30.646  28.640  1.00  0.00     0.173 A 
ATOM     63  F   UNL A   1      42.876  30.316  27.861  1.00  0.00    -0.203 F 
ATOM     64  C   UNL A   1      44.505  31.726  26.942  1.00  0.00     0.198 A 
ATOM     65  C   UNL A   1      46.747  31.695  27.788  1.00  0.00     0.198 A 
ATOM     66  F   UNL A   1      47.351  30.173  29.475  1.00  0.00    -0.203 F 
ATOM     67  F   UNL A   1      43.579  32.261  26.131  1.00  0.00    -0.200 F 
ATOM     68  C   UNL A   1      45.796  32.230  26.935  1.00  0.00     0.200 A 
ATOM     69  F   UNL A   1      47.984  32.210  27.821  1.00  0.00    -0.200 F 
ATOM     70  F   UNL A   1      46.117  33.252  26.129  1.00  0.00    -0.200 F 
ENDBRANCH  37  60
ENDBRANCH  11  12
ENDBRANCH   4   6
ENDBRANCH   3   4
ENDBRANCH   2   3
ENDBRANCH   1   2
BRANCH   1  71
ATOM     71  O   UNL A   1      33.697  30.074  27.249  1.00  0.00    -0.461 OA
BRANCH  71  72
ATOM     72  C   UNL A   1      32.830  29.070  26.973  1.00  0.00     0.328 C 
ATOM     73  O   UNL A   1      31.811  28.931  27.627  1.00  0.00    -0.250 OA
BRANCH  72  74
ATOM     74  C   UNL A   1      33.168  28.191  25.785  1.00  0.00     0.195 C 
ATOM     75  C   UNL A   1      32.692  26.731  25.752  1.00  0.00     0.046 C 
ATOM     76  N   UNL A   1      32.808  28.613  24.413  1.00  0.00    -0.328 N 
ATOM     77  C   UNL A   1      33.005  26.253  24.281  1.00  0.00     0.001 C 
ATOM     78  C   UNL A   1      33.409  27.574  23.568  1.00  0.00     0.128 C 
ATOM     79  C   UNL A   1      31.780  25.674  23.540  1.00  0.00     0.071 C 
ATOM     80  C   UNL A   1      34.110  25.177  24.254  1.00  0.00     0.071 C 
ATOM     81  C   UNL A   1      31.320  24.329  24.079  1.00  0.00     0.270 C 
ATOM     82  C   UNL A   1      33.612  23.824  24.793  1.00  0.00     0.270 C 
ATOM     83  N   UNL A   1      32.407  23.362  24.095  1.00  0.00    -0.272 N 
ATOM     84  H   UNL A   1      32.301  22.683  24.799  1.00  0.00     0.356 HD
BRANCH  76  85
ATOM     85  C   UNL A   1      31.614  29.186  23.946  1.00  0.00     0.225 C 
ATOM     86  O   UNL A   1      30.954  29.892  24.726  1.00  0.00    -0.275 OA
BRANCH  85  87
ATOM     87  C   UNL A   1      30.900  28.806  22.635  1.00  0.00     0.124 C 
BRANCH  87  88
ATOM     88  C   UNL A   1      29.867  29.601  21.804  1.00  0.00     0.154 C 
BRANCH  88  89
ATOM     89  N   UNL A   1      28.970  30.554  22.408  1.00  0.00    -0.272 N 
ATOM     90  C   UNL A   1      27.850  30.305  23.145  1.00  0.00     0.108 A 
ATOM     91  N   UNL A   1      29.188  31.883  22.240  1.00  0.00    -0.182 NA
ATOM     92  C   UNL A   1      27.493  31.516  23.699  1.00  0.00     0.042 A 
ATOM     93  C   UNL A   1      28.373  32.451  23.126  1.00  0.00     0.135 A 
ENDBRANCH  88  89
ENDBRANCH  87  88
ENDBRANCH  85  87
ENDBRANCH  76  85
BRANCH  83  94
ATOM     94  C   UNL A   1      32.383  22.037  23.644  1.00  0.00     0.315 C 
ATOM     95  O   UNL A   1      32.528  21.790  22.446  1.00  0.00    -0.231 OA
BRANCH  94  96
ATOM     96  C   UNL A   1      32.154  20.833  24.506  1.00  0.00     0.119 C 
ATOM     97  C   UNL A   1      32.631  19.413  24.422  1.00  0.00     0.019 C 
ATOM     98  C   UNL A   1      33.243  20.345  25.432  1.00  0.00     0.019 C 
ENDBRANCH  94  96
ENDBRANCH  83  94
ENDBRANCH  72  74
ENDBRANCH  71  72
ENDBRANCH   1  71
TORSDOF 17
ENDMDL
MODEL 3
REMARK VINA RESULT:     -12.3      5.910     12.289
REMARK SMILES O=C(OCCOC(=O)[C@H]1CC2(CC[NH+](C(=O)C3CC3)CC2)CN1C(=O)CCn1cccn1)c1ccc(-c2c3nc(c(-c4c(F)c(F)c(F)c(F)c4F)c4ccc([nH]4)c(-c4c(F)c(F)c(F)c(F)c4F)c4nc(c(-c5c(F)c(F)c(F)c(F)c5F)c5ccc2[nH]5)C=C4)C=C3)cc1
REMARK SMILES IDX 5 1 4 2 3 3 2 4 1 5 33 6 34 7 95 8 35 9 94 10 36 11 37 12
REMARK SMILES IDX 38 13 88 14 39 15 93 16 87 17 89 18 40 19 92 20 86 21 85 22
REMARK SMILES IDX 41 24 73 25 53 26 72 27 54 28 57 29 71 30 90 31 55 32 56 33
REMARK SMILES IDX 70 35 91 36 58 37 42 38 43 39 51 40 44 41 45 42 49 43 52 44
REMARK SMILES IDX 46 45 47 46 50 47 48 48 74 49 75 50 83 51 76 52 77 53 81 54
REMARK SMILES IDX 84 55 78 56 79 57 82 58 80 59 59 60 60 61 68 62 61 63 62 64
REMARK SMILES IDX 66 65 69 66 63 67 64 68 67 69 65 70 6 71 7 72 8 73 9 74
REMARK SMILES IDX 10 75 23 76 11 77 22 78 12 79 21 80 13 81 20 82 14 83 24 85
REMARK SMILES IDX 25 86 26 87 27 88 28 89 29 90 32 91 30 92 31 93 15 94 16 95
REMARK SMILES IDX 17 96 18 97 19 98
REMARK H PARENT 89 23 57 34 14 84
REMARK Flexibility Score: inf
ROOT
ATOM      1  C   UNL A   1      35.063  32.773  31.858  1.00  0.00     0.274 C 
ENDROOT
BRANCH   1   2
ATOM      2  C   UNL A   1      34.766  33.226  30.413  1.00  0.00     0.275 C 
BRANCH   2   3
ATOM      3  O   UNL A   1      35.943  33.714  29.780  1.00  0.00    -0.458 OA
BRANCH   3   4
ATOM      4  C   UNL A   1      36.204  33.175  28.566  1.00  0.00     0.338 C 
ATOM      5  O   UNL A   1      35.627  33.390  27.515  1.00  0.00    -0.246 OA
BRANCH   4   6
ATOM      6  C   UNL A   1      37.195  32.097  28.748  1.00  0.00     0.060 A 
ATOM      7  C   UNL A   1      38.397  32.321  29.418  1.00  0.00     0.016 A 
ATOM      8  C   UNL A   1      36.855  30.811  28.314  1.00  0.00     0.016 A 
ATOM      9  C   UNL A   1      39.278  31.268  29.572  1.00  0.00     0.010 A 
ATOM     10  C   UNL A   1      37.690  29.738  28.564  1.00  0.00     0.010 A 
ATOM     11  C   UNL A   1      38.932  29.977  29.127  1.00  0.00    -0.014 A 
BRANCH  11  12
ATOM     12  C   UNL A   1      39.924  28.918  29.274  1.00  0.00     0.031 A 
ATOM     13  C   UNL A   1      40.257  28.593  30.684  1.00  0.00     0.074 A 
ATOM     14  C   UNL A   1      40.600  28.360  28.249  1.00  0.00     0.049 A 
ATOM     15  N   UNL A   1      41.237  29.095  31.360  1.00  0.00    -0.248 NA
ATOM     16  C   UNL A   1      39.304  27.826  31.493  1.00  0.00     0.031 C 
ATOM     17  C   UNL A   1      40.346  28.379  26.807  1.00  0.00     0.029 A 
ATOM     18  N   UNL A   1      41.752  27.638  28.341  1.00  0.00    -0.354 N 
ATOM     19  C   UNL A   1      41.116  28.606  32.653  1.00  0.00     0.074 A 
ATOM     20  C   UNL A   1      39.834  27.953  32.714  1.00  0.00     0.031 C 
ATOM     21  C   UNL A   1      41.204  27.536  26.181  1.00  0.00     0.029 A 
ATOM     22  C   UNL A   1      42.178  27.071  27.149  1.00  0.00     0.049 A 
ATOM     23  H   UNL A   1      42.242  27.528  29.187  1.00  0.00     0.167 HD
ATOM     24  C   UNL A   1      42.187  28.622  33.494  1.00  0.00     0.037 A 
ATOM     25  C   UNL A   1      43.285  26.308  26.972  1.00  0.00     0.037 A 
ATOM     26  C   UNL A   1      43.180  29.568  33.041  1.00  0.00     0.049 A 
ATOM     27  C   UNL A   1      44.233  26.665  28.060  1.00  0.00     0.074 A 
ATOM     28  C   UNL A   1      43.192  30.941  32.875  1.00  0.00     0.029 A 
ATOM     29  N   UNL A   1      44.223  29.095  32.282  1.00  0.00    -0.354 N 
ATOM     30  N   UNL A   1      44.822  27.829  28.135  1.00  0.00    -0.248 NA
ATOM     31  C   UNL A   1      44.129  25.932  29.314  1.00  0.00     0.031 C 
ATOM     32  C   UNL A   1      43.892  31.155  31.650  1.00  0.00     0.029 A 
ATOM     33  C   UNL A   1      44.342  29.917  31.190  1.00  0.00     0.049 A 
ATOM     34  H   UNL A   1      44.783  28.311  32.485  1.00  0.00     0.167 HD
ATOM     35  C   UNL A   1      44.774  28.160  29.480  1.00  0.00     0.074 A 
ATOM     36  C   UNL A   1      44.385  26.929  30.166  1.00  0.00     0.031 C 
ATOM     37  C   UNL A   1      44.780  29.462  29.891  1.00  0.00     0.037 A 
BRANCH  24  38
ATOM     38  C   UNL A   1      42.504  27.519  34.472  1.00  0.00     0.064 A 
ATOM     39  C   UNL A   1      43.079  26.324  33.993  1.00  0.00     0.173 A 
ATOM     40  C   UNL A   1      41.977  27.458  35.780  1.00  0.00     0.173 A 
ATOM     41  F   UNL A   1      43.613  26.264  32.764  1.00  0.00    -0.203 F 
ATOM     42  C   UNL A   1      43.027  25.136  34.728  1.00  0.00     0.198 A 
ATOM     43  C   UNL A   1      41.966  26.283  36.526  1.00  0.00     0.198 A 
ATOM     44  F   UNL A   1      41.350  28.493  36.348  1.00  0.00    -0.203 F 
ATOM     45  F   UNL A   1      43.463  23.995  34.177  1.00  0.00    -0.200 F 
ATOM     46  C   UNL A   1      42.457  25.113  35.987  1.00  0.00     0.200 A 
ATOM     47  F   UNL A   1      41.394  26.281  37.737  1.00  0.00    -0.200 F 
ATOM     48  F   UNL A   1      42.334  23.963  36.660  1.00  0.00    -0.200 F 
ENDBRANCH  24  38
BRANCH  25  49
ATOM     49  C   UNL A   1      43.369  25.032  26.220  1.00  0.00     0.064 A 
ATOM     50  C   UNL A   1      44.358  24.828  25.243  1.00  0.00     0.173 A 
ATOM     51  C   UNL A   1      42.668  23.888  26.649  1.00  0.00     0.173 A 
ATOM     52  F   UNL A   1      45.103  25.858  24.815  1.00  0.00    -0.203 F 
ATOM     53  C   UNL A   1      44.648  23.553  24.747  1.00  0.00     0.198 A 
ATOM     54  C   UNL A   1      42.959  22.616  26.153  1.00  0.00     0.198 A 
ATOM     55  F   UNL A   1      41.756  23.970  27.627  1.00  0.00    -0.203 F 
ATOM     56  F   UNL A   1      45.639  23.387  23.859  1.00  0.00    -0.200 F 
ATOM     57  C   UNL A   1      43.956  22.445  25.212  1.00  0.00     0.200 A 
ATOM     58  F   UNL A   1      42.310  21.548  26.642  1.00  0.00    -0.200 F 
ATOM     59  F   UNL A   1      44.277  21.216  24.787  1.00  0.00    -0.200 F 
ENDBRANCH  25  49
BRANCH  37  60
ATOM     60  C   UNL A   1      45.070  30.525  28.869  1.00  0.00     0.064 A 
ATOM     61  C   UNL A   1      44.110  31.061  27.991  1.00  0.00     0.173 A 
ATOM     62  C   UNL A   1      46.328  31.141  28.903  1.00  0.00     0.173 A 
ATOM     63  F   UNL A   1      42.859  30.584  27.963  1.00  0.00    -0.203 F 
ATOM     64  C   UNL A   1      44.411  32.149  27.171  1.00  0.00     0.198 A 
ATOM     65  C   UNL A   1      46.614  32.248  28.108  1.00  0.00     0.198 A 
ATOM     66  F   UNL A   1      47.266  30.703  29.757  1.00  0.00    -0.203 F 
ATOM     67  F   UNL A   1      43.480  32.649  26.344  1.00  0.00    -0.200 F 
ATOM     68  C   UNL A   1      45.659  32.747  27.238  1.00  0.00     0.200 A 
ATOM     69  F   UNL A   1      47.807  32.851  28.214  1.00  0.00    -0.200 F 
ATOM     70  F   UNL A   1      45.934  33.824  26.489  1.00  0.00    -0.200 F 
ENDBRANCH  37  60
ENDBRANCH  11  12
ENDBRANCH   4   6
ENDBRANCH   3   4
ENDBRANCH   2   3
ENDBRANCH   1   2
BRANCH   1  71
ATOM     71  O   UNL A   1      35.556  31.414  32.033  1.00  0.00    -0.461 OA
BRANCH  71  72
ATOM     72  C   UNL A   1      36.723  31.372  32.720  1.00  0.00     0.328 C 
ATOM     73  O   UNL A   1      37.598  30.580  32.412  1.00  0.00    -0.250 OA
BRANCH  72  74
ATOM     74  C   UNL A   1      36.895  32.393  33.826  1.00  0.00     0.195 C 
ATOM     75  C   UNL A   1      37.708  32.035  35.079  1.00  0.00     0.046 C 
ATOM     76  N   UNL A   1      37.448  33.734  33.531  1.00  0.00    -0.328 N 
ATOM     77  C   UNL A   1      37.871  33.407  35.842  1.00  0.00     0.001 C 
ATOM     78  C   UNL A   1      37.332  34.440  34.813  1.00  0.00     0.128 C 
ATOM     79  C   UNL A   1      39.336  33.775  36.156  1.00  0.00     0.071 C 
ATOM     80  C   UNL A   1      37.099  33.412  37.179  1.00  0.00     0.071 C 
ATOM     81  C   UNL A   1      39.974  32.894  37.219  1.00  0.00     0.270 C 
ATOM     82  C   UNL A   1      37.774  32.522  38.238  1.00  0.00     0.270 C 
ATOM     83  N   UNL A   1      39.183  32.877  38.440  1.00  0.00    -0.272 N 
ATOM     84  H   UNL A   1      39.286  32.040  38.947  1.00  0.00     0.356 HD
BRANCH  76  85
ATOM     85  C   UNL A   1      38.541  34.083  32.722  1.00  0.00     0.225 C 
ATOM     86  O   UNL A   1      38.340  34.825  31.745  1.00  0.00    -0.275 OA
BRANCH  85  87
ATOM     87  C   UNL A   1      39.930  33.418  32.770  1.00  0.00     0.124 C 
BRANCH  87  88
ATOM     88  C   UNL A   1      41.336  34.061  32.758  1.00  0.00     0.154 C 
BRANCH  88  89
ATOM     89  N   UNL A   1      42.045  34.328  31.531  1.00  0.00    -0.272 N 
ATOM     90  C   UNL A   1      43.288  34.868  31.377  1.00  0.00     0.108 A 
ATOM     91  N   UNL A   1      41.452  34.061  30.340  1.00  0.00    -0.182 NA
ATOM     92  C   UNL A   1      43.611  34.685  30.050  1.00  0.00     0.042 A 
ATOM     93  C   UNL A   1      42.448  34.156  29.462  1.00  0.00     0.135 A 
ENDBRANCH  88  89
ENDBRANCH  87  88
ENDBRANCH  85  87
ENDBRANCH  76  85
BRANCH  83  94
ATOM     94  C   UNL A   1      39.634  33.031  39.756  1.00  0.00     0.315 C 
ATOM     95  O   UNL A   1      40.066  32.059  40.378  1.00  0.00    -0.231 OA
BRANCH  94  96
ATOM     96  C   UNL A   1      39.611  34.311  40.535  1.00  0.00     0.119 C 
ATOM     97  C   UNL A   1      39.078  35.680  40.233  1.00  0.00     0.019 C 
ATOM     98  C   UNL A   1      38.329  34.783  41.180  1.00  0.00     0.019 C 
ENDBRANCH  94  96
ENDBRANCH  83  94
ENDBRANCH  72  74
ENDBRANCH  71  72
ENDBRANCH   1  71
TORSDOF 17
ENDMDL
