MODEL 1
REMARK VINA RESULT:     -11.1      0.000      0.000
REMARK SMILES CCc1nc(=O)n([C@@H](CC)C(C)C)c(CC)c1CC(=O)OCCOC(=O)c1ccc(-c2c3nc(c(-c4c(F)c(F)c(F)c(F)c4F)c4ccc([nH]4)c(-c4c(F)c(F)c(F)c(F)c4F)c4nc(c(-c5c(F)c(F)c(F)c(F)c5F)c5ccc2[nH]5)C=C4)C=C3)cc1
REMARK SMILES IDX 22 1 21 2 19 3 20 4 18 5 17 6 3 7 4 8 5 9 14 10 6 11 7 12
REMARK SMILES IDX 2 13 1 14 15 15 16 16 8 17 9 18 10 19 11 20 12 21 13 22
REMARK SMILES IDX 23 23 24 24 25 25 26 26 27 27 28 28 89 29 29 30 88 31 30 32
REMARK SMILES IDX 31 33 32 34 82 35 33 36 87 37 81 38 83 39 34 40 86 41 80 42
REMARK SMILES IDX 79 43 35 45 67 46 47 47 66 48 48 49 51 50 65 51 84 52 49 53
REMARK SMILES IDX 50 54 64 56 85 57 52 58 36 59 37 60 45 61 38 62 39 63 43 64
REMARK SMILES IDX 46 65 40 66 41 67 44 68 42 69 68 70 69 71 77 72 70 73 71 74
REMARK SMILES IDX 75 75 78 76 72 77 73 78 76 79 74 80 53 81 54 82 62 83 55 84
REMARK SMILES IDX 56 85 60 86 63 87 57 88 58 89 61 90 59 91
REMARK H PARENT 83 44 51 55
REMARK Flexibility Score: inf
ROOT
ATOM      1  C   UNL A   1      32.045  28.408  27.554  1.00  0.00     0.274 C 
ENDROOT
BRANCH   1   2
ATOM      2  O   UNL A   1      30.985  27.469  27.234  1.00  0.00    -0.462 OA
BRANCH   2   3
ATOM      3  C   UNL A   1      31.245  26.618  26.213  1.00  0.00     0.310 C 
ATOM      4  O   UNL A   1      30.430  26.326  25.339  1.00  0.00    -0.252 OA
BRANCH   3   5
ATOM      5  C   UNL A   1      32.687  26.125  26.111  1.00  0.00     0.162 C 
BRANCH   5   6
ATOM      6  C   UNL A   1      33.146  25.162  25.057  1.00  0.00     0.005 A 
ATOM      7  C   UNL A   1      33.718  25.710  23.784  1.00  0.00     0.051 A 
ATOM      8  N   UNL A   1      34.401  25.000  22.952  1.00  0.00    -0.198 NA
ATOM      9  C   UNL A   1      34.620  23.673  23.164  1.00  0.00     0.348 A 
ATOM     10  C   UNL A   1      33.306  23.817  25.233  1.00  0.00     0.028 A 
ATOM     11  O   UNL A   1      35.337  23.054  22.390  1.00  0.00    -0.246 OA
ATOM     12  N   UNL A   1      33.991  23.059  24.257  1.00  0.00    -0.293 N 
BRANCH   7  13
ATOM     13  C   UNL A   1      33.473  27.143  23.253  1.00  0.00     0.053 C 
ATOM     14  C   UNL A   1      32.278  27.524  22.407  1.00  0.00     0.011 C 
ENDBRANCH   7  13
BRANCH  10  15
ATOM     15  C   UNL A   1      32.928  23.086  26.539  1.00  0.00     0.051 C 
ATOM     16  C   UNL A   1      31.430  22.932  26.852  1.00  0.00     0.010 C 
ENDBRANCH  10  15
BRANCH  12  17
ATOM     17  C   UNL A   1      34.054  21.573  24.326  1.00  0.00     0.094 C 
BRANCH  17  18
ATOM     18  C   UNL A   1      35.029  21.102  25.434  1.00  0.00     0.022 C 
ATOM     19  C   UNL A   1      36.438  20.736  25.002  1.00  0.00     0.006 C 
ENDBRANCH  17  18
BRANCH  17  20
ATOM     20  C   UNL A   1      32.705  20.808  24.191  1.00  0.00     0.006 C 
ATOM     21  C   UNL A   1      32.148  20.936  22.764  1.00  0.00     0.009 C 
ATOM     22  C   UNL A   1      32.901  19.312  24.492  1.00  0.00     0.009 C 
ENDBRANCH  17  20
ENDBRANCH  12  17
ENDBRANCH   5   6
ENDBRANCH   3   5
ENDBRANCH   2   3
ENDBRANCH   1   2
BRANCH   1  23
ATOM     23  C   UNL A   1      31.882  29.763  26.838  1.00  0.00     0.275 C 
BRANCH  23  24
ATOM     24  O   UNL A   1      33.133  30.283  26.326  1.00  0.00    -0.458 OA
BRANCH  24  25
ATOM     25  C   UNL A   1      33.674  31.182  27.170  1.00  0.00     0.338 C 
ATOM     26  O   UNL A   1      33.115  32.195  27.545  1.00  0.00    -0.246 OA
BRANCH  25  27
ATOM     27  C   UNL A   1      34.986  30.856  27.730  1.00  0.00     0.060 A 
ATOM     28  C   UNL A   1      35.896  31.880  28.001  1.00  0.00     0.016 A 
ATOM     29  C   UNL A   1      35.162  29.592  28.297  1.00  0.00     0.016 A 
ATOM     30  C   UNL A   1      37.026  31.606  28.779  1.00  0.00     0.010 A 
ATOM     31  C   UNL A   1      36.229  29.353  29.158  1.00  0.00     0.010 A 
ATOM     32  C   UNL A   1      37.209  30.337  29.352  1.00  0.00    -0.014 A 
BRANCH  32  33
ATOM     33  C   UNL A   1      38.498  29.965  29.990  1.00  0.00     0.031 A 
ATOM     34  C   UNL A   1      38.782  30.481  31.379  1.00  0.00     0.074 A 
ATOM     35  C   UNL A   1      39.392  29.169  29.370  1.00  0.00     0.049 A 
ATOM     36  N   UNL A   1      39.797  30.235  32.167  1.00  0.00    -0.248 NA
ATOM     37  C   UNL A   1      37.799  31.418  31.954  1.00  0.00     0.031 C 
ATOM     38  C   UNL A   1      39.265  28.644  28.012  1.00  0.00     0.029 A 
ATOM     39  N   UNL A   1      40.584  28.652  29.818  1.00  0.00    -0.354 N 
ATOM     40  C   UNL A   1      39.563  30.975  33.319  1.00  0.00     0.074 A 
ATOM     41  C   UNL A   1      38.369  31.752  33.098  1.00  0.00     0.031 C 
ATOM     42  C   UNL A   1      40.313  27.840  27.754  1.00  0.00     0.029 A 
ATOM     43  C   UNL A   1      41.187  27.800  28.925  1.00  0.00     0.049 A 
ATOM     44  H   UNL A   1      40.969  28.870  30.698  1.00  0.00     0.167 HD
ATOM     45  C   UNL A   1      40.244  30.967  34.487  1.00  0.00     0.037 A 
ATOM     46  C   UNL A   1      42.301  27.051  29.055  1.00  0.00     0.037 A 
ATOM     47  C   UNL A   1      41.414  30.173  34.729  1.00  0.00     0.049 A 
ATOM     48  C   UNL A   1      43.060  27.076  30.358  1.00  0.00     0.074 A 
ATOM     49  C   UNL A   1      42.162  30.071  35.886  1.00  0.00     0.029 A 
ATOM     50  N   UNL A   1      41.996  29.334  33.792  1.00  0.00    -0.354 N 
ATOM     51  N   UNL A   1      42.786  27.724  31.465  1.00  0.00    -0.248 NA
ATOM     52  C   UNL A   1      44.278  26.255  30.435  1.00  0.00     0.031 C 
ATOM     53  C   UNL A   1      43.217  29.188  35.642  1.00  0.00     0.029 A 
ATOM     54  C   UNL A   1      43.103  28.715  34.343  1.00  0.00     0.049 A 
ATOM     55  H   UNL A   1      41.672  29.200  32.872  1.00  0.00     0.167 HD
ATOM     56  C   UNL A   1      43.775  27.365  32.374  1.00  0.00     0.074 A 
ATOM     57  C   UNL A   1      44.649  26.433  31.695  1.00  0.00     0.031 C 
ATOM     58  C   UNL A   1      43.944  27.773  33.655  1.00  0.00     0.037 A 
BRANCH  45  59
ATOM     59  C   UNL A   1      39.706  31.807  35.604  1.00  0.00     0.064 A 
ATOM     60  C   UNL A   1      40.205  33.098  35.844  1.00  0.00     0.173 A 
ATOM     61  C   UNL A   1      38.667  31.340  36.421  1.00  0.00     0.173 A 
ATOM     62  F   UNL A   1      41.213  33.579  35.103  1.00  0.00    -0.203 F 
ATOM     63  C   UNL A   1      39.696  33.881  36.874  1.00  0.00     0.198 A 
ATOM     64  C   UNL A   1      38.142  32.138  37.433  1.00  0.00     0.198 A 
ATOM     65  F   UNL A   1      38.158  30.113  36.233  1.00  0.00    -0.203 F 
ATOM     66  F   UNL A   1      40.219  35.093  37.112  1.00  0.00    -0.200 F 
ATOM     67  C   UNL A   1      38.660  33.405  37.663  1.00  0.00     0.200 A 
ATOM     68  F   UNL A   1      37.134  31.682  38.190  1.00  0.00    -0.200 F 
ATOM     69  F   UNL A   1      38.163  34.166  38.648  1.00  0.00    -0.200 F 
ENDBRANCH  45  59
BRANCH  46  70
ATOM     70  C   UNL A   1      42.733  26.150  27.953  1.00  0.00     0.064 A 
ATOM     71  C   UNL A   1      43.631  26.599  26.974  1.00  0.00     0.173 A 
ATOM     72  C   UNL A   1      42.248  24.840  27.840  1.00  0.00     0.173 A 
ATOM     73  F   UNL A   1      44.104  27.853  27.025  1.00  0.00    -0.203 F 
ATOM     74  C   UNL A   1      44.015  25.779  25.915  1.00  0.00     0.198 A 
ATOM     75  C   UNL A   1      42.650  24.012  26.793  1.00  0.00     0.198 A 
ATOM     76  F   UNL A   1      41.385  24.362  28.748  1.00  0.00    -0.203 F 
ATOM     77  F   UNL A   1      44.842  26.248  24.971  1.00  0.00    -0.200 F 
ATOM     78  C   UNL A   1      43.528  24.483  25.828  1.00  0.00     0.200 A 
ATOM     79  F   UNL A   1      42.183  22.758  26.715  1.00  0.00    -0.200 F 
ATOM     80  F   UNL A   1      43.896  23.694  24.809  1.00  0.00    -0.200 F 
ENDBRANCH  46  70
BRANCH  58  81
ATOM     81  C   UNL A   1      45.097  27.202  34.425  1.00  0.00     0.064 A 
ATOM     82  C   UNL A   1      44.975  26.001  35.136  1.00  0.00     0.173 A 
ATOM     83  C   UNL A   1      46.360  27.810  34.366  1.00  0.00     0.173 A 
ATOM     84  F   UNL A   1      43.784  25.388  35.226  1.00  0.00    -0.203 F 
ATOM     85  C   UNL A   1      46.075  25.432  35.770  1.00  0.00     0.198 A 
ATOM     86  C   UNL A   1      47.464  27.225  34.979  1.00  0.00     0.198 A 
ATOM     87  F   UNL A   1      46.528  28.955  33.686  1.00  0.00    -0.203 F 
ATOM     88  F   UNL A   1      45.933  24.296  36.464  1.00  0.00    -0.200 F 
ATOM     89  C   UNL A   1      47.321  26.039  35.681  1.00  0.00     0.200 A 
ATOM     90  F   UNL A   1      48.669  27.803  34.877  1.00  0.00    -0.200 F 
ATOM     91  F   UNL A   1      48.384  25.478  36.274  1.00  0.00    -0.200 F 
ENDBRANCH  58  81
ENDBRANCH  32  33
ENDBRANCH  25  27
ENDBRANCH  24  25
ENDBRANCH  23  24
ENDBRANCH   1  23
TORSDOF 17
ENDMDL
MODEL 2
REMARK VINA RESULT:     -11.1      0.545      1.919
REMARK SMILES CCc1nc(=O)n([C@@H](CC)C(C)C)c(CC)c1CC(=O)OCCOC(=O)c1ccc(-c2c3nc(c(-c4c(F)c(F)c(F)c(F)c4F)c4ccc([nH]4)c(-c4c(F)c(F)c(F)c(F)c4F)c4nc(c(-c5c(F)c(F)c(F)c(F)c5F)c5ccc2[nH]5)C=C4)C=C3)cc1
REMARK SMILES IDX 22 1 21 2 19 3 20 4 18 5 17 6 3 7 4 8 5 9 14 10 6 11 7 12
REMARK SMILES IDX 2 13 1 14 15 15 16 16 8 17 9 18 10 19 11 20 12 21 13 22
REMARK SMILES IDX 23 23 24 24 25 25 26 26 27 27 28 28 89 29 29 30 88 31 30 32
REMARK SMILES IDX 31 33 32 34 82 35 33 36 87 37 81 38 83 39 34 40 86 41 80 42
REMARK SMILES IDX 79 43 35 45 67 46 47 47 66 48 48 49 51 50 65 51 84 52 49 53
REMARK SMILES IDX 50 54 64 56 85 57 52 58 36 59 37 60 45 61 38 62 39 63 43 64
REMARK SMILES IDX 46 65 40 66 41 67 44 68 42 69 68 70 69 71 77 72 70 73 71 74
REMARK SMILES IDX 75 75 78 76 72 77 73 78 76 79 74 80 53 81 54 82 62 83 55 84
REMARK SMILES IDX 56 85 60 86 63 87 57 88 58 89 61 90 59 91
REMARK H PARENT 83 44 51 55
REMARK Flexibility Score: inf
ROOT
ATOM      1  C   UNL A   1      32.027  28.274  27.313  1.00  0.00     0.274 C 
ENDROOT
BRANCH   1   2
ATOM      2  O   UNL A   1      31.027  27.362  26.788  1.00  0.00    -0.462 OA
BRANCH   2   3
ATOM      3  C   UNL A   1      31.473  26.125  26.468  1.00  0.00     0.310 C 
ATOM      4  O   UNL A   1      30.748  25.135  26.380  1.00  0.00    -0.252 OA
BRANCH   3   5
ATOM      5  C   UNL A   1      32.946  26.032  26.075  1.00  0.00     0.162 C 
BRANCH   5   6
ATOM      6  C   UNL A   1      33.474  24.995  25.128  1.00  0.00     0.005 A 
ATOM      7  C   UNL A   1      33.638  25.358  23.683  1.00  0.00     0.051 A 
ATOM      8  N   UNL A   1      34.342  24.664  22.856  1.00  0.00    -0.198 NA
ATOM      9  C   UNL A   1      34.964  23.516  23.241  1.00  0.00     0.348 A 
ATOM     10  C   UNL A   1      34.039  23.807  25.496  1.00  0.00     0.028 A 
ATOM     11  O   UNL A   1      35.684  22.929  22.445  1.00  0.00    -0.246 OA
ATOM     12  N   UNL A   1      34.734  23.035  24.539  1.00  0.00    -0.293 N 
BRANCH   7  13
ATOM     13  C   UNL A   1      32.908  26.526  22.980  1.00  0.00     0.053 C 
ATOM     14  C   UNL A   1      33.557  27.863  22.696  1.00  0.00     0.011 C 
ENDBRANCH   7  13
BRANCH  10  15
ATOM     15  C   UNL A   1      34.115  23.326  26.961  1.00  0.00     0.051 C 
ATOM     16  C   UNL A   1      32.882  22.606  27.532  1.00  0.00     0.010 C 
ENDBRANCH  10  15
BRANCH  12  17
ATOM     17  C   UNL A   1      35.229  21.666  24.851  1.00  0.00     0.094 C 
BRANCH  17  18
ATOM     18  C   UNL A   1      34.265  20.582  24.306  1.00  0.00     0.022 C 
ATOM     19  C   UNL A   1      33.394  19.862  25.319  1.00  0.00     0.006 C 
ENDBRANCH  17  18
BRANCH  17  20
ATOM     20  C   UNL A   1      36.756  21.417  24.676  1.00  0.00     0.006 C 
ATOM     21  C   UNL A   1      37.566  22.317  25.623  1.00  0.00     0.009 C 
ATOM     22  C   UNL A   1      37.104  19.953  24.999  1.00  0.00     0.009 C 
ENDBRANCH  17  20
ENDBRANCH  12  17
ENDBRANCH   5   6
ENDBRANCH   3   5
ENDBRANCH   2   3
ENDBRANCH   1   2
BRANCH   1  23
ATOM     23  C   UNL A   1      31.823  29.726  26.840  1.00  0.00     0.275 C 
BRANCH  23  24
ATOM     24  O   UNL A   1      33.033  30.321  26.309  1.00  0.00    -0.458 OA
BRANCH  24  25
ATOM     25  C   UNL A   1      33.571  31.199  27.177  1.00  0.00     0.338 C 
ATOM     26  O   UNL A   1      33.006  32.198  27.581  1.00  0.00    -0.246 OA
BRANCH  25  27
ATOM     27  C   UNL A   1      34.885  30.865  27.726  1.00  0.00     0.060 A 
ATOM     28  C   UNL A   1      35.805  31.882  27.986  1.00  0.00     0.016 A 
ATOM     29  C   UNL A   1      35.057  29.601  28.294  1.00  0.00     0.016 A 
ATOM     30  C   UNL A   1      36.940  31.603  28.754  1.00  0.00     0.010 A 
ATOM     31  C   UNL A   1      36.130  29.356  29.146  1.00  0.00     0.010 A 
ATOM     32  C   UNL A   1      37.119  30.333  29.329  1.00  0.00    -0.014 A 
BRANCH  32  33
ATOM     33  C   UNL A   1      38.411  29.953  29.956  1.00  0.00     0.031 A 
ATOM     34  C   UNL A   1      38.706  30.460  31.346  1.00  0.00     0.074 A 
ATOM     35  C   UNL A   1      39.298  29.158  29.325  1.00  0.00     0.049 A 
ATOM     36  N   UNL A   1      39.726  30.206  32.125  1.00  0.00    -0.248 NA
ATOM     37  C   UNL A   1      37.730  31.397  31.933  1.00  0.00     0.031 C 
ATOM     38  C   UNL A   1      39.160  28.641  27.965  1.00  0.00     0.029 A 
ATOM     39  N   UNL A   1      40.491  28.634  29.762  1.00  0.00    -0.354 N 
ATOM     40  C   UNL A   1      39.502  30.940  33.283  1.00  0.00     0.074 A 
ATOM     41  C   UNL A   1      38.309  31.722  33.075  1.00  0.00     0.031 C 
ATOM     42  C   UNL A   1      40.203  27.835  27.695  1.00  0.00     0.029 A 
ATOM     43  C   UNL A   1      41.086  27.785  28.860  1.00  0.00     0.049 A 
ATOM     44  H   UNL A   1      40.883  28.846  30.640  1.00  0.00     0.167 HD
ATOM     45  C   UNL A   1      40.191  30.923  34.446  1.00  0.00     0.037 A 
ATOM     46  C   UNL A   1      42.197  27.032  28.978  1.00  0.00     0.037 A 
ATOM     47  C   UNL A   1      41.359  30.123  34.676  1.00  0.00     0.049 A 
ATOM     48  C   UNL A   1      42.965  27.047  30.276  1.00  0.00     0.074 A 
ATOM     49  C   UNL A   1      42.115  30.012  35.827  1.00  0.00     0.029 A 
ATOM     50  N   UNL A   1      41.933  29.288  33.730  1.00  0.00    -0.354 N 
ATOM     51  N   UNL A   1      42.702  27.689  31.388  1.00  0.00    -0.248 NA
ATOM     52  C   UNL A   1      44.181  26.221  30.339  1.00  0.00     0.031 C 
ATOM     53  C   UNL A   1      43.165  29.127  35.571  1.00  0.00     0.029 A 
ATOM     54  C   UNL A   1      43.041  28.663  34.270  1.00  0.00     0.049 A 
ATOM     55  H   UNL A   1      41.602  29.161  32.812  1.00  0.00     0.167 HD
ATOM     56  C   UNL A   1      43.695  27.322  32.288  1.00  0.00     0.074 A 
ATOM     57  C   UNL A   1      44.561  26.391  31.598  1.00  0.00     0.031 C 
ATOM     58  C   UNL A   1      43.874  27.722  33.571  1.00  0.00     0.037 A 
BRANCH  45  59
ATOM     59  C   UNL A   1      39.663  31.758  35.572  1.00  0.00     0.064 A 
ATOM     60  C   UNL A   1      40.183  33.037  35.829  1.00  0.00     0.173 A 
ATOM     61  C   UNL A   1      38.614  31.299  36.380  1.00  0.00     0.173 A 
ATOM     62  F   UNL A   1      41.202  33.510  35.097  1.00  0.00    -0.203 F 
ATOM     63  C   UNL A   1      39.684  33.817  36.867  1.00  0.00     0.198 A 
ATOM     64  C   UNL A   1      38.098  32.093  37.400  1.00  0.00     0.198 A 
ATOM     65  F   UNL A   1      38.085  30.083  36.175  1.00  0.00    -0.203 F 
ATOM     66  F   UNL A   1      40.226  35.016  37.122  1.00  0.00    -0.200 F 
ATOM     67  C   UNL A   1      38.637  33.348  37.647  1.00  0.00     0.200 A 
ATOM     68  F   UNL A   1      37.081  31.645  38.148  1.00  0.00    -0.200 F 
ATOM     69  F   UNL A   1      38.150  34.105  38.640  1.00  0.00    -0.200 F 
ENDBRANCH  45  59
BRANCH  46  70
ATOM     70  C   UNL A   1      42.619  26.136  27.867  1.00  0.00     0.064 A 
ATOM     71  C   UNL A   1      42.100  24.838  27.761  1.00  0.00     0.173 A 
ATOM     72  C   UNL A   1      43.557  26.543  26.908  1.00  0.00     0.173 A 
ATOM     73  F   UNL A   1      41.218  24.394  28.668  1.00  0.00    -0.203 F 
ATOM     74  C   UNL A   1      42.515  23.975  26.748  1.00  0.00     0.198 A 
ATOM     75  C   UNL A   1      43.954  25.688  25.882  1.00  0.00     0.198 A 
ATOM     76  F   UNL A   1      44.086  27.774  26.966  1.00  0.00    -0.203 F 
ATOM     77  F   UNL A   1      42.033  22.725  26.696  1.00  0.00    -0.200 F 
ATOM     78  C   UNL A   1      43.439  24.402  25.807  1.00  0.00     0.200 A 
ATOM     79  F   UNL A   1      44.843  26.105  24.970  1.00  0.00    -0.200 F 
ATOM     80  F   UNL A   1      43.838  23.572  24.833  1.00  0.00    -0.200 F 
ENDBRANCH  46  70
BRANCH  58  81
ATOM     81  C   UNL A   1      45.030  27.142  34.330  1.00  0.00     0.064 A 
ATOM     82  C   UNL A   1      46.300  27.732  34.285  1.00  0.00     0.173 A 
ATOM     83  C   UNL A   1      44.838  26.048  35.188  1.00  0.00     0.173 A 
ATOM     84  F   UNL A   1      46.532  28.775  33.474  1.00  0.00    -0.203 F 
ATOM     85  C   UNL A   1      47.342  27.241  35.066  1.00  0.00     0.198 A 
ATOM     86  C   UNL A   1      45.875  25.576  35.986  1.00  0.00     0.198 A 
ATOM     87  F   UNL A   1      43.635  25.459  35.273  1.00  0.00    -0.203 F 
ATOM     88  F   UNL A   1      48.555  27.804  34.992  1.00  0.00    -0.200 F 
ATOM     89  C   UNL A   1      47.126  26.171  35.924  1.00  0.00     0.200 A 
ATOM     90  F   UNL A   1      45.659  24.555  36.827  1.00  0.00    -0.200 F 
ATOM     91  F   UNL A   1      48.125  25.714  36.691  1.00  0.00    -0.200 F 
ENDBRANCH  58  81
ENDBRANCH  32  33
ENDBRANCH  25  27
ENDBRANCH  24  25
ENDBRANCH  23  24
ENDBRANCH   1  23
TORSDOF 17
ENDMDL
MODEL 3
REMARK VINA RESULT:     -11.0      4.129      9.666
REMARK SMILES CCc1nc(=O)n([C@@H](CC)C(C)C)c(CC)c1CC(=O)OCCOC(=O)c1ccc(-c2c3nc(c(-c4c(F)c(F)c(F)c(F)c4F)c4ccc([nH]4)c(-c4c(F)c(F)c(F)c(F)c4F)c4nc(c(-c5c(F)c(F)c(F)c(F)c5F)c5ccc2[nH]5)C=C4)C=C3)cc1
REMARK SMILES IDX 22 1 21 2 19 3 20 4 18 5 17 6 3 7 4 8 5 9 14 10 6 11 7 12
REMARK SMILES IDX 2 13 1 14 15 15 16 16 8 17 9 18 10 19 11 20 12 21 13 22
REMARK SMILES IDX 23 23 24 24 25 25 26 26 27 27 28 28 89 29 29 30 88 31 30 32
REMARK SMILES IDX 31 33 32 34 82 35 33 36 87 37 81 38 83 39 34 40 86 41 80 42
REMARK SMILES IDX 79 43 35 45 67 46 47 47 66 48 48 49 51 50 65 51 84 52 49 53
REMARK SMILES IDX 50 54 64 56 85 57 52 58 36 59 37 60 45 61 38 62 39 63 43 64
REMARK SMILES IDX 46 65 40 66 41 67 44 68 42 69 68 70 69 71 77 72 70 73 71 74
REMARK SMILES IDX 75 75 78 76 72 77 73 78 76 79 74 80 53 81 54 82 62 83 55 84
REMARK SMILES IDX 56 85 60 86 63 87 57 88 58 89 61 90 59 91
REMARK H PARENT 83 44 51 55
REMARK Flexibility Score: inf
ROOT
ATOM      1  C   UNL A   1      36.002  21.473  24.637  1.00  0.00     0.274 C 
ENDROOT
BRANCH   1   2
ATOM      2  O   UNL A   1      36.301  22.568  23.732  1.00  0.00    -0.462 OA
BRANCH   2   3
ATOM      3  C   UNL A   1      35.274  23.413  23.478  1.00  0.00     0.310 C 
ATOM      4  O   UNL A   1      34.573  23.358  22.469  1.00  0.00    -0.252 OA
BRANCH   3   5
ATOM      5  C   UNL A   1      34.925  24.388  24.601  1.00  0.00     0.162 C 
BRANCH   5   6
ATOM      6  C   UNL A   1      33.517  24.796  24.918  1.00  0.00     0.005 A 
ATOM      7  C   UNL A   1      32.738  23.980  25.906  1.00  0.00     0.051 A 
ATOM      8  N   UNL A   1      31.653  24.394  26.466  1.00  0.00    -0.198 NA
ATOM      9  C   UNL A   1      31.116  25.608  26.163  1.00  0.00     0.348 A 
ATOM     10  C   UNL A   1      32.940  25.981  24.562  1.00  0.00     0.028 A 
ATOM     11  O   UNL A   1      30.128  25.994  26.772  1.00  0.00    -0.246 OA
ATOM     12  N   UNL A   1      31.707  26.362  25.138  1.00  0.00    -0.293 N 
BRANCH   7  13
ATOM     13  C   UNL A   1      33.064  22.517  26.293  1.00  0.00     0.053 C 
ATOM     14  C   UNL A   1      33.662  22.123  27.626  1.00  0.00     0.011 C 
ENDBRANCH   7  13
BRANCH  10  15
ATOM     15  C   UNL A   1      33.647  27.033  23.681  1.00  0.00     0.051 C 
ATOM     16  C   UNL A   1      33.620  26.810  22.159  1.00  0.00     0.010 C 
ENDBRANCH  10  15
BRANCH  12  17
ATOM     17  C   UNL A   1      30.964  27.564  24.668  1.00  0.00     0.094 C 
BRANCH  17  18
ATOM     18  C   UNL A   1      31.769  28.861  24.934  1.00  0.00     0.022 C 
ATOM     19  C   UNL A   1      31.814  29.363  26.365  1.00  0.00     0.006 C 
ENDBRANCH  17  18
BRANCH  17  20
ATOM     20  C   UNL A   1      30.234  27.444  23.299  1.00  0.00     0.006 C 
ATOM     21  C   UNL A   1      28.753  27.083  23.502  1.00  0.00     0.009 C 
ATOM     22  C   UNL A   1      30.297  28.778  22.535  1.00  0.00     0.009 C 
ENDBRANCH  17  20
ENDBRANCH  12  17
ENDBRANCH   5   6
ENDBRANCH   3   5
ENDBRANCH   2   3
ENDBRANCH   1   2
BRANCH   1  23
ATOM     23  C   UNL A   1      37.069  21.294  25.735  1.00  0.00     0.275 C 
BRANCH  23  24
ATOM     24  O   UNL A   1      38.421  21.318  25.215  1.00  0.00    -0.458 OA
BRANCH  24  25
ATOM     25  C   UNL A   1      39.329  21.346  26.209  1.00  0.00     0.338 C 
ATOM     26  O   UNL A   1      39.741  20.359  26.790  1.00  0.00    -0.246 OA
BRANCH  25  27
ATOM     27  C   UNL A   1      39.911  22.648  26.537  1.00  0.00     0.060 A 
ATOM     28  C   UNL A   1      39.269  23.816  26.125  1.00  0.00     0.016 A 
ATOM     29  C   UNL A   1      40.885  22.696  27.537  1.00  0.00     0.016 A 
ATOM     30  C   UNL A   1      39.666  25.045  26.663  1.00  0.00     0.010 A 
ATOM     31  C   UNL A   1      41.202  23.907  28.147  1.00  0.00     0.010 A 
ATOM     32  C   UNL A   1      40.646  25.101  27.669  1.00  0.00    -0.014 A 
BRANCH  32  33
ATOM     33  C   UNL A   1      41.234  26.399  28.091  1.00  0.00     0.031 A 
ATOM     34  C   UNL A   1      42.651  26.709  27.676  1.00  0.00     0.074 A 
ATOM     35  C   UNL A   1      40.528  27.298  28.804  1.00  0.00     0.049 A 
ATOM     36  N   UNL A   1      43.353  27.798  27.859  1.00  0.00    -0.248 NA
ATOM     37  C   UNL A   1      43.388  25.639  26.977  1.00  0.00     0.031 C 
ATOM     38  C   UNL A   1      39.170  27.105  29.310  1.00  0.00     0.029 A 
ATOM     39  N   UNL A   1      40.859  28.568  29.212  1.00  0.00    -0.354 N 
ATOM     40  C   UNL A   1      44.594  27.541  27.292  1.00  0.00     0.074 A 
ATOM     41  C   UNL A   1      44.590  26.170  26.845  1.00  0.00     0.031 C 
ATOM     42  C   UNL A   1      38.767  28.235  29.921  1.00  0.00     0.029 A 
ATOM     43  C   UNL A   1      39.838  29.227  29.854  1.00  0.00     0.049 A 
ATOM     44  H   UNL A   1      41.745  28.969  29.058  1.00  0.00     0.167 HD
ATOM     45  C   UNL A   1      45.632  28.387  27.099  1.00  0.00     0.037 A 
ATOM     46  C   UNL A   1      39.772  30.495  30.306  1.00  0.00     0.037 A 
ATOM     47  C   UNL A   1      45.633  29.761  27.509  1.00  0.00     0.049 A 
ATOM     48  C   UNL A   1      40.950  31.415  30.103  1.00  0.00     0.074 A 
ATOM     49  C   UNL A   1      46.622  30.711  27.336  1.00  0.00     0.029 A 
ATOM     50  N   UNL A   1      44.583  30.382  28.166  1.00  0.00    -0.354 N 
ATOM     51  N   UNL A   1      42.090  31.181  29.499  1.00  0.00    -0.248 NA
ATOM     52  C   UNL A   1      40.826  32.781  30.635  1.00  0.00     0.031 C 
ATOM     53  C   UNL A   1      46.181  31.904  27.914  1.00  0.00     0.029 A 
ATOM     54  C   UNL A   1      44.904  31.704  28.415  1.00  0.00     0.049 A 
ATOM     55  H   UNL A   1      43.737  29.947  28.419  1.00  0.00     0.167 HD
ATOM     56  C   UNL A   1      42.802  32.373  29.550  1.00  0.00     0.074 A 
ATOM     57  C   UNL A   1      41.963  33.333  30.233  1.00  0.00     0.031 C 
ATOM     58  C   UNL A   1      44.042  32.647  29.076  1.00  0.00     0.037 A 
BRANCH  45  59
ATOM     59  C   UNL A   1      46.827  27.856  26.368  1.00  0.00     0.064 A 
ATOM     60  C   UNL A   1      46.856  27.814  24.965  1.00  0.00     0.173 A 
ATOM     61  C   UNL A   1      47.961  27.417  27.064  1.00  0.00     0.173 A 
ATOM     62  F   UNL A   1      45.786  28.203  24.256  1.00  0.00    -0.203 F 
ATOM     63  C   UNL A   1      47.970  27.332  24.287  1.00  0.00     0.198 A 
ATOM     64  C   UNL A   1      49.085  26.961  26.381  1.00  0.00     0.198 A 
ATOM     65  F   UNL A   1      47.980  27.436  28.406  1.00  0.00    -0.203 F 
ATOM     66  F   UNL A   1      47.958  27.259  22.948  1.00  0.00    -0.200 F 
ATOM     67  C   UNL A   1      49.087  26.914  24.994  1.00  0.00     0.200 A 
ATOM     68  F   UNL A   1      50.167  26.565  27.065  1.00  0.00    -0.200 F 
ATOM     69  F   UNL A   1      50.165  26.459  24.340  1.00  0.00    -0.200 F 
ENDBRANCH  45  59
BRANCH  46  70
ATOM     70  C   UNL A   1      38.520  31.006  30.928  1.00  0.00     0.064 A 
ATOM     71  C   UNL A   1      37.476  31.499  30.132  1.00  0.00     0.173 A 
ATOM     72  C   UNL A   1      38.347  31.033  32.319  1.00  0.00     0.173 A 
ATOM     73  F   UNL A   1      37.604  31.516  28.797  1.00  0.00    -0.203 F 
ATOM     74  C   UNL A   1      36.315  32.015  30.703  1.00  0.00     0.198 A 
ATOM     75  C   UNL A   1      37.176  31.528  32.889  1.00  0.00     0.198 A 
ATOM     76  F   UNL A   1      39.316  30.575  33.125  1.00  0.00    -0.203 F 
ATOM     77  F   UNL A   1      35.351  32.519  29.919  1.00  0.00    -0.200 F 
ATOM     78  C   UNL A   1      36.163  32.026  32.081  1.00  0.00     0.200 A 
ATOM     79  F   UNL A   1      37.029  31.531  34.221  1.00  0.00    -0.200 F 
ATOM     80  F   UNL A   1      35.046  32.523  32.630  1.00  0.00    -0.200 F 
ENDBRANCH  46  70
BRANCH  58  81
ATOM     81  C   UNL A   1      44.565  34.041  29.248  1.00  0.00     0.064 A 
ATOM     82  C   UNL A   1      44.289  35.045  28.310  1.00  0.00     0.173 A 
ATOM     83  C   UNL A   1      45.263  34.398  30.413  1.00  0.00     0.173 A 
ATOM     84  F   UNL A   1      43.631  34.748  27.179  1.00  0.00    -0.203 F 
ATOM     85  C   UNL A   1      44.700  36.356  28.526  1.00  0.00     0.198 A 
ATOM     86  C   UNL A   1      45.650  35.715  30.637  1.00  0.00     0.198 A 
ATOM     87  F   UNL A   1      45.539  33.474  31.345  1.00  0.00    -0.203 F 
ATOM     88  F   UNL A   1      44.446  37.296  27.606  1.00  0.00    -0.200 F 
ATOM     89  C   UNL A   1      45.370  36.692  29.694  1.00  0.00     0.200 A 
ATOM     90  F   UNL A   1      46.281  36.041  31.774  1.00  0.00    -0.200 F 
ATOM     91  F   UNL A   1      45.747  37.960  29.910  1.00  0.00    -0.200 F 
ENDBRANCH  58  81
ENDBRANCH  32  33
ENDBRANCH  25  27
ENDBRANCH  24  25
ENDBRANCH  23  24
ENDBRANCH   1  23
TORSDOF 17
ENDMDL
