MODEL 1
REMARK VINA RESULT:     -13.2      0.000      0.000
REMARK SMILES COc1ccc(-c2cnc(N)c(C(=O)OCCOC(=O)c3ccc(-c4c5nc(c(-c6c(F)c(F)c(F)c(F)c6F)c6ccc([nH]6)c(-c6c(F)c(F)c(F)c(F)c6F)c6nc(c(-c7c(F)c(F)c(F)c(F)c7F)c7ccc4[nH]7)C=C6)C=C5)cc3)c2)c(C)c1
REMARK SMILES IDX 16 1 15 2 13 3 14 4 12 5 7 6 8 7 84 8 9 9 10 10 6 11 3 12
REMARK SMILES IDX 4 13 87 14 5 15 85 16 86 17 2 18 1 19 11 20 17 23 18 24
REMARK SMILES IDX 19 25 20 26 21 27 22 28 83 29 23 30 82 31 24 32 25 33 26 34
REMARK SMILES IDX 76 35 27 36 81 37 75 38 77 39 28 40 80 41 74 42 73 43 29 45
REMARK SMILES IDX 61 46 41 47 60 48 42 49 45 50 59 51 78 52 43 53 44 54 58 56
REMARK SMILES IDX 79 57 46 58 30 59 31 60 39 61 32 62 33 63 37 64 40 65 34 66
REMARK SMILES IDX 35 67 38 68 36 69 62 70 63 71 71 72 64 73 65 74 69 75 72 76
REMARK SMILES IDX 66 77 67 78 70 79 68 80 47 81 48 82 56 83 49 84 50 85 54 86
REMARK SMILES IDX 57 87 51 88 52 89 55 90 53 91
REMARK H PARENT 11 21 11 22 77 44 45 55
REMARK Flexibility Score: inf
ROOT
ATOM      1  C   UNL A   1      32.691  29.145  27.252  1.00  0.00     0.275 C 
ENDROOT
BRANCH   1   2
ATOM      2  O   UNL A   1      32.018  28.695  26.062  1.00  0.00    -0.458 OA
BRANCH   2   3
ATOM      3  C   UNL A   1      31.678  27.380  26.135  1.00  0.00     0.342 C 
ATOM      4  O   UNL A   1      30.898  26.905  26.950  1.00  0.00    -0.246 OA
BRANCH   3   5
ATOM      5  C   UNL A   1      32.405  26.508  25.192  1.00  0.00     0.102 A 
ATOM      6  C   UNL A   1      34.035  24.775  24.638  1.00  0.00     0.001 A 
ATOM      7  C   UNL A   1      33.851  25.194  23.316  1.00  0.00     0.122 A 
ATOM      8  C   UNL A   1      33.245  25.448  25.586  1.00  0.00     0.030 A 
ATOM      9  N   UNL A   1      33.046  26.204  22.904  1.00  0.00    -0.238 NA
ATOM     10  C   UNL A   1      32.362  26.872  23.845  1.00  0.00     0.138 A 
BRANCH   6  11
ATOM     11  C   UNL A   1      35.039  23.715  24.941  1.00  0.00    -0.014 A 
ATOM     12  C   UNL A   1      37.209  21.874  25.295  1.00  0.00     0.119 A 
ATOM     13  C   UNL A   1      37.399  23.222  25.548  1.00  0.00     0.047 A 
ATOM     14  C   UNL A   1      35.937  21.443  24.920  1.00  0.00     0.050 A 
ATOM     15  C   UNL A   1      36.330  24.119  25.379  1.00  0.00     0.013 A 
ATOM     16  C   UNL A   1      34.847  22.332  24.747  1.00  0.00    -0.040 A 
ATOM     17  C   UNL A   1      33.547  21.686  24.351  1.00  0.00     0.045 C 
BRANCH  12  18
ATOM     18  O   UNL A   1      38.163  20.897  25.314  1.00  0.00    -0.497 OA
ATOM     19  C   UNL A   1      37.802  19.611  24.829  1.00  0.00     0.278 C 
ENDBRANCH  12  18
ENDBRANCH   6  11
BRANCH  10  20
ATOM     20  N   UNL A   1      31.573  27.906  23.370  1.00  0.00    -0.383 N 
ATOM     21  H   UNL A   1      31.178  28.553  23.998  1.00  0.00     0.158 HD
ATOM     22  H   UNL A   1      31.408  27.995  22.403  1.00  0.00     0.158 HD
ENDBRANCH  10  20
ENDBRANCH   3   5
ENDBRANCH   2   3
ENDBRANCH   1   2
BRANCH   1  23
ATOM     23  C   UNL A   1      34.197  29.387  27.072  1.00  0.00     0.275 C 
BRANCH  23  24
ATOM     24  O   UNL A   1      34.981  29.890  28.192  1.00  0.00    -0.458 OA
BRANCH  24  25
ATOM     25  C   UNL A   1      36.162  30.549  28.141  1.00  0.00     0.338 C 
ATOM     26  O   UNL A   1      36.234  31.755  27.925  1.00  0.00    -0.246 OA
BRANCH  25  27
ATOM     27  C   UNL A   1      37.381  29.759  28.374  1.00  0.00     0.060 A 
ATOM     28  C   UNL A   1      37.467  28.935  29.511  1.00  0.00     0.016 A 
ATOM     29  C   UNL A   1      38.371  29.741  27.403  1.00  0.00     0.016 A 
ATOM     30  C   UNL A   1      38.485  27.998  29.616  1.00  0.00     0.010 A 
ATOM     31  C   UNL A   1      39.266  28.709  27.409  1.00  0.00     0.010 A 
ATOM     32  C   UNL A   1      39.366  27.893  28.545  1.00  0.00    -0.014 A 
BRANCH  32  33
ATOM     33  C   UNL A   1      40.643  27.214  28.627  1.00  0.00     0.031 A 
ATOM     34  C   UNL A   1      40.761  25.775  28.394  1.00  0.00     0.074 A 
ATOM     35  C   UNL A   1      41.651  28.095  28.813  1.00  0.00     0.049 A 
ATOM     36  N   UNL A   1      41.710  25.048  28.865  1.00  0.00    -0.248 NA
ATOM     37  C   UNL A   1      39.769  24.995  27.660  1.00  0.00     0.031 C 
ATOM     38  C   UNL A   1      43.090  27.978  28.717  1.00  0.00     0.029 A 
ATOM     39  N   UNL A   1      41.460  29.400  29.318  1.00  0.00    -0.354 N 
ATOM     40  C   UNL A   1      41.666  23.849  28.182  1.00  0.00     0.074 A 
ATOM     41  C   UNL A   1      40.334  23.784  27.646  1.00  0.00     0.031 C 
ATOM     42  C   UNL A   1      43.635  28.968  29.459  1.00  0.00     0.029 A 
ATOM     43  C   UNL A   1      42.545  29.648  30.159  1.00  0.00     0.049 A 
ATOM     44  H   UNL A   1      40.713  30.009  29.117  1.00  0.00     0.167 HD
ATOM     45  C   UNL A   1      42.845  23.192  27.974  1.00  0.00     0.037 A 
ATOM     46  C   UNL A   1      42.282  29.615  31.501  1.00  0.00     0.037 A 
ATOM     47  C   UNL A   1      43.916  23.895  28.693  1.00  0.00     0.049 A 
ATOM     48  C   UNL A   1      42.913  28.406  32.159  1.00  0.00     0.074 A 
ATOM     49  C   UNL A   1      44.872  24.819  28.310  1.00  0.00     0.029 A 
ATOM     50  N   UNL A   1      43.834  23.978  30.070  1.00  0.00    -0.354 N 
ATOM     51  N   UNL A   1      43.329  27.351  31.511  1.00  0.00    -0.248 NA
ATOM     52  C   UNL A   1      43.070  28.271  33.604  1.00  0.00     0.031 C 
ATOM     53  C   UNL A   1      45.288  25.524  29.484  1.00  0.00     0.029 A 
ATOM     54  C   UNL A   1      44.598  25.013  30.572  1.00  0.00     0.049 A 
ATOM     55  H   UNL A   1      43.293  23.373  30.627  1.00  0.00     0.167 HD
ATOM     56  C   UNL A   1      43.868  26.459  32.385  1.00  0.00     0.074 A 
ATOM     57  C   UNL A   1      43.612  27.046  33.692  1.00  0.00     0.031 C 
ATOM     58  C   UNL A   1      44.504  25.316  31.992  1.00  0.00     0.037 A 
BRANCH  45  59
ATOM     59  C   UNL A   1      43.133  22.109  26.946  1.00  0.00     0.064 A 
ATOM     60  C   UNL A   1      42.455  20.870  27.044  1.00  0.00     0.173 A 
ATOM     61  C   UNL A   1      44.087  22.162  25.909  1.00  0.00     0.173 A 
ATOM     62  F   UNL A   1      41.476  20.682  27.940  1.00  0.00    -0.203 F 
ATOM     63  C   UNL A   1      42.755  19.773  26.230  1.00  0.00     0.198 A 
ATOM     64  C   UNL A   1      44.377  21.067  25.084  1.00  0.00     0.198 A 
ATOM     65  F   UNL A   1      44.789  23.261  25.633  1.00  0.00    -0.203 F 
ATOM     66  F   UNL A   1      42.102  18.616  26.409  1.00  0.00    -0.200 F 
ATOM     67  C   UNL A   1      43.724  19.868  25.254  1.00  0.00     0.200 A 
ATOM     68  F   UNL A   1      45.310  21.188  24.127  1.00  0.00    -0.200 F 
ATOM     69  F   UNL A   1      44.019  18.817  24.479  1.00  0.00    -0.200 F 
ENDBRANCH  45  59
BRANCH  46  70
ATOM     70  C   UNL A   1      40.938  30.191  31.877  1.00  0.00     0.064 A 
ATOM     71  C   UNL A   1      39.909  29.319  32.313  1.00  0.00     0.173 A 
ATOM     72  C   UNL A   1      40.718  31.559  32.082  1.00  0.00     0.173 A 
ATOM     73  F   UNL A   1      40.035  27.992  32.145  1.00  0.00    -0.203 F 
ATOM     74  C   UNL A   1      38.795  29.779  33.017  1.00  0.00     0.198 A 
ATOM     75  C   UNL A   1      39.578  32.022  32.753  1.00  0.00     0.198 A 
ATOM     76  F   UNL A   1      41.635  32.464  31.712  1.00  0.00    -0.203 F 
ATOM     77  F   UNL A   1      37.919  28.904  33.532  1.00  0.00    -0.200 F 
ATOM     78  C   UNL A   1      38.634  31.132  33.244  1.00  0.00     0.200 A 
ATOM     79  F   UNL A   1      39.441  33.332  33.005  1.00  0.00    -0.200 F 
ATOM     80  F   UNL A   1      37.605  31.577  33.978  1.00  0.00    -0.200 F 
ENDBRANCH  46  70
BRANCH  58  81
ATOM     81  C   UNL A   1      45.113  24.377  32.983  1.00  0.00     0.064 A 
ATOM     82  C   UNL A   1      46.405  24.573  33.490  1.00  0.00     0.173 A 
ATOM     83  C   UNL A   1      44.450  23.203  33.395  1.00  0.00     0.173 A 
ATOM     84  F   UNL A   1      47.156  25.607  33.077  1.00  0.00    -0.203 F 
ATOM     85  C   UNL A   1      46.956  23.709  34.431  1.00  0.00     0.198 A 
ATOM     86  C   UNL A   1      45.035  22.299  34.273  1.00  0.00     0.198 A 
ATOM     87  F   UNL A   1      43.205  22.914  32.991  1.00  0.00    -0.203 F 
ATOM     88  F   UNL A   1      48.149  23.990  34.969  1.00  0.00    -0.200 F 
ATOM     89  C   UNL A   1      46.274  22.568  34.816  1.00  0.00     0.200 A 
ATOM     90  F   UNL A   1      44.379  21.178  34.604  1.00  0.00    -0.200 F 
ATOM     91  F   UNL A   1      46.809  21.732  35.715  1.00  0.00    -0.200 F 
ENDBRANCH  58  81
ENDBRANCH  32  33
ENDBRANCH  25  27
ENDBRANCH  24  25
ENDBRANCH  23  24
ENDBRANCH   1  23
TORSDOF 14
ENDMDL
MODEL 2
REMARK VINA RESULT:     -13.0      3.818     10.515
REMARK SMILES COc1ccc(-c2cnc(N)c(C(=O)OCCOC(=O)c3ccc(-c4c5nc(c(-c6c(F)c(F)c(F)c(F)c6F)c6ccc([nH]6)c(-c6c(F)c(F)c(F)c(F)c6F)c6nc(c(-c7c(F)c(F)c(F)c(F)c7F)c7ccc4[nH]7)C=C6)C=C5)cc3)c2)c(C)c1
REMARK SMILES IDX 16 1 15 2 13 3 14 4 12 5 7 6 8 7 84 8 9 9 10 10 6 11 3 12
REMARK SMILES IDX 4 13 87 14 5 15 85 16 86 17 2 18 1 19 11 20 17 23 18 24
REMARK SMILES IDX 19 25 20 26 21 27 22 28 83 29 23 30 82 31 24 32 25 33 26 34
REMARK SMILES IDX 76 35 27 36 81 37 75 38 77 39 28 40 80 41 74 42 73 43 29 45
REMARK SMILES IDX 61 46 41 47 60 48 42 49 45 50 59 51 78 52 43 53 44 54 58 56
REMARK SMILES IDX 79 57 46 58 30 59 31 60 39 61 32 62 33 63 37 64 40 65 34 66
REMARK SMILES IDX 35 67 38 68 36 69 62 70 63 71 71 72 64 73 65 74 69 75 72 76
REMARK SMILES IDX 66 77 67 78 70 79 68 80 47 81 48 82 56 83 49 84 50 85 54 86
REMARK SMILES IDX 57 87 51 88 52 89 55 90 53 91
REMARK H PARENT 11 21 11 22 77 44 45 55
REMARK Flexibility Score: inf
ROOT
ATOM      1  C   UNL A   1      37.249  22.545  25.039  1.00  0.00     0.275 C 
ENDROOT
BRANCH   1   2
ATOM      2  O   UNL A   1      35.829  22.311  25.074  1.00  0.00    -0.458 OA
BRANCH   2   3
ATOM      3  C   UNL A   1      35.155  23.135  24.227  1.00  0.00     0.342 C 
ATOM      4  O   UNL A   1      35.456  23.328  23.055  1.00  0.00    -0.246 OA
BRANCH   3   5
ATOM      5  C   UNL A   1      34.049  23.883  24.853  1.00  0.00     0.102 A 
ATOM      6  C   UNL A   1      32.981  25.924  25.666  1.00  0.00     0.001 A 
ATOM      7  C   UNL A   1      32.066  25.060  26.276  1.00  0.00     0.122 A 
ATOM      8  C   UNL A   1      33.977  25.289  24.904  1.00  0.00     0.030 A 
ATOM      9  N   UNL A   1      32.104  23.705  26.240  1.00  0.00    -0.238 NA
ATOM     10  C   UNL A   1      33.111  23.132  25.563  1.00  0.00     0.138 A 
BRANCH   6  11
ATOM     11  C   UNL A   1      32.863  27.394  25.887  1.00  0.00    -0.014 A 
ATOM     12  C   UNL A   1      32.651  30.140  26.687  1.00  0.00     0.119 A 
ATOM     13  C   UNL A   1      33.697  29.363  27.156  1.00  0.00     0.047 A 
ATOM     14  C   UNL A   1      31.751  29.568  25.789  1.00  0.00     0.050 A 
ATOM     15  C   UNL A   1      33.799  28.020  26.755  1.00  0.00     0.013 A 
ATOM     16  C   UNL A   1      31.840  28.216  25.371  1.00  0.00    -0.040 A 
ATOM     17  C   UNL A   1      30.789  27.776  24.389  1.00  0.00     0.045 C 
BRANCH  12  18
ATOM     18  O   UNL A   1      32.355  31.420  27.058  1.00  0.00    -0.497 OA
ATOM     19  C   UNL A   1      31.279  32.069  26.393  1.00  0.00     0.278 C 
ENDBRANCH  12  18
ENDBRANCH   6  11
BRANCH  10  20
ATOM     20  N   UNL A   1      33.110  21.748  25.578  1.00  0.00    -0.383 N 
ATOM     21  H   UNL A   1      33.958  21.256  25.675  1.00  0.00     0.158 HD
ATOM     22  H   UNL A   1      32.262  21.254  25.493  1.00  0.00     0.158 HD
ENDBRANCH  10  20
ENDBRANCH   3   5
ENDBRANCH   2   3
ENDBRANCH   1   2
BRANCH   1  23
ATOM     23  C   UNL A   1      37.718  23.716  25.915  1.00  0.00     0.275 C 
BRANCH  23  24
ATOM     24  O   UNL A   1      39.145  23.957  26.084  1.00  0.00    -0.458 OA
BRANCH  24  25
ATOM     25  C   UNL A   1      39.814  24.157  27.244  1.00  0.00     0.338 C 
ATOM     26  O   UNL A   1      40.385  23.248  27.839  1.00  0.00    -0.246 OA
BRANCH  25  27
ATOM     27  C   UNL A   1      39.851  25.531  27.769  1.00  0.00     0.060 A 
ATOM     28  C   UNL A   1      40.221  26.589  26.919  1.00  0.00     0.016 A 
ATOM     29  C   UNL A   1      39.395  25.774  29.056  1.00  0.00     0.016 A 
ATOM     30  C   UNL A   1      40.015  27.903  27.315  1.00  0.00     0.010 A 
ATOM     31  C   UNL A   1      39.024  27.048  29.382  1.00  0.00     0.010 A 
ATOM     32  C   UNL A   1      39.401  28.109  28.546  1.00  0.00    -0.014 A 
BRANCH  32  33
ATOM     33  C   UNL A   1      39.409  29.381  29.238  1.00  0.00     0.031 A 
ATOM     34  C   UNL A   1      38.422  30.419  28.940  1.00  0.00     0.074 A 
ATOM     35  C   UNL A   1      40.335  29.395  30.222  1.00  0.00     0.049 A 
ATOM     36  N   UNL A   1      38.612  31.672  29.155  1.00  0.00    -0.248 NA
ATOM     37  C   UNL A   1      37.139  30.149  28.298  1.00  0.00     0.031 C 
ATOM     38  C   UNL A   1      40.576  30.290  31.333  1.00  0.00     0.029 A 
ATOM     39  N   UNL A   1      41.433  28.508  30.269  1.00  0.00    -0.354 N 
ATOM     40  C   UNL A   1      37.377  32.281  29.061  1.00  0.00     0.074 A 
ATOM     41  C   UNL A   1      36.572  31.359  28.306  1.00  0.00     0.031 C 
ATOM     42  C   UNL A   1      41.870  30.148  31.703  1.00  0.00     0.029 A 
ATOM     43  C   UNL A   1      42.512  29.259  30.736  1.00  0.00     0.049 A 
ATOM     44  H   UNL A   1      41.435  27.555  30.022  1.00  0.00     0.167 HD
ATOM     45  C   UNL A   1      37.148  33.378  29.841  1.00  0.00     0.037 A 
ATOM     46  C   UNL A   1      43.452  29.601  29.802  1.00  0.00     0.037 A 
ATOM     47  C   UNL A   1      38.395  33.746  30.524  1.00  0.00     0.049 A 
ATOM     48  C   UNL A   1      43.419  31.084  29.501  1.00  0.00     0.074 A 
ATOM     49  C   UNL A   1      38.896  33.498  31.791  1.00  0.00     0.029 A 
ATOM     50  N   UNL A   1      39.478  34.121  29.752  1.00  0.00    -0.354 N 
ATOM     51  N   UNL A   1      42.417  31.870  29.792  1.00  0.00    -0.248 NA
ATOM     52  C   UNL A   1      44.490  31.782  28.798  1.00  0.00     0.031 C 
ATOM     53  C   UNL A   1      40.319  33.640  31.729  1.00  0.00     0.029 A 
ATOM     54  C   UNL A   1      40.671  33.990  30.436  1.00  0.00     0.049 A 
ATOM     55  H   UNL A   1      39.408  34.442  28.824  1.00  0.00     0.167 HD
ATOM     56  C   UNL A   1      42.711  33.144  29.418  1.00  0.00     0.074 A 
ATOM     57  C   UNL A   1      43.988  33.025  28.729  1.00  0.00     0.031 C 
ATOM     58  C   UNL A   1      41.912  34.213  29.709  1.00  0.00     0.037 A 
BRANCH  45  59
ATOM     59  C   UNL A   1      35.805  33.976  30.228  1.00  0.00     0.064 A 
ATOM     60  C   UNL A   1      34.980  34.527  29.217  1.00  0.00     0.173 A 
ATOM     61  C   UNL A   1      35.291  34.124  31.533  1.00  0.00     0.173 A 
ATOM     62  F   UNL A   1      35.300  34.413  27.920  1.00  0.00    -0.203 F 
ATOM     63  C   UNL A   1      33.796  35.217  29.494  1.00  0.00     0.198 A 
ATOM     64  C   UNL A   1      34.097  34.804  31.809  1.00  0.00     0.198 A 
ATOM     65  F   UNL A   1      35.903  33.627  32.608  1.00  0.00    -0.203 F 
ATOM     66  F   UNL A   1      33.088  35.751  28.489  1.00  0.00    -0.200 F 
ATOM     67  C   UNL A   1      33.358  35.365  30.792  1.00  0.00     0.200 A 
ATOM     68  F   UNL A   1      33.678  34.918  33.078  1.00  0.00    -0.200 F 
ATOM     69  F   UNL A   1      32.229  36.033  31.062  1.00  0.00    -0.200 F 
ENDBRANCH  45  59
BRANCH  46  70
ATOM     70  C   UNL A   1      43.718  28.524  28.777  1.00  0.00     0.064 A 
ATOM     71  C   UNL A   1      43.255  28.703  27.450  1.00  0.00     0.173 A 
ATOM     72  C   UNL A   1      44.626  27.477  28.980  1.00  0.00     0.173 A 
ATOM     73  F   UNL A   1      42.374  29.679  27.170  1.00  0.00    -0.203 F 
ATOM     74  C   UNL A   1      43.763  27.964  26.380  1.00  0.00     0.198 A 
ATOM     75  C   UNL A   1      45.104  26.709  27.910  1.00  0.00     0.198 A 
ATOM     76  F   UNL A   1      45.128  27.232  30.198  1.00  0.00    -0.203 F 
ATOM     77  F   UNL A   1      43.398  28.264  25.125  1.00  0.00    -0.200 F 
ATOM     78  C   UNL A   1      44.695  26.971  26.610  1.00  0.00     0.200 A 
ATOM     79  F   UNL A   1      46.036  25.770  28.129  1.00  0.00    -0.200 F 
ATOM     80  F   UNL A   1      45.239  26.304  25.583  1.00  0.00    -0.200 F 
ENDBRANCH  46  70
BRANCH  58  81
ATOM     81  C   UNL A   1      42.286  35.605  29.309  1.00  0.00     0.064 A 
ATOM     82  C   UNL A   1      41.793  36.193  28.136  1.00  0.00     0.173 A 
ATOM     83  C   UNL A   1      43.217  36.362  30.048  1.00  0.00     0.173 A 
ATOM     84  F   UNL A   1      40.983  35.511  27.312  1.00  0.00    -0.203 F 
ATOM     85  C   UNL A   1      42.126  37.498  27.783  1.00  0.00     0.198 A 
ATOM     86  C   UNL A   1      43.609  37.634  29.650  1.00  0.00     0.198 A 
ATOM     87  F   UNL A   1      43.745  35.913  31.195  1.00  0.00    -0.203 F 
ATOM     88  F   UNL A   1      41.551  38.061  26.713  1.00  0.00    -0.200 F 
ATOM     89  C   UNL A   1      43.040  38.214  28.535  1.00  0.00     0.200 A 
ATOM     90  F   UNL A   1      44.527  38.299  30.366  1.00  0.00    -0.200 F 
ATOM     91  F   UNL A   1      43.366  39.467  28.190  1.00  0.00    -0.200 F 
ENDBRANCH  58  81
ENDBRANCH  32  33
ENDBRANCH  25  27
ENDBRANCH  24  25
ENDBRANCH  23  24
ENDBRANCH   1  23
TORSDOF 14
ENDMDL
MODEL 3
REMARK VINA RESULT:     -13.0      0.943      1.792
REMARK SMILES COc1ccc(-c2cnc(N)c(C(=O)OCCOC(=O)c3ccc(-c4c5nc(c(-c6c(F)c(F)c(F)c(F)c6F)c6ccc([nH]6)c(-c6c(F)c(F)c(F)c(F)c6F)c6nc(c(-c7c(F)c(F)c(F)c(F)c7F)c7ccc4[nH]7)C=C6)C=C5)cc3)c2)c(C)c1
REMARK SMILES IDX 16 1 15 2 13 3 14 4 12 5 7 6 8 7 84 8 9 9 10 10 6 11 3 12
REMARK SMILES IDX 4 13 87 14 5 15 85 16 86 17 2 18 1 19 11 20 17 23 18 24
REMARK SMILES IDX 19 25 20 26 21 27 22 28 83 29 23 30 82 31 24 32 25 33 26 34
REMARK SMILES IDX 76 35 27 36 81 37 75 38 77 39 28 40 80 41 74 42 73 43 29 45
REMARK SMILES IDX 61 46 41 47 60 48 42 49 45 50 59 51 78 52 43 53 44 54 58 56
REMARK SMILES IDX 79 57 46 58 30 59 31 60 39 61 32 62 33 63 37 64 40 65 34 66
REMARK SMILES IDX 35 67 38 68 36 69 62 70 63 71 71 72 64 73 65 74 69 75 72 76
REMARK SMILES IDX 66 77 67 78 70 79 68 80 47 81 48 82 56 83 49 84 50 85 54 86
REMARK SMILES IDX 57 87 51 88 52 89 55 90 53 91
REMARK H PARENT 11 21 11 22 77 44 45 55
REMARK Flexibility Score: inf
ROOT
ATOM      1  C   UNL A   1      33.229  29.510  26.141  1.00  0.00     0.275 C 
ENDROOT
BRANCH   1   2
ATOM      2  O   UNL A   1      32.269  28.443  26.032  1.00  0.00    -0.458 OA
BRANCH   2   3
ATOM      3  C   UNL A   1      31.696  28.395  24.800  1.00  0.00     0.342 C 
ATOM      4  O   UNL A   1      30.731  29.064  24.452  1.00  0.00    -0.246 OA
BRANCH   3   5
ATOM      5  C   UNL A   1      32.274  27.380  23.897  1.00  0.00     0.102 A 
ATOM      6  C   UNL A   1      33.099  25.141  23.375  1.00  0.00     0.001 A 
ATOM      7  C   UNL A   1      33.600  25.729  22.209  1.00  0.00     0.122 A 
ATOM      8  C   UNL A   1      32.384  26.013  24.215  1.00  0.00     0.030 A 
ATOM      9  N   UNL A   1      33.505  27.038  21.871  1.00  0.00    -0.238 NA
ATOM     10  C   UNL A   1      32.878  27.855  22.731  1.00  0.00     0.138 A 
BRANCH   6  11
ATOM     11  C   UNL A   1      33.378  23.704  23.653  1.00  0.00    -0.014 A 
ATOM     12  C   UNL A   1      33.555  20.921  24.325  1.00  0.00     0.119 A 
ATOM     13  C   UNL A   1      32.523  21.373  23.521  1.00  0.00     0.047 A 
ATOM     14  C   UNL A   1      34.517  21.838  24.745  1.00  0.00     0.050 A 
ATOM     15  C   UNL A   1      32.445  22.737  23.189  1.00  0.00     0.013 A 
ATOM     16  C   UNL A   1      34.456  23.216  24.419  1.00  0.00    -0.040 A 
ATOM     17  C   UNL A   1      35.588  24.053  24.951  1.00  0.00     0.045 C 
BRANCH  12  18
ATOM     18  O   UNL A   1      33.715  19.657  24.816  1.00  0.00    -0.497 OA
ATOM     19  C   UNL A   1      33.013  18.604  24.170  1.00  0.00     0.278 C 
ENDBRANCH  12  18
ENDBRANCH   6  11
BRANCH  10  20
ATOM     20  N   UNL A   1      32.830  29.183  22.345  1.00  0.00    -0.383 N 
ATOM     21  H   UNL A   1      33.650  29.641  22.051  1.00  0.00     0.158 HD
ATOM     22  H   UNL A   1      31.974  29.671  22.363  1.00  0.00     0.158 HD
ENDBRANCH  10  20
ENDBRANCH   3   5
ENDBRANCH   2   3
ENDBRANCH   1   2
BRANCH   1  23
ATOM     23  C   UNL A   1      34.545  29.109  26.824  1.00  0.00     0.275 C 
BRANCH  23  24
ATOM     24  O   UNL A   1      35.001  29.851  27.992  1.00  0.00    -0.458 OA
BRANCH  24  25
ATOM     25  C   UNL A   1      36.161  30.534  28.131  1.00  0.00     0.338 C 
ATOM     26  O   UNL A   1      36.212  31.759  28.085  1.00  0.00    -0.246 OA
BRANCH  25  27
ATOM     27  C   UNL A   1      37.381  29.744  28.362  1.00  0.00     0.060 A 
ATOM     28  C   UNL A   1      37.469  28.918  29.498  1.00  0.00     0.016 A 
ATOM     29  C   UNL A   1      38.369  29.728  27.390  1.00  0.00     0.016 A 
ATOM     30  C   UNL A   1      38.486  27.981  29.599  1.00  0.00     0.010 A 
ATOM     31  C   UNL A   1      39.265  28.696  27.393  1.00  0.00     0.010 A 
ATOM     32  C   UNL A   1      39.366  27.878  28.527  1.00  0.00    -0.014 A 
BRANCH  32  33
ATOM     33  C   UNL A   1      40.644  27.200  28.606  1.00  0.00     0.031 A 
ATOM     34  C   UNL A   1      40.763  25.763  28.364  1.00  0.00     0.074 A 
ATOM     35  C   UNL A   1      41.651  28.080  28.800  1.00  0.00     0.049 A 
ATOM     36  N   UNL A   1      41.712  25.033  28.831  1.00  0.00    -0.248 NA
ATOM     37  C   UNL A   1      39.773  24.987  27.623  1.00  0.00     0.031 C 
ATOM     38  C   UNL A   1      43.090  27.965  28.705  1.00  0.00     0.029 A 
ATOM     39  N   UNL A   1      41.458  29.382  29.314  1.00  0.00    -0.354 N 
ATOM     40  C   UNL A   1      41.670  23.838  28.141  1.00  0.00     0.074 A 
ATOM     41  C   UNL A   1      40.338  23.776  27.602  1.00  0.00     0.031 C 
ATOM     42  C   UNL A   1      43.633  28.950  29.456  1.00  0.00     0.029 A 
ATOM     43  C   UNL A   1      42.542  29.624  30.158  1.00  0.00     0.049 A 
ATOM     44  H   UNL A   1      40.712  29.992  29.116  1.00  0.00     0.167 HD
ATOM     45  C   UNL A   1      42.850  23.184  27.930  1.00  0.00     0.037 A 
ATOM     46  C   UNL A   1      42.277  29.582  31.500  1.00  0.00     0.037 A 
ATOM     47  C   UNL A   1      43.918  23.882  28.655  1.00  0.00     0.049 A 
ATOM     48  C   UNL A   1      42.907  28.369  32.151  1.00  0.00     0.074 A 
ATOM     49  C   UNL A   1      44.875  24.810  28.280  1.00  0.00     0.029 A 
ATOM     50  N   UNL A   1      43.834  23.957  30.033  1.00  0.00    -0.354 N 
ATOM     51  N   UNL A   1      43.325  27.319  31.495  1.00  0.00    -0.248 NA
ATOM     52  C   UNL A   1      43.062  28.225  33.594  1.00  0.00     0.031 C 
ATOM     53  C   UNL A   1      45.289  25.507  29.460  1.00  0.00     0.029 A 
ATOM     54  C   UNL A   1      44.597  24.989  30.542  1.00  0.00     0.049 A 
ATOM     55  H   UNL A   1      43.293  23.347  30.585  1.00  0.00     0.167 HD
ATOM     56  C   UNL A   1      43.863  26.422  32.365  1.00  0.00     0.074 A 
ATOM     57  C   UNL A   1      43.605  27.000  33.675  1.00  0.00     0.031 C 
ATOM     58  C   UNL A   1      44.501  25.282  31.965  1.00  0.00     0.037 A 
BRANCH  45  59
ATOM     59  C   UNL A   1      43.140  22.108  26.896  1.00  0.00     0.064 A 
ATOM     60  C   UNL A   1      42.488  20.856  27.004  1.00  0.00     0.173 A 
ATOM     61  C   UNL A   1      44.073  22.181  25.841  1.00  0.00     0.173 A 
ATOM     62  F   UNL A   1      41.529  20.647  27.917  1.00  0.00    -0.203 F 
ATOM     63  C   UNL A   1      42.795  19.766  26.183  1.00  0.00     0.198 A 
ATOM     64  C   UNL A   1      44.370  21.093  25.009  1.00  0.00     0.198 A 
ATOM     65  F   UNL A   1      44.749  23.294  25.553  1.00  0.00    -0.203 F 
ATOM     66  F   UNL A   1      42.169  18.596  26.372  1.00  0.00    -0.200 F 
ATOM     67  C   UNL A   1      43.743  19.881  25.189  1.00  0.00     0.200 A 
ATOM     68  F   UNL A   1      45.282  21.233  24.036  1.00  0.00    -0.200 F 
ATOM     69  F   UNL A   1      44.045  18.837  24.407  1.00  0.00    -0.200 F 
ENDBRANCH  45  59
BRANCH  46  70
ATOM     70  C   UNL A   1      40.931  30.155  31.877  1.00  0.00     0.064 A 
ATOM     71  C   UNL A   1      39.904  29.280  32.311  1.00  0.00     0.173 A 
ATOM     72  C   UNL A   1      40.709  31.522  32.086  1.00  0.00     0.173 A 
ATOM     73  F   UNL A   1      40.033  27.953  32.140  1.00  0.00    -0.203 F 
ATOM     74  C   UNL A   1      38.789  29.736  33.017  1.00  0.00     0.198 A 
ATOM     75  C   UNL A   1      39.569  31.981  32.758  1.00  0.00     0.198 A 
ATOM     76  F   UNL A   1      41.624  32.429  31.717  1.00  0.00    -0.203 F 
ATOM     77  F   UNL A   1      37.915  28.858  33.529  1.00  0.00    -0.200 F 
ATOM     78  C   UNL A   1      38.627  31.088  33.247  1.00  0.00     0.200 A 
ATOM     79  F   UNL A   1      39.429  33.290  33.014  1.00  0.00    -0.200 F 
ATOM     80  F   UNL A   1      37.596  31.529  33.983  1.00  0.00    -0.200 F 
ENDBRANCH  46  70
BRANCH  58  81
ATOM     81  C   UNL A   1      45.109  24.336  32.950  1.00  0.00     0.064 A 
ATOM     82  C   UNL A   1      44.422  23.203  33.407  1.00  0.00     0.173 A 
ATOM     83  C   UNL A   1      46.370  24.582  33.530  1.00  0.00     0.173 A 
ATOM     84  F   UNL A   1      43.173  22.941  32.991  1.00  0.00    -0.203 F 
ATOM     85  C   UNL A   1      45.005  22.314  34.305  1.00  0.00     0.198 A 
ATOM     86  C   UNL A   1      46.915  23.734  34.488  1.00  0.00     0.198 A 
ATOM     87  F   UNL A   1      47.129  25.624  33.163  1.00  0.00    -0.203 F 
ATOM     88  F   UNL A   1      44.359  21.188  34.635  1.00  0.00    -0.200 F 
ATOM     89  C   UNL A   1      46.247  22.584  34.851  1.00  0.00     0.200 A 
ATOM     90  F   UNL A   1      48.101  24.033  35.038  1.00  0.00    -0.200 F 
ATOM     91  F   UNL A   1      46.803  21.732  35.722  1.00  0.00    -0.200 F 
ENDBRANCH  58  81
ENDBRANCH  32  33
ENDBRANCH  25  27
ENDBRANCH  24  25
ENDBRANCH  23  24
ENDBRANCH   1  23
TORSDOF 14
ENDMDL
