MODEL 1
REMARK VINA RESULT:     -10.8      0.000      0.000
REMARK SMILES CCCc1nsc(N2CCO[C@H](CC(=O)OCCOC(=O)c3ccc(-c4c5nc(c(-c6c(F)c(F)c(F)c(F)c6F)c6ccc([nH]6)c(-c6c(F)c(F)c(F)c(F)c6F)c6nc(c(-c7c(F)c(F)c(F)c(F)c7F)c7ccc4[nH]7)C=C6)C=C5)cc3)C2)n1
REMARK SMILES IDX 17 1 16 2 14 3 15 4 13 5 12 6 8 7 9 8 85 9 10 10 11 11 7 12
REMARK SMILES IDX 4 13 5 14 86 15 6 16 3 17 2 18 1 19 18 20 19 21 20 22 21 23
REMARK SMILES IDX 22 24 23 25 84 26 24 27 83 28 25 29 26 30 27 31 77 32 28 33
REMARK SMILES IDX 82 34 76 35 78 36 29 37 81 38 75 39 74 40 30 42 62 43 42 44
REMARK SMILES IDX 61 45 43 46 46 47 60 48 79 49 44 50 45 51 59 53 80 54 47 55
REMARK SMILES IDX 31 56 32 57 40 58 33 59 34 60 38 61 41 62 35 63 36 64 39 65
REMARK SMILES IDX 37 66 63 67 64 68 72 69 65 70 66 71 70 72 73 73 67 74 68 75
REMARK SMILES IDX 71 76 69 77 48 78 49 79 57 80 50 81 51 82 55 83 58 84 52 85
REMARK SMILES IDX 53 86 56 87 54 88
REMARK H PARENT 78 41 46 52
REMARK Flexibility Score: inf
ROOT
ATOM      1  C   UNL A   1      37.728  20.530  25.046  1.00  0.00     0.274 C 
ENDROOT
BRANCH   1   2
ATOM      2  O   UNL A   1      37.995  21.954  24.990  1.00  0.00    -0.462 OA
BRANCH   2   3
ATOM      3  C   UNL A   1      36.927  22.736  24.702  1.00  0.00     0.308 C 
ATOM      4  O   UNL A   1      36.587  23.026  23.554  1.00  0.00    -0.252 OA
BRANCH   3   5
ATOM      5  C   UNL A   1      36.146  23.264  25.888  1.00  0.00     0.156 C 
BRANCH   5   6
ATOM      6  C   UNL A   1      34.851  22.673  26.488  1.00  0.00     0.148 C 
ATOM      7  N   UNL A   1      33.474  21.103  25.055  1.00  0.00    -0.342 N 
ATOM      8  C   UNL A   1      32.548  22.192  24.761  1.00  0.00     0.147 C 
ATOM      9  C   UNL A   1      34.341  21.236  26.226  1.00  0.00     0.151 C 
ATOM     10  C   UNL A   1      33.164  23.566  25.048  1.00  0.00     0.182 C 
ATOM     11  O   UNL A   1      33.764  23.629  26.350  1.00  0.00    -0.374 OA
BRANCH   7  12
ATOM     12  C   UNL A   1      33.394  19.940  24.351  1.00  0.00     0.205 A 
ATOM     13  C   UNL A   1      33.672  17.816  23.791  1.00  0.00     0.144 A 
ATOM     14  N   UNL A   1      32.683  18.026  22.923  1.00  0.00    -0.174 NA
ATOM     15  N   UNL A   1      34.165  18.885  24.536  1.00  0.00    -0.203 NA
ATOM     16  S   UNL A   1      32.221  19.614  23.109  1.00  0.00     0.004 S 
BRANCH  13  17
ATOM     17  C   UNL A   1      34.209  16.440  24.036  1.00  0.00     0.078 C 
BRANCH  17  18
ATOM     18  C   UNL A   1      33.919  15.876  25.432  1.00  0.00     0.005 C 
ATOM     19  C   UNL A   1      32.588  15.141  25.496  1.00  0.00     0.004 C 
ENDBRANCH  17  18
ENDBRANCH  13  17
ENDBRANCH   7  12
ENDBRANCH   5   6
ENDBRANCH   3   5
ENDBRANCH   2   3
ENDBRANCH   1   2
BRANCH   1  20
ATOM     20  C   UNL A   1      38.884  19.748  25.697  1.00  0.00     0.275 C 
BRANCH  20  21
ATOM     21  O   UNL A   1      40.177  20.400  25.709  1.00  0.00    -0.458 OA
BRANCH  21  22
ATOM     22  C   UNL A   1      40.673  20.660  26.931  1.00  0.00     0.338 C 
ATOM     23  O   UNL A   1      40.726  19.905  27.883  1.00  0.00    -0.246 OA
BRANCH  22  24
ATOM     24  C   UNL A   1      41.223  21.992  27.119  1.00  0.00     0.060 A 
ATOM     25  C   UNL A   1      41.885  22.244  28.327  1.00  0.00     0.016 A 
ATOM     26  C   UNL A   1      40.835  23.030  26.277  1.00  0.00     0.016 A 
ATOM     27  C   UNL A   1      42.187  23.553  28.681  1.00  0.00     0.010 A 
ATOM     28  C   UNL A   1      41.144  24.339  26.625  1.00  0.00     0.010 A 
ATOM     29  C   UNL A   1      41.830  24.601  27.822  1.00  0.00    -0.014 A 
BRANCH  29  30
ATOM     30  C   UNL A   1      42.325  25.966  28.076  1.00  0.00     0.031 A 
ATOM     31  C   UNL A   1      41.482  26.997  28.751  1.00  0.00     0.074 A 
ATOM     32  C   UNL A   1      43.541  26.262  27.586  1.00  0.00     0.049 A 
ATOM     33  N   UNL A   1      41.745  28.262  28.954  1.00  0.00    -0.248 NA
ATOM     34  C   UNL A   1      40.171  26.563  29.255  1.00  0.00     0.031 C 
ATOM     35  C   UNL A   1      44.409  25.316  26.880  1.00  0.00     0.029 A 
ATOM     36  N   UNL A   1      44.240  27.436  27.574  1.00  0.00    -0.354 N 
ATOM     37  C   UNL A   1      40.635  28.781  29.601  1.00  0.00     0.074 A 
ATOM     38  C   UNL A   1      39.685  27.697  29.749  1.00  0.00     0.031 C 
ATOM     39  C   UNL A   1      45.516  25.954  26.481  1.00  0.00     0.029 A 
ATOM     40  C   UNL A   1      45.420  27.352  26.883  1.00  0.00     0.049 A 
ATOM     41  H   UNL A   1      43.926  28.258  28.015  1.00  0.00     0.167 HD
ATOM     42  C   UNL A   1      40.442  30.051  30.030  1.00  0.00     0.037 A 
ATOM     43  C   UNL A   1      46.318  28.306  26.585  1.00  0.00     0.037 A 
ATOM     44  C   UNL A   1      41.404  31.112  29.876  1.00  0.00     0.049 A 
ATOM     45  C   UNL A   1      46.082  29.697  27.083  1.00  0.00     0.074 A 
ATOM     46  C   UNL A   1      41.333  32.419  30.325  1.00  0.00     0.029 A 
ATOM     47  N   UNL A   1      42.617  30.985  29.210  1.00  0.00    -0.354 N 
ATOM     48  N   UNL A   1      45.053  30.167  27.744  1.00  0.00    -0.248 NA
ATOM     49  C   UNL A   1      47.131  30.683  26.808  1.00  0.00     0.031 C 
ATOM     50  C   UNL A   1      42.489  33.089  29.909  1.00  0.00     0.029 A 
ATOM     51  C   UNL A   1      43.294  32.193  29.224  1.00  0.00     0.049 A 
ATOM     52  H   UNL A   1      42.945  30.158  28.789  1.00  0.00     0.167 HD
ATOM     53  C   UNL A   1      45.333  31.502  27.981  1.00  0.00     0.074 A 
ATOM     54  C   UNL A   1      46.634  31.765  27.394  1.00  0.00     0.031 C 
ATOM     55  C   UNL A   1      44.584  32.425  28.629  1.00  0.00     0.037 A 
BRANCH  42  56
ATOM     56  C   UNL A   1      39.145  30.373  30.707  1.00  0.00     0.064 A 
ATOM     57  C   UNL A   1      39.020  30.332  32.103  1.00  0.00     0.173 A 
ATOM     58  C   UNL A   1      38.038  30.801  29.959  1.00  0.00     0.173 A 
ATOM     59  F   UNL A   1      40.048  29.922  32.860  1.00  0.00    -0.203 F 
ATOM     60  C   UNL A   1      37.831  30.705  32.726  1.00  0.00     0.198 A 
ATOM     61  C   UNL A   1      36.856  31.188  30.586  1.00  0.00     0.198 A 
ATOM     62  F   UNL A   1      38.109  30.860  28.621  1.00  0.00    -0.203 F 
ATOM     63  F   UNL A   1      37.728  30.644  34.061  1.00  0.00    -0.200 F 
ATOM     64  C   UNL A   1      36.753  31.138  31.968  1.00  0.00     0.200 A 
ATOM     65  F   UNL A   1      35.818  31.613  29.854  1.00  0.00    -0.200 F 
ATOM     66  F   UNL A   1      35.615  31.508  32.570  1.00  0.00    -0.200 F 
ENDBRANCH  42  56
BRANCH  43  67
ATOM     67  C   UNL A   1      47.511  27.939  25.791  1.00  0.00     0.064 A 
ATOM     68  C   UNL A   1      48.713  27.598  26.423  1.00  0.00     0.173 A 
ATOM     69  C   UNL A   1      47.442  27.827  24.395  1.00  0.00     0.173 A 
ATOM     70  F   UNL A   1      48.819  27.695  27.756  1.00  0.00    -0.203 F 
ATOM     71  C   UNL A   1      49.806  27.154  25.685  1.00  0.00     0.198 A 
ATOM     72  C   UNL A   1      48.530  27.366  23.661  1.00  0.00     0.198 A 
ATOM     73  F   UNL A   1      46.304  28.125  23.753  1.00  0.00    -0.203 F 
ATOM     74  F   UNL A   1      50.948  26.837  26.309  1.00  0.00    -0.200 F 
ATOM     75  C   UNL A   1      49.711  27.030  24.306  1.00  0.00     0.200 A 
ATOM     76  F   UNL A   1      48.430  27.229  22.331  1.00  0.00    -0.200 F 
ATOM     77  F   UNL A   1      50.758  26.581  23.600  1.00  0.00    -0.200 F 
ENDBRANCH  43  67
BRANCH  55  78
ATOM     78  C   UNL A   1      45.168  33.796  28.747  1.00  0.00     0.064 A 
ATOM     79  C   UNL A   1      44.905  34.783  27.788  1.00  0.00     0.173 A 
ATOM     80  C   UNL A   1      45.980  34.129  29.840  1.00  0.00     0.173 A 
ATOM     81  F   UNL A   1      44.148  34.498  26.718  1.00  0.00    -0.203 F 
ATOM     82  C   UNL A   1      45.449  36.057  27.912  1.00  0.00     0.198 A 
ATOM     83  C   UNL A   1      46.510  35.409  29.968  1.00  0.00     0.198 A 
ATOM     84  F   UNL A   1      46.258  33.213  30.780  1.00  0.00    -0.203 F 
ATOM     85  F   UNL A   1      45.213  36.978  26.968  1.00  0.00    -0.200 F 
ATOM     86  C   UNL A   1      46.246  36.370  29.003  1.00  0.00     0.200 A 
ATOM     87  F   UNL A   1      47.279  35.711  31.022  1.00  0.00    -0.200 F 
ATOM     88  F   UNL A   1      46.771  37.597  29.119  1.00  0.00    -0.200 F 
ENDBRANCH  55  78
ENDBRANCH  29  30
ENDBRANCH  22  24
ENDBRANCH  21  22
ENDBRANCH  20  21
ENDBRANCH   1  20
TORSDOF 15
ENDMDL
MODEL 2
REMARK VINA RESULT:     -10.7      4.830      9.793
REMARK SMILES CCCc1nsc(N2CCO[C@H](CC(=O)OCCOC(=O)c3ccc(-c4c5nc(c(-c6c(F)c(F)c(F)c(F)c6F)c6ccc([nH]6)c(-c6c(F)c(F)c(F)c(F)c6F)c6nc(c(-c7c(F)c(F)c(F)c(F)c7F)c7ccc4[nH]7)C=C6)C=C5)cc3)C2)n1
REMARK SMILES IDX 17 1 16 2 14 3 15 4 13 5 12 6 8 7 9 8 85 9 10 10 11 11 7 12
REMARK SMILES IDX 4 13 5 14 86 15 6 16 3 17 2 18 1 19 18 20 19 21 20 22 21 23
REMARK SMILES IDX 22 24 23 25 84 26 24 27 83 28 25 29 26 30 27 31 77 32 28 33
REMARK SMILES IDX 82 34 76 35 78 36 29 37 81 38 75 39 74 40 30 42 62 43 42 44
REMARK SMILES IDX 61 45 43 46 46 47 60 48 79 49 44 50 45 51 59 53 80 54 47 55
REMARK SMILES IDX 31 56 32 57 40 58 33 59 34 60 38 61 41 62 35 63 36 64 39 65
REMARK SMILES IDX 37 66 63 67 64 68 72 69 65 70 66 71 70 72 73 73 67 74 68 75
REMARK SMILES IDX 71 76 69 77 48 78 49 79 57 80 50 81 51 82 55 83 58 84 52 85
REMARK SMILES IDX 53 86 56 87 54 88
REMARK H PARENT 78 41 46 52
REMARK Flexibility Score: inf
ROOT
ATOM      1  C   UNL A   1      31.777  29.057  27.066  1.00  0.00     0.274 C 
ENDROOT
BRANCH   1   2
ATOM      2  O   UNL A   1      31.626  28.301  25.838  1.00  0.00    -0.462 OA
BRANCH   2   3
ATOM      3  C   UNL A   1      32.719  27.608  25.442  1.00  0.00     0.308 C 
ATOM      4  O   UNL A   1      33.647  28.106  24.805  1.00  0.00    -0.252 OA
BRANCH   3   5
ATOM      5  C   UNL A   1      32.753  26.141  25.822  1.00  0.00     0.156 C 
BRANCH   5   6
ATOM      6  C   UNL A   1      31.556  25.168  25.891  1.00  0.00     0.148 C 
ATOM      7  N   UNL A   1      31.862  22.824  24.979  1.00  0.00    -0.342 N 
ATOM      8  C   UNL A   1      31.159  23.213  23.760  1.00  0.00     0.147 C 
ATOM      9  C   UNL A   1      31.676  23.651  26.172  1.00  0.00     0.151 C 
ATOM     10  C   UNL A   1      31.112  24.735  23.581  1.00  0.00     0.182 C 
ATOM     11  O   UNL A   1      30.663  25.405  24.768  1.00  0.00    -0.374 OA
BRANCH   7  12
ATOM     12  C   UNL A   1      32.523  21.635  25.028  1.00  0.00     0.205 A 
ATOM     13  C   UNL A   1      32.932  19.465  24.860  1.00  0.00     0.144 A 
ATOM     14  N   UNL A   1      34.217  19.809  24.946  1.00  0.00    -0.174 NA
ATOM     15  N   UNL A   1      31.952  20.445  25.001  1.00  0.00    -0.203 NA
ATOM     16  S   UNL A   1      34.254  21.468  25.082  1.00  0.00     0.004 S 
BRANCH  13  17
ATOM     17  C   UNL A   1      32.525  18.061  24.537  1.00  0.00     0.078 C 
BRANCH  17  18
ATOM     18  C   UNL A   1      32.909  17.589  23.129  1.00  0.00     0.005 C 
ATOM     19  C   UNL A   1      34.138  16.690  23.133  1.00  0.00     0.004 C 
ENDBRANCH  17  18
ENDBRANCH  13  17
ENDBRANCH   7  12
ENDBRANCH   5   6
ENDBRANCH   3   5
ENDBRANCH   2   3
ENDBRANCH   1   2
BRANCH   1  20
ATOM     20  C   UNL A   1      31.922  30.568  26.804  1.00  0.00     0.275 C 
BRANCH  20  21
ATOM     21  O   UNL A   1      33.257  31.046  26.511  1.00  0.00    -0.458 OA
BRANCH  21  22
ATOM     22  C   UNL A   1      33.749  31.935  27.390  1.00  0.00     0.338 C 
ATOM     23  O   UNL A   1      33.326  33.050  27.630  1.00  0.00    -0.246 OA
BRANCH  22  24
ATOM     24  C   UNL A   1      34.909  31.498  28.149  1.00  0.00     0.060 A 
ATOM     25  C   UNL A   1      35.993  32.382  28.225  1.00  0.00     0.016 A 
ATOM     26  C   UNL A   1      35.041  30.159  28.506  1.00  0.00     0.016 A 
ATOM     27  C   UNL A   1      37.217  31.923  28.692  1.00  0.00     0.010 A 
ATOM     28  C   UNL A   1      36.264  29.701  28.983  1.00  0.00     0.010 A 
ATOM     29  C   UNL A   1      37.350  30.584  29.087  1.00  0.00    -0.014 A 
BRANCH  29  30
ATOM     30  C   UNL A   1      38.571  30.135  29.778  1.00  0.00     0.031 A 
ATOM     31  C   UNL A   1      39.481  29.111  29.186  1.00  0.00     0.074 A 
ATOM     32  C   UNL A   1      38.774  30.627  31.013  1.00  0.00     0.049 A 
ATOM     33  N   UNL A   1      40.535  28.548  29.718  1.00  0.00    -0.248 NA
ATOM     34  C   UNL A   1      39.169  28.646  27.826  1.00  0.00     0.031 C 
ATOM     35  C   UNL A   1      37.906  31.604  31.676  1.00  0.00     0.029 A 
ATOM     36  N   UNL A   1      39.744  30.353  31.937  1.00  0.00    -0.354 N 
ATOM     37  C   UNL A   1      41.011  27.657  28.768  1.00  0.00     0.074 A 
ATOM     38  C   UNL A   1      40.123  27.743  27.626  1.00  0.00     0.031 C 
ATOM     39  C   UNL A   1      38.369  31.830  32.912  1.00  0.00     0.029 A 
ATOM     40  C   UNL A   1      39.547  30.999  33.130  1.00  0.00     0.049 A 
ATOM     41  H   UNL A   1      40.505  29.753  31.764  1.00  0.00     0.167 HD
ATOM     42  C   UNL A   1      42.094  26.849  28.855  1.00  0.00     0.037 A 
ATOM     43  C   UNL A   1      40.228  30.911  34.284  1.00  0.00     0.037 A 
ATOM     44  C   UNL A   1      42.964  26.785  30.002  1.00  0.00     0.049 A 
ATOM     45  C   UNL A   1      41.427  30.018  34.346  1.00  0.00     0.074 A 
ATOM     46  C   UNL A   1      44.121  26.044  30.171  1.00  0.00     0.029 A 
ATOM     47  N   UNL A   1      42.764  27.488  31.183  1.00  0.00    -0.354 N 
ATOM     48  N   UNL A   1      41.903  29.220  33.421  1.00  0.00    -0.248 NA
ATOM     49  C   UNL A   1      42.189  30.022  35.598  1.00  0.00     0.031 C 
ATOM     50  C   UNL A   1      44.606  26.278  31.462  1.00  0.00     0.029 A 
ATOM     51  C   UNL A   1      43.768  27.187  32.089  1.00  0.00     0.049 A 
ATOM     52  H   UNL A   1      42.019  28.108  31.351  1.00  0.00     0.167 HD
ATOM     53  C   UNL A   1      43.031  28.636  33.970  1.00  0.00     0.074 A 
ATOM     54  C   UNL A   1      43.170  29.176  35.310  1.00  0.00     0.031 C 
ATOM     55  C   UNL A   1      43.877  27.737  33.415  1.00  0.00     0.037 A 
BRANCH  42  56
ATOM     56  C   UNL A   1      42.405  25.966  27.686  1.00  0.00     0.064 A 
ATOM     57  C   UNL A   1      43.385  26.317  26.746  1.00  0.00     0.173 A 
ATOM     58  C   UNL A   1      41.775  24.721  27.547  1.00  0.00     0.173 A 
ATOM     59  F   UNL A   1      44.010  27.501  26.834  1.00  0.00    -0.203 F 
ATOM     60  C   UNL A   1      43.719  25.455  25.705  1.00  0.00     0.198 A 
ATOM     61  C   UNL A   1      42.122  23.854  26.513  1.00  0.00     0.198 A 
ATOM     62  F   UNL A   1      40.833  24.338  28.422  1.00  0.00    -0.203 F 
ATOM     63  F   UNL A   1      44.648  25.817  24.808  1.00  0.00    -0.200 F 
ATOM     64  C   UNL A   1      43.093  24.222  25.593  1.00  0.00     0.200 A 
ATOM     65  F   UNL A   1      41.522  22.661  26.409  1.00  0.00    -0.200 F 
ATOM     66  F   UNL A   1      43.424  23.389  24.598  1.00  0.00    -0.200 F 
ENDBRANCH  42  56
BRANCH  43  67
ATOM     67  C   UNL A   1      39.776  31.713  35.442  1.00  0.00     0.064 A 
ATOM     68  C   UNL A   1      40.323  32.976  35.693  1.00  0.00     0.173 A 
ATOM     69  C   UNL A   1      38.722  31.274  36.256  1.00  0.00     0.173 A 
ATOM     70  F   UNL A   1      41.334  33.430  34.939  1.00  0.00    -0.203 F 
ATOM     71  C   UNL A   1      39.828  33.776  36.720  1.00  0.00     0.198 A 
ATOM     72  C   UNL A   1      38.218  32.082  37.270  1.00  0.00     0.198 A 
ATOM     73  F   UNL A   1      38.157  30.078  36.035  1.00  0.00    -0.203 F 
ATOM     74  F   UNL A   1      40.370  34.980  36.946  1.00  0.00    -0.200 F 
ATOM     75  C   UNL A   1      38.771  33.332  37.501  1.00  0.00     0.200 A 
ATOM     76  F   UNL A   1      37.184  31.658  38.011  1.00  0.00    -0.200 F 
ATOM     77  F   UNL A   1      38.283  34.113  38.475  1.00  0.00    -0.200 F 
ENDBRANCH  43  67
BRANCH  55  78
ATOM     78  C   UNL A   1      45.034  27.300  34.255  1.00  0.00     0.064 A 
ATOM     79  C   UNL A   1      46.243  28.009  34.250  1.00  0.00     0.173 A 
ATOM     80  C   UNL A   1      44.924  26.177  35.085  1.00  0.00     0.173 A 
ATOM     81  F   UNL A   1      46.395  29.078  33.455  1.00  0.00    -0.203 F 
ATOM     82  C   UNL A   1      47.311  27.597  35.040  1.00  0.00     0.198 A 
ATOM     83  C   UNL A   1      45.989  25.777  35.886  1.00  0.00     0.198 A 
ATOM     84  F   UNL A   1      43.784  25.469  35.118  1.00  0.00    -0.203 F 
ATOM     85  F   UNL A   1      48.470  28.268  34.999  1.00  0.00    -0.200 F 
ATOM     86  C   UNL A   1      47.182  26.485  35.860  1.00  0.00     0.200 A 
ATOM     87  F   UNL A   1      45.864  24.704  36.678  1.00  0.00    -0.200 F 
ATOM     88  F   UNL A   1      48.213  26.089  36.619  1.00  0.00    -0.200 F 
ENDBRANCH  55  78
ENDBRANCH  29  30
ENDBRANCH  22  24
ENDBRANCH  21  22
ENDBRANCH  20  21
ENDBRANCH   1  20
TORSDOF 15
ENDMDL
MODEL 3
REMARK VINA RESULT:     -10.7      4.762      9.855
REMARK SMILES CCCc1nsc(N2CCO[C@H](CC(=O)OCCOC(=O)c3ccc(-c4c5nc(c(-c6c(F)c(F)c(F)c(F)c6F)c6ccc([nH]6)c(-c6c(F)c(F)c(F)c(F)c6F)c6nc(c(-c7c(F)c(F)c(F)c(F)c7F)c7ccc4[nH]7)C=C6)C=C5)cc3)C2)n1
REMARK SMILES IDX 17 1 16 2 14 3 15 4 13 5 12 6 8 7 9 8 85 9 10 10 11 11 7 12
REMARK SMILES IDX 4 13 5 14 86 15 6 16 3 17 2 18 1 19 18 20 19 21 20 22 21 23
REMARK SMILES IDX 22 24 23 25 84 26 24 27 83 28 25 29 26 30 27 31 77 32 28 33
REMARK SMILES IDX 82 34 76 35 78 36 29 37 81 38 75 39 74 40 30 42 62 43 42 44
REMARK SMILES IDX 61 45 43 46 46 47 60 48 79 49 44 50 45 51 59 53 80 54 47 55
REMARK SMILES IDX 31 56 32 57 40 58 33 59 34 60 38 61 41 62 35 63 36 64 39 65
REMARK SMILES IDX 37 66 63 67 64 68 72 69 65 70 66 71 70 72 73 73 67 74 68 75
REMARK SMILES IDX 71 76 69 77 48 78 49 79 57 80 50 81 51 82 55 83 58 84 52 85
REMARK SMILES IDX 53 86 56 87 54 88
REMARK H PARENT 78 41 46 52
REMARK Flexibility Score: inf
ROOT
ATOM      1  C   UNL A   1      31.404  28.919  24.978  1.00  0.00     0.274 C 
ENDROOT
BRANCH   1   2
ATOM      2  O   UNL A   1      31.304  29.327  23.590  1.00  0.00    -0.462 OA
BRANCH   2   3
ATOM      3  C   UNL A   1      30.643  28.470  22.777  1.00  0.00     0.308 C 
ATOM      4  O   UNL A   1      29.838  28.832  21.918  1.00  0.00    -0.252 OA
BRANCH   3   5
ATOM      5  C   UNL A   1      30.938  26.997  22.977  1.00  0.00     0.156 C 
BRANCH   5   6
ATOM      6  C   UNL A   1      32.093  26.184  22.351  1.00  0.00     0.148 C 
ATOM      7  N   UNL A   1      32.876  24.096  23.552  1.00  0.00    -0.342 N 
ATOM      8  C   UNL A   1      34.015  24.836  24.086  1.00  0.00     0.147 C 
ATOM      9  C   UNL A   1      32.192  24.640  22.379  1.00  0.00     0.151 C 
ATOM     10  C   UNL A   1      33.801  26.352  24.017  1.00  0.00     0.182 C 
ATOM     11  O   UNL A   1      33.369  26.779  22.717  1.00  0.00    -0.374 OA
BRANCH   7  12
ATOM     12  C   UNL A   1      32.587  22.857  24.039  1.00  0.00     0.205 A 
ATOM     13  C   UNL A   1      32.796  20.711  24.542  1.00  0.00     0.144 A 
ATOM     14  N   UNL A   1      31.778  20.917  25.377  1.00  0.00    -0.174 NA
ATOM     15  N   UNL A   1      33.212  21.744  23.705  1.00  0.00    -0.203 NA
ATOM     16  S   UNL A   1      31.368  22.525  25.234  1.00  0.00     0.004 S 
BRANCH  13  17
ATOM     17  C   UNL A   1      33.549  19.417  24.543  1.00  0.00     0.078 C 
BRANCH  17  18
ATOM     18  C   UNL A   1      32.719  18.190  24.147  1.00  0.00     0.005 C 
ATOM     19  C   UNL A   1      32.528  18.080  22.641  1.00  0.00     0.004 C 
ENDBRANCH  17  18
ENDBRANCH  13  17
ENDBRANCH   7  12
ENDBRANCH   5   6
ENDBRANCH   3   5
ENDBRANCH   2   3
ENDBRANCH   1   2
BRANCH   1  20
ATOM     20  C   UNL A   1      31.762  30.096  25.905  1.00  0.00     0.275 C 
BRANCH  20  21
ATOM     21  O   UNL A   1      33.171  30.402  26.042  1.00  0.00    -0.458 OA
BRANCH  21  22
ATOM     22  C   UNL A   1      33.470  31.295  27.001  1.00  0.00     0.338 C 
ATOM     23  O   UNL A   1      32.873  32.321  27.267  1.00  0.00    -0.246 OA
BRANCH  22  24
ATOM     24  C   UNL A   1      34.629  30.980  27.818  1.00  0.00     0.060 A 
ATOM     25  C   UNL A   1      35.576  31.995  28.001  1.00  0.00     0.016 A 
ATOM     26  C   UNL A   1      34.920  29.655  28.131  1.00  0.00     0.016 A 
ATOM     27  C   UNL A   1      36.820  31.681  28.532  1.00  0.00     0.010 A 
ATOM     28  C   UNL A   1      36.161  29.341  28.671  1.00  0.00     0.010 A 
ATOM     29  C   UNL A   1      37.109  30.355  28.882  1.00  0.00    -0.014 A 
BRANCH  29  30
ATOM     30  C   UNL A   1      38.335  30.040  29.636  1.00  0.00     0.031 A 
ATOM     31  C   UNL A   1      39.345  29.066  29.127  1.00  0.00     0.074 A 
ATOM     32  C   UNL A   1      38.452  30.604  30.850  1.00  0.00     0.049 A 
ATOM     33  N   UNL A   1      40.419  28.616  29.722  1.00  0.00    -0.248 NA
ATOM     34  C   UNL A   1      39.122  28.513  27.782  1.00  0.00     0.031 C 
ATOM     35  C   UNL A   1      37.485  31.538  31.433  1.00  0.00     0.029 A 
ATOM     36  N   UNL A   1      39.404  30.455  31.819  1.00  0.00    -0.354 N 
ATOM     37  C   UNL A   1      41.000  27.723  28.835  1.00  0.00     0.074 A 
ATOM     38  C   UNL A   1      40.152  27.682  27.660  1.00  0.00     0.031 C 
ATOM     39  C   UNL A   1      37.881  31.860  32.671  1.00  0.00     0.029 A 
ATOM     40  C   UNL A   1      39.112  31.138  32.970  1.00  0.00     0.049 A 
ATOM     41  H   UNL A   1      40.216  29.911  31.702  1.00  0.00     0.167 HD
ATOM     42  C   UNL A   1      42.139  27.010  28.999  1.00  0.00     0.037 A 
ATOM     43  C   UNL A   1      39.754  31.161  34.149  1.00  0.00     0.037 A 
ATOM     44  C   UNL A   1      42.968  27.072  30.176  1.00  0.00     0.049 A 
ATOM     45  C   UNL A   1      41.016  30.372  34.297  1.00  0.00     0.074 A 
ATOM     46  C   UNL A   1      44.173  26.436  30.421  1.00  0.00     0.029 A 
ATOM     47  N   UNL A   1      42.669  27.812  31.312  1.00  0.00    -0.354 N 
ATOM     48  N   UNL A   1      41.589  29.572  33.430  1.00  0.00    -0.248 NA
ATOM     49  C   UNL A   1      41.728  30.497  35.572  1.00  0.00     0.031 C 
ATOM     50  C   UNL A   1      44.589  26.770  31.714  1.00  0.00     0.029 A 
ATOM     51  C   UNL A   1      43.659  27.636  32.266  1.00  0.00     0.049 A 
ATOM     52  H   UNL A   1      41.871  28.377  31.424  1.00  0.00     0.167 HD
ATOM     53  C   UNL A   1      42.738  29.108  34.046  1.00  0.00     0.074 A 
ATOM     54  C   UNL A   1      42.783  29.721  35.361  1.00  0.00     0.031 C 
ATOM     55  C   UNL A   1      43.674  28.255  33.565  1.00  0.00     0.037 A 
BRANCH  42  56
ATOM     56  C   UNL A   1      42.564  26.101  27.887  1.00  0.00     0.064 A 
ATOM     57  C   UNL A   1      42.027  24.813  27.751  1.00  0.00     0.173 A 
ATOM     58  C   UNL A   1      43.458  26.549  26.903  1.00  0.00     0.173 A 
ATOM     59  F   UNL A   1      41.174  24.338  28.670  1.00  0.00    -0.203 F 
ATOM     60  C   UNL A   1      42.373  24.004  26.671  1.00  0.00     0.198 A 
ATOM     61  C   UNL A   1      43.790  25.744  25.817  1.00  0.00     0.198 A 
ATOM     62  F   UNL A   1      43.997  27.775  26.987  1.00  0.00    -0.203 F 
ATOM     63  F   UNL A   1      41.859  22.770  26.568  1.00  0.00    -0.200 F 
ATOM     64  C   UNL A   1      43.248  24.472  25.702  1.00  0.00     0.200 A 
ATOM     65  F   UNL A   1      44.630  26.198  24.877  1.00  0.00    -0.200 F 
ATOM     66  F   UNL A   1      43.570  23.697  24.658  1.00  0.00    -0.200 F 
ENDBRANCH  42  56
BRANCH  43  67
ATOM     67  C   UNL A   1      39.196  31.978  35.250  1.00  0.00     0.064 A 
ATOM     68  C   UNL A   1      38.450  31.383  36.273  1.00  0.00     0.173 A 
ATOM     69  C   UNL A   1      39.483  33.347  35.349  1.00  0.00     0.173 A 
ATOM     70  F   UNL A   1      38.152  30.078  36.213  1.00  0.00    -0.203 F 
ATOM     71  C   UNL A   1      38.012  32.131  37.363  1.00  0.00     0.198 A 
ATOM     72  C   UNL A   1      39.059  34.088  36.447  1.00  0.00     0.198 A 
ATOM     73  F   UNL A   1      40.212  33.950  34.399  1.00  0.00    -0.203 F 
ATOM     74  F   UNL A   1      37.295  31.543  38.330  1.00  0.00    -0.200 F 
ATOM     75  C   UNL A   1      38.323  33.480  37.453  1.00  0.00     0.200 A 
ATOM     76  F   UNL A   1      39.379  35.386  36.541  1.00  0.00    -0.200 F 
ATOM     77  F   UNL A   1      37.919  34.192  38.514  1.00  0.00    -0.200 F 
ENDBRANCH  43  67
BRANCH  55  78
ATOM     78  C   UNL A   1      44.829  27.955  34.465  1.00  0.00     0.064 A 
ATOM     79  C   UNL A   1      45.973  28.764  34.473  1.00  0.00     0.173 A 
ATOM     80  C   UNL A   1      44.782  26.860  35.339  1.00  0.00     0.173 A 
ATOM     81  F   UNL A   1      46.065  29.810  33.638  1.00  0.00    -0.203 F 
ATOM     82  C   UNL A   1      47.040  28.479  35.319  1.00  0.00     0.198 A 
ATOM     83  C   UNL A   1      45.844  26.586  36.194  1.00  0.00     0.198 A 
ATOM     84  F   UNL A   1      43.705  26.059  35.361  1.00  0.00    -0.203 F 
ATOM     85  F   UNL A   1      48.139  29.244  35.290  1.00  0.00    -0.200 F 
ATOM     86  C   UNL A   1      46.973  27.394  36.181  1.00  0.00     0.200 A 
ATOM     87  F   UNL A   1      45.779  25.539  37.027  1.00  0.00    -0.200 F 
ATOM     88  F   UNL A   1      48.002  27.118  36.993  1.00  0.00    -0.200 F 
ENDBRANCH  55  78
ENDBRANCH  29  30
ENDBRANCH  22  24
ENDBRANCH  21  22
ENDBRANCH  20  21
ENDBRANCH   1  20
TORSDOF 15
ENDMDL
