MODEL 1
REMARK VINA RESULT:     -12.4      0.000      0.000
REMARK SMILES C[C@@H](C(=O)OCCOC(=O)c1ccc(-c2c3nc(c(-c4c(F)c(F)c(F)c(F)c4F)c4ccc([nH]4)c(-c4c(F)c(F)c(F)c(F)c4F)c4nc(c(-c5c(F)c(F)c(F)c(F)c5F)c5ccc2[nH]5)C=C4)C=C3)cc1)c1ccc(C[C@H]2CCC[C@H]2O)cc1
REMARK SMILES IDX 6 1 5 2 3 3 4 4 2 5 1 6 74 7 75 8 86 9 76 10 85 11 77 12
REMARK SMILES IDX 78 13 79 14 80 15 83 16 81 17 82 18 84 19 7 21 8 22 9 23
REMARK SMILES IDX 10 24 11 25 12 26 73 27 13 28 72 29 14 30 15 31 16 32 66 33
REMARK SMILES IDX 17 34 71 35 65 36 67 37 18 38 70 39 64 40 63 41 19 43 51 44
REMARK SMILES IDX 31 45 50 46 32 47 35 48 49 49 68 50 33 51 34 52 48 54 69 55
REMARK SMILES IDX 36 56 20 57 21 58 29 59 22 60 23 61 27 62 30 63 24 64 25 65
REMARK SMILES IDX 28 66 26 67 52 68 53 69 61 70 54 71 55 72 59 73 62 74 56 75
REMARK SMILES IDX 57 76 60 77 58 78 37 79 38 80 46 81 39 82 40 83 44 84 47 85
REMARK SMILES IDX 41 86 42 87 45 88 43 89
REMARK H PARENT 84 20 67 42 35 53
REMARK Flexibility Score: inf
ROOT
ATOM      1  C   UNL A   1      31.182  28.586  24.805  1.00  0.00     0.274 C 
ENDROOT
BRANCH   1   2
ATOM      2  O   UNL A   1      31.756  27.646  23.875  1.00  0.00    -0.462 OA
BRANCH   2   3
ATOM      3  C   UNL A   1      32.285  26.511  24.412  1.00  0.00     0.313 C 
ATOM      4  O   UNL A   1      31.927  26.041  25.487  1.00  0.00    -0.252 OA
BRANCH   3   5
ATOM      5  C   UNL A   1      33.413  25.914  23.549  1.00  0.00     0.126 C 
ATOM      6  C   UNL A   1      33.126  26.024  22.046  1.00  0.00     0.025 C 
BRANCH   5   7
ATOM      7  C   UNL A   1      33.805  24.507  24.012  1.00  0.00    -0.034 A 
ATOM      8  C   UNL A   1      33.059  23.410  23.553  1.00  0.00     0.005 A 
ATOM      9  C   UNL A   1      34.891  24.241  24.860  1.00  0.00     0.005 A 
ATOM     10  C   UNL A   1      33.409  22.100  23.888  1.00  0.00     0.004 A 
ATOM     11  C   UNL A   1      35.213  22.927  25.234  1.00  0.00     0.004 A 
ATOM     12  C   UNL A   1      34.474  21.840  24.752  1.00  0.00    -0.048 A 
BRANCH  12  13
ATOM     13  C   UNL A   1      34.869  20.420  25.092  1.00  0.00     0.041 C 
BRANCH  13  14
ATOM     14  C   UNL A   1      34.017  19.268  24.535  1.00  0.00     0.022 C 
ATOM     15  C   UNL A   1      34.765  17.952  24.250  1.00  0.00     0.007 C 
ATOM     16  C   UNL A   1      32.747  18.867  25.305  1.00  0.00     0.117 C 
ATOM     17  C   UNL A   1      33.825  16.827  24.677  1.00  0.00     0.003 C 
ATOM     18  C   UNL A   1      32.446  17.468  24.782  1.00  0.00     0.032 C 
BRANCH  16  19
ATOM     19  O   UNL A   1      32.904  18.805  26.711  1.00  0.00    -0.393 OA
ATOM     20  H   UNL A   1      33.846  18.849  26.934  1.00  0.00     0.210 HD
ENDBRANCH  16  19
ENDBRANCH  13  14
ENDBRANCH  12  13
ENDBRANCH   5   7
ENDBRANCH   3   5
ENDBRANCH   2   3
ENDBRANCH   1   2
BRANCH   1  21
ATOM     21  C   UNL A   1      32.176  29.708  25.085  1.00  0.00     0.275 C 
BRANCH  21  22
ATOM     22  O   UNL A   1      32.345  29.848  26.508  1.00  0.00    -0.458 OA
BRANCH  22  23
ATOM     23  C   UNL A   1      32.884  31.011  26.936  1.00  0.00     0.338 C 
ATOM     24  O   UNL A   1      32.375  32.123  26.902  1.00  0.00    -0.246 OA
BRANCH  23  25
ATOM     25  C   UNL A   1      34.236  30.768  27.470  1.00  0.00     0.060 A 
ATOM     26  C   UNL A   1      34.717  29.470  27.595  1.00  0.00     0.016 A 
ATOM     27  C   UNL A   1      34.994  31.836  27.956  1.00  0.00     0.016 A 
ATOM     28  C   UNL A   1      35.906  29.236  28.289  1.00  0.00     0.010 A 
ATOM     29  C   UNL A   1      36.229  31.596  28.576  1.00  0.00     0.010 A 
ATOM     30  C   UNL A   1      36.682  30.285  28.802  1.00  0.00    -0.014 A 
BRANCH  30  31
ATOM     31  C   UNL A   1      37.895  30.007  29.638  1.00  0.00     0.031 A 
ATOM     32  C   UNL A   1      39.049  29.216  29.066  1.00  0.00     0.074 A 
ATOM     33  C   UNL A   1      38.024  30.497  30.890  1.00  0.00     0.049 A 
ATOM     34  N   UNL A   1      40.077  28.680  29.681  1.00  0.00    -0.248 NA
ATOM     35  C   UNL A   1      39.042  28.986  27.614  1.00  0.00     0.031 C 
ATOM     36  C   UNL A   1      37.053  31.346  31.578  1.00  0.00     0.029 A 
ATOM     37  N   UNL A   1      39.050  30.370  31.800  1.00  0.00    -0.354 N 
ATOM     38  C   UNL A   1      40.777  27.973  28.711  1.00  0.00     0.074 A 
ATOM     39  C   UNL A   1      40.076  28.170  27.460  1.00  0.00     0.031 C 
ATOM     40  C   UNL A   1      37.558  31.726  32.761  1.00  0.00     0.029 A 
ATOM     41  C   UNL A   1      38.835  31.053  32.973  1.00  0.00     0.049 A 
ATOM     42  H   UNL A   1      39.861  29.839  31.626  1.00  0.00     0.167 HD
ATOM     43  C   UNL A   1      41.895  27.220  28.850  1.00  0.00     0.037 A 
ATOM     44  C   UNL A   1      39.552  31.100  34.114  1.00  0.00     0.037 A 
ATOM     45  C   UNL A   1      42.657  27.100  30.067  1.00  0.00     0.049 A 
ATOM     46  C   UNL A   1      40.791  30.260  34.251  1.00  0.00     0.074 A 
ATOM     47  C   UNL A   1      43.803  26.357  30.300  1.00  0.00     0.029 A 
ATOM     48  N   UNL A   1      42.372  27.771  31.246  1.00  0.00    -0.354 N 
ATOM     49  N   UNL A   1      41.369  29.488  33.365  1.00  0.00    -0.248 NA
ATOM     50  C   UNL A   1      41.455  30.270  35.563  1.00  0.00     0.031 C 
ATOM     51  C   UNL A   1      44.200  26.564  31.626  1.00  0.00     0.029 A 
ATOM     52  C   UNL A   1      43.321  27.462  32.207  1.00  0.00     0.049 A 
ATOM     53  H   UNL A   1      41.608  28.377  31.379  1.00  0.00     0.167 HD
ATOM     54  C   UNL A   1      42.454  28.912  34.013  1.00  0.00     0.074 A 
ATOM     55  C   UNL A   1      42.478  29.452  35.355  1.00  0.00     0.031 C 
ATOM     56  C   UNL A   1      43.338  28.002  33.540  1.00  0.00     0.037 A 
BRANCH  43  57
ATOM     57  C   UNL A   1      42.351  26.421  27.665  1.00  0.00     0.064 A 
ATOM     58  C   UNL A   1      43.360  26.869  26.803  1.00  0.00     0.173 A 
ATOM     59  C   UNL A   1      41.797  25.152  27.425  1.00  0.00     0.173 A 
ATOM     60  F   UNL A   1      43.912  28.078  26.983  1.00  0.00    -0.203 F 
ATOM     61  C   UNL A   1      43.785  26.087  25.732  1.00  0.00     0.198 A 
ATOM     62  C   UNL A   1      42.242  24.362  26.369  1.00  0.00     0.198 A 
ATOM     63  F   UNL A   1      40.833  24.673  28.226  1.00  0.00    -0.203 F 
ATOM     64  F   UNL A   1      44.725  26.550  24.897  1.00  0.00    -0.200 F 
ATOM     65  C   UNL A   1      43.231  24.832  25.520  1.00  0.00     0.200 A 
ATOM     66  F   UNL A   1      41.715  23.145  26.175  1.00  0.00    -0.200 F 
ATOM     67  F   UNL A   1      43.650  24.077  24.495  1.00  0.00    -0.200 F 
ENDBRANCH  43  57
BRANCH  44  68
ATOM     68  C   UNL A   1      39.079  31.936  35.250  1.00  0.00     0.064 A 
ATOM     69  C   UNL A   1      38.323  31.376  36.289  1.00  0.00     0.173 A 
ATOM     70  C   UNL A   1      39.370  33.307  35.318  1.00  0.00     0.173 A 
ATOM     71  F   UNL A   1      37.987  30.078  36.248  1.00  0.00    -0.203 F 
ATOM     72  C   UNL A   1      37.874  32.158  37.352  1.00  0.00     0.198 A 
ATOM     73  C   UNL A   1      38.949  34.079  36.397  1.00  0.00     0.198 A 
ATOM     74  F   UNL A   1      40.080  33.893  34.342  1.00  0.00    -0.203 F 
ATOM     75  F   UNL A   1      37.116  31.609  38.310  1.00  0.00    -0.200 F 
ATOM     76  C   UNL A   1      38.196  33.506  37.411  1.00  0.00     0.200 A 
ATOM     77  F   UNL A   1      39.272  35.378  36.455  1.00  0.00    -0.200 F 
ATOM     78  F   UNL A   1      37.773  34.254  38.438  1.00  0.00    -0.200 F 
ENDBRANCH  44  68
BRANCH  56  79
ATOM     79  C   UNL A   1      44.415  27.540  34.477  1.00  0.00     0.064 A 
ATOM     80  C   UNL A   1      45.616  28.252  34.614  1.00  0.00     0.173 A 
ATOM     81  C   UNL A   1      44.233  26.396  35.265  1.00  0.00     0.173 A 
ATOM     82  F   UNL A   1      45.842  29.345  33.869  1.00  0.00    -0.203 F 
ATOM     83  C   UNL A   1      46.606  27.820  35.492  1.00  0.00     0.198 A 
ATOM     84  C   UNL A   1      45.217  25.980  36.158  1.00  0.00     0.198 A 
ATOM     85  F   UNL A   1      43.101  25.683  35.173  1.00  0.00    -0.203 F 
ATOM     86  F   UNL A   1      47.762  28.493  35.579  1.00  0.00    -0.200 F 
ATOM     87  C   UNL A   1      46.404  26.689  36.268  1.00  0.00     0.200 A 
ATOM     88  F   UNL A   1      45.018  24.890  36.913  1.00  0.00    -0.200 F 
ATOM     89  F   UNL A   1      47.357  26.276  37.114  1.00  0.00    -0.200 F 
ENDBRANCH  56  79
ENDBRANCH  30  31
ENDBRANCH  23  25
ENDBRANCH  22  23
ENDBRANCH  21  22
ENDBRANCH   1  21
TORSDOF 15
ENDMDL
MODEL 2
REMARK VINA RESULT:     -12.3      0.380      2.083
REMARK SMILES C[C@@H](C(=O)OCCOC(=O)c1ccc(-c2c3nc(c(-c4c(F)c(F)c(F)c(F)c4F)c4ccc([nH]4)c(-c4c(F)c(F)c(F)c(F)c4F)c4nc(c(-c5c(F)c(F)c(F)c(F)c5F)c5ccc2[nH]5)C=C4)C=C3)cc1)c1ccc(C[C@H]2CCC[C@H]2O)cc1
REMARK SMILES IDX 6 1 5 2 3 3 4 4 2 5 1 6 74 7 75 8 86 9 76 10 85 11 77 12
REMARK SMILES IDX 78 13 79 14 80 15 83 16 81 17 82 18 84 19 7 21 8 22 9 23
REMARK SMILES IDX 10 24 11 25 12 26 73 27 13 28 72 29 14 30 15 31 16 32 66 33
REMARK SMILES IDX 17 34 71 35 65 36 67 37 18 38 70 39 64 40 63 41 19 43 51 44
REMARK SMILES IDX 31 45 50 46 32 47 35 48 49 49 68 50 33 51 34 52 48 54 69 55
REMARK SMILES IDX 36 56 20 57 21 58 29 59 22 60 23 61 27 62 30 63 24 64 25 65
REMARK SMILES IDX 28 66 26 67 52 68 53 69 61 70 54 71 55 72 59 73 62 74 56 75
REMARK SMILES IDX 57 76 60 77 58 78 37 79 38 80 46 81 39 82 40 83 44 84 47 85
REMARK SMILES IDX 41 86 42 87 45 88 43 89
REMARK H PARENT 84 20 67 42 35 53
REMARK Flexibility Score: inf
ROOT
ATOM      1  C   UNL A   1      31.516  28.121  25.492  1.00  0.00     0.274 C 
ENDROOT
BRANCH   1   2
ATOM      2  O   UNL A   1      32.350  27.512  24.486  1.00  0.00    -0.462 OA
BRANCH   2   3
ATOM      3  C   UNL A   1      33.238  26.575  24.922  1.00  0.00     0.313 C 
ATOM      4  O   UNL A   1      33.463  26.357  26.108  1.00  0.00    -0.252 OA
BRANCH   3   5
ATOM      5  C   UNL A   1      33.962  25.857  23.767  1.00  0.00     0.126 C 
ATOM      6  C   UNL A   1      33.318  26.138  22.403  1.00  0.00     0.025 C 
BRANCH   5   7
ATOM      7  C   UNL A   1      34.179  24.370  24.063  1.00  0.00    -0.034 A 
ATOM      8  C   UNL A   1      35.359  23.973  24.712  1.00  0.00     0.005 A 
ATOM      9  C   UNL A   1      33.250  23.368  23.742  1.00  0.00     0.005 A 
ATOM     10  C   UNL A   1      35.583  22.640  25.066  1.00  0.00     0.004 A 
ATOM     11  C   UNL A   1      33.497  22.023  24.057  1.00  0.00     0.004 A 
ATOM     12  C   UNL A   1      34.669  21.643  24.723  1.00  0.00    -0.048 A 
BRANCH  12  13
ATOM     13  C   UNL A   1      34.898  20.205  25.132  1.00  0.00     0.041 C 
BRANCH  13  14
ATOM     14  C   UNL A   1      33.990  19.118  24.535  1.00  0.00     0.022 C 
ATOM     15  C   UNL A   1      34.678  17.792  24.164  1.00  0.00     0.007 C 
ATOM     16  C   UNL A   1      32.721  18.726  25.312  1.00  0.00     0.117 C 
ATOM     17  C   UNL A   1      33.703  16.682  24.552  1.00  0.00     0.003 C 
ATOM     18  C   UNL A   1      32.354  17.370  24.722  1.00  0.00     0.032 C 
BRANCH  16  19
ATOM     19  O   UNL A   1      32.904  18.582  26.709  1.00  0.00    -0.393 OA
ATOM     20  H   UNL A   1      33.840  18.416  26.896  1.00  0.00     0.210 HD
ENDBRANCH  16  19
ENDBRANCH  13  14
ENDBRANCH  12  13
ENDBRANCH   5   7
ENDBRANCH   3   5
ENDBRANCH   2   3
ENDBRANCH   1   2
BRANCH   1  21
ATOM     21  C   UNL A   1      31.829  29.611  25.590  1.00  0.00     0.275 C 
BRANCH  21  22
ATOM     22  O   UNL A   1      32.264  29.918  26.927  1.00  0.00    -0.458 OA
BRANCH  22  23
ATOM     23  C   UNL A   1      32.918  31.089  27.090  1.00  0.00     0.338 C 
ATOM     24  O   UNL A   1      32.495  32.215  26.862  1.00  0.00    -0.246 OA
BRANCH  23  25
ATOM     25  C   UNL A   1      34.279  30.835  27.595  1.00  0.00     0.060 A 
ATOM     26  C   UNL A   1      34.717  29.532  27.801  1.00  0.00     0.016 A 
ATOM     27  C   UNL A   1      35.090  31.907  27.974  1.00  0.00     0.016 A 
ATOM     28  C   UNL A   1      35.921  29.305  28.470  1.00  0.00     0.010 A 
ATOM     29  C   UNL A   1      36.338  31.666  28.569  1.00  0.00     0.010 A 
ATOM     30  C   UNL A   1      36.752  30.359  28.877  1.00  0.00    -0.014 A 
BRANCH  30  31
ATOM     31  C   UNL A   1      37.984  30.097  29.690  1.00  0.00     0.031 A 
ATOM     32  C   UNL A   1      39.121  29.287  29.111  1.00  0.00     0.074 A 
ATOM     33  C   UNL A   1      38.146  30.619  30.926  1.00  0.00     0.049 A 
ATOM     34  N   UNL A   1      40.162  28.763  29.714  1.00  0.00    -0.248 NA
ATOM     35  C   UNL A   1      39.078  29.021  27.666  1.00  0.00     0.031 C 
ATOM     36  C   UNL A   1      37.194  31.489  31.615  1.00  0.00     0.029 A 
ATOM     37  N   UNL A   1      39.193  30.511  31.814  1.00  0.00    -0.354 N 
ATOM     38  C   UNL A   1      40.836  28.029  28.746  1.00  0.00     0.074 A 
ATOM     39  C   UNL A   1      40.106  28.197  27.507  1.00  0.00     0.031 C 
ATOM     40  C   UNL A   1      37.729  31.896  32.776  1.00  0.00     0.029 A 
ATOM     41  C   UNL A   1      39.008  31.224  32.974  1.00  0.00     0.049 A 
ATOM     42  H   UNL A   1      39.997  29.972  31.634  1.00  0.00     0.167 HD
ATOM     43  C   UNL A   1      41.955  27.275  28.878  1.00  0.00     0.037 A 
ATOM     44  C   UNL A   1      39.753  31.297  34.095  1.00  0.00     0.037 A 
ATOM     45  C   UNL A   1      42.746  27.183  30.078  1.00  0.00     0.049 A 
ATOM     46  C   UNL A   1      40.992  30.456  34.224  1.00  0.00     0.074 A 
ATOM     47  C   UNL A   1      43.894  26.442  30.302  1.00  0.00     0.029 A 
ATOM     48  N   UNL A   1      42.492  27.885  31.246  1.00  0.00    -0.354 N 
ATOM     49  N   UNL A   1      41.546  29.659  33.344  1.00  0.00    -0.248 NA
ATOM     50  C   UNL A   1      41.687  30.496  35.519  1.00  0.00     0.031 C 
ATOM     51  C   UNL A   1      44.324  26.681  31.613  1.00  0.00     0.029 A 
ATOM     52  C   UNL A   1      43.462  27.597  32.192  1.00  0.00     0.049 A 
ATOM     53  H   UNL A   1      41.733  28.498  31.382  1.00  0.00     0.167 HD
ATOM     54  C   UNL A   1      42.644  29.096  33.981  1.00  0.00     0.074 A 
ATOM     55  C   UNL A   1      42.703  29.670  35.307  1.00  0.00     0.031 C 
ATOM     56  C   UNL A   1      43.514  28.170  33.510  1.00  0.00     0.037 A 
BRANCH  43  57
ATOM     57  C   UNL A   1      42.379  26.444  27.702  1.00  0.00     0.064 A 
ATOM     58  C   UNL A   1      41.819  25.189  27.433  1.00  0.00     0.173 A 
ATOM     59  C   UNL A   1      43.328  26.949  26.798  1.00  0.00     0.173 A 
ATOM     60  F   UNL A   1      40.918  24.657  28.272  1.00  0.00    -0.203 F 
ATOM     61  C   UNL A   1      42.209  24.458  26.313  1.00  0.00     0.198 A 
ATOM     62  C   UNL A   1      43.696  26.228  25.665  1.00  0.00     0.198 A 
ATOM     63  F   UNL A   1      43.886  28.151  27.005  1.00  0.00    -0.203 F 
ATOM     64  F   UNL A   1      41.690  23.242  26.094  1.00  0.00    -0.200 F 
ATOM     65  C   UNL A   1      43.141  24.980  25.427  1.00  0.00     0.200 A 
ATOM     66  F   UNL A   1      44.585  26.742  24.804  1.00  0.00    -0.200 F 
ATOM     67  F   UNL A   1      43.505  24.280  24.344  1.00  0.00    -0.200 F 
ENDBRANCH  43  57
BRANCH  44  68
ATOM     68  C   UNL A   1      39.311  32.163  35.221  1.00  0.00     0.064 A 
ATOM     69  C   UNL A   1      39.659  33.520  35.264  1.00  0.00     0.173 A 
ATOM     70  C   UNL A   1      38.539  31.653  36.276  1.00  0.00     0.173 A 
ATOM     71  F   UNL A   1      40.428  34.045  34.298  1.00  0.00    -0.203 F 
ATOM     72  C   UNL A   1      39.252  34.333  36.321  1.00  0.00     0.198 A 
ATOM     73  C   UNL A   1      38.106  32.473  37.313  1.00  0.00     0.198 A 
ATOM     74  F   UNL A   1      38.191  30.357  36.288  1.00  0.00    -0.203 F 
ATOM     75  F   UNL A   1      39.634  35.617  36.360  1.00  0.00    -0.200 F 
ATOM     76  C   UNL A   1      38.467  33.812  37.339  1.00  0.00     0.200 A 
ATOM     77  F   UNL A   1      37.339  31.967  38.288  1.00  0.00    -0.200 F 
ATOM     78  F   UNL A   1      38.068  34.596  38.349  1.00  0.00    -0.200 F 
ENDBRANCH  44  68
BRANCH  56  79
ATOM     79  C   UNL A   1      44.611  27.728  34.431  1.00  0.00     0.064 A 
ATOM     80  C   UNL A   1      44.456  26.612  35.267  1.00  0.00     0.173 A 
ATOM     81  C   UNL A   1      45.838  28.406  34.458  1.00  0.00     0.173 A 
ATOM     82  F   UNL A   1      43.294  25.941  35.288  1.00  0.00    -0.203 F 
ATOM     83  C   UNL A   1      45.484  26.205  36.113  1.00  0.00     0.198 A 
ATOM     84  C   UNL A   1      46.871  27.982  35.289  1.00  0.00     0.198 A 
ATOM     85  F   UNL A   1      46.037  29.477  33.674  1.00  0.00    -0.203 F 
ATOM     86  F   UNL A   1      45.301  25.159  36.932  1.00  0.00    -0.200 F 
ATOM     87  C   UNL A   1      46.692  26.885  36.119  1.00  0.00     0.200 A 
ATOM     88  F   UNL A   1      48.041  28.636  35.289  1.00  0.00    -0.200 F 
ATOM     89  F   UNL A   1      47.681  26.490  36.933  1.00  0.00    -0.200 F 
ENDBRANCH  56  79
ENDBRANCH  30  31
ENDBRANCH  23  25
ENDBRANCH  22  23
ENDBRANCH  21  22
ENDBRANCH   1  21
TORSDOF 15
ENDMDL
MODEL 3
REMARK VINA RESULT:     -12.2      4.232     10.053
REMARK SMILES C[C@@H](C(=O)OCCOC(=O)c1ccc(-c2c3nc(c(-c4c(F)c(F)c(F)c(F)c4F)c4ccc([nH]4)c(-c4c(F)c(F)c(F)c(F)c4F)c4nc(c(-c5c(F)c(F)c(F)c(F)c5F)c5ccc2[nH]5)C=C4)C=C3)cc1)c1ccc(C[C@H]2CCC[C@H]2O)cc1
REMARK SMILES IDX 6 1 5 2 3 3 4 4 2 5 1 6 74 7 75 8 86 9 76 10 85 11 77 12
REMARK SMILES IDX 78 13 79 14 80 15 83 16 81 17 82 18 84 19 7 21 8 22 9 23
REMARK SMILES IDX 10 24 11 25 12 26 73 27 13 28 72 29 14 30 15 31 16 32 66 33
REMARK SMILES IDX 17 34 71 35 65 36 67 37 18 38 70 39 64 40 63 41 19 43 51 44
REMARK SMILES IDX 31 45 50 46 32 47 35 48 49 49 68 50 33 51 34 52 48 54 69 55
REMARK SMILES IDX 36 56 20 57 21 58 29 59 22 60 23 61 27 62 30 63 24 64 25 65
REMARK SMILES IDX 28 66 26 67 52 68 53 69 61 70 54 71 55 72 59 73 62 74 56 75
REMARK SMILES IDX 57 76 60 77 58 78 37 79 38 80 46 81 39 82 40 83 44 84 47 85
REMARK SMILES IDX 41 86 42 87 45 88 43 89
REMARK H PARENT 84 20 67 42 35 53
REMARK Flexibility Score: inf
ROOT
ATOM      1  C   UNL A   1      35.280  20.482  25.032  1.00  0.00     0.274 C 
ENDROOT
BRANCH   1   2
ATOM      2  O   UNL A   1      35.000  21.895  25.075  1.00  0.00    -0.462 OA
BRANCH   2   3
ATOM      3  C   UNL A   1      34.018  22.343  24.244  1.00  0.00     0.313 C 
ATOM      4  O   UNL A   1      32.835  22.039  24.370  1.00  0.00    -0.252 OA
BRANCH   3   5
ATOM      5  C   UNL A   1      34.558  23.227  23.105  1.00  0.00     0.126 C 
ATOM      6  C   UNL A   1      36.088  23.192  23.007  1.00  0.00     0.025 C 
BRANCH   5   7
ATOM      7  C   UNL A   1      33.964  24.639  23.144  1.00  0.00    -0.034 A 
ATOM      8  C   UNL A   1      34.103  25.401  24.315  1.00  0.00     0.005 A 
ATOM      9  C   UNL A   1      33.301  25.235  22.060  1.00  0.00     0.005 A 
ATOM     10  C   UNL A   1      33.640  26.717  24.387  1.00  0.00     0.004 A 
ATOM     11  C   UNL A   1      32.795  26.540  22.150  1.00  0.00     0.004 A 
ATOM     12  C   UNL A   1      32.958  27.298  23.317  1.00  0.00    -0.048 A 
BRANCH  12  13
ATOM     13  C   UNL A   1      32.482  28.732  23.385  1.00  0.00     0.041 C 
BRANCH  13  14
ATOM     14  C   UNL A   1      30.975  28.999  23.534  1.00  0.00     0.022 C 
ATOM     15  C   UNL A   1      30.584  30.154  24.473  1.00  0.00     0.007 C 
ATOM     16  C   UNL A   1      30.146  29.203  22.254  1.00  0.00     0.117 C 
ATOM     17  C   UNL A   1      29.410  30.868  23.805  1.00  0.00     0.003 C 
ATOM     18  C   UNL A   1      28.885  29.892  22.760  1.00  0.00     0.032 C 
BRANCH  16  19
ATOM     19  O   UNL A   1      30.758  30.029  21.279  1.00  0.00    -0.393 OA
ATOM     20  H   UNL A   1      31.509  30.495  21.675  1.00  0.00     0.210 HD
ENDBRANCH  16  19
ENDBRANCH  13  14
ENDBRANCH  12  13
ENDBRANCH   5   7
ENDBRANCH   3   5
ENDBRANCH   2   3
ENDBRANCH   1   2
BRANCH   1  21
ATOM     21  C   UNL A   1      36.786  20.256  24.943  1.00  0.00     0.275 C 
BRANCH  21  22
ATOM     22  O   UNL A   1      37.470  21.367  25.550  1.00  0.00    -0.458 OA
BRANCH  22  23
ATOM     23  C   UNL A   1      38.752  21.154  25.918  1.00  0.00     0.338 C 
ATOM     24  O   UNL A   1      39.397  20.120  25.800  1.00  0.00    -0.246 OA
BRANCH  23  25
ATOM     25  C   UNL A   1      39.311  22.379  26.517  1.00  0.00     0.060 A 
ATOM     26  C   UNL A   1      38.793  23.623  26.178  1.00  0.00     0.016 A 
ATOM     27  C   UNL A   1      40.436  22.298  27.341  1.00  0.00     0.016 A 
ATOM     28  C   UNL A   1      39.455  24.783  26.585  1.00  0.00     0.010 A 
ATOM     29  C   UNL A   1      41.044  23.471  27.815  1.00  0.00     0.010 A 
ATOM     30  C   UNL A   1      40.595  24.736  27.400  1.00  0.00    -0.014 A 
BRANCH  30  31
ATOM     31  C   UNL A   1      41.354  25.986  27.733  1.00  0.00     0.031 A 
ATOM     32  C   UNL A   1      40.732  27.042  28.618  1.00  0.00     0.074 A 
ATOM     33  C   UNL A   1      42.623  26.182  27.313  1.00  0.00     0.049 A 
ATOM     34  N   UNL A   1      41.120  28.275  28.842  1.00  0.00    -0.248 NA
ATOM     35  C   UNL A   1      39.506  26.667  29.337  1.00  0.00     0.031 C 
ATOM     36  C   UNL A   1      43.413  25.241  26.520  1.00  0.00     0.029 A 
ATOM     37  N   UNL A   1      43.482  27.237  27.521  1.00  0.00    -0.354 N 
ATOM     38  C   UNL A   1      40.138  28.846  29.642  1.00  0.00     0.074 A 
ATOM     39  C   UNL A   1      39.149  27.818  29.892  1.00  0.00     0.031 C 
ATOM     40  C   UNL A   1      44.657  25.722  26.376  1.00  0.00     0.029 A 
ATOM     41  C   UNL A   1      44.723  27.057  26.959  1.00  0.00     0.049 A 
ATOM     42  H   UNL A   1      43.231  28.044  28.025  1.00  0.00     0.167 HD
ATOM     43  C   UNL A   1      40.061  30.112  30.118  1.00  0.00     0.037 A 
ATOM     44  C   UNL A   1      45.785  27.884  26.874  1.00  0.00     0.037 A 
ATOM     45  C   UNL A   1      41.087  31.112  29.962  1.00  0.00     0.049 A 
ATOM     46  C   UNL A   1      45.683  29.285  27.409  1.00  0.00     0.074 A 
ATOM     47  C   UNL A   1      41.092  32.422  30.409  1.00  0.00     0.029 A 
ATOM     48  N   UNL A   1      42.308  30.899  29.341  1.00  0.00    -0.354 N 
ATOM     49  N   UNL A   1      44.692  29.857  28.047  1.00  0.00    -0.248 NA
ATOM     50  C   UNL A   1      46.835  30.169  27.174  1.00  0.00     0.031 C 
ATOM     51  C   UNL A   1      42.310  33.009  30.042  1.00  0.00     0.029 A 
ATOM     52  C   UNL A   1      43.074  32.052  29.396  1.00  0.00     0.049 A 
ATOM     53  H   UNL A   1      42.587  30.053  28.922  1.00  0.00     0.167 HD
ATOM     54  C   UNL A   1      45.095  31.166  28.280  1.00  0.00     0.074 A 
ATOM     55  C   UNL A   1      46.435  31.294  27.749  1.00  0.00     0.031 C 
ATOM     56  C   UNL A   1      44.405  32.174  28.865  1.00  0.00     0.037 A 
BRANCH  43  57
ATOM     57  C   UNL A   1      38.799  30.518  30.823  1.00  0.00     0.064 A 
ATOM     58  C   UNL A   1      38.676  30.479  32.217  1.00  0.00     0.173 A 
ATOM     59  C   UNL A   1      37.712  31.007  30.079  1.00  0.00     0.173 A 
ATOM     60  F   UNL A   1      39.681  30.008  32.971  1.00  0.00    -0.203 F 
ATOM     61  C   UNL A   1      37.503  30.896  32.843  1.00  0.00     0.198 A 
ATOM     62  C   UNL A   1      36.552  31.448  30.709  1.00  0.00     0.198 A 
ATOM     63  F   UNL A   1      37.783  31.073  28.741  1.00  0.00    -0.203 F 
ATOM     64  F   UNL A   1      37.391  30.816  34.176  1.00  0.00    -0.200 F 
ATOM     65  C   UNL A   1      36.445  31.386  32.090  1.00  0.00     0.200 A 
ATOM     66  F   UNL A   1      35.538  31.934  29.980  1.00  0.00    -0.200 F 
ATOM     67  F   UNL A   1      35.323  31.797  32.695  1.00  0.00    -0.200 F 
ENDBRANCH  43  57
BRANCH  44  68
ATOM     68  C   UNL A   1      47.028  27.426  26.198  1.00  0.00     0.064 A 
ATOM     69  C   UNL A   1      48.067  26.835  26.928  1.00  0.00     0.173 A 
ATOM     70  C   UNL A   1      47.203  27.573  24.813  1.00  0.00     0.173 A 
ATOM     71  F   UNL A   1      47.962  26.707  28.260  1.00  0.00    -0.203 F 
ATOM     72  C   UNL A   1      49.236  26.409  26.299  1.00  0.00     0.198 A 
ATOM     73  C   UNL A   1      48.357  27.118  24.182  1.00  0.00     0.198 A 
ATOM     74  F   UNL A   1      46.242  28.144  24.071  1.00  0.00    -0.203 F 
ATOM     75  F   UNL A   1      50.233  25.886  27.025  1.00  0.00    -0.200 F 
ATOM     76  C   UNL A   1      49.375  26.541  24.925  1.00  0.00     0.200 A 
ATOM     77  F   UNL A   1      48.481  27.238  22.853  1.00  0.00    -0.200 F 
ATOM     78  F   UNL A   1      50.494  26.123  24.319  1.00  0.00    -0.200 F 
ENDBRANCH  44  68
BRANCH  56  79
ATOM     79  C   UNL A   1      45.091  33.503  28.974  1.00  0.00     0.064 A 
ATOM     80  C   UNL A   1      45.950  33.794  30.044  1.00  0.00     0.173 A 
ATOM     81  C   UNL A   1      44.914  34.481  27.985  1.00  0.00     0.173 A 
ATOM     82  F   UNL A   1      46.139  32.896  31.022  1.00  0.00    -0.203 F 
ATOM     83  C   UNL A   1      46.589  35.028  30.131  1.00  0.00     0.198 A 
ATOM     84  C   UNL A   1      45.571  35.705  28.065  1.00  0.00     0.198 A 
ATOM     85  F   UNL A   1      44.105  34.248  26.940  1.00  0.00    -0.203 F 
ATOM     86  F   UNL A   1      47.375  35.302  31.182  1.00  0.00    -0.200 F 
ATOM     87  C   UNL A   1      46.404  35.980  29.139  1.00  0.00     0.200 A 
ATOM     88  F   UNL A   1      45.398  36.621  27.102  1.00  0.00    -0.200 F 
ATOM     89  F   UNL A   1      47.022  37.166  29.224  1.00  0.00    -0.200 F 
ENDBRANCH  56  79
ENDBRANCH  30  31
ENDBRANCH  23  25
ENDBRANCH  22  23
ENDBRANCH  21  22
ENDBRANCH   1  21
TORSDOF 15
ENDMDL
