MODEL 1
REMARK VINA RESULT:     -12.2      0.000      0.000
REMARK SMILES O=C(OCCOC(=O)[C@@]1(CCc2ccccc2)CCC[N@@H+](Cc2cccnc2)C1)c1ccc(-c2c3nc(c(-c4c(F)c(F)c(F)c(F)c4F)c4ccc([nH]4)c(-c4c(F)c(F)c(F)c(F)c4F)c4nc(c(-c5c(F)c(F)c(F)c(F)c5F)c5ccc2[nH]5)C=C4)C=C3)cc1
REMARK SMILES IDX 5 1 4 2 3 3 2 4 1 5 30 6 31 7 92 8 32 9 91 10 33 11 34 12
REMARK SMILES IDX 35 13 85 14 36 15 90 16 84 17 86 18 37 19 89 20 83 21 82 22
REMARK SMILES IDX 38 24 70 25 50 26 69 27 51 28 54 29 68 30 87 31 52 32 53 33
REMARK SMILES IDX 67 35 88 36 55 37 39 38 40 39 48 40 41 41 42 42 46 43 49 44
REMARK SMILES IDX 43 45 44 46 47 47 45 48 71 49 72 50 80 51 73 52 74 53 78 54
REMARK SMILES IDX 81 55 75 56 76 57 79 58 77 59 56 60 57 61 65 62 58 63 59 64
REMARK SMILES IDX 63 65 66 66 60 67 61 68 64 69 62 70 6 71 7 72 8 73 9 74
REMARK SMILES IDX 18 75 29 76 19 77 21 78 20 79 10 81 11 82 12 83 13 84 17 85
REMARK SMILES IDX 14 86 16 87 15 88 22 89 23 90 24 91 28 92 25 93 27 94 26 95
REMARK H PARENT 86 23 54 34 21 80
REMARK Flexibility Score: inf
ROOT
ATOM      1  C   UNL A   1      32.649  28.695  25.430  1.00  0.00     0.274 C 
ENDROOT
BRANCH   1   2
ATOM      2  C   UNL A   1      32.170  30.120  25.721  1.00  0.00     0.275 C 
BRANCH   2   3
ATOM      3  O   UNL A   1      32.431  30.653  27.034  1.00  0.00    -0.458 OA
BRANCH   3   4
ATOM      4  C   UNL A   1      33.289  31.649  27.352  1.00  0.00     0.338 C 
ATOM      5  O   UNL A   1      32.941  32.815  27.239  1.00  0.00    -0.246 OA
BRANCH   4   6
ATOM      6  C   UNL A   1      34.649  31.332  27.884  1.00  0.00     0.060 A 
ATOM      7  C   UNL A   1      35.700  32.245  27.966  1.00  0.00     0.016 A 
ATOM      8  C   UNL A   1      34.854  30.033  28.371  1.00  0.00     0.016 A 
ATOM      9  C   UNL A   1      36.869  31.927  28.659  1.00  0.00     0.010 A 
ATOM     10  C   UNL A   1      36.002  29.724  29.106  1.00  0.00     0.010 A 
ATOM     11  C   UNL A   1      37.021  30.672  29.258  1.00  0.00    -0.014 A 
BRANCH  11  12
ATOM     12  C   UNL A   1      38.326  30.305  29.858  1.00  0.00     0.031 A 
ATOM     13  C   UNL A   1      38.638  30.846  31.223  1.00  0.00     0.074 A 
ATOM     14  C   UNL A   1      39.171  29.447  29.252  1.00  0.00     0.049 A 
ATOM     15  N   UNL A   1      39.616  30.535  32.033  1.00  0.00    -0.248 NA
ATOM     16  C   UNL A   1      37.720  31.867  31.756  1.00  0.00     0.031 C 
ATOM     17  C   UNL A   1      38.974  28.855  27.929  1.00  0.00     0.029 A 
ATOM     18  N   UNL A   1      40.359  28.904  29.677  1.00  0.00    -0.354 N 
ATOM     19  C   UNL A   1      39.390  31.282  33.179  1.00  0.00     0.074 A 
ATOM     20  C   UNL A   1      38.276  32.159  32.916  1.00  0.00     0.031 C 
ATOM     21  C   UNL A   1      40.006  28.039  27.646  1.00  0.00     0.029 A 
ATOM     22  C   UNL A   1      40.923  28.024  28.782  1.00  0.00     0.049 A 
ATOM     23  H   UNL A   1      40.771  29.127  30.544  1.00  0.00     0.167 HD
ATOM     24  C   UNL A   1      39.996  31.186  34.382  1.00  0.00     0.037 A 
ATOM     25  C   UNL A   1      42.032  27.267  28.892  1.00  0.00     0.037 A 
ATOM     26  C   UNL A   1      41.106  30.321  34.642  1.00  0.00     0.049 A 
ATOM     27  C   UNL A   1      42.771  27.263  30.209  1.00  0.00     0.074 A 
ATOM     28  C   UNL A   1      41.821  30.158  35.813  1.00  0.00     0.029 A 
ATOM     29  N   UNL A   1      41.670  29.477  33.697  1.00  0.00    -0.354 N 
ATOM     30  N   UNL A   1      42.485  27.898  31.321  1.00  0.00    -0.248 NA
ATOM     31  C   UNL A   1      43.961  26.405  30.303  1.00  0.00     0.031 C 
ATOM     32  C   UNL A   1      42.843  29.236  35.564  1.00  0.00     0.029 A 
ATOM     33  C   UNL A   1      42.738  28.797  34.252  1.00  0.00     0.049 A 
ATOM     34  H   UNL A   1      41.356  29.376  32.769  1.00  0.00     0.167 HD
ATOM     35  C   UNL A   1      43.420  27.477  32.257  1.00  0.00     0.074 A 
ATOM     36  C   UNL A   1      44.284  26.529  31.582  1.00  0.00     0.031 C 
ATOM     37  C   UNL A   1      43.554  27.834  33.558  1.00  0.00     0.037 A 
BRANCH  24  38
ATOM     38  C   UNL A   1      39.425  32.033  35.476  1.00  0.00     0.064 A 
ATOM     39  C   UNL A   1      39.879  33.347  35.683  1.00  0.00     0.173 A 
ATOM     40  C   UNL A   1      38.496  31.506  36.382  1.00  0.00     0.173 A 
ATOM     41  F   UNL A   1      40.797  33.881  34.861  1.00  0.00    -0.203 F 
ATOM     42  C   UNL A   1      39.464  34.082  36.787  1.00  0.00     0.198 A 
ATOM     43  C   UNL A   1      38.060  32.256  37.471  1.00  0.00     0.198 A 
ATOM     44  F   UNL A   1      38.042  30.253  36.233  1.00  0.00    -0.203 F 
ATOM     45  F   UNL A   1      39.978  35.300  37.013  1.00  0.00    -0.200 F 
ATOM     46  C   UNL A   1      38.554  33.537  37.680  1.00  0.00     0.200 A 
ATOM     47  F   UNL A   1      37.183  31.730  38.336  1.00  0.00    -0.200 F 
ATOM     48  F   UNL A   1      38.173  34.235  38.758  1.00  0.00    -0.200 F 
ENDBRANCH  24  38
BRANCH  25  49
ATOM     49  C   UNL A   1      42.490  26.400  27.769  1.00  0.00     0.064 A 
ATOM     50  C   UNL A   1      43.459  26.842  26.854  1.00  0.00     0.173 A 
ATOM     51  C   UNL A   1      41.916  25.141  27.543  1.00  0.00     0.173 A 
ATOM     52  F   UNL A   1      44.026  28.047  27.012  1.00  0.00    -0.203 F 
ATOM     53  C   UNL A   1      43.804  26.078  25.739  1.00  0.00     0.198 A 
ATOM     54  C   UNL A   1      42.279  24.367  26.440  1.00  0.00     0.198 A 
ATOM     55  F   UNL A   1      40.985  24.666  28.385  1.00  0.00    -0.203 F 
ATOM     56  F   UNL A   1      44.684  26.556  24.849  1.00  0.00    -0.200 F 
ATOM     57  C   UNL A   1      43.213  24.841  25.532  1.00  0.00     0.200 A 
ATOM     58  F   UNL A   1      41.709  23.169  26.248  1.00  0.00    -0.200 F 
ATOM     59  F   UNL A   1      43.531  24.117  24.451  1.00  0.00    -0.200 F 
ENDBRANCH  25  49
BRANCH  37  60
ATOM     60  C   UNL A   1      44.633  27.163  34.353  1.00  0.00     0.064 A 
ATOM     61  C   UNL A   1      45.906  27.732  34.491  1.00  0.00     0.173 A 
ATOM     62  C   UNL A   1      44.359  25.977  35.051  1.00  0.00     0.173 A 
ATOM     63  F   UNL A   1      46.217  28.859  33.831  1.00  0.00    -0.203 F 
ATOM     64  C   UNL A   1      46.873  27.129  35.288  1.00  0.00     0.198 A 
ATOM     65  C   UNL A   1      45.318  25.394  35.873  1.00  0.00     0.198 A 
ATOM     66  F   UNL A   1      43.151  25.399  34.956  1.00  0.00    -0.203 F 
ATOM     67  F   UNL A   1      48.096  27.670  35.378  1.00  0.00    -0.200 F 
ATOM     68  C   UNL A   1      46.575  25.969  35.988  1.00  0.00     0.200 A 
ATOM     69  F   UNL A   1      45.022  24.283  36.561  1.00  0.00    -0.200 F 
ATOM     70  F   UNL A   1      47.502  25.401  36.772  1.00  0.00    -0.200 F 
ENDBRANCH  37  60
ENDBRANCH  11  12
ENDBRANCH   4   6
ENDBRANCH   3   4
ENDBRANCH   2   3
ENDBRANCH   1   2
BRANCH   1  71
ATOM     71  O   UNL A   1      31.639  27.678  25.537  1.00  0.00    -0.461 OA
BRANCH  71  72
ATOM     72  C   UNL A   1      31.786  26.658  24.635  1.00  0.00     0.317 C 
ATOM     73  O   UNL A   1      31.759  26.850  23.423  1.00  0.00    -0.251 OA
BRANCH  72  74
ATOM     74  C   UNL A   1      32.055  25.255  25.251  1.00  0.00     0.117 C 
ATOM     75  C   UNL A   1      30.887  24.940  26.223  1.00  0.00     0.030 C 
ATOM     76  C   UNL A   1      31.918  24.277  24.082  1.00  0.00     0.281 C 
ATOM     77  C   UNL A   1      30.839  23.459  26.610  1.00  0.00     0.063 C 
ATOM     78  N   UNL A   1      31.999  22.879  24.516  1.00  0.00    -0.330 N 
ATOM     79  C   UNL A   1      30.879  22.530  25.387  1.00  0.00     0.262 C 
ATOM     80  H   UNL A   1      32.831  22.772  25.095  1.00  0.00     0.348 HD
BRANCH  74  81
ATOM     81  C   UNL A   1      33.418  25.148  25.992  1.00  0.00     0.029 C 
BRANCH  81  82
ATOM     82  C   UNL A   1      34.795  25.351  25.323  1.00  0.00     0.037 C 
BRANCH  82  83
ATOM     83  C   UNL A   1      35.628  24.145  24.932  1.00  0.00    -0.048 A 
ATOM     84  C   UNL A   1      35.772  23.682  23.620  1.00  0.00     0.004 A 
ATOM     85  C   UNL A   1      36.311  23.456  25.949  1.00  0.00     0.004 A 
ATOM     86  C   UNL A   1      36.494  22.518  23.340  1.00  0.00     0.000 A 
ATOM     87  C   UNL A   1      37.064  22.313  25.666  1.00  0.00     0.000 A 
ATOM     88  C   UNL A   1      37.136  21.831  24.364  1.00  0.00     0.000 A 
ENDBRANCH  82  83
ENDBRANCH  81  82
ENDBRANCH  74  81
BRANCH  78  89
ATOM     89  C   UNL A   1      32.244  21.949  23.400  1.00  0.00     0.300 C 
BRANCH  89  90
ATOM     90  C   UNL A   1      32.748  20.592  23.811  1.00  0.00     0.025 A 
ATOM     91  C   UNL A   1      33.842  20.453  24.675  1.00  0.00     0.013 A 
ATOM     92  C   UNL A   1      32.231  19.436  23.243  1.00  0.00     0.120 A 
ATOM     93  C   UNL A   1      34.432  19.209  24.848  1.00  0.00     0.021 A 
ATOM     94  N   UNL A   1      32.760  18.206  23.423  1.00  0.00    -0.264 NA
ATOM     95  C   UNL A   1      33.864  18.128  24.199  1.00  0.00     0.111 A 
ENDBRANCH  89  90
ENDBRANCH  78  89
ENDBRANCH  72  74
ENDBRANCH  71  72
ENDBRANCH   1  71
TORSDOF 16
ENDMDL
MODEL 2
REMARK VINA RESULT:     -12.1      1.616      3.215
REMARK SMILES O=C(OCCOC(=O)[C@@]1(CCc2ccccc2)CCC[N@@H+](Cc2cccnc2)C1)c1ccc(-c2c3nc(c(-c4c(F)c(F)c(F)c(F)c4F)c4ccc([nH]4)c(-c4c(F)c(F)c(F)c(F)c4F)c4nc(c(-c5c(F)c(F)c(F)c(F)c5F)c5ccc2[nH]5)C=C4)C=C3)cc1
REMARK SMILES IDX 5 1 4 2 3 3 2 4 1 5 30 6 31 7 92 8 32 9 91 10 33 11 34 12
REMARK SMILES IDX 35 13 85 14 36 15 90 16 84 17 86 18 37 19 89 20 83 21 82 22
REMARK SMILES IDX 38 24 70 25 50 26 69 27 51 28 54 29 68 30 87 31 52 32 53 33
REMARK SMILES IDX 67 35 88 36 55 37 39 38 40 39 48 40 41 41 42 42 46 43 49 44
REMARK SMILES IDX 43 45 44 46 47 47 45 48 71 49 72 50 80 51 73 52 74 53 78 54
REMARK SMILES IDX 81 55 75 56 76 57 79 58 77 59 56 60 57 61 65 62 58 63 59 64
REMARK SMILES IDX 63 65 66 66 60 67 61 68 64 69 62 70 6 71 7 72 8 73 9 74
REMARK SMILES IDX 18 75 29 76 19 77 21 78 20 79 10 81 11 82 12 83 13 84 17 85
REMARK SMILES IDX 14 86 16 87 15 88 22 89 23 90 24 91 28 92 25 93 27 94 26 95
REMARK H PARENT 86 23 54 34 21 80
REMARK Flexibility Score: inf
ROOT
ATOM      1  C   UNL A   1      32.316  30.569  26.427  1.00  0.00     0.274 C 
ENDROOT
BRANCH   1   2
ATOM      2  C   UNL A   1      31.688  31.890  26.882  1.00  0.00     0.275 C 
BRANCH   2   3
ATOM      3  O   UNL A   1      32.532  33.058  26.889  1.00  0.00    -0.458 OA
BRANCH   3   4
ATOM      4  C   UNL A   1      33.149  33.610  27.958  1.00  0.00     0.338 C 
ATOM      5  O   UNL A   1      32.621  34.536  28.557  1.00  0.00    -0.246 OA
BRANCH   4   6
ATOM      6  C   UNL A   1      34.453  33.066  28.441  1.00  0.00     0.060 A 
ATOM      7  C   UNL A   1      35.701  33.603  28.123  1.00  0.00     0.016 A 
ATOM      8  C   UNL A   1      34.401  31.964  29.307  1.00  0.00     0.016 A 
ATOM      9  C   UNL A   1      36.855  33.161  28.776  1.00  0.00     0.010 A 
ATOM     10  C   UNL A   1      35.545  31.550  29.996  1.00  0.00     0.010 A 
ATOM     11  C   UNL A   1      36.784  32.148  29.737  1.00  0.00    -0.014 A 
BRANCH  11  12
ATOM     12  C   UNL A   1      38.036  31.594  30.305  1.00  0.00     0.031 A 
ATOM     13  C   UNL A   1      38.434  32.049  31.679  1.00  0.00     0.074 A 
ATOM     14  C   UNL A   1      38.752  30.650  29.661  1.00  0.00     0.049 A 
ATOM     15  N   UNL A   1      39.373  31.587  32.463  1.00  0.00    -0.248 NA
ATOM     16  C   UNL A   1      37.667  33.166  32.255  1.00  0.00     0.031 C 
ATOM     17  C   UNL A   1      38.461  30.129  28.326  1.00  0.00     0.029 A 
ATOM     18  N   UNL A   1      39.863  29.943  30.051  1.00  0.00    -0.354 N 
ATOM     19  C   UNL A   1      39.262  32.323  33.633  1.00  0.00     0.074 A 
ATOM     20  C   UNL A   1      38.271  33.347  33.413  1.00  0.00     0.031 C 
ATOM     21  C   UNL A   1      39.372  29.192  28.004  1.00  0.00     0.029 A 
ATOM     22  C   UNL A   1      40.293  29.022  29.124  1.00  0.00     0.049 A 
ATOM     23  H   UNL A   1      40.312  30.083  30.917  1.00  0.00     0.167 HD
ATOM     24  C   UNL A   1      39.866  32.113  34.823  1.00  0.00     0.037 A 
ATOM     25  C   UNL A   1      41.294  28.122  29.195  1.00  0.00     0.037 A 
ATOM     26  C   UNL A   1      40.855  31.102  35.041  1.00  0.00     0.049 A 
ATOM     27  C   UNL A   1      42.043  27.982  30.498  1.00  0.00     0.074 A 
ATOM     28  C   UNL A   1      41.557  30.811  36.194  1.00  0.00     0.029 A 
ATOM     29  N   UNL A   1      41.289  30.218  34.063  1.00  0.00    -0.354 N 
ATOM     30  N   UNL A   1      41.857  28.617  31.631  1.00  0.00    -0.248 NA
ATOM     31  C   UNL A   1      43.110  26.972  30.548  1.00  0.00     0.031 C 
ATOM     32  C   UNL A   1      42.444  29.770  35.904  1.00  0.00     0.029 A 
ATOM     33  C   UNL A   1      42.265  29.387  34.582  1.00  0.00     0.049 A 
ATOM     34  H   UNL A   1      40.953  30.187  33.138  1.00  0.00     0.167 HD
ATOM     35  C   UNL A   1      42.741  28.048  32.540  1.00  0.00     0.074 A 
ATOM     36  C   UNL A   1      43.463  27.015  31.825  1.00  0.00     0.031 C 
ATOM     37  C   UNL A   1      42.937  28.346  33.848  1.00  0.00     0.037 A 
BRANCH  24  38
ATOM     38  C   UNL A   1      39.426  32.996  35.949  1.00  0.00     0.064 A 
ATOM     39  C   UNL A   1      40.077  34.214  36.207  1.00  0.00     0.173 A 
ATOM     40  C   UNL A   1      38.422  32.585  36.834  1.00  0.00     0.173 A 
ATOM     41  F   UNL A   1      41.073  34.630  35.407  1.00  0.00    -0.203 F 
ATOM     42  C   UNL A   1      39.775  34.961  37.340  1.00  0.00     0.198 A 
ATOM     43  C   UNL A   1      38.100  33.351  37.950  1.00  0.00     0.198 A 
ATOM     44  F   UNL A   1      37.779  31.424  36.636  1.00  0.00    -0.203 F 
ATOM     45  F   UNL A   1      40.470  36.075  37.613  1.00  0.00    -0.200 F 
ATOM     46  C   UNL A   1      38.786  34.530  38.210  1.00  0.00     0.200 A 
ATOM     47  F   UNL A   1      37.147  32.934  38.794  1.00  0.00    -0.200 F 
ATOM     48  F   UNL A   1      38.511  35.237  39.314  1.00  0.00    -0.200 F 
ENDBRANCH  24  38
BRANCH  25  49
ATOM     49  C   UNL A   1      41.618  27.237  28.040  1.00  0.00     0.064 A 
ATOM     50  C   UNL A   1      42.550  27.621  27.064  1.00  0.00     0.173 A 
ATOM     51  C   UNL A   1      40.950  26.018  27.850  1.00  0.00     0.173 A 
ATOM     52  F   UNL A   1      43.204  28.786  27.187  1.00  0.00    -0.203 F 
ATOM     53  C   UNL A   1      42.770  26.845  25.926  1.00  0.00     0.198 A 
ATOM     54  C   UNL A   1      41.187  25.230  26.723  1.00  0.00     0.198 A 
ATOM     55  F   UNL A   1      40.048  25.599  28.750  1.00  0.00    -0.203 F 
ATOM     56  F   UNL A   1      43.618  27.272  24.980  1.00  0.00    -0.200 F 
ATOM     57  C   UNL A   1      42.087  25.650  25.755  1.00  0.00     0.200 A 
ATOM     58  F   UNL A   1      40.529  24.074  26.565  1.00  0.00    -0.200 F 
ATOM     59  F   UNL A   1      42.284  24.915  24.653  1.00  0.00    -0.200 F 
ENDBRANCH  25  49
BRANCH  37  60
ATOM     60  C   UNL A   1      43.928  27.515  34.606  1.00  0.00     0.064 A 
ATOM     61  C   UNL A   1      45.255  27.930  34.779  1.00  0.00     0.173 A 
ATOM     62  C   UNL A   1      43.517  26.329  35.235  1.00  0.00     0.173 A 
ATOM     63  F   UNL A   1      45.696  29.050  34.185  1.00  0.00    -0.203 F 
ATOM     64  C   UNL A   1      46.142  27.179  35.543  1.00  0.00     0.198 A 
ATOM     65  C   UNL A   1      44.399  25.599  36.025  1.00  0.00     0.198 A 
ATOM     66  F   UNL A   1      42.254  25.897  35.105  1.00  0.00    -0.203 F 
ATOM     67  F   UNL A   1      47.417  27.574  35.667  1.00  0.00    -0.200 F 
ATOM     68  C   UNL A   1      45.710  26.022  36.175  1.00  0.00     0.200 A 
ATOM     69  F   UNL A   1      43.975  24.491  36.648  1.00  0.00    -0.200 F 
ATOM     70  F   UNL A   1      46.562  25.311  36.928  1.00  0.00    -0.200 F 
ENDBRANCH  37  60
ENDBRANCH  11  12
ENDBRANCH   4   6
ENDBRANCH   3   4
ENDBRANCH   2   3
ENDBRANCH   1   2
BRANCH   1  71
ATOM     71  O   UNL A   1      31.378  29.543  26.059  1.00  0.00    -0.461 OA
BRANCH  71  72
ATOM     72  C   UNL A   1      31.636  28.328  26.635  1.00  0.00     0.317 C 
ATOM     73  O   UNL A   1      31.376  28.095  27.813  1.00  0.00    -0.251 OA
BRANCH  72  74
ATOM     74  C   UNL A   1      32.218  27.246  25.680  1.00  0.00     0.117 C 
ATOM     75  C   UNL A   1      33.738  27.135  25.973  1.00  0.00     0.030 C 
ATOM     76  C   UNL A   1      31.592  25.929  26.146  1.00  0.00     0.281 C 
ATOM     77  C   UNL A   1      34.353  25.867  25.370  1.00  0.00     0.063 C 
ATOM     78  N   UNL A   1      32.148  24.771  25.440  1.00  0.00    -0.330 N 
ATOM     79  C   UNL A   1      33.568  24.600  25.741  1.00  0.00     0.262 C 
ATOM     80  H   UNL A   1      32.107  24.958  24.439  1.00  0.00     0.348 HD
BRANCH  74  81
ATOM     81  C   UNL A   1      31.979  27.547  24.174  1.00  0.00     0.029 C 
BRANCH  81  82
ATOM     82  C   UNL A   1      30.668  27.236  23.417  1.00  0.00     0.037 C 
BRANCH  82  83
ATOM     83  C   UNL A   1      29.646  28.334  23.198  1.00  0.00    -0.048 A 
ATOM     84  C   UNL A   1      29.971  29.663  22.906  1.00  0.00     0.004 A 
ATOM     85  C   UNL A   1      28.285  27.995  23.278  1.00  0.00     0.004 A 
ATOM     86  C   UNL A   1      28.979  30.641  22.791  1.00  0.00     0.000 A 
ATOM     87  C   UNL A   1      27.289  28.964  23.126  1.00  0.00     0.000 A 
ATOM     88  C   UNL A   1      27.637  30.292  22.906  1.00  0.00     0.000 A 
ENDBRANCH  82  83
ENDBRANCH  81  82
ENDBRANCH  74  81
BRANCH  78  89
ATOM     89  C   UNL A   1      31.321  23.562  25.592  1.00  0.00     0.300 C 
BRANCH  89  90
ATOM     90  C   UNL A   1      31.786  22.377  24.788  1.00  0.00     0.025 A 
ATOM     91  C   UNL A   1      31.958  22.462  23.400  1.00  0.00     0.013 A 
ATOM     92  C   UNL A   1      31.930  21.128  25.375  1.00  0.00     0.120 A 
ATOM     93  C   UNL A   1      32.154  21.306  22.656  1.00  0.00     0.021 A 
ATOM     94  N   UNL A   1      32.160  19.991  24.682  1.00  0.00    -0.264 NA
ATOM     95  C   UNL A   1      32.238  20.106  23.337  1.00  0.00     0.111 A 
ENDBRANCH  89  90
ENDBRANCH  78  89
ENDBRANCH  72  74
ENDBRANCH  71  72
ENDBRANCH   1  71
TORSDOF 16
ENDMDL
MODEL 3
REMARK VINA RESULT:     -12.0      1.968      3.767
REMARK SMILES O=C(OCCOC(=O)[C@@]1(CCc2ccccc2)CCC[N@@H+](Cc2cccnc2)C1)c1ccc(-c2c3nc(c(-c4c(F)c(F)c(F)c(F)c4F)c4ccc([nH]4)c(-c4c(F)c(F)c(F)c(F)c4F)c4nc(c(-c5c(F)c(F)c(F)c(F)c5F)c5ccc2[nH]5)C=C4)C=C3)cc1
REMARK SMILES IDX 5 1 4 2 3 3 2 4 1 5 30 6 31 7 92 8 32 9 91 10 33 11 34 12
REMARK SMILES IDX 35 13 85 14 36 15 90 16 84 17 86 18 37 19 89 20 83 21 82 22
REMARK SMILES IDX 38 24 70 25 50 26 69 27 51 28 54 29 68 30 87 31 52 32 53 33
REMARK SMILES IDX 67 35 88 36 55 37 39 38 40 39 48 40 41 41 42 42 46 43 49 44
REMARK SMILES IDX 43 45 44 46 47 47 45 48 71 49 72 50 80 51 73 52 74 53 78 54
REMARK SMILES IDX 81 55 75 56 76 57 79 58 77 59 56 60 57 61 65 62 58 63 59 64
REMARK SMILES IDX 63 65 66 66 60 67 61 68 64 69 62 70 6 71 7 72 8 73 9 74
REMARK SMILES IDX 18 75 29 76 19 77 21 78 20 79 10 81 11 82 12 83 13 84 17 85
REMARK SMILES IDX 14 86 16 87 15 88 22 89 23 90 24 91 28 92 25 93 27 94 26 95
REMARK H PARENT 86 23 54 34 21 80
REMARK Flexibility Score: inf
ROOT
ATOM      1  C   UNL A   1      32.734  30.974  27.208  1.00  0.00     0.274 C 
ENDROOT
BRANCH   1   2
ATOM      2  C   UNL A   1      31.925  32.274  27.185  1.00  0.00     0.275 C 
BRANCH   2   3
ATOM      3  O   UNL A   1      32.657  33.514  27.243  1.00  0.00    -0.458 OA
BRANCH   3   4
ATOM      4  C   UNL A   1      33.207  34.084  28.340  1.00  0.00     0.338 C 
ATOM      5  O   UNL A   1      32.691  35.075  28.836  1.00  0.00    -0.246 OA
BRANCH   4   6
ATOM      6  C   UNL A   1      34.417  33.483  28.976  1.00  0.00     0.060 A 
ATOM      7  C   UNL A   1      34.386  32.534  29.999  1.00  0.00     0.016 A 
ATOM      8  C   UNL A   1      35.664  33.877  28.469  1.00  0.00     0.016 A 
ATOM      9  C   UNL A   1      35.551  31.875  30.396  1.00  0.00     0.010 A 
ATOM     10  C   UNL A   1      36.826  33.189  28.830  1.00  0.00     0.010 A 
ATOM     11  C   UNL A   1      36.778  32.178  29.797  1.00  0.00    -0.014 A 
BRANCH  11  12
ATOM     12  C   UNL A   1      38.020  31.575  30.338  1.00  0.00     0.031 A 
ATOM     13  C   UNL A   1      38.420  31.949  31.736  1.00  0.00     0.074 A 
ATOM     14  C   UNL A   1      38.724  30.656  29.646  1.00  0.00     0.049 A 
ATOM     15  N   UNL A   1      39.348  31.431  32.497  1.00  0.00    -0.248 NA
ATOM     16  C   UNL A   1      37.667  33.044  32.369  1.00  0.00     0.031 C 
ATOM     17  C   UNL A   1      38.431  30.213  28.284  1.00  0.00     0.029 A 
ATOM     18  N   UNL A   1      39.823  29.913  30.001  1.00  0.00    -0.354 N 
ATOM     19  C   UNL A   1      39.244  32.105  33.705  1.00  0.00     0.074 A 
ATOM     20  C   UNL A   1      38.269  33.154  33.537  1.00  0.00     0.031 C 
ATOM     21  C   UNL A   1      39.329  29.281  27.914  1.00  0.00     0.029 A 
ATOM     22  C   UNL A   1      40.243  29.037  29.026  1.00  0.00     0.049 A 
ATOM     23  H   UNL A   1      40.270  29.999  30.875  1.00  0.00     0.167 HD
ATOM     24  C   UNL A   1      39.840  31.821  34.883  1.00  0.00     0.037 A 
ATOM     25  C   UNL A   1      41.230  28.120  29.052  1.00  0.00     0.037 A 
ATOM     26  C   UNL A   1      40.813  30.785  35.049  1.00  0.00     0.049 A 
ATOM     27  C   UNL A   1      41.972  27.898  30.348  1.00  0.00     0.074 A 
ATOM     28  C   UNL A   1      41.505  30.421  36.188  1.00  0.00     0.029 A 
ATOM     29  N   UNL A   1      41.237  29.949  34.027  1.00  0.00    -0.354 N 
ATOM     30  N   UNL A   1      41.791  28.473  31.513  1.00  0.00    -0.248 NA
ATOM     31  C   UNL A   1      43.023  26.871  30.347  1.00  0.00     0.031 C 
ATOM     32  C   UNL A   1      42.378  29.384  35.844  1.00  0.00     0.029 A 
ATOM     33  C   UNL A   1      42.199  29.076  34.502  1.00  0.00     0.049 A 
ATOM     34  H   UNL A   1      40.904  29.973  33.100  1.00  0.00     0.167 HD
ATOM     35  C   UNL A   1      42.662  27.842  32.392  1.00  0.00     0.074 A 
ATOM     36  C   UNL A   1      43.372  26.839  31.625  1.00  0.00     0.031 C 
ATOM     37  C   UNL A   1      42.858  28.066  33.716  1.00  0.00     0.037 A 
BRANCH  24  38
ATOM     38  C   UNL A   1      39.408  32.648  36.054  1.00  0.00     0.064 A 
ATOM     39  C   UNL A   1      40.056  33.857  36.361  1.00  0.00     0.173 A 
ATOM     40  C   UNL A   1      38.417  32.190  36.931  1.00  0.00     0.173 A 
ATOM     41  F   UNL A   1      41.040  34.315  35.570  1.00  0.00    -0.203 F 
ATOM     42  C   UNL A   1      39.763  34.549  37.530  1.00  0.00     0.198 A 
ATOM     43  C   UNL A   1      38.104  32.902  38.085  1.00  0.00     0.198 A 
ATOM     44  F   UNL A   1      37.778  31.036  36.686  1.00  0.00    -0.203 F 
ATOM     45  F   UNL A   1      40.455  35.653  37.847  1.00  0.00    -0.200 F 
ATOM     46  C   UNL A   1      38.787  34.072  38.392  1.00  0.00     0.200 A 
ATOM     47  F   UNL A   1      37.163  32.442  38.920  1.00  0.00    -0.200 F 
ATOM     48  F   UNL A   1      38.521  34.726  39.530  1.00  0.00    -0.200 F 
ENDBRANCH  24  38
BRANCH  25  49
ATOM     49  C   UNL A   1      41.546  27.293  27.852  1.00  0.00     0.064 A 
ATOM     50  C   UNL A   1      40.927  26.052  27.637  1.00  0.00     0.173 A 
ATOM     51  C   UNL A   1      42.527  27.693  26.933  1.00  0.00     0.173 A 
ATOM     52  F   UNL A   1      39.995  25.612  28.496  1.00  0.00    -0.203 F 
ATOM     53  C   UNL A   1      41.305  25.228  26.576  1.00  0.00     0.198 A 
ATOM     54  C   UNL A   1      42.888  26.878  25.859  1.00  0.00     0.198 A 
ATOM     55  F   UNL A   1      43.152  28.870  27.087  1.00  0.00    -0.203 F 
ATOM     56  F   UNL A   1      40.741  24.020  26.436  1.00  0.00    -0.200 F 
ATOM     57  C   UNL A   1      42.286  25.641  25.688  1.00  0.00     0.200 A 
ATOM     58  F   UNL A   1      43.833  27.285  25.000  1.00  0.00    -0.200 F 
ATOM     59  F   UNL A   1      42.661  24.841  24.682  1.00  0.00    -0.200 F 
ENDBRANCH  25  49
BRANCH  37  60
ATOM     60  C   UNL A   1      43.833  27.181  34.431  1.00  0.00     0.064 A 
ATOM     61  C   UNL A   1      45.167  27.563  34.624  1.00  0.00     0.173 A 
ATOM     62  C   UNL A   1      43.401  25.973  34.999  1.00  0.00     0.173 A 
ATOM     63  F   UNL A   1      45.628  28.703  34.087  1.00  0.00    -0.203 F 
ATOM     64  C   UNL A   1      46.041  26.758  35.349  1.00  0.00     0.198 A 
ATOM     65  C   UNL A   1      44.269  25.187  35.751  1.00  0.00     0.198 A 
ATOM     66  F   UNL A   1      42.130  25.570  34.848  1.00  0.00    -0.203 F 
ATOM     67  F   UNL A   1      47.322  27.123  35.492  1.00  0.00    -0.200 F 
ATOM     68  C   UNL A   1      45.588  25.579  35.922  1.00  0.00     0.200 A 
ATOM     69  F   UNL A   1      43.825  24.057  36.318  1.00  0.00    -0.200 F 
ATOM     70  F   UNL A   1      46.426  24.816  36.638  1.00  0.00    -0.200 F 
ENDBRANCH  37  60
ENDBRANCH  11  12
ENDBRANCH   4   6
ENDBRANCH   3   4
ENDBRANCH   2   3
ENDBRANCH   1   2
BRANCH   1  71
ATOM     71  O   UNL A   1      32.159  29.884  26.467  1.00  0.00    -0.461 OA
BRANCH  71  72
ATOM     72  C   UNL A   1      33.002  28.817  26.314  1.00  0.00     0.317 C 
ATOM     73  O   UNL A   1      34.121  28.791  26.821  1.00  0.00    -0.251 OA
BRANCH  72  74
ATOM     74  C   UNL A   1      32.422  27.615  25.514  1.00  0.00     0.117 C 
ATOM     75  C   UNL A   1      31.445  26.859  26.453  1.00  0.00     0.030 C 
ATOM     76  C   UNL A   1      31.563  28.248  24.417  1.00  0.00     0.281 C 
ATOM     77  C   UNL A   1      30.541  25.888  25.687  1.00  0.00     0.063 C 
ATOM     78  N   UNL A   1      30.817  27.246  23.650  1.00  0.00    -0.330 N 
ATOM     79  C   UNL A   1      29.842  26.554  24.491  1.00  0.00     0.262 C 
ATOM     80  H   UNL A   1      31.470  26.524  23.348  1.00  0.00     0.348 HD
BRANCH  74  81
ATOM     81  C   UNL A   1      33.507  26.644  24.969  1.00  0.00     0.029 C 
BRANCH  81  82
ATOM     82  C   UNL A   1      34.046  25.416  25.735  1.00  0.00     0.037 C 
BRANCH  82  83
ATOM     83  C   UNL A   1      34.971  24.439  25.036  1.00  0.00    -0.048 A 
ATOM     84  C   UNL A   1      34.726  23.892  23.772  1.00  0.00     0.004 A 
ATOM     85  C   UNL A   1      36.158  24.068  25.691  1.00  0.00     0.004 A 
ATOM     86  C   UNL A   1      35.585  22.937  23.219  1.00  0.00     0.000 A 
ATOM     87  C   UNL A   1      37.037  23.142  25.124  1.00  0.00     0.000 A 
ATOM     88  C   UNL A   1      36.738  22.558  23.897  1.00  0.00     0.000 A 
ENDBRANCH  82  83
ENDBRANCH  81  82
ENDBRANCH  74  81
BRANCH  78  89
ATOM     89  C   UNL A   1      30.291  27.776  22.381  1.00  0.00     0.300 C 
BRANCH  89  90
ATOM     90  C   UNL A   1      29.527  29.067  22.507  1.00  0.00     0.025 A 
ATOM     91  C   UNL A   1      28.347  29.144  23.258  1.00  0.00     0.013 A 
ATOM     92  C   UNL A   1      29.894  30.188  21.776  1.00  0.00     0.120 A 
ATOM     93  C   UNL A   1      27.540  30.270  23.164  1.00  0.00     0.021 A 
ATOM     94  N   UNL A   1      29.150  31.313  21.697  1.00  0.00    -0.264 NA
ATOM     95  C   UNL A   1      27.979  31.315  22.371  1.00  0.00     0.111 A 
ENDBRANCH  89  90
ENDBRANCH  78  89
ENDBRANCH  72  74
ENDBRANCH  71  72
ENDBRANCH   1  71
TORSDOF 16
ENDMDL
