MODEL 1
REMARK VINA RESULT:     -12.6      0.000      0.000
REMARK SMILES O=C(Nc1ccc(C(=O)OCCOC(=O)c2ccc(-c3c4nc(c(-c5c(F)c(F)c(F)c(F)c5F)c5ccc([nH]5)c(-c5c(F)c(F)c(F)c(F)c5F)c5nc(c(-c6c(F)c(F)c(F)c(F)c6F)c6ccc3[nH]6)C=C5)C=C4)cc2)cc1)c1cc(F)cc(Br)c1
REMARK SMILES IDX 11 1 10 2 8 3 9 4 7 5 4 6 5 7 80 8 6 9 79 10 3 11 1 12 2 13
REMARK SMILES IDX 81 15 82 16 88 17 83 18 86 19 84 20 85 21 87 22 12 23 13 24
REMARK SMILES IDX 14 25 15 26 16 27 17 28 78 29 18 30 77 31 19 32 20 33 21 34
REMARK SMILES IDX 71 35 22 36 76 37 70 38 72 39 23 40 75 41 69 42 68 43 24 45
REMARK SMILES IDX 56 46 36 47 55 48 37 49 40 50 54 51 73 52 38 53 39 54 53 56
REMARK SMILES IDX 74 57 41 58 25 59 26 60 34 61 27 62 28 63 32 64 35 65 29 66
REMARK SMILES IDX 30 67 33 68 31 69 57 70 58 71 66 72 59 73 60 74 64 75 67 76
REMARK SMILES IDX 61 77 62 78 65 79 63 80 42 81 43 82 51 83 44 84 45 85 49 86
REMARK SMILES IDX 52 87 46 88 47 89 50 90 48 91
REMARK H PARENT 3 14 72 44 40 55
REMARK Flexibility Score: inf
ROOT
ATOM      1  C   UNL A   1      30.976  29.613  24.636  1.00  0.00     0.275 C 
ENDROOT
BRANCH   1   2
ATOM      2  O   UNL A   1      31.698  28.862  23.637  1.00  0.00    -0.458 OA
BRANCH   2   3
ATOM      3  C   UNL A   1      30.928  28.098  22.825  1.00  0.00     0.338 C 
ATOM      4  O   UNL A   1      30.139  28.491  21.980  1.00  0.00    -0.246 OA
BRANCH   3   5
ATOM      5  C   UNL A   1      31.201  26.658  23.034  1.00  0.00     0.060 A 
ATOM      6  C   UNL A   1      31.522  23.890  23.058  1.00  0.00     0.041 A 
ATOM      7  C   UNL A   1      32.401  24.670  22.315  1.00  0.00     0.027 A 
ATOM      8  C   UNL A   1      30.576  24.498  23.894  1.00  0.00     0.027 A 
ATOM      9  C   UNL A   1      32.201  26.047  22.262  1.00  0.00     0.018 A 
ATOM     10  C   UNL A   1      30.418  25.887  23.892  1.00  0.00     0.018 A 
BRANCH   6  11
ATOM     11  N   UNL A   1      31.547  22.504  22.836  1.00  0.00    -0.322 N 
ATOM     12  O   UNL A   1      32.414  20.413  23.062  1.00  0.00    -0.269 OA
ATOM     13  C   UNL A   1      32.371  21.577  23.444  1.00  0.00     0.255 C 
ATOM     14  H   UNL A   1      30.907  22.155  22.174  1.00  0.00     0.170 HD
BRANCH  13  15
ATOM     15  C   UNL A   1      33.140  21.969  24.650  1.00  0.00     0.044 A 
ATOM     16  C   UNL A   1      32.546  21.942  25.919  1.00  0.00     0.053 A 
ATOM     17  C   UNL A   1      34.460  22.400  24.495  1.00  0.00     0.029 A 
ATOM     18  C   UNL A   1      33.254  22.429  27.008  1.00  0.00     0.125 A 
ATOM     19  C   UNL A   1      35.153  22.875  25.608  1.00  0.00     0.021 A 
ATOM     20  F   UNL A   1      32.668  22.462  28.213  1.00  0.00    -0.207 F 
ATOM     21  C   UNL A   1      34.551  22.907  26.866  1.00  0.00     0.055 A 
ATOM     22  Br  UNL A   1      36.918  23.518  25.404  1.00  0.00    -0.051 Br
ENDBRANCH  13  15
ENDBRANCH   6  11
ENDBRANCH   3   5
ENDBRANCH   2   3
ENDBRANCH   1   2
BRANCH   1  23
ATOM     23  C   UNL A   1      31.724  29.595  25.969  1.00  0.00     0.275 C 
BRANCH  23  24
ATOM     24  O   UNL A   1      32.935  30.362  25.848  1.00  0.00    -0.458 OA
BRANCH  24  25
ATOM     25  C   UNL A   1      33.202  31.215  26.863  1.00  0.00     0.338 C 
ATOM     26  O   UNL A   1      32.478  32.095  27.297  1.00  0.00    -0.246 OA
BRANCH  25  27
ATOM     27  C   UNL A   1      34.539  30.925  27.427  1.00  0.00     0.060 A 
ATOM     28  C   UNL A   1      34.937  29.608  27.649  1.00  0.00     0.016 A 
ATOM     29  C   UNL A   1      35.359  31.969  27.850  1.00  0.00     0.016 A 
ATOM     30  C   UNL A   1      36.092  29.329  28.380  1.00  0.00     0.010 A 
ATOM     31  C   UNL A   1      36.571  31.687  28.496  1.00  0.00     0.010 A 
ATOM     32  C   UNL A   1      36.931  30.365  28.814  1.00  0.00    -0.014 A 
BRANCH  32  33
ATOM     33  C   UNL A   1      38.127  30.067  29.660  1.00  0.00     0.031 A 
ATOM     34  C   UNL A   1      39.256  29.231  29.109  1.00  0.00     0.074 A 
ATOM     35  C   UNL A   1      38.241  30.569  30.908  1.00  0.00     0.049 A 
ATOM     36  N   UNL A   1      40.296  28.726  29.727  1.00  0.00    -0.248 NA
ATOM     37  C   UNL A   1      39.201  28.904  27.676  1.00  0.00     0.031 C 
ATOM     38  C   UNL A   1      37.257  31.421  31.575  1.00  0.00     0.029 A 
ATOM     39  N   UNL A   1      39.252  30.448  31.833  1.00  0.00    -0.354 N 
ATOM     40  C   UNL A   1      40.973  27.968  28.779  1.00  0.00     0.074 A 
ATOM     41  C   UNL A   1      40.232  28.082  27.542  1.00  0.00     0.031 C 
ATOM     42  C   UNL A   1      37.735  31.791  32.773  1.00  0.00     0.029 A 
ATOM     43  C   UNL A   1      39.021  31.140  32.996  1.00  0.00     0.049 A 
ATOM     44  H   UNL A   1      40.065  29.915  31.676  1.00  0.00     0.167 HD
ATOM     45  C   UNL A   1      42.108  27.243  28.924  1.00  0.00     0.037 A 
ATOM     46  C   UNL A   1      39.745  31.221  34.131  1.00  0.00     0.037 A 
ATOM     47  C   UNL A   1      42.895  27.185  30.129  1.00  0.00     0.049 A 
ATOM     48  C   UNL A   1      41.026  30.443  34.253  1.00  0.00     0.074 A 
ATOM     49  C   UNL A   1      44.050  26.462  30.376  1.00  0.00     0.029 A 
ATOM     50  N   UNL A   1      42.625  27.908  31.281  1.00  0.00    -0.354 N 
ATOM     51  N   UNL A   1      41.599  29.653  33.381  1.00  0.00    -0.248 NA
ATOM     52  C   UNL A   1      41.748  30.553  35.529  1.00  0.00     0.031 C 
ATOM     53  C   UNL A   1      44.475  26.742  31.679  1.00  0.00     0.029 A 
ATOM     54  C   UNL A   1      43.600  27.660  32.234  1.00  0.00     0.049 A 
ATOM     55  H   UNL A   1      41.855  28.509  31.402  1.00  0.00     0.167 HD
ATOM     56  C   UNL A   1      42.740  29.166  34.001  1.00  0.00     0.074 A 
ATOM     57  C   UNL A   1      42.801  29.778  35.312  1.00  0.00     0.031 C 
ATOM     58  C   UNL A   1      43.648  28.274  33.534  1.00  0.00     0.037 A 
BRANCH  45  59
ATOM     59  C   UNL A   1      42.564  26.427  27.751  1.00  0.00     0.064 A 
ATOM     60  C   UNL A   1      42.028  25.160  27.479  1.00  0.00     0.173 A 
ATOM     61  C   UNL A   1      43.526  26.939  26.867  1.00  0.00     0.173 A 
ATOM     62  F   UNL A   1      41.119  24.621  28.304  1.00  0.00    -0.203 F 
ATOM     63  C   UNL A   1      42.450  24.430  26.371  1.00  0.00     0.198 A 
ATOM     64  C   UNL A   1      43.928  26.216  25.747  1.00  0.00     0.198 A 
ATOM     65  F   UNL A   1      44.066  28.148  27.081  1.00  0.00    -0.203 F 
ATOM     66  F   UNL A   1      41.952  23.206  26.149  1.00  0.00    -0.200 F 
ATOM     67  C   UNL A   1      43.394  24.961  25.502  1.00  0.00     0.200 A 
ATOM     68  F   UNL A   1      44.831  26.736  24.904  1.00  0.00    -0.200 F 
ATOM     69  F   UNL A   1      43.792  24.259  24.433  1.00  0.00    -0.200 F 
ENDBRANCH  45  59
BRANCH  46  70
ATOM     70  C   UNL A   1      39.257  32.055  35.260  1.00  0.00     0.064 A 
ATOM     71  C   UNL A   1      38.492  31.495  36.293  1.00  0.00     0.173 A 
ATOM     72  C   UNL A   1      39.547  33.426  35.329  1.00  0.00     0.173 A 
ATOM     73  F   UNL A   1      38.166  30.196  36.254  1.00  0.00    -0.203 F 
ATOM     74  C   UNL A   1      38.028  32.278  37.347  1.00  0.00     0.198 A 
ATOM     75  C   UNL A   1      39.107  34.201  36.399  1.00  0.00     0.198 A 
ATOM     76  F   UNL A   1      40.273  34.008  34.363  1.00  0.00    -0.203 F 
ATOM     77  F   UNL A   1      37.265  31.728  38.302  1.00  0.00    -0.200 F 
ATOM     78  C   UNL A   1      38.342  33.628  37.404  1.00  0.00     0.200 A 
ATOM     79  F   UNL A   1      39.423  35.502  36.456  1.00  0.00    -0.200 F 
ATOM     80  F   UNL A   1      37.903  34.378  38.424  1.00  0.00    -0.200 F 
ENDBRANCH  46  70
BRANCH  58  81
ATOM     81  C   UNL A   1      44.782  27.916  34.444  1.00  0.00     0.064 A 
ATOM     82  C   UNL A   1      44.688  26.834  35.332  1.00  0.00     0.173 A 
ATOM     83  C   UNL A   1      45.978  28.647  34.416  1.00  0.00     0.173 A 
ATOM     84  F   UNL A   1      43.558  26.116  35.403  1.00  0.00    -0.203 F 
ATOM     85  C   UNL A   1      45.745  26.514  36.180  1.00  0.00     0.198 A 
ATOM     86  C   UNL A   1      47.040  28.311  35.251  1.00  0.00     0.198 A 
ATOM     87  F   UNL A   1      46.115  29.687  33.581  1.00  0.00    -0.203 F 
ATOM     88  F   UNL A   1      45.619  25.504  37.053  1.00  0.00    -0.200 F 
ATOM     89  C   UNL A   1      46.920  27.250  36.138  1.00  0.00     0.200 A 
ATOM     90  F   UNL A   1      48.176  29.019  35.207  1.00  0.00    -0.200 F 
ATOM     91  F   UNL A   1      47.934  26.943  36.958  1.00  0.00    -0.200 F 
ENDBRANCH  58  81
ENDBRANCH  32  33
ENDBRANCH  25  27
ENDBRANCH  24  25
ENDBRANCH  23  24
ENDBRANCH   1  23
TORSDOF 13
ENDMDL
MODEL 2
REMARK VINA RESULT:     -12.5      1.713      7.856
REMARK SMILES O=C(Nc1ccc(C(=O)OCCOC(=O)c2ccc(-c3c4nc(c(-c5c(F)c(F)c(F)c(F)c5F)c5ccc([nH]5)c(-c5c(F)c(F)c(F)c(F)c5F)c5nc(c(-c6c(F)c(F)c(F)c(F)c6F)c6ccc3[nH]6)C=C5)C=C4)cc2)cc1)c1cc(F)cc(Br)c1
REMARK SMILES IDX 11 1 10 2 8 3 9 4 7 5 4 6 5 7 80 8 6 9 79 10 3 11 1 12 2 13
REMARK SMILES IDX 81 15 82 16 88 17 83 18 86 19 84 20 85 21 87 22 12 23 13 24
REMARK SMILES IDX 14 25 15 26 16 27 17 28 78 29 18 30 77 31 19 32 20 33 21 34
REMARK SMILES IDX 71 35 22 36 76 37 70 38 72 39 23 40 75 41 69 42 68 43 24 45
REMARK SMILES IDX 56 46 36 47 55 48 37 49 40 50 54 51 73 52 38 53 39 54 53 56
REMARK SMILES IDX 74 57 41 58 25 59 26 60 34 61 27 62 28 63 32 64 35 65 29 66
REMARK SMILES IDX 30 67 33 68 31 69 57 70 58 71 66 72 59 73 60 74 64 75 67 76
REMARK SMILES IDX 61 77 62 78 65 79 63 80 42 81 43 82 51 83 44 84 45 85 49 86
REMARK SMILES IDX 52 87 46 88 47 89 50 90 48 91
REMARK H PARENT 3 14 72 44 40 55
REMARK Flexibility Score: inf
ROOT
ATOM      1  C   UNL A   1      31.437  31.935  26.863  1.00  0.00     0.275 C 
ENDROOT
BRANCH   1   2
ATOM      2  O   UNL A   1      32.461  30.920  26.803  1.00  0.00    -0.458 OA
BRANCH   2   3
ATOM      3  C   UNL A   1      32.009  29.659  26.605  1.00  0.00     0.338 C 
ATOM      4  O   UNL A   1      31.444  28.945  27.419  1.00  0.00    -0.246 OA
BRANCH   3   5
ATOM      5  C   UNL A   1      32.226  29.231  25.204  1.00  0.00     0.060 A 
ATOM      6  C   UNL A   1      32.530  28.040  22.702  1.00  0.00     0.041 A 
ATOM      7  C   UNL A   1      31.256  28.379  23.144  1.00  0.00     0.027 A 
ATOM      8  C   UNL A   1      33.657  28.421  23.446  1.00  0.00     0.027 A 
ATOM      9  C   UNL A   1      31.106  28.922  24.417  1.00  0.00     0.018 A 
ATOM     10  C   UNL A   1      33.508  29.026  24.696  1.00  0.00     0.018 A 
BRANCH   6  11
ATOM     11  N   UNL A   1      32.621  27.212  21.574  1.00  0.00    -0.322 N 
ATOM     12  O   UNL A   1      33.127  25.272  20.496  1.00  0.00    -0.269 OA
ATOM     13  C   UNL A   1      32.922  25.864  21.551  1.00  0.00     0.255 C 
ATOM     14  H   UNL A   1      32.451  27.638  20.703  1.00  0.00     0.170 HD
BRANCH  13  15
ATOM     15  C   UNL A   1      32.894  25.092  22.817  1.00  0.00     0.044 A 
ATOM     16  C   UNL A   1      31.679  24.667  23.371  1.00  0.00     0.053 A 
ATOM     17  C   UNL A   1      34.101  24.824  23.468  1.00  0.00     0.029 A 
ATOM     18  C   UNL A   1      31.679  24.053  24.615  1.00  0.00     0.125 A 
ATOM     19  C   UNL A   1      34.074  24.196  24.714  1.00  0.00     0.021 A 
ATOM     20  F   UNL A   1      30.515  23.701  25.176  1.00  0.00    -0.207 F 
ATOM     21  C   UNL A   1      32.866  23.822  25.300  1.00  0.00     0.055 A 
ATOM     22  Br  UNL A   1      35.694  23.882  25.634  1.00  0.00    -0.051 Br
ENDBRANCH  13  15
ENDBRANCH   6  11
ENDBRANCH   3   5
ENDBRANCH   2   3
ENDBRANCH   1   2
BRANCH   1  23
ATOM     23  C   UNL A   1      32.061  33.331  26.870  1.00  0.00     0.275 C 
BRANCH  23  24
ATOM     24  O   UNL A   1      32.313  33.735  28.227  1.00  0.00    -0.458 OA
BRANCH  24  25
ATOM     25  C   UNL A   1      33.409  34.504  28.425  1.00  0.00     0.338 C 
ATOM     26  O   UNL A   1      33.483  35.717  28.338  1.00  0.00    -0.246 OA
BRANCH  25  27
ATOM     27  C   UNL A   1      34.561  33.653  28.798  1.00  0.00     0.060 A 
ATOM     28  C   UNL A   1      34.353  32.363  29.281  1.00  0.00     0.016 A 
ATOM     29  C   UNL A   1      35.851  34.179  28.780  1.00  0.00     0.016 A 
ATOM     30  C   UNL A   1      35.405  31.637  29.843  1.00  0.00     0.010 A 
ATOM     31  C   UNL A   1      36.925  33.410  29.252  1.00  0.00     0.010 A 
ATOM     32  C   UNL A   1      36.710  32.148  29.835  1.00  0.00    -0.014 A 
BRANCH  32  33
ATOM     33  C   UNL A   1      37.820  31.402  30.503  1.00  0.00     0.031 A 
ATOM     34  C   UNL A   1      38.075  31.587  31.980  1.00  0.00     0.074 A 
ATOM     35  C   UNL A   1      38.583  30.524  29.819  1.00  0.00     0.049 A 
ATOM     36  N   UNL A   1      39.078  31.163  32.710  1.00  0.00    -0.248 NA
ATOM     37  C   UNL A   1      37.080  32.365  32.732  1.00  0.00     0.031 C 
ATOM     38  C   UNL A   1      38.445  30.206  28.398  1.00  0.00     0.029 A 
ATOM     39  N   UNL A   1      39.619  29.722  30.236  1.00  0.00    -0.354 N 
ATOM     40  C   UNL A   1      38.870  31.682  33.982  1.00  0.00     0.074 A 
ATOM     41  C   UNL A   1      37.644  32.448  33.929  1.00  0.00     0.031 C 
ATOM     42  C   UNL A   1      39.319  29.239  28.076  1.00  0.00     0.029 A 
ATOM     43  C   UNL A   1      40.135  28.926  29.244  1.00  0.00     0.049 A 
ATOM     44  H   UNL A   1      39.959  29.719  31.160  1.00  0.00     0.167 HD
ATOM     45  C   UNL A   1      39.630  31.536  35.094  1.00  0.00     0.037 A 
ATOM     46  C   UNL A   1      41.168  28.060  29.257  1.00  0.00     0.037 A 
ATOM     47  C   UNL A   1      40.810  30.714  35.177  1.00  0.00     0.049 A 
ATOM     48  C   UNL A   1      41.970  27.879  30.516  1.00  0.00     0.074 A 
ATOM     49  C   UNL A   1      41.656  30.520  36.257  1.00  0.00     0.029 A 
ATOM     50  N   UNL A   1      41.291  29.921  34.147  1.00  0.00    -0.354 N 
ATOM     51  N   UNL A   1      41.818  28.454  31.682  1.00  0.00    -0.248 NA
ATOM     52  C   UNL A   1      43.103  26.944  30.451  1.00  0.00     0.031 C 
ATOM     53  C   UNL A   1      42.653  29.614  35.878  1.00  0.00     0.029 A 
ATOM     54  C   UNL A   1      42.412  29.225  34.571  1.00  0.00     0.049 A 
ATOM     55  H   UNL A   1      40.894  29.861  33.249  1.00  0.00     0.167 HD
ATOM     56  C   UNL A   1      42.836  27.961  32.485  1.00  0.00     0.074 A 
ATOM     57  C   UNL A   1      43.579  27.008  31.686  1.00  0.00     0.031 C 
ATOM     58  C   UNL A   1      43.141  28.282  33.766  1.00  0.00     0.037 A 
BRANCH  45  59
ATOM     59  C   UNL A   1      39.224  32.302  36.318  1.00  0.00     0.064 A 
ATOM     60  C   UNL A   1      39.723  33.584  36.587  1.00  0.00     0.173 A 
ATOM     61  C   UNL A   1      38.290  31.758  37.212  1.00  0.00     0.173 A 
ATOM     62  F   UNL A   1      40.630  34.140  35.770  1.00  0.00    -0.203 F 
ATOM     63  C   UNL A   1      39.315  34.287  37.718  1.00  0.00     0.198 A 
ATOM     64  C   UNL A   1      37.865  32.473  38.329  1.00  0.00     0.198 A 
ATOM     65  F   UNL A   1      37.779  30.537  36.997  1.00  0.00    -0.203 F 
ATOM     66  F   UNL A   1      39.832  35.496  37.977  1.00  0.00    -0.200 F 
ATOM     67  C   UNL A   1      38.381  33.734  38.584  1.00  0.00     0.200 A 
ATOM     68  F   UNL A   1      36.955  31.942  39.157  1.00  0.00    -0.200 F 
ATOM     69  F   UNL A   1      37.983  34.416  39.666  1.00  0.00    -0.200 F 
ENDBRANCH  45  59
BRANCH  46  70
ATOM     70  C   UNL A   1      41.523  27.313  28.022  1.00  0.00     0.064 A 
ATOM     71  C   UNL A   1      42.376  27.873  27.061  1.00  0.00     0.173 A 
ATOM     72  C   UNL A   1      41.017  26.027  27.780  1.00  0.00     0.173 A 
ATOM     73  F   UNL A   1      42.860  29.111  27.235  1.00  0.00    -0.203 F 
ATOM     74  C   UNL A   1      42.702  27.177  25.899  1.00  0.00     0.198 A 
ATOM     75  C   UNL A   1      41.368  25.321  26.632  1.00  0.00     0.198 A 
ATOM     76  F   UNL A   1      40.195  25.451  28.669  1.00  0.00    -0.203 F 
ATOM     77  F   UNL A   1      43.488  27.749  24.976  1.00  0.00    -0.200 F 
ATOM     78  C   UNL A   1      42.205  25.900  25.689  1.00  0.00     0.200 A 
ATOM     79  F   UNL A   1      40.895  24.083  26.439  1.00  0.00    -0.200 F 
ATOM     80  F   UNL A   1      42.527  25.227  24.576  1.00  0.00    -0.200 F 
ENDBRANCH  46  70
BRANCH  58  81
ATOM     81  C   UNL A   1      44.321  27.593  34.379  1.00  0.00     0.064 A 
ATOM     82  C   UNL A   1      45.601  28.167  34.338  1.00  0.00     0.173 A 
ATOM     83  C   UNL A   1      44.170  26.359  35.028  1.00  0.00     0.173 A 
ATOM     84  F   UNL A   1      45.794  29.339  33.715  1.00  0.00    -0.203 F 
ATOM     85  C   UNL A   1      46.693  27.515  34.903  1.00  0.00     0.198 A 
ATOM     86  C   UNL A   1      45.262  25.720  35.610  1.00  0.00     0.198 A 
ATOM     87  F   UNL A   1      42.966  25.773  35.095  1.00  0.00    -0.203 F 
ATOM     88  F   UNL A   1      47.915  28.060  34.815  1.00  0.00    -0.200 F 
ATOM     89  C   UNL A   1      46.524  26.294  35.540  1.00  0.00     0.200 A 
ATOM     90  F   UNL A   1      45.097  24.544  36.229  1.00  0.00    -0.200 F 
ATOM     91  F   UNL A   1      47.577  25.667  36.080  1.00  0.00    -0.200 F 
ENDBRANCH  58  81
ENDBRANCH  32  33
ENDBRANCH  25  27
ENDBRANCH  24  25
ENDBRANCH  23  24
ENDBRANCH   1  23
TORSDOF 13
ENDMDL
MODEL 3
REMARK VINA RESULT:     -12.5      1.311      7.594
REMARK SMILES O=C(Nc1ccc(C(=O)OCCOC(=O)c2ccc(-c3c4nc(c(-c5c(F)c(F)c(F)c(F)c5F)c5ccc([nH]5)c(-c5c(F)c(F)c(F)c(F)c5F)c5nc(c(-c6c(F)c(F)c(F)c(F)c6F)c6ccc3[nH]6)C=C5)C=C4)cc2)cc1)c1cc(F)cc(Br)c1
REMARK SMILES IDX 11 1 10 2 8 3 9 4 7 5 4 6 5 7 80 8 6 9 79 10 3 11 1 12 2 13
REMARK SMILES IDX 81 15 82 16 88 17 83 18 86 19 84 20 85 21 87 22 12 23 13 24
REMARK SMILES IDX 14 25 15 26 16 27 17 28 78 29 18 30 77 31 19 32 20 33 21 34
REMARK SMILES IDX 71 35 22 36 76 37 70 38 72 39 23 40 75 41 69 42 68 43 24 45
REMARK SMILES IDX 56 46 36 47 55 48 37 49 40 50 54 51 73 52 38 53 39 54 53 56
REMARK SMILES IDX 74 57 41 58 25 59 26 60 34 61 27 62 28 63 32 64 35 65 29 66
REMARK SMILES IDX 30 67 33 68 31 69 57 70 58 71 66 72 59 73 60 74 64 75 67 76
REMARK SMILES IDX 61 77 62 78 65 79 63 80 42 81 43 82 51 83 44 84 45 85 49 86
REMARK SMILES IDX 52 87 46 88 47 89 50 90 48 91
REMARK H PARENT 3 14 72 44 40 55
REMARK Flexibility Score: inf
ROOT
ATOM      1  C   UNL A   1      31.030  30.826  25.382  1.00  0.00     0.275 C 
ENDROOT
BRANCH   1   2
ATOM      2  O   UNL A   1      32.176  29.996  25.098  1.00  0.00    -0.458 OA
BRANCH   2   3
ATOM      3  C   UNL A   1      31.967  29.025  24.176  1.00  0.00     0.338 C 
ATOM      4  O   UNL A   1      32.296  29.045  23.001  1.00  0.00    -0.246 OA
BRANCH   3   5
ATOM      5  C   UNL A   1      31.314  27.845  24.787  1.00  0.00     0.060 A 
ATOM      6  C   UNL A   1      30.424  25.409  25.808  1.00  0.00     0.041 A 
ATOM      7  C   UNL A   1      31.355  26.148  26.528  1.00  0.00     0.027 A 
ATOM      8  C   UNL A   1      29.837  25.949  24.655  1.00  0.00     0.027 A 
ATOM      9  C   UNL A   1      31.838  27.336  25.986  1.00  0.00     0.018 A 
ATOM     10  C   UNL A   1      30.274  27.174  24.146  1.00  0.00     0.018 A 
BRANCH   6  11
ATOM     11  N   UNL A   1      30.203  24.083  26.212  1.00  0.00    -0.322 N 
ATOM     12  O   UNL A   1      30.465  21.828  26.058  1.00  0.00    -0.269 OA
ATOM     13  C   UNL A   1      30.845  22.952  25.747  1.00  0.00     0.255 C 
ATOM     14  H   UNL A   1      29.516  23.945  26.903  1.00  0.00     0.170 HD
BRANCH  13  15
ATOM     15  C   UNL A   1      32.082  23.098  24.942  1.00  0.00     0.044 A 
ATOM     16  C   UNL A   1      32.037  23.045  23.542  1.00  0.00     0.053 A 
ATOM     17  C   UNL A   1      33.302  23.257  25.605  1.00  0.00     0.029 A 
ATOM     18  C   UNL A   1      33.224  23.064  22.825  1.00  0.00     0.125 A 
ATOM     19  C   UNL A   1      34.481  23.283  24.860  1.00  0.00     0.021 A 
ATOM     20  F   UNL A   1      33.189  22.951  21.491  1.00  0.00    -0.207 F 
ATOM     21  C   UNL A   1      34.450  23.172  23.470  1.00  0.00     0.055 A 
ATOM     22  Br  UNL A   1      36.141  23.436  25.747  1.00  0.00    -0.051 Br
ENDBRANCH  13  15
ENDBRANCH   6  11
ENDBRANCH   3   5
ENDBRANCH   2   3
ENDBRANCH   1   2
BRANCH   1  23
ATOM     23  C   UNL A   1      31.356  31.833  26.485  1.00  0.00     0.275 C 
BRANCH  23  24
ATOM     24  O   UNL A   1      32.545  31.415  27.179  1.00  0.00    -0.458 OA
BRANCH  24  25
ATOM     25  C   UNL A   1      33.374  32.403  27.588  1.00  0.00     0.338 C 
ATOM     26  O   UNL A   1      33.134  33.597  27.626  1.00  0.00    -0.246 OA
BRANCH  25  27
ATOM     27  C   UNL A   1      34.665  31.828  28.025  1.00  0.00     0.060 A 
ATOM     28  C   UNL A   1      34.791  30.456  28.227  1.00  0.00     0.016 A 
ATOM     29  C   UNL A   1      35.727  32.669  28.352  1.00  0.00     0.016 A 
ATOM     30  C   UNL A   1      35.924  29.930  28.848  1.00  0.00     0.010 A 
ATOM     31  C   UNL A   1      36.907  32.129  28.882  1.00  0.00     0.010 A 
ATOM     32  C   UNL A   1      37.004  30.758  29.184  1.00  0.00    -0.014 A 
BRANCH  32  33
ATOM     33  C   UNL A   1      38.184  30.205  29.916  1.00  0.00     0.031 A 
ATOM     34  C   UNL A   1      38.420  30.573  31.362  1.00  0.00     0.074 A 
ATOM     35  C   UNL A   1      39.033  29.340  29.321  1.00  0.00     0.049 A 
ATOM     36  N   UNL A   1      39.461  30.335  32.121  1.00  0.00    -0.248 NA
ATOM     37  C   UNL A   1      37.351  31.324  32.037  1.00  0.00     0.031 C 
ATOM     38  C   UNL A   1      38.927  28.858  27.945  1.00  0.00     0.029 A 
ATOM     39  N   UNL A   1      40.146  28.697  29.811  1.00  0.00    -0.354 N 
ATOM     40  C   UNL A   1      39.202  30.965  33.333  1.00  0.00     0.074 A 
ATOM     41  C   UNL A   1      37.904  31.592  33.212  1.00  0.00     0.031 C 
ATOM     42  C   UNL A   1      39.895  27.955  27.718  1.00  0.00     0.029 A 
ATOM     43  C   UNL A   1      40.740  27.854  28.904  1.00  0.00     0.049 A 
ATOM     44  H   UNL A   1      40.484  28.828  30.726  1.00  0.00     0.167 HD
ATOM     45  C   UNL A   1      39.973  31.017  34.445  1.00  0.00     0.037 A 
ATOM     46  C   UNL A   1      41.856  27.104  28.998  1.00  0.00     0.037 A 
ATOM     47  C   UNL A   1      41.230  30.333  34.603  1.00  0.00     0.049 A 
ATOM     48  C   UNL A   1      42.672  27.143  30.260  1.00  0.00     0.074 A 
ATOM     49  C   UNL A   1      42.092  30.343  35.687  1.00  0.00     0.029 A 
ATOM     50  N   UNL A   1      41.789  29.486  33.659  1.00  0.00    -0.354 N 
ATOM     51  N   UNL A   1      42.463  27.822  31.359  1.00  0.00    -0.248 NA
ATOM     52  C   UNL A   1      43.894  26.325  30.283  1.00  0.00     0.031 C 
ATOM     53  C   UNL A   1      43.176  29.507  35.396  1.00  0.00     0.029 A 
ATOM     54  C   UNL A   1      42.975  28.956  34.142  1.00  0.00     0.049 A 
ATOM     55  H   UNL A   1      41.401  29.289  32.777  1.00  0.00     0.167 HD
ATOM     56  C   UNL A   1      43.526  27.524  32.199  1.00  0.00     0.074 A 
ATOM     57  C   UNL A   1      44.361  26.571  31.499  1.00  0.00     0.031 C 
ATOM     58  C   UNL A   1      43.797  28.011  33.435  1.00  0.00     0.037 A 
BRANCH  45  59
ATOM     59  C   UNL A   1      39.491  31.866  35.584  1.00  0.00     0.064 A 
ATOM     60  C   UNL A   1      39.899  33.199  35.737  1.00  0.00     0.173 A 
ATOM     61  C   UNL A   1      38.577  31.346  36.513  1.00  0.00     0.173 A 
ATOM     62  F   UNL A   1      40.784  33.735  34.884  1.00  0.00    -0.203 F 
ATOM     63  C   UNL A   1      39.421  33.975  36.789  1.00  0.00     0.198 A 
ATOM     64  C   UNL A   1      38.082  32.132  37.550  1.00  0.00     0.198 A 
ATOM     65  F   UNL A   1      38.153  30.078  36.408  1.00  0.00    -0.203 F 
ATOM     66  F   UNL A   1      39.851  35.235  36.939  1.00  0.00    -0.200 F 
ATOM     67  C   UNL A   1      38.507  33.445  37.690  1.00  0.00     0.200 A 
ATOM     68  F   UNL A   1      37.192  31.621  38.412  1.00  0.00    -0.200 F 
ATOM     69  F   UNL A   1      38.043  34.197  38.697  1.00  0.00    -0.200 F 
ENDBRANCH  45  59
BRANCH  46  70
ATOM     70  C   UNL A   1      42.284  26.268  27.847  1.00  0.00     0.064 A 
ATOM     71  C   UNL A   1      41.723  25.003  27.627  1.00  0.00     0.173 A 
ATOM     72  C   UNL A   1      43.260  26.718  26.946  1.00  0.00     0.173 A 
ATOM     73  F   UNL A   1      40.808  24.519  28.478  1.00  0.00    -0.203 F 
ATOM     74  C   UNL A   1      42.130  24.214  26.553  1.00  0.00     0.198 A 
ATOM     75  C   UNL A   1      43.645  25.941  25.856  1.00  0.00     0.198 A 
ATOM     76  F   UNL A   1      43.829  27.921  27.116  1.00  0.00    -0.203 F 
ATOM     77  F   UNL A   1      41.608  22.992  26.386  1.00  0.00    -0.200 F 
ATOM     78  C   UNL A   1      43.084  24.687  25.664  1.00  0.00     0.200 A 
ATOM     79  F   UNL A   1      44.558  26.407  24.993  1.00  0.00    -0.200 F 
ATOM     80  F   UNL A   1      43.467  23.932  24.625  1.00  0.00    -0.200 F 
ENDBRANCH  46  70
BRANCH  58  81
ATOM     81  C   UNL A   1      45.041  27.515  34.105  1.00  0.00     0.064 A 
ATOM     82  C   UNL A   1      46.262  28.191  33.963  1.00  0.00     0.173 A 
ATOM     83  C   UNL A   1      45.010  26.367  34.909  1.00  0.00     0.173 A 
ATOM     84  F   UNL A   1      46.342  29.285  33.191  1.00  0.00    -0.203 F 
ATOM     85  C   UNL A   1      47.416  27.718  34.583  1.00  0.00     0.198 A 
ATOM     86  C   UNL A   1      46.162  25.909  35.544  1.00  0.00     0.198 A 
ATOM     87  F   UNL A   1      43.866  25.690  35.078  1.00  0.00    -0.203 F 
ATOM     88  F   UNL A   1      48.582  28.353  34.399  1.00  0.00    -0.200 F 
ATOM     89  C   UNL A   1      47.365  26.580  35.374  1.00  0.00     0.200 A 
ATOM     90  F   UNL A   1      46.111  24.813  36.313  1.00  0.00    -0.200 F 
ATOM     91  F   UNL A   1      48.476  26.124  35.966  1.00  0.00    -0.200 F 
ENDBRANCH  58  81
ENDBRANCH  32  33
ENDBRANCH  25  27
ENDBRANCH  24  25
ENDBRANCH  23  24
ENDBRANCH   1  23
TORSDOF 13
ENDMDL
