MODEL 1
REMARK VINA RESULT:     -12.9      0.000      0.000
REMARK SMILES CN(Cc1csc(Br)c1)c1cccc(F)c1C(=O)OCCOC(=O)c1ccc(-c2c3nc(c(-c4c(F)c(F)c(F)c(F)c4F)c4ccc([nH]4)c(-c4c(F)c(F)c(F)c(F)c4F)c4nc(c(-c5c(F)c(F)c(F)c(F)c5F)c5ccc2[nH]5)C=C4)C=C3)cc1
REMARK SMILES IDX 20 1 19 2 17 3 18 4 16 5 10 6 11 7 12 8 14 9 13 10 15 11
REMARK SMILES IDX 2 12 1 13 3 14 4 15 5 16 9 17 6 18 7 19 8 20 21 21 22 22
REMARK SMILES IDX 23 23 24 24 25 25 26 26 87 27 27 28 86 29 28 30 29 31 30 32
REMARK SMILES IDX 80 33 31 34 85 35 79 36 81 37 32 38 84 39 78 40 77 41 33 43
REMARK SMILES IDX 65 44 45 45 64 46 46 47 49 48 63 49 82 50 47 51 48 52 62 54
REMARK SMILES IDX 83 55 50 56 34 57 35 58 43 59 36 60 37 61 41 62 44 63 38 64
REMARK SMILES IDX 39 65 42 66 40 67 66 68 67 69 75 70 68 71 69 72 73 73 76 74
REMARK SMILES IDX 70 75 71 76 74 77 72 78 51 79 52 80 60 81 53 82 54 83 58 84
REMARK SMILES IDX 61 85 55 86 56 87 59 88 57 89
REMARK H PARENT 81 42 49 53
REMARK Flexibility Score: inf
ROOT
ATOM      1  C   UNL A   1      32.001  30.530  26.070  1.00  0.00     0.275 C 
ENDROOT
BRANCH   1   2
ATOM      2  O   UNL A   1      31.293  29.424  25.473  1.00  0.00    -0.458 OA
BRANCH   2   3
ATOM      3  C   UNL A   1      31.296  29.303  24.098  1.00  0.00     0.343 C 
ATOM      4  O   UNL A   1      32.298  29.235  23.408  1.00  0.00    -0.246 OA
BRANCH   3   5
ATOM      5  C   UNL A   1      29.888  29.077  23.591  1.00  0.00     0.119 A 
ATOM      6  C   UNL A   1      29.288  27.771  23.450  1.00  0.00     0.054 A 
ATOM      7  C   UNL A   1      27.902  27.777  23.103  1.00  0.00     0.027 A 
ATOM      8  C   UNL A   1      27.133  28.941  22.961  1.00  0.00     0.005 A 
ATOM      9  C   UNL A   1      29.073  30.238  23.498  1.00  0.00     0.139 A 
ATOM     10  C   UNL A   1      27.714  30.174  23.190  1.00  0.00     0.040 A 
ATOM     11  F   UNL A   1      29.570  31.454  23.779  1.00  0.00    -0.206 F 
BRANCH   6  12
ATOM     12  N   UNL A   1      29.914  26.513  23.656  1.00  0.00    -0.369 N 
ATOM     13  C   UNL A   1      29.919  26.100  25.071  1.00  0.00     0.144 C 
BRANCH  12  14
ATOM     14  C   UNL A   1      31.074  25.903  22.882  1.00  0.00     0.152 C 
BRANCH  14  15
ATOM     15  C   UNL A   1      32.082  25.009  23.573  1.00  0.00    -0.017 A 
ATOM     16  C   UNL A   1      31.862  23.238  23.516  1.00  0.00     0.071 A 
ATOM     17  C   UNL A   1      33.761  25.455  24.484  1.00  0.00     0.033 A 
ATOM     18  S   UNL A   1      33.498  22.063  24.696  1.00  0.00    -0.136 S 
ATOM     19  C   UNL A   1      34.655  24.022  25.022  1.00  0.00     0.070 A 
ATOM     20  Br  UNL A   1      36.397  23.764  25.661  1.00  0.00    -0.039 Br
ENDBRANCH  14  15
ENDBRANCH  12  14
ENDBRANCH   6  12
ENDBRANCH   3   5
ENDBRANCH   2   3
ENDBRANCH   1   2
BRANCH   1  21
ATOM     21  C   UNL A   1      31.300  31.938  26.370  1.00  0.00     0.275 C 
BRANCH  21  22
ATOM     22  O   UNL A   1      31.921  33.266  27.252  1.00  0.00    -0.458 OA
BRANCH  22  23
ATOM     23  C   UNL A   1      33.082  34.357  28.369  1.00  0.00     0.338 C 
ATOM     24  O   UNL A   1      32.815  35.477  28.905  1.00  0.00    -0.246 OA
BRANCH  23  25
ATOM     25  C   UNL A   1      34.392  33.910  29.223  1.00  0.00     0.060 A 
ATOM     26  C   UNL A   1      34.190  32.882  30.175  1.00  0.00     0.016 A 
ATOM     27  C   UNL A   1      35.681  34.446  29.112  1.00  0.00     0.016 A 
ATOM     28  C   UNL A   1      35.262  32.258  30.812  1.00  0.00     0.010 A 
ATOM     29  C   UNL A   1      36.770  33.794  29.714  1.00  0.00     0.010 A 
ATOM     30  C   UNL A   1      36.566  32.678  30.543  1.00  0.00    -0.014 A 
BRANCH  30  31
ATOM     31  C   UNL A   1      37.670  32.087  31.336  1.00  0.00     0.031 A 
ATOM     32  C   UNL A   1      38.506  31.048  30.651  1.00  0.00     0.074 A 
ATOM     33  C   UNL A   1      37.995  32.558  32.556  1.00  0.00     0.049 A 
ATOM     34  N   UNL A   1      39.557  30.406  31.080  1.00  0.00    -0.248 NA
ATOM     35  C   UNL A   1      38.108  30.704  29.274  1.00  0.00     0.031 C 
ATOM     36  C   UNL A   1      37.295  33.637  33.255  1.00  0.00     0.029 A 
ATOM     37  N   UNL A   1      39.012  32.219  33.415  1.00  0.00    -0.354 N 
ATOM     38  C   UNL A   1      39.947  29.591  30.027  1.00  0.00     0.074 A 
ATOM     39  C   UNL A   1      39.008  29.792  28.949  1.00  0.00     0.031 C 
ATOM     40  C   UNL A   1      37.920  33.890  34.419  1.00  0.00     0.029 A 
ATOM     41  C   UNL A   1      39.037  32.961  34.575  1.00  0.00     0.049 A 
ATOM     42  H   UNL A   1      39.666  31.509  33.218  1.00  0.00     0.167 HD
ATOM     43  C   UNL A   1      41.004  28.753  29.966  1.00  0.00     0.037 A 
ATOM     44  C   UNL A   1      39.864  32.879  35.640  1.00  0.00     0.037 A 
ATOM     45  C   UNL A   1      41.908  28.556  31.063  1.00  0.00     0.049 A 
ATOM     46  C   UNL A   1      40.969  31.847  35.596  1.00  0.00     0.074 A 
ATOM     47  C   UNL A   1      42.967  27.675  31.162  1.00  0.00     0.029 A 
ATOM     48  N   UNL A   1      41.845  29.257  32.262  1.00  0.00    -0.354 N 
ATOM     49  N   UNL A   1      41.301  31.037  34.616  1.00  0.00    -0.248 NA
ATOM     50  C   UNL A   1      41.803  31.702  36.797  1.00  0.00     0.031 C 
ATOM     51  C   UNL A   1      43.505  27.799  32.446  1.00  0.00     0.029 A 
ATOM     52  C   UNL A   1      42.834  28.812  33.118  1.00  0.00     0.049 A 
ATOM     53  H   UNL A   1      41.193  29.965  32.468  1.00  0.00     0.167 HD
ATOM     54  C   UNL A   1      42.390  30.306  35.069  1.00  0.00     0.074 A 
ATOM     55  C   UNL A   1      42.675  30.779  36.410  1.00  0.00     0.031 C 
ATOM     56  C   UNL A   1      43.091  29.327  34.442  1.00  0.00     0.037 A 
BRANCH  43  57
ATOM     57  C   UNL A   1      41.175  27.954  28.708  1.00  0.00     0.064 A 
ATOM     58  C   UNL A   1      40.432  26.780  28.511  1.00  0.00     0.173 A 
ATOM     59  C   UNL A   1      42.042  28.359  27.682  1.00  0.00     0.173 A 
ATOM     60  F   UNL A   1      39.575  26.357  29.453  1.00  0.00    -0.203 F 
ATOM     61  C   UNL A   1      40.554  26.042  27.339  1.00  0.00     0.198 A 
ATOM     62  C   UNL A   1      42.138  27.634  26.496  1.00  0.00     0.198 A 
ATOM     63  F   UNL A   1      42.749  29.494  27.803  1.00  0.00    -0.203 F 
ATOM     64  F   UNL A   1      39.840  24.918  27.180  1.00  0.00    -0.200 F 
ATOM     65  C   UNL A   1      41.400  26.473  26.328  1.00  0.00     0.200 A 
ATOM     66  F   UNL A   1      42.924  28.076  25.504  1.00  0.00    -0.200 F 
ATOM     67  F   UNL A   1      41.492  25.776  25.187  1.00  0.00    -0.200 F 
ENDBRANCH  43  57
BRANCH  44  68
ATOM     68  C   UNL A   1      39.676  33.763  36.831  1.00  0.00     0.064 A 
ATOM     69  C   UNL A   1      40.285  35.026  36.905  1.00  0.00     0.173 A 
ATOM     70  C   UNL A   1      38.876  33.377  37.920  1.00  0.00     0.173 A 
ATOM     71  F   UNL A   1      41.050  35.462  35.893  1.00  0.00    -0.203 F 
ATOM     72  C   UNL A   1      40.127  35.849  38.021  1.00  0.00     0.198 A 
ATOM     73  C   UNL A   1      38.694  34.215  39.023  1.00  0.00     0.198 A 
ATOM     74  F   UNL A   1      38.241  32.195  37.898  1.00  0.00    -0.203 F 
ATOM     75  F   UNL A   1      40.753  37.034  38.070  1.00  0.00    -0.200 F 
ATOM     76  C   UNL A   1      39.327  35.446  39.077  1.00  0.00     0.200 A 
ATOM     77  F   UNL A   1      37.895  33.832  40.028  1.00  0.00    -0.200 F 
ATOM     78  F   UNL A   1      39.164  36.244  40.141  1.00  0.00    -0.200 F 
ENDBRANCH  44  68
BRANCH  56  79
ATOM     79  C   UNL A   1      44.253  28.724  35.174  1.00  0.00     0.064 A 
ATOM     80  C   UNL A   1      44.042  27.659  36.066  1.00  0.00     0.173 A 
ATOM     81  C   UNL A   1      45.539  29.273  35.092  1.00  0.00     0.173 A 
ATOM     82  F   UNL A   1      42.824  27.111  36.189  1.00  0.00    -0.203 F 
ATOM     83  C   UNL A   1      45.072  27.189  36.871  1.00  0.00     0.198 A 
ATOM     84  C   UNL A   1      46.576  28.773  35.872  1.00  0.00     0.198 A 
ATOM     85  F   UNL A   1      45.789  30.285  34.248  1.00  0.00    -0.203 F 
ATOM     86  F   UNL A   1      44.834  26.214  37.760  1.00  0.00    -0.200 F 
ATOM     87  C   UNL A   1      46.340  27.744  36.772  1.00  0.00     0.200 A 
ATOM     88  F   UNL A   1      47.807  29.293  35.759  1.00  0.00    -0.200 F 
ATOM     89  F   UNL A   1      47.333  27.289  37.547  1.00  0.00    -0.200 F 
ENDBRANCH  56  79
ENDBRANCH  30  31
ENDBRANCH  23  25
ENDBRANCH  22  23
ENDBRANCH  21  22
ENDBRANCH   1  21
TORSDOF 14
ENDMDL
MODEL 2
REMARK VINA RESULT:     -12.9      1.044      7.610
REMARK SMILES CN(Cc1csc(Br)c1)c1cccc(F)c1C(=O)OCCOC(=O)c1ccc(-c2c3nc(c(-c4c(F)c(F)c(F)c(F)c4F)c4ccc([nH]4)c(-c4c(F)c(F)c(F)c(F)c4F)c4nc(c(-c5c(F)c(F)c(F)c(F)c5F)c5ccc2[nH]5)C=C4)C=C3)cc1
REMARK SMILES IDX 20 1 19 2 17 3 18 4 16 5 10 6 11 7 12 8 14 9 13 10 15 11
REMARK SMILES IDX 2 12 1 13 3 14 4 15 5 16 9 17 6 18 7 19 8 20 21 21 22 22
REMARK SMILES IDX 23 23 24 24 25 25 26 26 87 27 27 28 86 29 28 30 29 31 30 32
REMARK SMILES IDX 80 33 31 34 85 35 79 36 81 37 32 38 84 39 78 40 77 41 33 43
REMARK SMILES IDX 65 44 45 45 64 46 46 47 49 48 63 49 82 50 47 51 48 52 62 54
REMARK SMILES IDX 83 55 50 56 34 57 35 58 43 59 36 60 37 61 41 62 44 63 38 64
REMARK SMILES IDX 39 65 42 66 40 67 66 68 67 69 75 70 68 71 69 72 73 73 76 74
REMARK SMILES IDX 70 75 71 76 74 77 72 78 51 79 52 80 60 81 53 82 54 83 58 84
REMARK SMILES IDX 61 85 55 86 56 87 59 88 57 89
REMARK H PARENT 81 42 49 53
REMARK Flexibility Score: inf
ROOT
ATOM      1  C   UNL A   1      32.045  30.567  25.981  1.00  0.00     0.275 C 
ENDROOT
BRANCH   1   2
ATOM      2  O   UNL A   1      31.217  29.512  25.449  1.00  0.00    -0.458 OA
BRANCH   2   3
ATOM      3  C   UNL A   1      31.220  29.295  24.086  1.00  0.00     0.343 C 
ATOM      4  O   UNL A   1      32.220  29.148  23.407  1.00  0.00    -0.246 OA
BRANCH   3   5
ATOM      5  C   UNL A   1      29.806  29.075  23.591  1.00  0.00     0.119 A 
ATOM      6  C   UNL A   1      29.195  27.773  23.463  1.00  0.00     0.054 A 
ATOM      7  C   UNL A   1      27.807  27.787  23.126  1.00  0.00     0.027 A 
ATOM      8  C   UNL A   1      27.046  28.956  22.981  1.00  0.00     0.005 A 
ATOM      9  C   UNL A   1      28.999  30.242  23.495  1.00  0.00     0.139 A 
ATOM     10  C   UNL A   1      27.637  30.186  23.197  1.00  0.00     0.040 A 
ATOM     11  F   UNL A   1      29.507  31.456  23.764  1.00  0.00    -0.206 F 
BRANCH   6  12
ATOM     12  N   UNL A   1      29.813  26.512  23.674  1.00  0.00    -0.369 N 
ATOM     13  C   UNL A   1      29.866  26.129  25.096  1.00  0.00     0.144 C 
BRANCH  12  14
ATOM     14  C   UNL A   1      30.936  25.870  22.872  1.00  0.00     0.152 C 
BRANCH  14  15
ATOM     15  C   UNL A   1      31.961  24.983  23.545  1.00  0.00    -0.017 A 
ATOM     16  C   UNL A   1      31.680  23.220  23.612  1.00  0.00     0.071 A 
ATOM     17  C   UNL A   1      33.714  25.419  24.310  1.00  0.00     0.033 A 
ATOM     18  S   UNL A   1      33.356  22.057  24.747  1.00  0.00    -0.136 S 
ATOM     19  C   UNL A   1      34.596  23.989  24.873  1.00  0.00     0.070 A 
ATOM     20  Br  UNL A   1      36.370  23.705  25.406  1.00  0.00    -0.039 Br
ENDBRANCH  14  15
ENDBRANCH  12  14
ENDBRANCH   6  12
ENDBRANCH   3   5
ENDBRANCH   2   3
ENDBRANCH   1   2
BRANCH   1  21
ATOM     21  C   UNL A   1      31.443  31.970  26.466  1.00  0.00     0.275 C 
BRANCH  21  22
ATOM     22  O   UNL A   1      32.208  33.191  27.388  1.00  0.00    -0.458 OA
BRANCH  22  23
ATOM     23  C   UNL A   1      33.511  34.125  28.490  1.00  0.00     0.338 C 
ATOM     24  O   UNL A   1      33.337  35.184  29.170  1.00  0.00    -0.246 OA
BRANCH  23  25
ATOM     25  C   UNL A   1      34.886  33.558  29.149  1.00  0.00     0.060 A 
ATOM     26  C   UNL A   1      34.768  32.360  29.892  1.00  0.00     0.016 A 
ATOM     27  C   UNL A   1      36.155  34.143  29.058  1.00  0.00     0.016 A 
ATOM     28  C   UNL A   1      35.893  31.655  30.320  1.00  0.00     0.010 A 
ATOM     29  C   UNL A   1      37.294  33.418  29.445  1.00  0.00     0.010 A 
ATOM     30  C   UNL A   1      37.168  32.157  30.051  1.00  0.00    -0.014 A 
BRANCH  30  31
ATOM     31  C   UNL A   1      38.335  31.455  30.636  1.00  0.00     0.031 A 
ATOM     32  C   UNL A   1      38.618  31.718  32.084  1.00  0.00     0.074 A 
ATOM     33  C   UNL A   1      39.019  30.522  29.943  1.00  0.00     0.049 A 
ATOM     34  N   UNL A   1      39.533  31.208  32.862  1.00  0.00    -0.248 NA
ATOM     35  C   UNL A   1      37.722  32.678  32.753  1.00  0.00     0.031 C 
ATOM     36  C   UNL A   1      38.745  30.134  28.559  1.00  0.00     0.029 A 
ATOM     37  N   UNL A   1      40.062  29.708  30.312  1.00  0.00    -0.354 N 
ATOM     38  C   UNL A   1      39.317  31.780  34.108  1.00  0.00     0.074 A 
ATOM     39  C   UNL A   1      38.210  32.696  33.982  1.00  0.00     0.031 C 
ATOM     40  C   UNL A   1      39.577  29.137  28.207  1.00  0.00     0.029 A 
ATOM     41  C   UNL A   1      40.478  28.846  29.320  1.00  0.00     0.049 A 
ATOM     42  H   UNL A   1      40.475  29.736  31.205  1.00  0.00     0.167 HD
ATOM     43  C   UNL A   1      39.986  31.551  35.259  1.00  0.00     0.037 A 
ATOM     44  C   UNL A   1      41.481  27.942  29.320  1.00  0.00     0.037 A 
ATOM     45  C   UNL A   1      41.099  30.649  35.349  1.00  0.00     0.049 A 
ATOM     46  C   UNL A   1      42.293  27.791  30.588  1.00  0.00     0.074 A 
ATOM     47  C   UNL A   1      41.916  30.391  36.432  1.00  0.00     0.029 A 
ATOM     48  N   UNL A   1      41.554  29.863  34.297  1.00  0.00    -0.354 N 
ATOM     49  N   UNL A   1      42.119  28.376  31.752  1.00  0.00    -0.248 NA
ATOM     50  C   UNL A   1      43.439  26.873  30.547  1.00  0.00     0.031 C 
ATOM     51  C   UNL A   1      42.904  29.495  36.016  1.00  0.00     0.029 A 
ATOM     52  C   UNL A   1      42.657  29.134  34.698  1.00  0.00     0.049 A 
ATOM     53  H   UNL A   1      41.150  29.831  33.400  1.00  0.00     0.167 HD
ATOM     54  C   UNL A   1      43.115  27.885  32.585  1.00  0.00     0.074 A 
ATOM     55  C   UNL A   1      43.882  26.940  31.797  1.00  0.00     0.031 C 
ATOM     56  C   UNL A   1      43.380  28.189  33.881  1.00  0.00     0.037 A 
BRANCH  43  57
ATOM     57  C   UNL A   1      39.567  32.339  36.465  1.00  0.00     0.064 A 
ATOM     58  C   UNL A   1      40.242  33.521  36.804  1.00  0.00     0.173 A 
ATOM     59  C   UNL A   1      38.481  31.952  37.265  1.00  0.00     0.173 A 
ATOM     60  F   UNL A   1      41.277  33.944  36.062  1.00  0.00    -0.203 F 
ATOM     61  C   UNL A   1      39.850  34.281  37.900  1.00  0.00     0.198 A 
ATOM     62  C   UNL A   1      38.071  32.733  38.344  1.00  0.00     0.198 A 
ATOM     63  F   UNL A   1      37.778  30.850  36.963  1.00  0.00    -0.203 F 
ATOM     64  F   UNL A   1      40.519  35.401  38.210  1.00  0.00    -0.200 F 
ATOM     65  C   UNL A   1      38.761  33.893  38.665  1.00  0.00     0.200 A 
ATOM     66  F   UNL A   1      36.992  32.379  39.055  1.00  0.00    -0.200 F 
ATOM     67  F   UNL A   1      38.365  34.644  39.702  1.00  0.00    -0.200 F 
ENDBRANCH  43  57
BRANCH  44  68
ATOM     68  C   UNL A   1      41.793  27.138  28.100  1.00  0.00     0.064 A 
ATOM     69  C   UNL A   1      41.177  25.897  27.868  1.00  0.00     0.173 A 
ATOM     70  C   UNL A   1      42.702  27.589  27.128  1.00  0.00     0.173 A 
ATOM     71  F   UNL A   1      40.288  25.414  28.748  1.00  0.00    -0.203 F 
ATOM     72  C   UNL A   1      41.476  25.132  26.738  1.00  0.00     0.198 A 
ATOM     73  C   UNL A   1      42.977  26.837  25.983  1.00  0.00     0.198 A 
ATOM     74  F   UNL A   1      43.301  28.780  27.274  1.00  0.00    -0.203 F 
ATOM     75  F   UNL A   1      40.894  23.937  26.569  1.00  0.00    -0.200 F 
ATOM     76  C   UNL A   1      42.372  25.605  25.794  1.00  0.00     0.200 A 
ATOM     77  F   UNL A   1      43.822  27.312  25.058  1.00  0.00    -0.200 F 
ATOM     78  F   UNL A   1      42.646  24.877  24.703  1.00  0.00    -0.200 F 
ENDBRANCH  44  68
BRANCH  56  79
ATOM     79  C   UNL A   1      44.519  27.473  34.545  1.00  0.00     0.064 A 
ATOM     80  C   UNL A   1      44.285  26.270  35.232  1.00  0.00     0.173 A 
ATOM     81  C   UNL A   1      45.800  28.035  34.612  1.00  0.00     0.173 A 
ATOM     82  F   UNL A   1      43.070  25.703  35.208  1.00  0.00    -0.203 F 
ATOM     83  C   UNL A   1      45.288  25.673  35.986  1.00  0.00     0.198 A 
ATOM     84  C   UNL A   1      46.812  27.413  35.338  1.00  0.00     0.198 A 
ATOM     85  F   UNL A   1      46.072  29.179  33.966  1.00  0.00    -0.203 F 
ATOM     86  F   UNL A   1      45.026  24.558  36.682  1.00  0.00    -0.200 F 
ATOM     87  C   UNL A   1      46.551  26.244  36.036  1.00  0.00     0.200 A 
ATOM     88  F   UNL A   1      48.039  27.952  35.367  1.00  0.00    -0.200 F 
ATOM     89  F   UNL A   1      47.519  25.666  36.762  1.00  0.00    -0.200 F 
ENDBRANCH  56  79
ENDBRANCH  30  31
ENDBRANCH  23  25
ENDBRANCH  22  23
ENDBRANCH  21  22
ENDBRANCH   1  21
TORSDOF 14
ENDMDL
MODEL 3
REMARK VINA RESULT:     -12.8      1.567      7.705
REMARK SMILES CN(Cc1csc(Br)c1)c1cccc(F)c1C(=O)OCCOC(=O)c1ccc(-c2c3nc(c(-c4c(F)c(F)c(F)c(F)c4F)c4ccc([nH]4)c(-c4c(F)c(F)c(F)c(F)c4F)c4nc(c(-c5c(F)c(F)c(F)c(F)c5F)c5ccc2[nH]5)C=C4)C=C3)cc1
REMARK SMILES IDX 20 1 19 2 17 3 18 4 16 5 10 6 11 7 12 8 14 9 13 10 15 11
REMARK SMILES IDX 2 12 1 13 3 14 4 15 5 16 9 17 6 18 7 19 8 20 21 21 22 22
REMARK SMILES IDX 23 23 24 24 25 25 26 26 87 27 27 28 86 29 28 30 29 31 30 32
REMARK SMILES IDX 80 33 31 34 85 35 79 36 81 37 32 38 84 39 78 40 77 41 33 43
REMARK SMILES IDX 65 44 45 45 64 46 46 47 49 48 63 49 82 50 47 51 48 52 62 54
REMARK SMILES IDX 83 55 50 56 34 57 35 58 43 59 36 60 37 61 41 62 44 63 38 64
REMARK SMILES IDX 39 65 42 66 40 67 66 68 67 69 75 70 68 71 69 72 73 73 76 74
REMARK SMILES IDX 70 75 71 76 74 77 72 78 51 79 52 80 60 81 53 82 54 83 58 84
REMARK SMILES IDX 61 85 55 86 56 87 59 88 57 89
REMARK H PARENT 81 42 49 53
REMARK Flexibility Score: inf
ROOT
ATOM      1  C   UNL A   1      31.425  30.202  26.242  1.00  0.00     0.275 C 
ENDROOT
BRANCH   1   2
ATOM      2  O   UNL A   1      31.762  29.396  25.093  1.00  0.00    -0.458 OA
BRANCH   2   3
ATOM      3  C   UNL A   1      32.718  28.410  25.236  1.00  0.00     0.343 C 
ATOM      4  O   UNL A   1      33.313  28.163  26.269  1.00  0.00    -0.246 OA
BRANCH   3   5
ATOM      5  C   UNL A   1      32.780  27.561  23.984  1.00  0.00     0.119 A 
ATOM      6  C   UNL A   1      31.899  26.446  23.728  1.00  0.00     0.054 A 
ATOM      7  C   UNL A   1      32.016  25.870  22.425  1.00  0.00     0.027 A 
ATOM      8  C   UNL A   1      32.867  26.359  21.424  1.00  0.00     0.005 A 
ATOM      9  C   UNL A   1      33.590  28.071  22.933  1.00  0.00     0.139 A 
ATOM     10  C   UNL A   1      33.633  27.482  21.669  1.00  0.00     0.040 A 
ATOM     11  F   UNL A   1      34.300  29.200  23.096  1.00  0.00    -0.206 F 
BRANCH   6  12
ATOM     12  N   UNL A   1      30.924  25.905  24.606  1.00  0.00    -0.369 N 
ATOM     13  C   UNL A   1      29.632  26.613  24.537  1.00  0.00     0.144 C 
BRANCH  12  14
ATOM     14  C   UNL A   1      31.141  25.253  25.964  1.00  0.00     0.152 C 
BRANCH  14  15
ATOM     15  C   UNL A   1      32.368  24.409  26.233  1.00  0.00    -0.017 A 
ATOM     16  C   UNL A   1      32.197  22.885  27.149  1.00  0.00     0.071 A 
ATOM     17  C   UNL A   1      34.220  24.630  25.626  1.00  0.00     0.033 A 
ATOM     18  S   UNL A   1      34.224  21.780  27.495  1.00  0.00    -0.136 S 
ATOM     19  C   UNL A   1      35.271  23.289  26.112  1.00  0.00     0.070 A 
ATOM     20  Br  UNL A   1      37.002  22.771  25.615  1.00  0.00    -0.039 Br
ENDBRANCH  14  15
ENDBRANCH  12  14
ENDBRANCH   6  12
ENDBRANCH   3   5
ENDBRANCH   2   3
ENDBRANCH   1   2
BRANCH   1  21
ATOM     21  C   UNL A   1      31.195  31.784  26.144  1.00  0.00     0.275 C 
BRANCH  21  22
ATOM     22  O   UNL A   1      31.915  33.021  27.081  1.00  0.00    -0.458 OA
BRANCH  22  23
ATOM     23  C   UNL A   1      33.201  34.007  28.156  1.00  0.00     0.338 C 
ATOM     24  O   UNL A   1      33.010  35.083  28.803  1.00  0.00    -0.246 OA
BRANCH  23  25
ATOM     25  C   UNL A   1      34.582  33.480  28.836  1.00  0.00     0.060 A 
ATOM     26  C   UNL A   1      34.488  32.278  29.577  1.00  0.00     0.016 A 
ATOM     27  C   UNL A   1      35.835  34.101  28.764  1.00  0.00     0.016 A 
ATOM     28  C   UNL A   1      35.626  31.606  30.022  1.00  0.00     0.010 A 
ATOM     29  C   UNL A   1      36.989  33.409  29.168  1.00  0.00     0.010 A 
ATOM     30  C   UNL A   1      36.890  32.144  29.772  1.00  0.00    -0.014 A 
BRANCH  30  31
ATOM     31  C   UNL A   1      38.068  31.477  30.374  1.00  0.00     0.031 A 
ATOM     32  C   UNL A   1      38.339  31.770  31.819  1.00  0.00     0.074 A 
ATOM     33  C   UNL A   1      38.775  30.547  29.701  1.00  0.00     0.049 A 
ATOM     34  N   UNL A   1      39.260  31.292  32.610  1.00  0.00    -0.248 NA
ATOM     35  C   UNL A   1      37.420  32.723  32.468  1.00  0.00     0.031 C 
ATOM     36  C   UNL A   1      38.515  30.129  28.323  1.00  0.00     0.029 A 
ATOM     37  N   UNL A   1      39.832  29.759  30.088  1.00  0.00    -0.354 N 
ATOM     38  C   UNL A   1      39.026  31.880  33.845  1.00  0.00     0.074 A 
ATOM     39  C   UNL A   1      37.901  32.772  33.698  1.00  0.00     0.031 C 
ATOM     40  C   UNL A   1      39.370  29.143  27.991  1.00  0.00     0.029 A 
ATOM     41  C   UNL A   1      40.270  28.890  29.114  1.00  0.00     0.049 A 
ATOM     42  H   UNL A   1      40.240  29.811  30.983  1.00  0.00     0.167 HD
ATOM     43  C   UNL A   1      39.693  31.684  35.003  1.00  0.00     0.037 A 
ATOM     44  C   UNL A   1      41.291  28.006  29.134  1.00  0.00     0.037 A 
ATOM     45  C   UNL A   1      40.824  30.808  35.114  1.00  0.00     0.049 A 
ATOM     46  C   UNL A   1      42.099  27.894  30.408  1.00  0.00     0.074 A 
ATOM     47  C   UNL A   1      41.640  30.584  36.204  1.00  0.00     0.029 A 
ATOM     48  N   UNL A   1      41.300  30.013  34.077  1.00  0.00    -0.354 N 
ATOM     49  N   UNL A   1      41.908  28.494  31.560  1.00  0.00    -0.248 NA
ATOM     50  C   UNL A   1      43.265  26.999  30.388  1.00  0.00     0.031 C 
ATOM     51  C   UNL A   1      42.649  29.702  35.809  1.00  0.00     0.029 A 
ATOM     52  C   UNL A   1      42.415  29.313  34.496  1.00  0.00     0.049 A 
ATOM     53  H   UNL A   1      40.901  29.958  33.179  1.00  0.00     0.167 HD
ATOM     54  C   UNL A   1      42.909  28.038  32.407  1.00  0.00     0.074 A 
ATOM     55  C   UNL A   1      43.699  27.095  31.639  1.00  0.00     0.031 C 
ATOM     56  C   UNL A   1      43.161  28.369  33.698  1.00  0.00     0.037 A 
BRANCH  43  57
ATOM     57  C   UNL A   1      39.252  32.484  36.193  1.00  0.00     0.064 A 
ATOM     58  C   UNL A   1      38.325  31.948  37.099  1.00  0.00     0.173 A 
ATOM     59  C   UNL A   1      39.767  33.762  36.461  1.00  0.00     0.173 A 
ATOM     60  F   UNL A   1      37.816  30.723  36.899  1.00  0.00    -0.203 F 
ATOM     61  C   UNL A   1      37.927  32.662  38.225  1.00  0.00     0.198 A 
ATOM     62  C   UNL A   1      39.389  34.461  37.606  1.00  0.00     0.198 A 
ATOM     63  F   UNL A   1      40.684  34.306  35.646  1.00  0.00    -0.203 F 
ATOM     64  F   UNL A   1      37.032  32.131  39.070  1.00  0.00    -0.200 F 
ATOM     65  C   UNL A   1      38.465  33.913  38.483  1.00  0.00     0.200 A 
ATOM     66  F   UNL A   1      39.943  35.652  37.875  1.00  0.00    -0.200 F 
ATOM     67  F   UNL A   1      38.103  34.586  39.584  1.00  0.00    -0.200 F 
ENDBRANCH  43  57
BRANCH  44  68
ATOM     68  C   UNL A   1      41.625  27.188  27.929  1.00  0.00     0.064 A 
ATOM     69  C   UNL A   1      41.100  25.897  27.756  1.00  0.00     0.173 A 
ATOM     70  C   UNL A   1      42.466  27.674  26.914  1.00  0.00     0.173 A 
ATOM     71  F   UNL A   1      40.279  25.378  28.680  1.00  0.00    -0.203 F 
ATOM     72  C   UNL A   1      41.421  25.120  26.641  1.00  0.00     0.198 A 
ATOM     73  C   UNL A   1      42.762  26.908  25.784  1.00  0.00     0.198 A 
ATOM     74  F   UNL A   1      42.976  28.912  27.003  1.00  0.00    -0.203 F 
ATOM     75  F   UNL A   1      40.928  23.879  26.529  1.00  0.00    -0.200 F 
ATOM     76  C   UNL A   1      42.248  25.628  25.653  1.00  0.00     0.200 A 
ATOM     77  F   UNL A   1      43.538  27.415  24.816  1.00  0.00    -0.200 F 
ATOM     78  F   UNL A   1      42.543  24.887  24.576  1.00  0.00    -0.200 F 
ENDBRANCH  44  68
BRANCH  56  79
ATOM     79  C   UNL A   1      44.311  27.689  34.380  1.00  0.00     0.064 A 
ATOM     80  C   UNL A   1      44.101  26.485  35.074  1.00  0.00     0.173 A 
ATOM     81  C   UNL A   1      45.577  28.283  34.456  1.00  0.00     0.173 A 
ATOM     82  F   UNL A   1      42.901  25.887  35.042  1.00  0.00    -0.203 F 
ATOM     83  C   UNL A   1      45.111  25.920  35.843  1.00  0.00     0.198 A 
ATOM     84  C   UNL A   1      46.596  27.693  35.197  1.00  0.00     0.198 A 
ATOM     85  F   UNL A   1      45.826  29.429  33.804  1.00  0.00    -0.203 F 
ATOM     86  F   UNL A   1      44.871  24.804  36.546  1.00  0.00    -0.200 F 
ATOM     87  C   UNL A   1      46.359  26.523  35.902  1.00  0.00     0.200 A 
ATOM     88  F   UNL A   1      47.809  28.264  35.235  1.00  0.00    -0.200 F 
ATOM     89  F   UNL A   1      47.333  25.976  36.643  1.00  0.00    -0.200 F 
ENDBRANCH  56  79
ENDBRANCH  30  31
ENDBRANCH  23  25
ENDBRANCH  22  23
ENDBRANCH  21  22
ENDBRANCH   1  21
TORSDOF 14
ENDMDL
