MODEL 1
REMARK VINA RESULT:     -12.3      0.000      0.000
REMARK SMILES CC(C)=CCc1cccc2c(C(=O)OCCOC(=O)c3ccc(-c4c5nc(c(-c6c(F)c(F)c(F)c(F)c6F)c6ccc([nH]6)c(-c6c(F)c(F)c(F)c(F)c6F)c6nc(c(-c7c(F)c(F)c(F)c(F)c7F)c7ccc4[nH]7)C=C6)C=C5)cc3)c[nH]c12
REMARK SMILES IDX 15 1 14 2 12 3 13 4 11 5 6 6 7 7 85 8 8 9 10 10 84 11 9 12
REMARK SMILES IDX 83 13 5 15 4 16 1 17 2 18 3 19 16 20 17 21 18 22 19 23 20 24
REMARK SMILES IDX 21 25 82 26 22 27 81 28 23 29 24 30 25 31 75 32 26 33 80 34
REMARK SMILES IDX 74 35 76 36 27 37 79 38 73 39 72 40 28 42 60 43 40 44 59 45
REMARK SMILES IDX 41 46 44 47 58 48 77 49 42 50 43 51 57 53 78 54 45 55 29 56
REMARK SMILES IDX 30 57 38 58 31 59 32 60 36 61 39 62 33 63 34 64 37 65 35 66
REMARK SMILES IDX 61 67 62 68 70 69 63 70 64 71 68 72 71 73 65 74 66 75 69 76
REMARK SMILES IDX 67 77 46 78 47 79 55 80 48 81 49 82 53 83 56 84 50 85 51 86
REMARK SMILES IDX 54 87 52 88
REMARK H PARENT 84 14 76 41 44 52
REMARK Flexibility Score: inf
ROOT
ATOM      1  C   UNL A   1      31.003  29.755  24.385  1.00  0.00     0.275 C 
ENDROOT
BRANCH   1   2
ATOM      2  O   UNL A   1      31.816  29.133  23.370  1.00  0.00    -0.458 OA
BRANCH   2   3
ATOM      3  C   UNL A   1      31.229  28.123  22.662  1.00  0.00     0.340 C 
ATOM      4  O   UNL A   1      30.208  28.252  22.000  1.00  0.00    -0.246 OA
BRANCH   3   5
ATOM      5  C   UNL A   1      31.992  26.877  22.689  1.00  0.00     0.085 A 
ATOM      6  C   UNL A   1      34.196  24.284  24.009  1.00  0.00    -0.020 A 
ATOM      7  C   UNL A   1      34.522  24.761  25.295  1.00  0.00     0.006 A 
ATOM      8  C   UNL A   1      33.354  25.121  23.250  1.00  0.00     0.050 A 
ATOM      9  C   UNL A   1      34.037  25.972  25.784  1.00  0.00     0.001 A 
ATOM     10  C   UNL A   1      32.851  26.346  23.707  1.00  0.00     0.014 A 
ATOM     11  N   UNL A   1      32.859  24.943  21.979  1.00  0.00    -0.360 N 
ATOM     12  C   UNL A   1      33.211  26.777  24.999  1.00  0.00     0.011 A 
ATOM     13  C   UNL A   1      31.962  25.926  21.682  1.00  0.00     0.099 A 
ATOM     14  H   UNL A   1      33.117  24.212  21.372  1.00  0.00     0.166 HD
BRANCH   6  15
ATOM     15  C   UNL A   1      34.742  22.965  23.501  1.00  0.00     0.065 C 
BRANCH  15  16
ATOM     16  C   UNL A   1      34.161  21.766  24.198  1.00  0.00    -0.024 C 
ATOM     17  C   UNL A   1      32.152  21.438  22.724  1.00  0.00     0.039 C 
ATOM     18  C   UNL A   1      33.041  21.086  23.882  1.00  0.00    -0.080 C 
ATOM     19  C   UNL A   1      32.621  19.924  24.742  1.00  0.00     0.039 C 
ENDBRANCH  15  16
ENDBRANCH   6  15
ENDBRANCH   3   5
ENDBRANCH   2   3
ENDBRANCH   1   2
BRANCH   1  20
ATOM     20  C   UNL A   1      31.650  29.665  25.769  1.00  0.00     0.275 C 
BRANCH  20  21
ATOM     21  O   UNL A   1      32.947  30.290  25.778  1.00  0.00    -0.458 OA
BRANCH  21  22
ATOM     22  C   UNL A   1      33.173  31.138  26.804  1.00  0.00     0.338 C 
ATOM     23  O   UNL A   1      32.393  31.934  27.301  1.00  0.00    -0.246 OA
BRANCH  22  24
ATOM     24  C   UNL A   1      34.511  30.903  27.361  1.00  0.00     0.060 A 
ATOM     25  C   UNL A   1      34.833  29.599  27.718  1.00  0.00     0.016 A 
ATOM     26  C   UNL A   1      35.373  31.948  27.681  1.00  0.00     0.016 A 
ATOM     27  C   UNL A   1      35.977  29.323  28.453  1.00  0.00     0.010 A 
ATOM     28  C   UNL A   1      36.565  31.663  28.362  1.00  0.00     0.010 A 
ATOM     29  C   UNL A   1      36.865  30.351  28.781  1.00  0.00    -0.014 A 
BRANCH  29  30
ATOM     30  C   UNL A   1      38.066  30.051  29.605  1.00  0.00     0.031 A 
ATOM     31  C   UNL A   1      39.149  29.161  29.060  1.00  0.00     0.074 A 
ATOM     32  C   UNL A   1      38.207  30.603  30.827  1.00  0.00     0.049 A 
ATOM     33  N   UNL A   1      40.194  28.655  29.667  1.00  0.00    -0.248 NA
ATOM     34  C   UNL A   1      39.038  28.784  27.643  1.00  0.00     0.031 C 
ATOM     35  C   UNL A   1      37.269  31.540  31.448  1.00  0.00     0.029 A 
ATOM     36  N   UNL A   1      39.197  30.457  31.769  1.00  0.00    -0.354 N 
ATOM     37  C   UNL A   1      40.834  27.863  28.722  1.00  0.00     0.074 A 
ATOM     38  C   UNL A   1      40.056  27.946  27.505  1.00  0.00     0.031 C 
ATOM     39  C   UNL A   1      37.735  31.899  32.653  1.00  0.00     0.029 A 
ATOM     40  C   UNL A   1      38.956  31.152  32.929  1.00  0.00     0.049 A 
ATOM     41  H   UNL A   1      40.002  29.909  31.625  1.00  0.00     0.167 HD
ATOM     42  C   UNL A   1      41.967  27.134  28.862  1.00  0.00     0.037 A 
ATOM     43  C   UNL A   1      39.615  31.148  34.105  1.00  0.00     0.037 A 
ATOM     44  C   UNL A   1      42.756  27.089  30.067  1.00  0.00     0.049 A 
ATOM     45  C   UNL A   1      40.829  30.274  34.257  1.00  0.00     0.074 A 
ATOM     46  C   UNL A   1      43.929  26.395  30.306  1.00  0.00     0.029 A 
ATOM     47  N   UNL A   1      42.452  27.773  31.237  1.00  0.00    -0.354 N 
ATOM     48  N   UNL A   1      41.410  29.501  33.373  1.00  0.00    -0.248 NA
ATOM     49  C   UNL A   1      41.473  30.263  35.578  1.00  0.00     0.031 C 
ATOM     50  C   UNL A   1      44.304  26.613  31.636  1.00  0.00     0.029 A 
ATOM     51  C   UNL A   1      43.400  27.493  32.208  1.00  0.00     0.049 A 
ATOM     52  H   UNL A   1      41.677  28.367  31.358  1.00  0.00     0.167 HD
ATOM     53  C   UNL A   1      42.496  28.927  34.020  1.00  0.00     0.074 A 
ATOM     54  C   UNL A   1      42.506  29.461  35.367  1.00  0.00     0.031 C 
ATOM     55  C   UNL A   1      43.400  28.038  33.543  1.00  0.00     0.037 A 
BRANCH  42  56
ATOM     56  C   UNL A   1      42.402  26.290  27.697  1.00  0.00     0.064 A 
ATOM     57  C   UNL A   1      43.365  26.727  26.776  1.00  0.00     0.173 A 
ATOM     58  C   UNL A   1      41.865  25.005  27.520  1.00  0.00     0.173 A 
ATOM     59  F   UNL A   1      43.904  27.951  26.890  1.00  0.00    -0.203 F 
ATOM     60  C   UNL A   1      43.749  25.923  25.704  1.00  0.00     0.198 A 
ATOM     61  C   UNL A   1      42.275  24.192  26.467  1.00  0.00     0.198 A 
ATOM     62  F   UNL A   1      40.945  24.533  28.375  1.00  0.00    -0.203 F 
ATOM     63  F   UNL A   1      44.632  26.383  24.806  1.00  0.00    -0.200 F 
ATOM     64  C   UNL A   1      43.210  24.654  25.555  1.00  0.00     0.200 A 
ATOM     65  F   UNL A   1      41.763  22.960  26.335  1.00  0.00    -0.200 F 
ATOM     66  F   UNL A   1      43.586  23.880  24.527  1.00  0.00    -0.200 F 
ENDBRANCH  42  56
BRANCH  43  67
ATOM     67  C   UNL A   1      39.108  31.961  35.244  1.00  0.00     0.064 A 
ATOM     68  C   UNL A   1      39.394  33.329  35.340  1.00  0.00     0.173 A 
ATOM     69  C   UNL A   1      38.339  31.383  36.266  1.00  0.00     0.173 A 
ATOM     70  F   UNL A   1      40.148  33.923  34.403  1.00  0.00    -0.203 F 
ATOM     71  C   UNL A   1      38.944  34.084  36.421  1.00  0.00     0.198 A 
ATOM     72  C   UNL A   1      37.860  32.147  37.328  1.00  0.00     0.198 A 
ATOM     73  F   UNL A   1      38.039  30.077  36.227  1.00  0.00    -0.203 F 
ATOM     74  F   UNL A   1      39.274  35.379  36.514  1.00  0.00    -0.200 F 
ATOM     75  C   UNL A   1      38.170  33.495  37.410  1.00  0.00     0.200 A 
ATOM     76  F   UNL A   1      37.099  31.576  38.272  1.00  0.00    -0.200 F 
ATOM     77  F   UNL A   1      37.732  34.223  38.446  1.00  0.00    -0.200 F 
ENDBRANCH  43  67
BRANCH  55  78
ATOM     78  C   UNL A   1      44.501  27.614  34.473  1.00  0.00     0.064 A 
ATOM     79  C   UNL A   1      45.706  28.326  34.562  1.00  0.00     0.173 A 
ATOM     80  C   UNL A   1      44.334  26.499  35.308  1.00  0.00     0.173 A 
ATOM     81  F   UNL A   1      45.922  29.390  33.774  1.00  0.00    -0.203 F 
ATOM     82  C   UNL A   1      46.715  27.920  35.432  1.00  0.00     0.198 A 
ATOM     83  C   UNL A   1      45.331  26.116  36.200  1.00  0.00     0.198 A 
ATOM     84  F   UNL A   1      43.198  25.786  35.267  1.00  0.00    -0.203 F 
ATOM     85  F   UNL A   1      47.880  28.582  35.461  1.00  0.00    -0.200 F 
ATOM     86  C   UNL A   1      46.524  26.820  36.256  1.00  0.00     0.200 A 
ATOM     87  F   UNL A   1      45.137  25.063  37.006  1.00  0.00    -0.200 F 
ATOM     88  F   UNL A   1      47.492  26.435  37.096  1.00  0.00    -0.200 F 
ENDBRANCH  55  78
ENDBRANCH  29  30
ENDBRANCH  22  24
ENDBRANCH  21  22
ENDBRANCH  20  21
ENDBRANCH   1  20
TORSDOF 13
ENDMDL
MODEL 2
REMARK VINA RESULT:     -12.2      4.605      9.788
REMARK SMILES CC(C)=CCc1cccc2c(C(=O)OCCOC(=O)c3ccc(-c4c5nc(c(-c6c(F)c(F)c(F)c(F)c6F)c6ccc([nH]6)c(-c6c(F)c(F)c(F)c(F)c6F)c6nc(c(-c7c(F)c(F)c(F)c(F)c7F)c7ccc4[nH]7)C=C6)C=C5)cc3)c[nH]c12
REMARK SMILES IDX 15 1 14 2 12 3 13 4 11 5 6 6 7 7 85 8 8 9 10 10 84 11 9 12
REMARK SMILES IDX 83 13 5 15 4 16 1 17 2 18 3 19 16 20 17 21 18 22 19 23 20 24
REMARK SMILES IDX 21 25 82 26 22 27 81 28 23 29 24 30 25 31 75 32 26 33 80 34
REMARK SMILES IDX 74 35 76 36 27 37 79 38 73 39 72 40 28 42 60 43 40 44 59 45
REMARK SMILES IDX 41 46 44 47 58 48 77 49 42 50 43 51 57 53 78 54 45 55 29 56
REMARK SMILES IDX 30 57 38 58 31 59 32 60 36 61 39 62 33 63 34 64 37 65 35 66
REMARK SMILES IDX 61 67 62 68 70 69 63 70 64 71 68 72 71 73 65 74 66 75 69 76
REMARK SMILES IDX 67 77 46 78 47 79 55 80 48 81 49 82 53 83 56 84 50 85 51 86
REMARK SMILES IDX 54 87 52 88
REMARK H PARENT 84 14 76 41 44 52
REMARK Flexibility Score: inf
ROOT
ATOM      1  C   UNL A   1      35.025  20.933  24.705  1.00  0.00     0.275 C 
ENDROOT
BRANCH   1   2
ATOM      2  O   UNL A   1      34.245  21.235  25.879  1.00  0.00    -0.458 OA
BRANCH   2   3
ATOM      3  C   UNL A   1      32.903  21.403  25.684  1.00  0.00     0.340 C 
ATOM      4  O   UNL A   1      32.146  20.514  25.321  1.00  0.00    -0.246 OA
BRANCH   3   5
ATOM      5  C   UNL A   1      32.428  22.738  26.046  1.00  0.00     0.085 A 
ATOM      6  C   UNL A   1      32.437  26.377  26.315  1.00  0.00    -0.020 A 
ATOM      7  C   UNL A   1      33.636  26.746  25.674  1.00  0.00     0.006 A 
ATOM      8  C   UNL A   1      32.186  24.992  26.376  1.00  0.00     0.050 A 
ATOM      9  C   UNL A   1      34.508  25.806  25.129  1.00  0.00     0.001 A 
ATOM     10  C   UNL A   1      33.040  24.018  25.845  1.00  0.00     0.014 A 
ATOM     11  N   UNL A   1      31.119  24.320  26.926  1.00  0.00    -0.360 N 
ATOM     12  C   UNL A   1      34.229  24.442  25.217  1.00  0.00     0.011 A 
ATOM     13  C   UNL A   1      31.200  22.991  26.636  1.00  0.00     0.099 A 
ATOM     14  H   UNL A   1      30.401  24.740  27.454  1.00  0.00     0.166 HD
BRANCH   6  15
ATOM     15  C   UNL A   1      31.509  27.422  26.902  1.00  0.00     0.065 C 
BRANCH  15  16
ATOM     16  C   UNL A   1      32.221  28.660  27.375  1.00  0.00    -0.024 C 
ATOM     17  C   UNL A   1      31.636  30.162  25.447  1.00  0.00     0.039 C 
ATOM     18  C   UNL A   1      32.292  29.859  26.763  1.00  0.00    -0.080 C 
ATOM     19  C   UNL A   1      33.092  30.962  27.403  1.00  0.00     0.039 C 
ENDBRANCH  15  16
ENDBRANCH   6  15
ENDBRANCH   3   5
ENDBRANCH   2   3
ENDBRANCH   1   2
BRANCH   1  20
ATOM     20  C   UNL A   1      36.444  20.482  25.063  1.00  0.00     0.275 C 
BRANCH  20  21
ATOM     21  O   UNL A   1      37.186  21.547  25.685  1.00  0.00    -0.458 OA
BRANCH  21  22
ATOM     22  C   UNL A   1      38.493  21.287  25.909  1.00  0.00     0.338 C 
ATOM     23  O   UNL A   1      39.124  20.297  25.577  1.00  0.00    -0.246 OA
BRANCH  22  24
ATOM     24  C   UNL A   1      39.133  22.449  26.538  1.00  0.00     0.060 A 
ATOM     25  C   UNL A   1      38.665  23.707  26.178  1.00  0.00     0.016 A 
ATOM     26  C   UNL A   1      40.268  22.328  27.334  1.00  0.00     0.016 A 
ATOM     27  C   UNL A   1      39.352  24.855  26.544  1.00  0.00     0.010 A 
ATOM     28  C   UNL A   1      40.924  23.489  27.766  1.00  0.00     0.010 A 
ATOM     29  C   UNL A   1      40.490  24.764  27.351  1.00  0.00    -0.014 A 
BRANCH  29  30
ATOM     30  C   UNL A   1      41.243  25.997  27.703  1.00  0.00     0.031 A 
ATOM     31  C   UNL A   1      40.576  27.084  28.501  1.00  0.00     0.074 A 
ATOM     32  C   UNL A   1      42.535  26.131  27.342  1.00  0.00     0.049 A 
ATOM     33  N   UNL A   1      41.001  28.291  28.780  1.00  0.00    -0.248 NA
ATOM     34  C   UNL A   1      39.249  26.772  29.054  1.00  0.00     0.031 C 
ATOM     35  C   UNL A   1      43.325  25.125  26.629  1.00  0.00     0.029 A 
ATOM     36  N   UNL A   1      43.415  27.171  27.526  1.00  0.00    -0.354 N 
ATOM     37  C   UNL A   1      39.976  28.897  29.496  1.00  0.00     0.074 A 
ATOM     38  C   UNL A   1      38.904  27.930  29.599  1.00  0.00     0.031 C 
ATOM     39  C   UNL A   1      44.572  25.586  26.454  1.00  0.00     0.029 A 
ATOM     40  C   UNL A   1      44.648  26.952  26.960  1.00  0.00     0.049 A 
ATOM     41  H   UNL A   1      43.185  27.992  28.018  1.00  0.00     0.167 HD
ATOM     42  C   UNL A   1      39.936  30.147  30.016  1.00  0.00     0.037 A 
ATOM     43  C   UNL A   1      45.704  27.775  26.817  1.00  0.00     0.037 A 
ATOM     44  C   UNL A   1      41.024  31.090  29.940  1.00  0.00     0.049 A 
ATOM     45  C   UNL A   1      45.608  29.182  27.339  1.00  0.00     0.074 A 
ATOM     46  C   UNL A   1      41.090  32.375  30.449  1.00  0.00     0.029 A 
ATOM     47  N   UNL A   1      42.240  30.844  29.317  1.00  0.00    -0.354 N 
ATOM     48  N   UNL A   1      44.624  29.761  27.984  1.00  0.00    -0.248 NA
ATOM     49  C   UNL A   1      46.765  30.055  27.102  1.00  0.00     0.031 C 
ATOM     50  C   UNL A   1      42.323  32.926  30.086  1.00  0.00     0.029 A 
ATOM     51  C   UNL A   1      43.052  31.964  29.405  1.00  0.00     0.049 A 
ATOM     52  H   UNL A   1      42.489  29.999  28.878  1.00  0.00     0.167 HD
ATOM     53  C   UNL A   1      45.049  31.056  28.247  1.00  0.00     0.074 A 
ATOM     54  C   UNL A   1      46.391  31.170  27.712  1.00  0.00     0.031 C 
ATOM     55  C   UNL A   1      44.388  32.060  28.872  1.00  0.00     0.037 A 
BRANCH  42  56
ATOM     56  C   UNL A   1      38.661  30.588  30.677  1.00  0.00     0.064 A 
ATOM     57  C   UNL A   1      38.500  30.580  32.071  1.00  0.00     0.173 A 
ATOM     58  C   UNL A   1      37.590  31.056  29.899  1.00  0.00     0.173 A 
ATOM     59  F   UNL A   1      39.486  30.131  32.863  1.00  0.00    -0.203 F 
ATOM     60  C   UNL A   1      37.305  30.993  32.657  1.00  0.00     0.198 A 
ATOM     61  C   UNL A   1      36.410  31.499  30.490  1.00  0.00     0.198 A 
ATOM     62  F   UNL A   1      37.691  31.092  28.562  1.00  0.00    -0.203 F 
ATOM     63  F   UNL A   1      37.155  30.927  33.988  1.00  0.00    -0.200 F 
ATOM     64  C   UNL A   1      36.265  31.460  31.868  1.00  0.00     0.200 A 
ATOM     65  F   UNL A   1      35.412  31.965  29.725  1.00  0.00    -0.200 F 
ATOM     66  F   UNL A   1      35.119  31.864  32.435  1.00  0.00    -0.200 F 
ENDBRANCH  42  56
BRANCH  43  67
ATOM     67  C   UNL A   1      46.923  27.305  26.103  1.00  0.00     0.064 A 
ATOM     68  C   UNL A   1      47.086  27.524  24.729  1.00  0.00     0.173 A 
ATOM     69  C   UNL A   1      47.943  26.616  26.779  1.00  0.00     0.173 A 
ATOM     70  F   UNL A   1      46.129  28.154  24.032  1.00  0.00    -0.203 F 
ATOM     71  C   UNL A   1      48.214  27.059  24.055  1.00  0.00     0.198 A 
ATOM     72  C   UNL A   1      49.085  26.183  26.110  1.00  0.00     0.198 A 
ATOM     73  F   UNL A   1      47.836  26.376  28.093  1.00  0.00    -0.203 F 
ATOM     74  F   UNL A   1      48.321  27.238  22.732  1.00  0.00    -0.200 F 
ATOM     75  C   UNL A   1      49.217  26.397  24.748  1.00  0.00     0.200 A 
ATOM     76  F   UNL A   1      50.058  25.558  26.787  1.00  0.00    -0.200 F 
ATOM     77  F   UNL A   1      50.303  25.955  24.100  1.00  0.00    -0.200 F 
ENDBRANCH  43  67
BRANCH  55  78
ATOM     78  C   UNL A   1      45.121  33.359  29.047  1.00  0.00     0.064 A 
ATOM     79  C   UNL A   1      45.954  33.594  30.151  1.00  0.00     0.173 A 
ATOM     80  C   UNL A   1      45.012  34.370  28.081  1.00  0.00     0.173 A 
ATOM     81  F   UNL A   1      46.080  32.666  31.112  1.00  0.00    -0.203 F 
ATOM     82  C   UNL A   1      46.627  34.805  30.295  1.00  0.00     0.198 A 
ATOM     83  C   UNL A   1      45.712  35.566  28.211  1.00  0.00     0.198 A 
ATOM     84  F   UNL A   1      44.232  34.195  27.002  1.00  0.00    -0.203 F 
ATOM     85  F   UNL A   1      47.374  35.029  31.386  1.00  0.00    -0.200 F 
ATOM     86  C   UNL A   1      46.512  35.786  29.322  1.00  0.00     0.200 A 
ATOM     87  F   UNL A   1      45.612  36.506  27.261  1.00  0.00    -0.200 F 
ATOM     88  F   UNL A   1      47.166  36.947  29.458  1.00  0.00    -0.200 F 
ENDBRANCH  55  78
ENDBRANCH  29  30
ENDBRANCH  22  24
ENDBRANCH  21  22
ENDBRANCH  20  21
ENDBRANCH   1  20
TORSDOF 13
ENDMDL
MODEL 3
REMARK VINA RESULT:     -12.2      1.197      2.529
REMARK SMILES CC(C)=CCc1cccc2c(C(=O)OCCOC(=O)c3ccc(-c4c5nc(c(-c6c(F)c(F)c(F)c(F)c6F)c6ccc([nH]6)c(-c6c(F)c(F)c(F)c(F)c6F)c6nc(c(-c7c(F)c(F)c(F)c(F)c7F)c7ccc4[nH]7)C=C6)C=C5)cc3)c[nH]c12
REMARK SMILES IDX 15 1 14 2 12 3 13 4 11 5 6 6 7 7 85 8 8 9 10 10 84 11 9 12
REMARK SMILES IDX 83 13 5 15 4 16 1 17 2 18 3 19 16 20 17 21 18 22 19 23 20 24
REMARK SMILES IDX 21 25 82 26 22 27 81 28 23 29 24 30 25 31 75 32 26 33 80 34
REMARK SMILES IDX 74 35 76 36 27 37 79 38 73 39 72 40 28 42 60 43 40 44 59 45
REMARK SMILES IDX 41 46 44 47 58 48 77 49 42 50 43 51 57 53 78 54 45 55 29 56
REMARK SMILES IDX 30 57 38 58 31 59 32 60 36 61 39 62 33 63 34 64 37 65 35 66
REMARK SMILES IDX 61 67 62 68 70 69 63 70 64 71 68 72 71 73 65 74 66 75 69 76
REMARK SMILES IDX 67 77 46 78 47 79 55 80 48 81 49 82 53 83 56 84 50 85 51 86
REMARK SMILES IDX 54 87 52 88
REMARK H PARENT 84 14 76 41 44 52
REMARK Flexibility Score: inf
ROOT
ATOM      1  C   UNL A   1      32.404  28.653  25.131  1.00  0.00     0.275 C 
ENDROOT
BRANCH   1   2
ATOM      2  O   UNL A   1      31.273  27.790  25.362  1.00  0.00    -0.458 OA
BRANCH   2   3
ATOM      3  C   UNL A   1      31.346  26.980  26.460  1.00  0.00     0.340 C 
ATOM      4  O   UNL A   1      31.303  27.383  27.614  1.00  0.00    -0.246 OA
BRANCH   3   5
ATOM      5  C   UNL A   1      31.389  25.557  26.128  1.00  0.00     0.085 A 
ATOM      6  C   UNL A   1      32.843  22.324  25.257  1.00  0.00    -0.020 A 
ATOM      7  C   UNL A   1      34.226  22.594  25.211  1.00  0.00     0.006 A 
ATOM      8  C   UNL A   1      32.022  23.430  25.557  1.00  0.00     0.050 A 
ATOM      9  C   UNL A   1      34.745  23.864  25.455  1.00  0.00     0.001 A 
ATOM     10  C   UNL A   1      32.507  24.720  25.804  1.00  0.00     0.014 A 
ATOM     11  N   UNL A   1      30.653  23.496  25.676  1.00  0.00    -0.360 N 
ATOM     12  C   UNL A   1      33.898  24.935  25.741  1.00  0.00     0.011 A 
ATOM     13  C   UNL A   1      30.279  24.727  26.124  1.00  0.00     0.099 A 
ATOM     14  H   UNL A   1      30.034  22.759  25.467  1.00  0.00     0.166 HD
BRANCH   6  15
ATOM     15  C   UNL A   1      32.306  20.934  24.983  1.00  0.00     0.065 C 
BRANCH  15  16
ATOM     16  C   UNL A   1      33.361  19.863  25.028  1.00  0.00    -0.024 C 
ATOM     17  C   UNL A   1      32.529  18.466  23.112  1.00  0.00     0.039 C 
ATOM     18  C   UNL A   1      33.480  18.784  24.230  1.00  0.00    -0.080 C 
ATOM     19  C   UNL A   1      34.605  17.813  24.472  1.00  0.00     0.039 C 
ENDBRANCH  15  16
ENDBRANCH   6  15
ENDBRANCH   3   5
ENDBRANCH   2   3
ENDBRANCH   1   2
BRANCH   1  20
ATOM     20  C   UNL A   1      32.120  30.094  25.565  1.00  0.00     0.275 C 
BRANCH  20  21
ATOM     21  O   UNL A   1      32.486  30.303  26.942  1.00  0.00    -0.458 OA
BRANCH  21  22
ATOM     22  C   UNL A   1      33.130  31.462  27.199  1.00  0.00     0.338 C 
ATOM     23  O   UNL A   1      32.690  32.597  27.113  1.00  0.00    -0.246 OA
BRANCH  22  24
ATOM     24  C   UNL A   1      34.469  31.181  27.732  1.00  0.00     0.060 A 
ATOM     25  C   UNL A   1      34.748  29.869  28.096  1.00  0.00     0.016 A 
ATOM     26  C   UNL A   1      35.377  32.195  28.024  1.00  0.00     0.016 A 
ATOM     27  C   UNL A   1      35.894  29.556  28.812  1.00  0.00     0.010 A 
ATOM     28  C   UNL A   1      36.570  31.871  28.685  1.00  0.00     0.010 A 
ATOM     29  C   UNL A   1      36.828  30.553  29.112  1.00  0.00    -0.014 A 
BRANCH  29  30
ATOM     30  C   UNL A   1      38.033  30.215  29.915  1.00  0.00     0.031 A 
ATOM     31  C   UNL A   1      39.096  29.321  29.338  1.00  0.00     0.074 A 
ATOM     32  C   UNL A   1      38.196  30.736  31.148  1.00  0.00     0.049 A 
ATOM     33  N   UNL A   1      40.139  28.785  29.921  1.00  0.00    -0.248 NA
ATOM     34  C   UNL A   1      38.963  28.978  27.913  1.00  0.00     0.031 C 
ATOM     35  C   UNL A   1      37.279  31.673  31.801  1.00  0.00     0.029 A 
ATOM     36  N   UNL A   1      39.194  30.553  32.075  1.00  0.00    -0.354 N 
ATOM     37  C   UNL A   1      40.756  28.005  28.951  1.00  0.00     0.074 A 
ATOM     38  C   UNL A   1      39.966  28.128  27.745  1.00  0.00     0.031 C 
ATOM     39  C   UNL A   1      37.764  31.996  33.008  1.00  0.00     0.029 A 
ATOM     40  C   UNL A   1      38.976  31.224  33.254  1.00  0.00     0.049 A 
ATOM     41  H   UNL A   1      39.988  29.995  31.909  1.00  0.00     0.167 HD
ATOM     42  C   UNL A   1      41.879  27.255  29.061  1.00  0.00     0.037 A 
ATOM     43  C   UNL A   1      39.647  31.183  34.421  1.00  0.00     0.037 A 
ATOM     44  C   UNL A   1      42.680  27.169  30.257  1.00  0.00     0.049 A 
ATOM     45  C   UNL A   1      40.849  30.286  34.540  1.00  0.00     0.074 A 
ATOM     46  C   UNL A   1      43.844  26.452  30.466  1.00  0.00     0.029 A 
ATOM     47  N   UNL A   1      42.399  27.831  31.445  1.00  0.00    -0.354 N 
ATOM     48  N   UNL A   1      41.408  29.525  33.632  1.00  0.00    -0.248 NA
ATOM     49  C   UNL A   1      41.507  30.234  35.853  1.00  0.00     0.031 C 
ATOM     50  C   UNL A   1      44.236  26.633  31.797  1.00  0.00     0.029 A 
ATOM     51  C   UNL A   1      43.353  27.514  32.399  1.00  0.00     0.049 A 
ATOM     52  H   UNL A   1      41.635  28.434  31.588  1.00  0.00     0.167 HD
ATOM     53  C   UNL A   1      42.491  28.919  34.253  1.00  0.00     0.074 A 
ATOM     54  C   UNL A   1      42.525  29.421  35.612  1.00  0.00     0.031 C 
ATOM     55  C   UNL A   1      43.376  28.027  33.746  1.00  0.00     0.037 A 
BRANCH  42  56
ATOM     56  C   UNL A   1      42.288  26.432  27.873  1.00  0.00     0.064 A 
ATOM     57  C   UNL A   1      41.710  25.185  27.593  1.00  0.00     0.173 A 
ATOM     58  C   UNL A   1      43.257  26.917  26.980  1.00  0.00     0.173 A 
ATOM     59  F   UNL A   1      40.788  24.666  28.419  1.00  0.00    -0.203 F 
ATOM     60  C   UNL A   1      42.110  24.441  26.484  1.00  0.00     0.198 A 
ATOM     61  C   UNL A   1      43.630  26.187  25.855  1.00  0.00     0.198 A 
ATOM     62  F   UNL A   1      43.838  28.107  27.194  1.00  0.00    -0.203 F 
ATOM     63  F   UNL A   1      41.582  23.228  26.266  1.00  0.00    -0.200 F 
ATOM     64  C   UNL A   1      43.063  24.946  25.612  1.00  0.00     0.200 A 
ATOM     65  F   UNL A   1      44.539  26.685  25.005  1.00  0.00    -0.200 F 
ATOM     66  F   UNL A   1      43.440  24.233  24.542  1.00  0.00    -0.200 F 
ENDBRANCH  42  56
BRANCH  43  67
ATOM     67  C   UNL A   1      39.166  31.976  35.585  1.00  0.00     0.064 A 
ATOM     68  C   UNL A   1      38.334  31.404  36.556  1.00  0.00     0.173 A 
ATOM     69  C   UNL A   1      39.518  33.326  35.742  1.00  0.00     0.173 A 
ATOM     70  F   UNL A   1      37.947  30.125  36.438  1.00  0.00    -0.203 F 
ATOM     71  C   UNL A   1      37.860  32.154  37.630  1.00  0.00     0.198 A 
ATOM     72  C   UNL A   1      39.072  34.065  36.835  1.00  0.00     0.198 A 
ATOM     73  F   UNL A   1      40.308  33.925  34.840  1.00  0.00    -0.203 F 
ATOM     74  F   UNL A   1      37.025  31.596  38.517  1.00  0.00    -0.200 F 
ATOM     75  C   UNL A   1      38.236  33.482  37.774  1.00  0.00     0.200 A 
ATOM     76  F   UNL A   1      39.451  35.342  36.977  1.00  0.00    -0.200 F 
ATOM     77  F   UNL A   1      37.784  34.201  38.810  1.00  0.00    -0.200 F 
ENDBRANCH  43  67
BRANCH  55  78
ATOM     78  C   UNL A   1      44.480  27.565  34.654  1.00  0.00     0.064 A 
ATOM     79  C   UNL A   1      44.357  26.409  35.437  1.00  0.00     0.173 A 
ATOM     80  C   UNL A   1      45.689  28.274  34.716  1.00  0.00     0.173 A 
ATOM     81  F   UNL A   1      43.215  25.704  35.427  1.00  0.00    -0.203 F 
ATOM     82  C   UNL A   1      45.393  25.995  36.271  1.00  0.00     0.198 A 
ATOM     83  C   UNL A   1      46.735  27.839  35.525  1.00  0.00     0.198 A 
ATOM     84  F   UNL A   1      45.862  29.385  33.982  1.00  0.00    -0.203 F 
ATOM     85  F   UNL A   1      45.232  24.918  37.054  1.00  0.00    -0.200 F 
ATOM     86  C   UNL A   1      46.583  26.706  36.309  1.00  0.00     0.200 A 
ATOM     87  F   UNL A   1      47.890  28.519  35.547  1.00  0.00    -0.200 F 
ATOM     88  F   UNL A   1      47.581  26.303  37.106  1.00  0.00    -0.200 F 
ENDBRANCH  55  78
ENDBRANCH  29  30
ENDBRANCH  22  24
ENDBRANCH  21  22
ENDBRANCH  20  21
ENDBRANCH   1  20
TORSDOF 13
ENDMDL
