MODEL 1
REMARK VINA RESULT:     -13.5      0.000      0.000
REMARK SMILES O=C(OCCOC(=O)[C@H]1CCCN(C(=O)C2CCN(S(=O)(=O)c3ccccc3)CC2)C1)c1ccc(-c2c3nc(c(-c4c(F)c(F)c(F)c(F)c4F)c4ccc([nH]4)c(-c4c(F)c(F)c(F)c(F)c4F)c4nc(c(-c5c(F)c(F)c(F)c(F)c5F)c5ccc2[nH]5)C=C4)C=C3)cc1
REMARK SMILES IDX 5 1 4 2 3 3 2 4 1 5 32 6 33 7 94 8 34 9 93 10 35 11 36 12
REMARK SMILES IDX 37 13 87 14 38 15 92 16 86 17 88 18 39 19 91 20 85 21 84 22
REMARK SMILES IDX 40 24 72 25 52 26 71 27 53 28 56 29 70 30 89 31 54 32 55 33
REMARK SMILES IDX 69 35 90 36 57 37 41 38 42 39 50 40 43 41 44 42 48 43 51 44
REMARK SMILES IDX 45 45 46 46 49 47 47 48 73 49 74 50 82 51 75 52 76 53 80 54
REMARK SMILES IDX 83 55 77 56 78 57 81 58 79 59 58 60 59 61 67 62 60 63 61 64
REMARK SMILES IDX 65 65 68 66 62 67 63 68 66 69 64 70 6 71 7 72 8 73 9 74
REMARK SMILES IDX 10 75 31 76 11 77 13 78 12 79 14 80 15 81 16 82 17 83 30 84
REMARK SMILES IDX 18 85 29 86 19 87 20 88 21 89 22 90 23 91 24 92 28 93 25 94
REMARK SMILES IDX 27 95 26 96
REMARK H PARENT 88 23 56 34
REMARK Flexibility Score: inf
ROOT
ATOM      1  C   UNL A   1      41.848  20.151  26.155  1.00  0.00     0.274 C 
ENDROOT
BRANCH   1   2
ATOM      2  C   UNL A   1      43.078  20.995  25.827  1.00  0.00     0.275 C 
BRANCH   2   3
ATOM      3  O   UNL A   1      42.796  22.140  24.999  1.00  0.00    -0.458 OA
BRANCH   3   4
ATOM      4  C   UNL A   1      43.367  23.369  24.996  1.00  0.00     0.338 C 
ATOM      5  O   UNL A   1      44.353  23.561  24.286  1.00  0.00    -0.246 OA
BRANCH   4   6
ATOM      6  C   UNL A   1      42.970  24.478  25.922  1.00  0.00     0.060 A 
ATOM      7  C   UNL A   1      43.556  25.744  25.989  1.00  0.00     0.016 A 
ATOM      8  C   UNL A   1      41.935  24.186  26.832  1.00  0.00     0.016 A 
ATOM      9  C   UNL A   1      43.087  26.711  26.891  1.00  0.00     0.010 A 
ATOM     10  C   UNL A   1      41.459  25.150  27.732  1.00  0.00     0.010 A 
ATOM     11  C   UNL A   1      42.035  26.425  27.768  1.00  0.00    -0.014 A 
BRANCH  11  12
ATOM     12  C   UNL A   1      41.648  27.390  28.830  1.00  0.00     0.031 A 
ATOM     13  C   UNL A   1      42.358  27.307  30.151  1.00  0.00     0.074 A 
ATOM     14  C   UNL A   1      40.709  28.334  28.622  1.00  0.00     0.049 A 
ATOM     15  N   UNL A   1      42.146  27.985  31.249  1.00  0.00    -0.248 NA
ATOM     16  C   UNL A   1      43.478  26.352  30.238  1.00  0.00     0.031 C 
ATOM     17  C   UNL A   1      40.030  28.580  27.354  1.00  0.00     0.029 A 
ATOM     18  N   UNL A   1      40.137  29.248  29.478  1.00  0.00    -0.354 N 
ATOM     19  C   UNL A   1      43.147  27.590  32.127  1.00  0.00     0.074 A 
ATOM     20  C   UNL A   1      43.906  26.548  31.476  1.00  0.00     0.031 C 
ATOM     21  C   UNL A   1      39.077  29.511  27.530  1.00  0.00     0.029 A 
ATOM     22  C   UNL A   1      39.065  29.923  28.929  1.00  0.00     0.049 A 
ATOM     23  H   UNL A   1      40.462  29.406  30.394  1.00  0.00     0.167 HD
ATOM     24  C   UNL A   1      43.437  28.099  33.345  1.00  0.00     0.037 A 
ATOM     25  C   UNL A   1      38.150  30.731  29.507  1.00  0.00     0.037 A 
ATOM     26  C   UNL A   1      42.663  29.122  33.990  1.00  0.00     0.049 A 
ATOM     27  C   UNL A   1      38.320  31.047  30.976  1.00  0.00     0.074 A 
ATOM     28  C   UNL A   1      42.876  29.731  35.212  1.00  0.00     0.029 A 
ATOM     29  N   UNL A   1      41.507  29.671  33.459  1.00  0.00    -0.354 N 
ATOM     30  N   UNL A   1      39.304  30.717  31.780  1.00  0.00    -0.248 NA
ATOM     31  C   UNL A   1      37.260  31.829  31.629  1.00  0.00     0.031 C 
ATOM     32  C   UNL A   1      41.816  30.614  35.445  1.00  0.00     0.029 A 
ATOM     33  C   UNL A   1      40.963  30.575  34.354  1.00  0.00     0.049 A 
ATOM     34  H   UNL A   1      41.129  29.453  32.577  1.00  0.00     0.167 HD
ATOM     35  C   UNL A   1      39.013  31.302  33.004  1.00  0.00     0.074 A 
ATOM     36  C   UNL A   1      37.754  31.997  32.847  1.00  0.00     0.031 C 
ATOM     37  C   UNL A   1      39.724  31.276  34.155  1.00  0.00     0.037 A 
BRANCH  24  38
ATOM     38  C   UNL A   1      44.657  27.576  34.040  1.00  0.00     0.064 A 
ATOM     39  C   UNL A   1      45.888  28.241  33.933  1.00  0.00     0.173 A 
ATOM     40  C   UNL A   1      44.592  26.430  34.844  1.00  0.00     0.173 A 
ATOM     41  F   UNL A   1      46.000  29.333  33.162  1.00  0.00    -0.203 F 
ATOM     42  C   UNL A   1      47.015  27.770  34.598  1.00  0.00     0.198 A 
ATOM     43  C   UNL A   1      45.718  25.973  35.524  1.00  0.00     0.198 A 
ATOM     44  F   UNL A   1      43.438  25.760  34.974  1.00  0.00    -0.203 F 
ATOM     45  F   UNL A   1      48.189  28.403  34.459  1.00  0.00    -0.200 F 
ATOM     46  C   UNL A   1      46.929  26.641  35.398  1.00  0.00     0.200 A 
ATOM     47  F   UNL A   1      45.633  24.884  36.301  1.00  0.00    -0.200 F 
ATOM     48  F   UNL A   1      48.013  26.190  36.044  1.00  0.00    -0.200 F 
ENDBRANCH  24  38
BRANCH  25  49
ATOM     49  C   UNL A   1      36.918  31.172  28.779  1.00  0.00     0.064 A 
ATOM     50  C   UNL A   1      36.640  32.510  28.475  1.00  0.00     0.173 A 
ATOM     51  C   UNL A   1      35.902  30.246  28.503  1.00  0.00     0.173 A 
ATOM     52  F   UNL A   1      37.556  33.456  28.722  1.00  0.00    -0.203 F 
ATOM     53  C   UNL A   1      35.383  32.900  27.999  1.00  0.00     0.198 A 
ATOM     54  C   UNL A   1      34.658  30.623  28.005  1.00  0.00     0.198 A 
ATOM     55  F   UNL A   1      36.127  28.954  28.739  1.00  0.00    -0.203 F 
ATOM     56  F   UNL A   1      35.118  34.200  27.806  1.00  0.00    -0.200 F 
ATOM     57  C   UNL A   1      34.391  31.958  27.772  1.00  0.00     0.200 A 
ATOM     58  F   UNL A   1      33.716  29.697  27.784  1.00  0.00    -0.200 F 
ATOM     59  F   UNL A   1      33.178  32.338  27.351  1.00  0.00    -0.200 F 
ENDBRANCH  25  49
BRANCH  37  60
ATOM     60  C   UNL A   1      39.191  32.074  35.303  1.00  0.00     0.064 A 
ATOM     61  C   UNL A   1      38.453  31.475  36.331  1.00  0.00     0.173 A 
ATOM     62  C   UNL A   1      39.459  33.449  35.390  1.00  0.00     0.173 A 
ATOM     63  F   UNL A   1      38.150  30.169  36.271  1.00  0.00    -0.203 F 
ATOM     64  C   UNL A   1      37.994  32.227  37.408  1.00  0.00     0.198 A 
ATOM     65  C   UNL A   1      39.019  34.193  36.479  1.00  0.00     0.198 A 
ATOM     66  F   UNL A   1      40.161  34.062  34.426  1.00  0.00    -0.203 F 
ATOM     67  F   UNL A   1      37.259  31.645  38.365  1.00  0.00    -0.200 F 
ATOM     68  C   UNL A   1      38.285  33.583  37.485  1.00  0.00     0.200 A 
ATOM     69  F   UNL A   1      39.307  35.499  36.556  1.00  0.00    -0.200 F 
ATOM     70  F   UNL A   1      37.850  34.304  38.527  1.00  0.00    -0.200 F 
ENDBRANCH  37  60
ENDBRANCH  11  12
ENDBRANCH   4   6
ENDBRANCH   3   4
ENDBRANCH   2   3
ENDBRANCH   1   2
BRANCH   1  71
ATOM     71  O   UNL A   1      40.659  20.942  26.083  1.00  0.00    -0.462 OA
BRANCH  71  72
ATOM     72  C   UNL A   1      39.511  20.297  25.713  1.00  0.00     0.310 C 
ATOM     73  O   UNL A   1      39.437  19.126  25.377  1.00  0.00    -0.252 OA
BRANCH  72  74
ATOM     74  C   UNL A   1      38.342  21.249  25.841  1.00  0.00     0.119 C 
ATOM     75  C   UNL A   1      38.860  22.667  26.110  1.00  0.00     0.019 C 
ATOM     76  C   UNL A   1      37.410  21.199  24.627  1.00  0.00     0.134 C 
ATOM     77  C   UNL A   1      37.721  23.670  26.146  1.00  0.00     0.022 C 
ATOM     78  N   UNL A   1      36.362  22.234  24.729  1.00  0.00    -0.342 N 
ATOM     79  C   UNL A   1      36.904  23.566  24.869  1.00  0.00     0.119 C 
BRANCH  78  80
ATOM     80  C   UNL A   1      35.036  21.877  24.878  1.00  0.00     0.225 C 
ATOM     81  O   UNL A   1      34.707  21.155  25.831  1.00  0.00    -0.275 OA
BRANCH  80  82
ATOM     82  C   UNL A   1      33.900  22.330  23.917  1.00  0.00     0.081 C 
ATOM     83  C   UNL A   1      33.938  23.725  23.314  1.00  0.00     0.030 C 
ATOM     84  C   UNL A   1      32.481  21.926  24.275  1.00  0.00     0.030 C 
ATOM     85  C   UNL A   1      33.076  24.794  23.965  1.00  0.00     0.103 C 
ATOM     86  C   UNL A   1      31.714  22.945  25.089  1.00  0.00     0.103 C 
ATOM     87  N   UNL A   1      31.777  24.344  24.587  1.00  0.00    -0.198 NA
BRANCH  87  88
ATOM     88  S   UNL A   1      31.300  25.551  25.764  1.00  0.00     0.243 S 
ATOM     89  O   UNL A   1      30.152  24.995  26.467  1.00  0.00    -0.207 OA
ATOM     90  O   UNL A   1      32.488  25.902  26.498  1.00  0.00    -0.207 OA
BRANCH  88  91
ATOM     91  C   UNL A   1      30.739  26.998  24.889  1.00  0.00     0.082 A 
ATOM     92  C   UNL A   1      29.733  26.851  23.926  1.00  0.00     0.022 A 
ATOM     93  C   UNL A   1      31.411  28.221  25.004  1.00  0.00     0.022 A 
ATOM     94  C   UNL A   1      29.362  27.940  23.134  1.00  0.00     0.001 A 
ATOM     95  C   UNL A   1      31.008  29.317  24.241  1.00  0.00     0.001 A 
ATOM     96  C   UNL A   1      29.980  29.177  23.311  1.00  0.00     0.000 A 
ENDBRANCH  88  91
ENDBRANCH  87  88
ENDBRANCH  80  82
ENDBRANCH  78  80
ENDBRANCH  72  74
ENDBRANCH  71  72
ENDBRANCH   1  71
TORSDOF 15
ENDMDL
MODEL 2
REMARK VINA RESULT:     -13.2      4.693      9.048
REMARK SMILES O=C(OCCOC(=O)[C@H]1CCCN(C(=O)C2CCN(S(=O)(=O)c3ccccc3)CC2)C1)c1ccc(-c2c3nc(c(-c4c(F)c(F)c(F)c(F)c4F)c4ccc([nH]4)c(-c4c(F)c(F)c(F)c(F)c4F)c4nc(c(-c5c(F)c(F)c(F)c(F)c5F)c5ccc2[nH]5)C=C4)C=C3)cc1
REMARK SMILES IDX 5 1 4 2 3 3 2 4 1 5 32 6 33 7 94 8 34 9 93 10 35 11 36 12
REMARK SMILES IDX 37 13 87 14 38 15 92 16 86 17 88 18 39 19 91 20 85 21 84 22
REMARK SMILES IDX 40 24 72 25 52 26 71 27 53 28 56 29 70 30 89 31 54 32 55 33
REMARK SMILES IDX 69 35 90 36 57 37 41 38 42 39 50 40 43 41 44 42 48 43 51 44
REMARK SMILES IDX 45 45 46 46 49 47 47 48 73 49 74 50 82 51 75 52 76 53 80 54
REMARK SMILES IDX 83 55 77 56 78 57 81 58 79 59 58 60 59 61 67 62 60 63 61 64
REMARK SMILES IDX 65 65 68 66 62 67 63 68 66 69 64 70 6 71 7 72 8 73 9 74
REMARK SMILES IDX 10 75 31 76 11 77 13 78 12 79 14 80 15 81 16 82 17 83 30 84
REMARK SMILES IDX 18 85 29 86 19 87 20 88 21 89 22 90 23 91 24 92 28 93 25 94
REMARK SMILES IDX 27 95 26 96
REMARK H PARENT 88 23 56 34
REMARK Flexibility Score: inf
ROOT
ATOM      1  C   UNL A   1      39.009  21.232  25.850  1.00  0.00     0.274 C 
ENDROOT
BRANCH   1   2
ATOM      2  C   UNL A   1      39.176  19.791  25.372  1.00  0.00     0.275 C 
BRANCH   2   3
ATOM      3  O   UNL A   1      40.261  19.088  26.008  1.00  0.00    -0.458 OA
BRANCH   3   4
ATOM      4  C   UNL A   1      41.589  19.356  26.000  1.00  0.00     0.338 C 
ATOM      5  O   UNL A   1      42.376  18.443  25.752  1.00  0.00    -0.246 OA
BRANCH   4   6
ATOM      6  C   UNL A   1      42.181  20.664  26.428  1.00  0.00     0.060 A 
ATOM      7  C   UNL A   1      42.269  21.139  27.738  1.00  0.00     0.016 A 
ATOM      8  C   UNL A   1      42.651  21.500  25.395  1.00  0.00     0.016 A 
ATOM      9  C   UNL A   1      42.861  22.381  28.020  1.00  0.00     0.010 A 
ATOM     10  C   UNL A   1      43.247  22.738  25.671  1.00  0.00     0.010 A 
ATOM     11  C   UNL A   1      43.356  23.189  26.992  1.00  0.00    -0.014 A 
BRANCH  11  12
ATOM     12  C   UNL A   1      43.834  24.568  27.273  1.00  0.00     0.031 A 
ATOM     13  C   UNL A   1      42.808  25.617  27.597  1.00  0.00     0.074 A 
ATOM     14  C   UNL A   1      45.146  24.879  27.269  1.00  0.00     0.049 A 
ATOM     15  N   UNL A   1      42.972  26.898  27.803  1.00  0.00    -0.248 NA
ATOM     16  C   UNL A   1      41.416  25.156  27.736  1.00  0.00     0.031 C 
ATOM     17  C   UNL A   1      46.235  23.928  27.075  1.00  0.00     0.029 A 
ATOM     18  N   UNL A   1      45.791  26.088  27.403  1.00  0.00    -0.354 N 
ATOM     19  C   UNL A   1      41.719  27.377  28.165  1.00  0.00     0.074 A 
ATOM     20  C   UNL A   1      40.788  26.277  28.057  1.00  0.00     0.031 C 
ATOM     21  C   UNL A   1      47.402  24.591  27.013  1.00  0.00     0.029 A 
ATOM     22  C   UNL A   1      47.147  26.019  27.151  1.00  0.00     0.049 A 
ATOM     23  H   UNL A   1      45.331  26.920  27.655  1.00  0.00     0.167 HD
ATOM     24  C   UNL A   1      41.393  28.612  28.604  1.00  0.00     0.037 A 
ATOM     25  C   UNL A   1      48.058  27.004  26.993  1.00  0.00     0.037 A 
ATOM     26  C   UNL A   1      42.322  29.703  28.688  1.00  0.00     0.049 A 
ATOM     27  C   UNL A   1      47.593  28.430  27.189  1.00  0.00     0.074 A 
ATOM     28  C   UNL A   1      42.111  30.992  29.141  1.00  0.00     0.029 A 
ATOM     29  N   UNL A   1      43.647  29.627  28.288  1.00  0.00    -0.354 N 
ATOM     30  N   UNL A   1      46.422  28.866  27.590  1.00  0.00    -0.248 NA
ATOM     31  C   UNL A   1      48.557  29.503  26.902  1.00  0.00     0.031 C 
ATOM     32  C   UNL A   1      43.297  31.712  28.964  1.00  0.00     0.029 A 
ATOM     33  C   UNL A   1      44.253  30.862  28.431  1.00  0.00     0.049 A 
ATOM     34  H   UNL A   1      44.091  28.815  27.953  1.00  0.00     0.167 HD
ATOM     35  C   UNL A   1      46.530  30.247  27.663  1.00  0.00     0.074 A 
ATOM     36  C   UNL A   1      47.876  30.584  27.252  1.00  0.00     0.031 C 
ATOM     37  C   UNL A   1      45.605  31.158  28.043  1.00  0.00     0.037 A 
BRANCH  24  38
ATOM     38  C   UNL A   1      39.981  28.836  29.051  1.00  0.00     0.064 A 
ATOM     39  C   UNL A   1      38.999  29.267  28.146  1.00  0.00     0.173 A 
ATOM     40  C   UNL A   1      39.596  28.587  30.375  1.00  0.00     0.173 A 
ATOM     41  F   UNL A   1      39.324  29.534  26.872  1.00  0.00    -0.203 F 
ATOM     42  C   UNL A   1      37.681  29.452  28.554  1.00  0.00     0.198 A 
ATOM     43  C   UNL A   1      38.273  28.753  30.776  1.00  0.00     0.198 A 
ATOM     44  F   UNL A   1      40.500  28.176  31.276  1.00  0.00    -0.203 F 
ATOM     45  F   UNL A   1      36.765  29.893  27.682  1.00  0.00    -0.200 F 
ATOM     46  C   UNL A   1      37.318  29.188  29.867  1.00  0.00     0.200 A 
ATOM     47  F   UNL A   1      37.920  28.494  32.042  1.00  0.00    -0.200 F 
ATOM     48  F   UNL A   1      36.048  29.360  30.258  1.00  0.00    -0.200 F 
ENDBRANCH  24  38
BRANCH  25  49
ATOM     49  C   UNL A   1      49.439  26.724  26.484  1.00  0.00     0.064 A 
ATOM     50  C   UNL A   1      50.551  26.566  27.318  1.00  0.00     0.173 A 
ATOM     51  C   UNL A   1      49.693  26.764  25.105  1.00  0.00     0.173 A 
ATOM     52  F   UNL A   1      50.390  26.532  28.648  1.00  0.00    -0.203 F 
ATOM     53  C   UNL A   1      51.849  26.531  26.798  1.00  0.00     0.198 A 
ATOM     54  C   UNL A   1      50.980  26.703  24.578  1.00  0.00     0.198 A 
ATOM     55  F   UNL A   1      48.666  26.876  24.263  1.00  0.00    -0.203 F 
ATOM     56  F   UNL A   1      52.898  26.472  27.630  1.00  0.00    -0.200 F 
ATOM     57  C   UNL A   1      52.063  26.608  25.430  1.00  0.00     0.200 A 
ATOM     58  F   UNL A   1      51.166  26.771  23.253  1.00  0.00    -0.200 F 
ATOM     59  F   UNL A   1      53.309  26.611  24.937  1.00  0.00    -0.200 F 
ENDBRANCH  25  49
BRANCH  37  60
ATOM     60  C   UNL A   1      46.040  32.589  28.097  1.00  0.00     0.064 A 
ATOM     61  C   UNL A   1      46.665  33.121  29.232  1.00  0.00     0.173 A 
ATOM     62  C   UNL A   1      45.864  33.422  26.982  1.00  0.00     0.173 A 
ATOM     63  F   UNL A   1      46.826  32.367  30.330  1.00  0.00    -0.203 F 
ATOM     64  C   UNL A   1      47.092  34.445  29.252  1.00  0.00     0.198 A 
ATOM     65  C   UNL A   1      46.314  34.737  26.997  1.00  0.00     0.198 A 
ATOM     66  F   UNL A   1      45.270  32.952  25.876  1.00  0.00    -0.203 F 
ATOM     67  F   UNL A   1      47.656  34.949  30.359  1.00  0.00    -0.200 F 
ATOM     68  C   UNL A   1      46.925  35.249  28.132  1.00  0.00     0.200 A 
ATOM     69  F   UNL A   1      46.159  35.508  25.912  1.00  0.00    -0.200 F 
ATOM     70  F   UNL A   1      47.346  36.520  28.149  1.00  0.00    -0.200 F 
ENDBRANCH  37  60
ENDBRANCH  11  12
ENDBRANCH   4   6
ENDBRANCH   3   4
ENDBRANCH   2   3
ENDBRANCH   1   2
BRANCH   1  71
ATOM     71  O   UNL A   1      37.824  21.813  25.300  1.00  0.00    -0.462 OA
BRANCH  71  72
ATOM     72  C   UNL A   1      37.577  23.122  25.611  1.00  0.00     0.310 C 
ATOM     73  O   UNL A   1      38.375  23.886  26.127  1.00  0.00    -0.252 OA
BRANCH  72  74
ATOM     74  C   UNL A   1      36.177  23.483  25.163  1.00  0.00     0.119 C 
ATOM     75  C   UNL A   1      35.932  22.941  23.751  1.00  0.00     0.019 C 
ATOM     76  C   UNL A   1      35.106  23.015  26.153  1.00  0.00     0.134 C 
ATOM     77  C   UNL A   1      34.503  23.198  23.304  1.00  0.00     0.022 C 
ATOM     78  N   UNL A   1      33.754  23.266  25.618  1.00  0.00    -0.342 N 
ATOM     79  C   UNL A   1      33.535  22.640  24.335  1.00  0.00     0.119 C 
BRANCH  78  80
ATOM     80  C   UNL A   1      32.917  24.180  26.229  1.00  0.00     0.225 C 
ATOM     81  O   UNL A   1      31.987  23.770  26.937  1.00  0.00    -0.275 OA
BRANCH  80  82
ATOM     82  C   UNL A   1      33.067  25.723  26.093  1.00  0.00     0.081 C 
ATOM     83  C   UNL A   1      31.967  26.633  26.615  1.00  0.00     0.030 C 
ATOM     84  C   UNL A   1      33.652  26.256  24.797  1.00  0.00     0.030 C 
ATOM     85  C   UNL A   1      30.975  27.184  25.604  1.00  0.00     0.103 C 
ATOM     86  C   UNL A   1      32.632  26.619  23.740  1.00  0.00     0.103 C 
ATOM     87  N   UNL A   1      31.490  27.449  24.211  1.00  0.00    -0.198 NA
BRANCH  87  88
ATOM     88  S   UNL A   1      30.115  27.461  23.124  1.00  0.00     0.243 S 
ATOM     89  O   UNL A   1      30.668  27.454  21.777  1.00  0.00    -0.207 OA
ATOM     90  O   UNL A   1      29.248  26.391  23.548  1.00  0.00    -0.207 OA
BRANCH  88  91
ATOM     91  C   UNL A   1      29.245  29.000  23.336  1.00  0.00     0.082 A 
ATOM     92  C   UNL A   1      27.940  29.106  22.841  1.00  0.00     0.022 A 
ATOM     93  C   UNL A   1      29.901  30.146  23.803  1.00  0.00     0.022 A 
ATOM     94  C   UNL A   1      27.279  30.336  22.876  1.00  0.00     0.001 A 
ATOM     95  C   UNL A   1      29.222  31.362  23.876  1.00  0.00     0.001 A 
ATOM     96  C   UNL A   1      27.910  31.455  23.417  1.00  0.00     0.000 A 
ENDBRANCH  88  91
ENDBRANCH  87  88
ENDBRANCH  80  82
ENDBRANCH  78  80
ENDBRANCH  72  74
ENDBRANCH  71  72
ENDBRANCH   1  71
TORSDOF 15
ENDMDL
MODEL 3
REMARK VINA RESULT:     -13.0      4.597      8.939
REMARK SMILES O=C(OCCOC(=O)[C@H]1CCCN(C(=O)C2CCN(S(=O)(=O)c3ccccc3)CC2)C1)c1ccc(-c2c3nc(c(-c4c(F)c(F)c(F)c(F)c4F)c4ccc([nH]4)c(-c4c(F)c(F)c(F)c(F)c4F)c4nc(c(-c5c(F)c(F)c(F)c(F)c5F)c5ccc2[nH]5)C=C4)C=C3)cc1
REMARK SMILES IDX 5 1 4 2 3 3 2 4 1 5 32 6 33 7 94 8 34 9 93 10 35 11 36 12
REMARK SMILES IDX 37 13 87 14 38 15 92 16 86 17 88 18 39 19 91 20 85 21 84 22
REMARK SMILES IDX 40 24 72 25 52 26 71 27 53 28 56 29 70 30 89 31 54 32 55 33
REMARK SMILES IDX 69 35 90 36 57 37 41 38 42 39 50 40 43 41 44 42 48 43 51 44
REMARK SMILES IDX 45 45 46 46 49 47 47 48 73 49 74 50 82 51 75 52 76 53 80 54
REMARK SMILES IDX 83 55 77 56 78 57 81 58 79 59 58 60 59 61 67 62 60 63 61 64
REMARK SMILES IDX 65 65 68 66 62 67 63 68 66 69 64 70 6 71 7 72 8 73 9 74
REMARK SMILES IDX 10 75 31 76 11 77 13 78 12 79 14 80 15 81 16 82 17 83 30 84
REMARK SMILES IDX 18 85 29 86 19 87 20 88 21 89 22 90 23 91 24 92 28 93 25 94
REMARK SMILES IDX 27 95 26 96
REMARK H PARENT 88 23 56 34
REMARK Flexibility Score: inf
ROOT
ATOM      1  C   UNL A   1      39.071  21.164  25.402  1.00  0.00     0.274 C 
ENDROOT
BRANCH   1   2
ATOM      2  C   UNL A   1      39.368  19.828  26.079  1.00  0.00     0.275 C 
BRANCH   2   3
ATOM      3  O   UNL A   1      40.591  19.209  25.636  1.00  0.00    -0.458 OA
BRANCH   3   4
ATOM      4  C   UNL A   1      41.863  19.401  26.063  1.00  0.00     0.338 C 
ATOM      5  O   UNL A   1      42.596  18.422  26.199  1.00  0.00    -0.246 OA
BRANCH   4   6
ATOM      6  C   UNL A   1      42.398  20.720  26.531  1.00  0.00     0.060 A 
ATOM      7  C   UNL A   1      42.426  21.175  27.851  1.00  0.00     0.016 A 
ATOM      8  C   UNL A   1      42.876  21.588  25.529  1.00  0.00     0.016 A 
ATOM      9  C   UNL A   1      42.969  22.429  28.173  1.00  0.00     0.010 A 
ATOM     10  C   UNL A   1      43.423  22.839  25.845  1.00  0.00     0.010 A 
ATOM     11  C   UNL A   1      43.473  23.270  27.175  1.00  0.00    -0.014 A 
BRANCH  11  12
ATOM     12  C   UNL A   1      43.897  24.658  27.495  1.00  0.00     0.031 A 
ATOM     13  C   UNL A   1      42.828  25.669  27.802  1.00  0.00     0.074 A 
ATOM     14  C   UNL A   1      45.197  25.011  27.539  1.00  0.00     0.049 A 
ATOM     15  N   UNL A   1      42.943  26.950  28.035  1.00  0.00    -0.248 NA
ATOM     16  C   UNL A   1      41.447  25.161  27.888  1.00  0.00     0.031 C 
ATOM     17  C   UNL A   1      46.322  24.098  27.365  1.00  0.00     0.029 A 
ATOM     18  N   UNL A   1      45.799  26.237  27.714  1.00  0.00    -0.354 N 
ATOM     19  C   UNL A   1      41.665  27.383  28.363  1.00  0.00     0.074 A 
ATOM     20  C   UNL A   1      40.774  26.256  28.206  1.00  0.00     0.031 C 
ATOM     21  C   UNL A   1      47.468  24.798  27.352  1.00  0.00     0.029 A 
ATOM     22  C   UNL A   1      47.163  26.216  27.506  1.00  0.00     0.049 A 
ATOM     23  H   UNL A   1      45.304  27.050  27.965  1.00  0.00     0.167 HD
ATOM     24  C   UNL A   1      41.285  28.600  28.812  1.00  0.00     0.037 A 
ATOM     25  C   UNL A   1      48.046  27.231  27.394  1.00  0.00     0.037 A 
ATOM     26  C   UNL A   1      42.176  29.717  28.944  1.00  0.00     0.049 A 
ATOM     27  C   UNL A   1      47.530  28.638  27.597  1.00  0.00     0.074 A 
ATOM     28  C   UNL A   1      41.909  30.991  29.411  1.00  0.00     0.029 A 
ATOM     29  N   UNL A   1      43.514  29.690  28.586  1.00  0.00    -0.354 N 
ATOM     30  N   UNL A   1      46.333  29.029  27.967  1.00  0.00    -0.248 NA
ATOM     31  C   UNL A   1      48.468  29.746  27.360  1.00  0.00     0.031 C 
ATOM     32  C   UNL A   1      43.076  31.751  29.285  1.00  0.00     0.029 A 
ATOM     33  C   UNL A   1      44.076  30.941  28.769  1.00  0.00     0.049 A 
ATOM     34  H   UNL A   1      43.995  28.899  28.253  1.00  0.00     0.167 HD
ATOM     35  C   UNL A   1      46.395  30.412  28.067  1.00  0.00     0.074 A 
ATOM     36  C   UNL A   1      47.742  30.798  27.706  1.00  0.00     0.031 C 
ATOM     37  C   UNL A   1      45.429  31.287  28.431  1.00  0.00     0.037 A 
BRANCH  24  38
ATOM     38  C   UNL A   1      39.853  28.771  29.216  1.00  0.00     0.064 A 
ATOM     39  C   UNL A   1      39.438  28.496  30.528  1.00  0.00     0.173 A 
ATOM     40  C   UNL A   1      38.899  29.245  28.307  1.00  0.00     0.173 A 
ATOM     41  F   UNL A   1      40.314  28.025  31.429  1.00  0.00    -0.203 F 
ATOM     42  C   UNL A   1      38.113  28.679  30.913  1.00  0.00     0.198 A 
ATOM     43  C   UNL A   1      37.578  29.445  28.700  1.00  0.00     0.198 A 
ATOM     44  F   UNL A   1      39.248  29.520  27.042  1.00  0.00    -0.203 F 
ATOM     45  F   UNL A   1      37.731  28.381  32.163  1.00  0.00    -0.200 F 
ATOM     46  C   UNL A   1      37.185  29.159  30.001  1.00  0.00     0.200 A 
ATOM     47  F   UNL A   1      36.683  29.915  27.820  1.00  0.00    -0.200 F 
ATOM     48  F   UNL A   1      35.911  29.341  30.372  1.00  0.00    -0.200 F 
ENDBRANCH  24  38
BRANCH  25  49
ATOM     49  C   UNL A   1      49.451  27.004  26.925  1.00  0.00     0.064 A 
ATOM     50  C   UNL A   1      49.822  26.995  25.575  1.00  0.00     0.173 A 
ATOM     51  C   UNL A   1      50.441  26.633  27.846  1.00  0.00     0.173 A 
ATOM     52  F   UNL A   1      48.926  27.326  24.634  1.00  0.00    -0.203 F 
ATOM     53  C   UNL A   1      51.089  26.560  25.173  1.00  0.00     0.198 A 
ATOM     54  C   UNL A   1      51.713  26.222  27.455  1.00  0.00     0.198 A 
ATOM     55  F   UNL A   1      50.154  26.659  29.147  1.00  0.00    -0.203 F 
ATOM     56  F   UNL A   1      51.380  26.474  23.868  1.00  0.00    -0.200 F 
ATOM     57  C   UNL A   1      52.030  26.165  26.112  1.00  0.00     0.200 A 
ATOM     58  F   UNL A   1      52.611  25.854  28.378  1.00  0.00    -0.200 F 
ATOM     59  F   UNL A   1      53.229  25.714  25.723  1.00  0.00    -0.200 F 
ENDBRANCH  25  49
BRANCH  37  60
ATOM     60  C   UNL A   1      45.816  32.729  28.523  1.00  0.00     0.064 A 
ATOM     61  C   UNL A   1      45.634  33.606  27.446  1.00  0.00     0.173 A 
ATOM     62  C   UNL A   1      46.338  33.244  29.718  1.00  0.00     0.173 A 
ATOM     63  F   UNL A   1      45.165  33.148  26.275  1.00  0.00    -0.203 F 
ATOM     64  C   UNL A   1      45.969  34.951  27.560  1.00  0.00     0.198 A 
ATOM     65  C   UNL A   1      46.650  34.593  29.837  1.00  0.00     0.198 A 
ATOM     66  F   UNL A   1      46.530  32.439  30.774  1.00  0.00    -0.203 F 
ATOM     67  F   UNL A   1      45.821  35.769  26.509  1.00  0.00    -0.200 F 
ATOM     68  C   UNL A   1      46.467  35.446  28.759  1.00  0.00     0.200 A 
ATOM     69  F   UNL A   1      47.123  35.070  30.996  1.00  0.00    -0.200 F 
ATOM     70  F   UNL A   1      46.781  36.743  28.870  1.00  0.00    -0.200 F 
ENDBRANCH  37  60
ENDBRANCH  11  12
ENDBRANCH   4   6
ENDBRANCH   3   4
ENDBRANCH   2   3
ENDBRANCH   1   2
BRANCH   1  71
ATOM     71  O   UNL A   1      37.832  21.704  25.869  1.00  0.00    -0.462 OA
BRANCH  71  72
ATOM     72  C   UNL A   1      37.701  23.065  25.837  1.00  0.00     0.310 C 
ATOM     73  O   UNL A   1      38.564  23.864  26.161  1.00  0.00    -0.252 OA
BRANCH  72  74
ATOM     74  C   UNL A   1      36.337  23.420  25.287  1.00  0.00     0.119 C 
ATOM     75  C   UNL A   1      36.248  22.997  23.817  1.00  0.00     0.019 C 
ATOM     76  C   UNL A   1      35.196  22.832  26.124  1.00  0.00     0.134 C 
ATOM     77  C   UNL A   1      34.859  23.247  23.256  1.00  0.00     0.022 C 
ATOM     78  N   UNL A   1      33.891  23.086  25.482  1.00  0.00    -0.342 N 
ATOM     79  C   UNL A   1      33.820  22.569  24.135  1.00  0.00     0.119 C 
BRANCH  78  80
ATOM     80  C   UNL A   1      32.965  23.915  26.084  1.00  0.00     0.225 C 
ATOM     81  O   UNL A   1      31.991  23.413  26.664  1.00  0.00    -0.275 OA
BRANCH  80  82
ATOM     82  C   UNL A   1      33.062  25.467  26.091  1.00  0.00     0.081 C 
ATOM     83  C   UNL A   1      31.901  26.290  26.629  1.00  0.00     0.030 C 
ATOM     84  C   UNL A   1      33.692  26.133  24.882  1.00  0.00     0.030 C 
ATOM     85  C   UNL A   1      30.943  26.895  25.615  1.00  0.00     0.103 C 
ATOM     86  C   UNL A   1      32.716  26.555  23.805  1.00  0.00     0.103 C 
ATOM     87  N   UNL A   1      31.521  27.300  24.282  1.00  0.00    -0.198 NA
BRANCH  87  88
ATOM     88  S   UNL A   1      30.205  27.362  23.125  1.00  0.00     0.243 S 
ATOM     89  O   UNL A   1      30.829  27.422  21.810  1.00  0.00    -0.207 OA
ATOM     90  O   UNL A   1      29.322  26.271  23.448  1.00  0.00    -0.207 OA
BRANCH  88  91
ATOM     91  C   UNL A   1      29.317  28.887  23.365  1.00  0.00     0.082 A 
ATOM     92  C   UNL A   1      27.976  28.951  22.969  1.00  0.00     0.022 A 
ATOM     93  C   UNL A   1      29.980  30.058  23.751  1.00  0.00     0.022 A 
ATOM     94  C   UNL A   1      27.290  30.166  23.025  1.00  0.00     0.001 A 
ATOM     95  C   UNL A   1      29.280  31.261  23.845  1.00  0.00     0.001 A 
ATOM     96  C   UNL A   1      27.934  31.313  23.488  1.00  0.00     0.000 A 
ENDBRANCH  88  91
ENDBRANCH  87  88
ENDBRANCH  80  82
ENDBRANCH  78  80
ENDBRANCH  72  74
ENDBRANCH  71  72
ENDBRANCH   1  71
TORSDOF 15
ENDMDL
