MODEL 1
REMARK VINA RESULT:     -10.5      0.000      0.000
REMARK SMILES O=C(OCCOC(=O)c1ccccc1Nc1cccc(C(F)(F)F)c1)c1ccc(-c2c3nc(c(-c4c(F)c(F)c(F)c(F)c4F)c4ccc([nH]4)c(-c4c(F)c(F)c(F)c(F)c4F)c4nc(c(-c5c(F)c(F)c(F)c(F)c5F)c5ccc2[nH]5)C=C4)C=C3)cc1
REMARK SMILES IDX 5 1 4 2 3 3 2 4 1 5 26 6 27 7 88 8 28 9 87 10 29 11 30 12
REMARK SMILES IDX 31 13 81 14 32 15 86 16 80 17 82 18 33 19 85 20 79 21 78 22
REMARK SMILES IDX 34 24 66 25 46 26 65 27 47 28 50 29 64 30 83 31 48 32 49 33
REMARK SMILES IDX 63 35 84 36 51 37 35 38 36 39 44 40 37 41 38 42 42 43 45 44
REMARK SMILES IDX 39 45 40 46 43 47 41 48 67 49 68 50 76 51 69 52 70 53 74 54
REMARK SMILES IDX 77 55 71 56 72 57 75 58 73 59 52 60 53 61 61 62 54 63 55 64
REMARK SMILES IDX 59 65 62 66 56 67 57 68 60 69 58 70 6 71 7 72 8 73 9 74
REMARK SMILES IDX 10 75 14 76 11 77 13 78 12 79 15 80 16 82 17 83 25 84 18 85
REMARK SMILES IDX 20 86 19 87 21 88 22 89 23 90 24 91
REMARK H PARENT 82 23 50 34 15 81
REMARK Flexibility Score: inf
ROOT
ATOM      1  C   UNL A   1      33.688  34.582  29.691  1.00  0.00     0.275 C 
ENDROOT
BRANCH   1   2
ATOM      2  C   UNL A   1      34.213  34.957  28.302  1.00  0.00     0.275 C 
BRANCH   2   3
ATOM      3  O   UNL A   1      34.393  33.824  27.434  1.00  0.00    -0.458 OA
BRANCH   3   4
ATOM      4  C   UNL A   1      34.353  32.500  27.701  1.00  0.00     0.338 C 
ATOM      5  O   UNL A   1      33.268  31.923  27.625  1.00  0.00    -0.246 OA
BRANCH   4   6
ATOM      6  C   UNL A   1      35.517  31.697  28.210  1.00  0.00     0.060 A 
ATOM      7  C   UNL A   1      35.521  30.337  28.531  1.00  0.00     0.016 A 
ATOM      8  C   UNL A   1      36.726  32.405  28.378  1.00  0.00     0.016 A 
ATOM      9  C   UNL A   1      36.683  29.699  28.984  1.00  0.00     0.010 A 
ATOM     10  C   UNL A   1      37.893  31.776  28.826  1.00  0.00     0.010 A 
ATOM     11  C   UNL A   1      37.870  30.418  29.145  1.00  0.00    -0.014 A 
BRANCH  11  12
ATOM     12  C   UNL A   1      39.021  29.780  29.824  1.00  0.00     0.031 A 
ATOM     13  C   UNL A   1      39.224  30.085  31.265  1.00  0.00     0.074 A 
ATOM     14  C   UNL A   1      39.840  28.937  29.174  1.00  0.00     0.049 A 
ATOM     15  N   UNL A   1      40.113  29.607  32.089  1.00  0.00    -0.248 NA
ATOM     16  C   UNL A   1      38.310  31.076  31.854  1.00  0.00     0.031 C 
ATOM     17  C   UNL A   1      39.671  28.600  27.778  1.00  0.00     0.029 A 
ATOM     18  N   UNL A   1      40.926  28.196  29.557  1.00  0.00    -0.354 N 
ATOM     19  C   UNL A   1      39.895  30.270  33.284  1.00  0.00     0.074 A 
ATOM     20  C   UNL A   1      38.785  31.174  33.083  1.00  0.00     0.031 C 
ATOM     21  C   UNL A   1      40.572  27.678  27.414  1.00  0.00     0.029 A 
ATOM     22  C   UNL A   1      41.409  27.369  28.563  1.00  0.00     0.049 A 
ATOM     23  H   UNL A   1      41.324  28.247  30.457  1.00  0.00     0.167 HD
ATOM     24  C   UNL A   1      40.599  30.148  34.430  1.00  0.00     0.037 A 
ATOM     25  C   UNL A   1      42.388  26.441  28.599  1.00  0.00     0.037 A 
ATOM     26  C   UNL A   1      41.723  29.263  34.570  1.00  0.00     0.049 A 
ATOM     27  C   UNL A   1      43.097  26.265  29.917  1.00  0.00     0.074 A 
ATOM     28  C   UNL A   1      42.566  29.096  35.650  1.00  0.00     0.029 A 
ATOM     29  N   UNL A   1      42.165  28.397  33.572  1.00  0.00    -0.354 N 
ATOM     30  N   UNL A   1      42.869  26.875  31.059  1.00  0.00    -0.248 NA
ATOM     31  C   UNL A   1      44.193  25.291  29.966  1.00  0.00     0.031 C 
ATOM     32  C   UNL A   1      43.548  28.166  35.290  1.00  0.00     0.029 A 
ATOM     33  C   UNL A   1      43.282  27.706  34.007  1.00  0.00     0.049 A 
ATOM     34  H   UNL A   1      41.744  28.292  32.688  1.00  0.00     0.167 HD
ATOM     35  C   UNL A   1      43.777  26.352  31.963  1.00  0.00     0.074 A 
ATOM     36  C   UNL A   1      44.532  25.340  31.247  1.00  0.00     0.031 C 
ATOM     37  C   UNL A   1      43.990  26.695  33.258  1.00  0.00     0.037 A 
BRANCH  24  38
ATOM     38  C   UNL A   1      40.224  31.087  35.538  1.00  0.00     0.064 A 
ATOM     39  C   UNL A   1      39.010  30.973  36.234  1.00  0.00     0.173 A 
ATOM     40  C   UNL A   1      41.045  32.187  35.826  1.00  0.00     0.173 A 
ATOM     41  F   UNL A   1      38.170  29.962  35.965  1.00  0.00    -0.203 F 
ATOM     42  C   UNL A   1      38.609  31.955  37.136  1.00  0.00     0.198 A 
ATOM     43  C   UNL A   1      40.657  33.148  36.754  1.00  0.00     0.198 A 
ATOM     44  F   UNL A   1      42.208  32.352  35.177  1.00  0.00    -0.203 F 
ATOM     45  F   UNL A   1      37.403  31.877  37.717  1.00  0.00    -0.200 F 
ATOM     46  C   UNL A   1      39.432  33.041  37.395  1.00  0.00     0.200 A 
ATOM     47  F   UNL A   1      41.453  34.197  37.001  1.00  0.00    -0.200 F 
ATOM     48  F   UNL A   1      39.034  33.998  38.244  1.00  0.00    -0.200 F 
ENDBRANCH  24  38
BRANCH  25  49
ATOM     49  C   UNL A   1      42.659  25.563  27.418  1.00  0.00     0.064 A 
ATOM     50  C   UNL A   1      43.704  25.854  26.525  1.00  0.00     0.173 A 
ATOM     51  C   UNL A   1      41.937  24.381  27.178  1.00  0.00     0.173 A 
ATOM     52  F   UNL A   1      44.416  26.983  26.665  1.00  0.00    -0.203 F 
ATOM     53  C   UNL A   1      44.023  25.005  25.465  1.00  0.00     0.198 A 
ATOM     54  C   UNL A   1      42.279  23.514  26.137  1.00  0.00     0.198 A 
ATOM     55  F   UNL A   1      40.917  24.040  27.980  1.00  0.00    -0.203 F 
ATOM     56  F   UNL A   1      45.018  25.328  24.626  1.00  0.00    -0.200 F 
ATOM     57  C   UNL A   1      43.321  23.827  25.282  1.00  0.00     0.200 A 
ATOM     58  F   UNL A   1      41.607  22.365  25.978  1.00  0.00    -0.200 F 
ATOM     59  F   UNL A   1      43.650  22.994  24.284  1.00  0.00    -0.200 F 
ENDBRANCH  25  49
BRANCH  37  60
ATOM     60  C   UNL A   1      45.086  25.966  33.977  1.00  0.00     0.064 A 
ATOM     61  C   UNL A   1      46.398  26.458  33.997  1.00  0.00     0.173 A 
ATOM     62  C   UNL A   1      44.799  24.811  34.720  1.00  0.00     0.173 A 
ATOM     63  F   UNL A   1      46.719  27.555  33.293  1.00  0.00    -0.203 F 
ATOM     64  C   UNL A   1      47.392  25.809  34.721  1.00  0.00     0.198 A 
ATOM     65  C   UNL A   1      45.789  24.183  35.467  1.00  0.00     0.198 A 
ATOM     66  F   UNL A   1      43.555  24.310  34.738  1.00  0.00    -0.203 F 
ATOM     67  F   UNL A   1      48.648  26.274  34.695  1.00  0.00    -0.200 F 
ATOM     68  C   UNL A   1      47.084  24.678  35.463  1.00  0.00     0.200 A 
ATOM     69  F   UNL A   1      45.487  23.101  36.199  1.00  0.00    -0.200 F 
ATOM     70  F   UNL A   1      48.039  24.064  36.175  1.00  0.00    -0.200 F 
ENDBRANCH  37  60
ENDBRANCH  11  12
ENDBRANCH   4   6
ENDBRANCH   3   4
ENDBRANCH   2   3
ENDBRANCH   1   2
BRANCH   1  71
ATOM     71  O   UNL A   1      34.695  34.681  30.714  1.00  0.00    -0.458 OA
BRANCH  71  72
ATOM     72  C   UNL A   1      34.833  33.549  31.463  1.00  0.00     0.340 C 
ATOM     73  O   UNL A   1      34.330  32.470  31.231  1.00  0.00    -0.246 OA
BRANCH  72  74
ATOM     74  C   UNL A   1      35.809  33.753  32.557  1.00  0.00     0.083 A 
ATOM     75  C   UNL A   1      35.391  33.295  33.822  1.00  0.00     0.018 A 
ATOM     76  C   UNL A   1      37.060  34.379  32.392  1.00  0.00     0.053 A 
ATOM     77  C   UNL A   1      36.198  33.470  34.941  1.00  0.00     0.001 A 
ATOM     78  C   UNL A   1      37.766  34.693  33.566  1.00  0.00     0.027 A 
ATOM     79  C   UNL A   1      37.369  34.203  34.818  1.00  0.00     0.002 A 
BRANCH  76  80
ATOM     80  N   UNL A   1      37.589  34.687  31.113  1.00  0.00    -0.355 N 
ATOM     81  H   UNL A   1      36.940  35.001  30.442  1.00  0.00     0.167 HD
BRANCH  80  82
ATOM     82  C   UNL A   1      38.928  34.600  30.682  1.00  0.00     0.039 A 
ATOM     83  C   UNL A   1      39.288  35.009  29.396  1.00  0.00     0.026 A 
ATOM     84  C   UNL A   1      39.933  34.134  31.543  1.00  0.00     0.039 A 
ATOM     85  C   UNL A   1      40.619  34.953  28.975  1.00  0.00     0.003 A 
ATOM     86  C   UNL A   1      41.285  34.120  31.153  1.00  0.00     0.058 A 
ATOM     87  C   UNL A   1      41.614  34.518  29.850  1.00  0.00     0.013 A 
BRANCH  86  88
ATOM     88  C   UNL A   1      42.377  33.709  32.114  1.00  0.00     0.416 C 
ATOM     89  F   UNL A   1      42.347  32.377  32.392  1.00  0.00    -0.166 F 
ATOM     90  F   UNL A   1      43.620  33.954  31.615  1.00  0.00    -0.166 F 
ATOM     91  F   UNL A   1      42.318  34.344  33.316  1.00  0.00    -0.166 F 
ENDBRANCH  86  88
ENDBRANCH  80  82
ENDBRANCH  76  80
ENDBRANCH  72  74
ENDBRANCH  71  72
ENDBRANCH   1  71
TORSDOF 14
ENDMDL
MODEL 2
REMARK VINA RESULT:     -10.5      5.858     12.465
REMARK SMILES O=C(OCCOC(=O)c1ccccc1Nc1cccc(C(F)(F)F)c1)c1ccc(-c2c3nc(c(-c4c(F)c(F)c(F)c(F)c4F)c4ccc([nH]4)c(-c4c(F)c(F)c(F)c(F)c4F)c4nc(c(-c5c(F)c(F)c(F)c(F)c5F)c5ccc2[nH]5)C=C4)C=C3)cc1
REMARK SMILES IDX 5 1 4 2 3 3 2 4 1 5 26 6 27 7 88 8 28 9 87 10 29 11 30 12
REMARK SMILES IDX 31 13 81 14 32 15 86 16 80 17 82 18 33 19 85 20 79 21 78 22
REMARK SMILES IDX 34 24 66 25 46 26 65 27 47 28 50 29 64 30 83 31 48 32 49 33
REMARK SMILES IDX 63 35 84 36 51 37 35 38 36 39 44 40 37 41 38 42 42 43 45 44
REMARK SMILES IDX 39 45 40 46 43 47 41 48 67 49 68 50 76 51 69 52 70 53 74 54
REMARK SMILES IDX 77 55 71 56 72 57 75 58 73 59 52 60 53 61 61 62 54 63 55 64
REMARK SMILES IDX 59 65 62 66 56 67 57 68 60 69 58 70 6 71 7 72 8 73 9 74
REMARK SMILES IDX 10 75 14 76 11 77 13 78 12 79 15 80 16 82 17 83 25 84 18 85
REMARK SMILES IDX 20 86 19 87 21 88 22 89 23 90 24 91
REMARK H PARENT 82 23 50 34 15 81
REMARK Flexibility Score: inf
ROOT
ATOM      1  C   UNL A   1      37.123  21.898  24.266  1.00  0.00     0.275 C 
ENDROOT
BRANCH   1   2
ATOM      2  C   UNL A   1      37.457  20.926  25.402  1.00  0.00     0.275 C 
BRANCH   2   3
ATOM      3  O   UNL A   1      38.862  20.637  25.511  1.00  0.00    -0.458 OA
BRANCH   3   4
ATOM      4  C   UNL A   1      39.754  20.966  26.471  1.00  0.00     0.338 C 
ATOM      5  O   UNL A   1      40.228  20.062  27.159  1.00  0.00    -0.246 OA
BRANCH   4   6
ATOM      6  C   UNL A   1      40.118  22.374  26.851  1.00  0.00     0.060 A 
ATOM      7  C   UNL A   1      39.524  23.549  26.383  1.00  0.00     0.016 A 
ATOM      8  C   UNL A   1      41.173  22.507  27.779  1.00  0.00     0.016 A 
ATOM      9  C   UNL A   1      39.948  24.806  26.830  1.00  0.00     0.010 A 
ATOM     10  C   UNL A   1      41.600  23.758  28.235  1.00  0.00     0.010 A 
ATOM     11  C   UNL A   1      40.995  24.918  27.748  1.00  0.00    -0.014 A 
BRANCH  11  12
ATOM     12  C   UNL A   1      41.568  26.251  28.041  1.00  0.00     0.031 A 
ATOM     13  C   UNL A   1      42.886  26.582  27.437  1.00  0.00     0.074 A 
ATOM     14  C   UNL A   1      40.914  27.143  28.805  1.00  0.00     0.049 A 
ATOM     15  N   UNL A   1      43.558  27.696  27.492  1.00  0.00    -0.248 NA
ATOM     16  C   UNL A   1      43.541  25.504  26.680  1.00  0.00     0.031 C 
ATOM     17  C   UNL A   1      39.625  26.869  29.399  1.00  0.00     0.029 A 
ATOM     18  N   UNL A   1      41.185  28.428  29.193  1.00  0.00    -0.354 N 
ATOM     19  C   UNL A   1      44.738  27.443  26.814  1.00  0.00     0.074 A 
ATOM     20  C   UNL A   1      44.685  26.076  26.347  1.00  0.00     0.031 C 
ATOM     21  C   UNL A   1      39.170  27.958  30.034  1.00  0.00     0.029 A 
ATOM     22  C   UNL A   1      40.161  29.016  29.907  1.00  0.00     0.049 A 
ATOM     23  H   UNL A   1      42.029  28.889  28.982  1.00  0.00     0.167 HD
ATOM     24  C   UNL A   1      45.782  28.282  26.641  1.00  0.00     0.037 A 
ATOM     25  C   UNL A   1      40.030  30.278  30.365  1.00  0.00     0.037 A 
ATOM     26  C   UNL A   1      45.805  29.622  27.161  1.00  0.00     0.049 A 
ATOM     27  C   UNL A   1      41.173  31.217  30.080  1.00  0.00     0.074 A 
ATOM     28  C   UNL A   1      46.825  30.551  27.119  1.00  0.00     0.029 A 
ATOM     29  N   UNL A   1      44.741  30.218  27.835  1.00  0.00    -0.354 N 
ATOM     30  N   UNL A   1      42.279  30.983  29.411  1.00  0.00    -0.248 NA
ATOM     31  C   UNL A   1      41.069  32.583  30.607  1.00  0.00     0.031 C 
ATOM     32  C   UNL A   1      46.399  31.690  27.812  1.00  0.00     0.029 A 
ATOM     33  C   UNL A   1      45.090  31.497  28.231  1.00  0.00     0.049 A 
ATOM     34  H   UNL A   1      43.870  29.791  28.005  1.00  0.00     0.167 HD
ATOM     35  C   UNL A   1      42.995  32.168  29.421  1.00  0.00     0.074 A 
ATOM     36  C   UNL A   1      42.174  33.136  30.126  1.00  0.00     0.031 C 
ATOM     37  C   UNL A   1      44.228  32.428  28.921  1.00  0.00     0.037 A 
BRANCH  24  38
ATOM     38  C   UNL A   1      46.993  27.701  25.974  1.00  0.00     0.064 A 
ATOM     39  C   UNL A   1      48.085  27.211  26.706  1.00  0.00     0.173 A 
ATOM     40  C   UNL A   1      47.105  27.744  24.576  1.00  0.00     0.173 A 
ATOM     41  F   UNL A   1      48.045  27.188  28.047  1.00  0.00    -0.203 F 
ATOM     42  C   UNL A   1      49.264  26.837  26.066  1.00  0.00     0.198 A 
ATOM     43  C   UNL A   1      48.272  27.336  23.938  1.00  0.00     0.198 A 
ATOM     44  F   UNL A   1      46.096  28.218  23.830  1.00  0.00    -0.203 F 
ATOM     45  F   UNL A   1      50.329  26.463  26.791  1.00  0.00    -0.200 F 
ATOM     46  C   UNL A   1      49.357  26.900  24.683  1.00  0.00     0.200 A 
ATOM     47  F   UNL A   1      48.359  27.399  22.602  1.00  0.00    -0.200 F 
ATOM     48  F   UNL A   1      50.500  26.565  24.071  1.00  0.00    -0.200 F 
ENDBRANCH  24  38
BRANCH  25  49
ATOM     49  C   UNL A   1      38.760  30.733  31.015  1.00  0.00     0.064 A 
ATOM     50  C   UNL A   1      38.634  30.763  32.414  1.00  0.00     0.173 A 
ATOM     51  C   UNL A   1      37.666  31.209  30.273  1.00  0.00     0.173 A 
ATOM     52  F   UNL A   1      39.621  30.292  33.190  1.00  0.00    -0.203 F 
ATOM     53  C   UNL A   1      37.488  31.259  33.037  1.00  0.00     0.198 A 
ATOM     54  C   UNL A   1      36.533  31.737  30.898  1.00  0.00     0.198 A 
ATOM     55  F   UNL A   1      37.705  31.201  28.932  1.00  0.00    -0.203 F 
ATOM     56  F   UNL A   1      37.402  31.257  34.376  1.00  0.00    -0.200 F 
ATOM     57  C   UNL A   1      36.445  31.761  32.280  1.00  0.00     0.200 A 
ATOM     58  F   UNL A   1      35.535  32.240  30.158  1.00  0.00    -0.200 F 
ATOM     59  F   UNL A   1      35.360  32.270  32.880  1.00  0.00    -0.200 F 
ENDBRANCH  25  49
BRANCH  37  60
ATOM     60  C   UNL A   1      44.759  33.816  29.123  1.00  0.00     0.064 A 
ATOM     61  C   UNL A   1      45.498  34.154  30.265  1.00  0.00     0.173 A 
ATOM     62  C   UNL A   1      44.597  34.788  28.125  1.00  0.00     0.173 A 
ATOM     63  F   UNL A   1      45.670  33.258  31.249  1.00  0.00    -0.203 F 
ATOM     64  C   UNL A   1      46.040  35.426  30.412  1.00  0.00     0.198 A 
ATOM     65  C   UNL A   1      45.168  36.049  28.262  1.00  0.00     0.198 A 
ATOM     66  F   UNL A   1      43.906  34.506  27.011  1.00  0.00    -0.203 F 
ATOM     67  F   UNL A   1      46.710  35.741  31.529  1.00  0.00    -0.200 F 
ATOM     68  C   UNL A   1      45.884  36.368  29.406  1.00  0.00     0.200 A 
ATOM     69  F   UNL A   1      45.032  36.953  27.282  1.00  0.00    -0.200 F 
ATOM     70  F   UNL A   1      46.424  37.588  29.541  1.00  0.00    -0.200 F 
ENDBRANCH  37  60
ENDBRANCH  11  12
ENDBRANCH   4   6
ENDBRANCH   3   4
ENDBRANCH   2   3
ENDBRANCH   1   2
BRANCH   1  71
ATOM     71  O   UNL A   1      36.425  23.070  24.723  1.00  0.00    -0.458 OA
BRANCH  71  72
ATOM     72  C   UNL A   1      35.334  23.391  23.969  1.00  0.00     0.340 C 
ATOM     73  O   UNL A   1      35.263  23.353  22.759  1.00  0.00    -0.246 OA
BRANCH  72  74
ATOM     74  C   UNL A   1      34.160  23.671  24.826  1.00  0.00     0.083 A 
ATOM     75  C   UNL A   1      33.687  24.997  24.775  1.00  0.00     0.018 A 
ATOM     76  C   UNL A   1      33.551  22.718  25.665  1.00  0.00     0.053 A 
ATOM     77  C   UNL A   1      32.620  25.399  25.570  1.00  0.00     0.001 A 
ATOM     78  C   UNL A   1      32.595  23.201  26.576  1.00  0.00     0.027 A 
ATOM     79  C   UNL A   1      32.098  24.509  26.497  1.00  0.00     0.002 A 
BRANCH  76  80
ATOM     80  N   UNL A   1      33.880  21.340  25.610  1.00  0.00    -0.355 N 
ATOM     81  H   UNL A   1      34.510  21.019  26.295  1.00  0.00     0.167 HD
BRANCH  80  82
ATOM     82  C   UNL A   1      33.419  20.372  24.695  1.00  0.00     0.039 A 
ATOM     83  C   UNL A   1      32.589  20.738  23.633  1.00  0.00     0.026 A 
ATOM     84  C   UNL A   1      33.808  19.029  24.810  1.00  0.00     0.039 A 
ATOM     85  C   UNL A   1      32.153  19.788  22.706  1.00  0.00     0.003 A 
ATOM     86  C   UNL A   1      33.420  18.069  23.856  1.00  0.00     0.058 A 
ATOM     87  C   UNL A   1      32.572  18.462  22.811  1.00  0.00     0.013 A 
BRANCH  86  88
ATOM     88  C   UNL A   1      33.919  16.644  23.927  1.00  0.00     0.416 C 
ATOM     89  F   UNL A   1      34.403  16.205  22.733  1.00  0.00    -0.166 F 
ATOM     90  F   UNL A   1      34.942  16.500  24.814  1.00  0.00    -0.166 F 
ATOM     91  F   UNL A   1      32.966  15.746  24.297  1.00  0.00    -0.166 F 
ENDBRANCH  86  88
ENDBRANCH  80  82
ENDBRANCH  76  80
ENDBRANCH  72  74
ENDBRANCH  71  72
ENDBRANCH   1  71
TORSDOF 14
ENDMDL
MODEL 3
REMARK VINA RESULT:     -10.5      5.819     12.329
REMARK SMILES O=C(OCCOC(=O)c1ccccc1Nc1cccc(C(F)(F)F)c1)c1ccc(-c2c3nc(c(-c4c(F)c(F)c(F)c(F)c4F)c4ccc([nH]4)c(-c4c(F)c(F)c(F)c(F)c4F)c4nc(c(-c5c(F)c(F)c(F)c(F)c5F)c5ccc2[nH]5)C=C4)C=C3)cc1
REMARK SMILES IDX 5 1 4 2 3 3 2 4 1 5 26 6 27 7 88 8 28 9 87 10 29 11 30 12
REMARK SMILES IDX 31 13 81 14 32 15 86 16 80 17 82 18 33 19 85 20 79 21 78 22
REMARK SMILES IDX 34 24 66 25 46 26 65 27 47 28 50 29 64 30 83 31 48 32 49 33
REMARK SMILES IDX 63 35 84 36 51 37 35 38 36 39 44 40 37 41 38 42 42 43 45 44
REMARK SMILES IDX 39 45 40 46 43 47 41 48 67 49 68 50 76 51 69 52 70 53 74 54
REMARK SMILES IDX 77 55 71 56 72 57 75 58 73 59 52 60 53 61 61 62 54 63 55 64
REMARK SMILES IDX 59 65 62 66 56 67 57 68 60 69 58 70 6 71 7 72 8 73 9 74
REMARK SMILES IDX 10 75 14 76 11 77 13 78 12 79 15 80 16 82 17 83 25 84 18 85
REMARK SMILES IDX 20 86 19 87 21 88 22 89 23 90 24 91
REMARK H PARENT 82 23 50 34 15 81
REMARK Flexibility Score: inf
ROOT
ATOM      1  C   UNL A   1      37.022  22.122  23.950  1.00  0.00     0.275 C 
ENDROOT
BRANCH   1   2
ATOM      2  C   UNL A   1      37.415  20.848  24.705  1.00  0.00     0.275 C 
BRANCH   2   3
ATOM      3  O   UNL A   1      38.048  21.107  25.971  1.00  0.00    -0.458 OA
BRANCH   3   4
ATOM      4  C   UNL A   1      39.311  21.490  26.259  1.00  0.00     0.338 C 
ATOM      5  O   UNL A   1      40.194  20.631  26.259  1.00  0.00    -0.246 OA
BRANCH   4   6
ATOM      6  C   UNL A   1      39.705  22.871  26.704  1.00  0.00     0.060 A 
ATOM      7  C   UNL A   1      39.153  24.079  26.271  1.00  0.00     0.016 A 
ATOM      8  C   UNL A   1      40.741  22.937  27.659  1.00  0.00     0.016 A 
ATOM      9  C   UNL A   1      39.601  25.306  26.778  1.00  0.00     0.010 A 
ATOM     10  C   UNL A   1      41.192  24.156  28.174  1.00  0.00     0.010 A 
ATOM     11  C   UNL A   1      40.629  25.351  27.722  1.00  0.00    -0.014 A 
BRANCH  11  12
ATOM     12  C   UNL A   1      41.231  26.655  28.082  1.00  0.00     0.031 A 
ATOM     13  C   UNL A   1      42.621  26.921  27.626  1.00  0.00     0.074 A 
ATOM     14  C   UNL A   1      40.543  27.577  28.775  1.00  0.00     0.049 A 
ATOM     15  N   UNL A   1      43.337  28.001  27.758  1.00  0.00    -0.248 NA
ATOM     16  C   UNL A   1      43.301  25.812  26.939  1.00  0.00     0.031 C 
ATOM     17  C   UNL A   1      39.185  27.368  29.225  1.00  0.00     0.029 A 
ATOM     18  N   UNL A   1      40.832  28.848  29.197  1.00  0.00    -0.354 N 
ATOM     19  C   UNL A   1      44.569  27.690  27.211  1.00  0.00     0.074 A 
ATOM     20  C   UNL A   1      44.501  26.327  26.733  1.00  0.00     0.031 C 
ATOM     21  C   UNL A   1      38.718  28.477  29.813  1.00  0.00     0.029 A 
ATOM     22  C   UNL A   1      39.766  29.485  29.799  1.00  0.00     0.049 A 
ATOM     23  H   UNL A   1      41.715  29.267  29.080  1.00  0.00     0.167 HD
ATOM     24  C   UNL A   1      45.665  28.477  27.156  1.00  0.00     0.037 A 
ATOM     25  C   UNL A   1      39.648  30.753  30.246  1.00  0.00     0.037 A 
ATOM     26  C   UNL A   1      45.697  29.815  27.681  1.00  0.00     0.049 A 
ATOM     27  C   UNL A   1      40.860  31.635  30.091  1.00  0.00     0.074 A 
ATOM     28  C   UNL A   1      46.760  30.693  27.754  1.00  0.00     0.029 A 
ATOM     29  N   UNL A   1      44.597  30.462  28.240  1.00  0.00    -0.354 N 
ATOM     30  N   UNL A   1      42.019  31.347  29.544  1.00  0.00    -0.248 NA
ATOM     31  C   UNL A   1      40.765  33.004  30.610  1.00  0.00     0.031 C 
ATOM     32  C   UNL A   1      46.317  31.852  28.403  1.00  0.00     0.029 A 
ATOM     33  C   UNL A   1      44.962  31.723  28.678  1.00  0.00     0.049 A 
ATOM     34  H   UNL A   1      43.693  30.079  28.312  1.00  0.00     0.167 HD
ATOM     35  C   UNL A   1      42.786  32.495  29.638  1.00  0.00     0.074 A 
ATOM     36  C   UNL A   1      41.942  33.503  30.254  1.00  0.00     0.031 C 
ATOM     37  C   UNL A   1      44.077  32.695  29.275  1.00  0.00     0.037 A 
BRANCH  24  38
ATOM     38  C   UNL A   1      46.911  27.838  26.620  1.00  0.00     0.064 A 
ATOM     39  C   UNL A   1      47.217  27.832  25.250  1.00  0.00     0.173 A 
ATOM     40  C   UNL A   1      47.751  27.119  27.484  1.00  0.00     0.173 A 
ATOM     41  F   UNL A   1      46.422  28.468  24.378  1.00  0.00    -0.203 F 
ATOM     42  C   UNL A   1      48.287  27.086  24.761  1.00  0.00     0.198 A 
ATOM     43  C   UNL A   1      48.840  26.404  26.994  1.00  0.00     0.198 A 
ATOM     44  F   UNL A   1      47.495  27.079  28.800  1.00  0.00    -0.203 F 
ATOM     45  F   UNL A   1      48.503  27.016  23.439  1.00  0.00    -0.200 F 
ATOM     46  C   UNL A   1      49.096  26.373  25.632  1.00  0.00     0.200 A 
ATOM     47  F   UNL A   1      49.619  25.714  27.839  1.00  0.00    -0.200 F 
ATOM     48  F   UNL A   1      50.108  25.635  25.157  1.00  0.00    -0.200 F 
ENDBRANCH  24  38
BRANCH  25  49
ATOM     49  C   UNL A   1      38.339  31.269  30.757  1.00  0.00     0.064 A 
ATOM     50  C   UNL A   1      37.313  31.642  29.874  1.00  0.00     0.173 A 
ATOM     51  C   UNL A   1      38.046  31.345  32.130  1.00  0.00     0.173 A 
ATOM     52  F   UNL A   1      37.526  31.631  28.549  1.00  0.00    -0.203 F 
ATOM     53  C   UNL A   1      36.059  32.048  30.332  1.00  0.00     0.198 A 
ATOM     54  C   UNL A   1      36.780  31.719  32.588  1.00  0.00     0.198 A 
ATOM     55  F   UNL A   1      38.978  31.017  33.037  1.00  0.00    -0.203 F 
ATOM     56  F   UNL A   1      35.112  32.410  29.455  1.00  0.00    -0.200 F 
ATOM     57  C   UNL A   1      35.788  32.070  31.689  1.00  0.00     0.200 A 
ATOM     58  F   UNL A   1      36.519  31.719  33.903  1.00  0.00    -0.200 F 
ATOM     59  F   UNL A   1      34.573  32.427  32.128  1.00  0.00    -0.200 F 
ENDBRANCH  25  49
BRANCH  37  60
ATOM     60  C   UNL A   1      44.650  34.055  29.540  1.00  0.00     0.064 A 
ATOM     61  C   UNL A   1      45.307  34.348  30.743  1.00  0.00     0.173 A 
ATOM     62  C   UNL A   1      44.612  35.045  28.547  1.00  0.00     0.173 A 
ATOM     63  F   UNL A   1      45.359  33.433  31.724  1.00  0.00    -0.203 F 
ATOM     64  C   UNL A   1      45.890  35.592  30.952  1.00  0.00     0.198 A 
ATOM     65  C   UNL A   1      45.224  36.278  28.748  1.00  0.00     0.198 A 
ATOM     66  F   UNL A   1      44.002  34.807  27.376  1.00  0.00    -0.203 F 
ATOM     67  F   UNL A   1      46.480  35.864  32.124  1.00  0.00    -0.200 F 
ATOM     68  C   UNL A   1      45.858  36.552  29.951  1.00  0.00     0.200 A 
ATOM     69  F   UNL A   1      45.208  37.199  27.774  1.00  0.00    -0.200 F 
ATOM     70  F   UNL A   1      46.437  37.744  30.147  1.00  0.00    -0.200 F 
ENDBRANCH  37  60
ENDBRANCH  11  12
ENDBRANCH   4   6
ENDBRANCH   3   4
ENDBRANCH   2   3
ENDBRANCH   1   2
BRANCH   1  71
ATOM     71  O   UNL A   1      36.160  22.981  24.717  1.00  0.00    -0.458 OA
BRANCH  71  72
ATOM     72  C   UNL A   1      35.090  23.455  24.016  1.00  0.00     0.340 C 
ATOM     73  O   UNL A   1      35.020  23.581  22.812  1.00  0.00    -0.246 OA
BRANCH  72  74
ATOM     74  C   UNL A   1      33.929  23.679  24.907  1.00  0.00     0.083 A 
ATOM     75  C   UNL A   1      33.403  24.986  24.885  1.00  0.00     0.018 A 
ATOM     76  C   UNL A   1      33.380  22.693  25.750  1.00  0.00     0.053 A 
ATOM     77  C   UNL A   1      32.343  25.337  25.713  1.00  0.00     0.001 A 
ATOM     78  C   UNL A   1      32.431  23.128  26.691  1.00  0.00     0.027 A 
ATOM     79  C   UNL A   1      31.881  24.416  26.642  1.00  0.00     0.002 A 
BRANCH  76  80
ATOM     80  N   UNL A   1      33.761  21.329  25.668  1.00  0.00    -0.355 N 
ATOM     81  H   UNL A   1      34.403  21.020  26.347  1.00  0.00     0.167 HD
BRANCH  80  82
ATOM     82  C   UNL A   1      33.334  20.362  24.736  1.00  0.00     0.039 A 
ATOM     83  C   UNL A   1      32.466  20.710  23.700  1.00  0.00     0.026 A 
ATOM     84  C   UNL A   1      33.797  19.039  24.808  1.00  0.00     0.039 A 
ATOM     85  C   UNL A   1      32.064  19.762  22.755  1.00  0.00     0.003 A 
ATOM     86  C   UNL A   1      33.443  18.085  23.836  1.00  0.00     0.058 A 
ATOM     87  C   UNL A   1      32.555  18.458  22.817  1.00  0.00     0.013 A 
BRANCH  86  88
ATOM     88  C   UNL A   1      34.019  16.687  23.860  1.00  0.00     0.416 C 
ATOM     89  F   UNL A   1      35.138  16.602  24.630  1.00  0.00    -0.166 F 
ATOM     90  F   UNL A   1      33.146  15.780  24.379  1.00  0.00    -0.166 F 
ATOM     91  F   UNL A   1      34.371  16.217  22.633  1.00  0.00    -0.166 F 
ENDBRANCH  86  88
ENDBRANCH  80  82
ENDBRANCH  76  80
ENDBRANCH  72  74
ENDBRANCH  71  72
ENDBRANCH   1  71
TORSDOF 14
ENDMDL
