MODEL 1
REMARK VINA RESULT:     -12.8      0.000      0.000
REMARK SMILES COc1ccccc1[C@@H]1CN(C(=O)c2cnn3ccccc23)C[C@H]1C(=O)OCCOC(=O)c1ccc(-c2c3nc(c(-c4c(F)c(F)c(F)c(F)c4F)c4ccc([nH]4)c(-c4c(F)c(F)c(F)c(F)c4F)c4nc(c(-c5c(F)c(F)c(F)c(F)c5F)c5ccc2[nH]5)C=C4)C=C3)cc1
REMARK SMILES IDX 28 1 27 2 25 3 26 4 24 5 9 6 10 7 11 8 23 9 8 10 3 11 4 12
REMARK SMILES IDX 5 13 7 14 6 15 2 16 1 17 12 18 13 19 14 20 15 21 22 22 16 23
REMARK SMILES IDX 17 24 21 25 18 26 20 27 19 28 29 29 30 30 31 31 32 32 33 33
REMARK SMILES IDX 34 34 95 35 35 36 94 37 36 38 37 39 38 40 88 41 39 42 93 43
REMARK SMILES IDX 87 44 89 45 40 46 92 47 86 48 85 49 41 51 73 52 53 53 72 54
REMARK SMILES IDX 54 55 57 56 71 57 90 58 55 59 56 60 70 62 91 63 58 64 42 65
REMARK SMILES IDX 43 66 51 67 44 68 45 69 49 70 52 71 46 72 47 73 50 74 48 75
REMARK SMILES IDX 74 76 75 77 83 78 76 79 77 80 81 81 84 82 78 83 79 84 82 85
REMARK SMILES IDX 80 86 59 87 60 88 68 89 61 90 62 91 66 92 69 93 63 94 64 95
REMARK SMILES IDX 67 96 65 97
REMARK H PARENT 89 50 57 61
REMARK Flexibility Score: inf
ROOT
ATOM      1  C   UNL A   1      32.114  29.541  26.688  1.00  0.00     0.274 C 
ENDROOT
BRANCH   1   2
ATOM      2  O   UNL A   1      33.188  29.035  25.857  1.00  0.00    -0.462 OA
BRANCH   2   3
ATOM      3  C   UNL A   1      32.851  28.761  24.568  1.00  0.00     0.311 C 
ATOM      4  O   UNL A   1      33.116  29.495  23.618  1.00  0.00    -0.252 OA
BRANCH   3   5
ATOM      5  C   UNL A   1      32.024  27.511  24.369  1.00  0.00     0.128 C 
ATOM      6  C   UNL A   1      31.100  27.326  23.136  1.00  0.00     0.058 C 
ATOM      7  C   UNL A   1      31.294  25.855  22.771  1.00  0.00     0.129 C 
ATOM      8  N   UNL A   1      32.666  25.580  23.135  1.00  0.00    -0.337 N 
ATOM      9  C   UNL A   1      33.048  26.377  24.279  1.00  0.00     0.135 C 
BRANCH   6  10
ATOM     10  C   UNL A   1      29.607  27.642  23.199  1.00  0.00    -0.000 A 
ATOM     11  C   UNL A   1      28.986  28.850  22.823  1.00  0.00     0.122 A 
ATOM     12  C   UNL A   1      27.602  29.034  22.996  1.00  0.00     0.047 A 
ATOM     13  C   UNL A   1      26.810  28.039  23.564  1.00  0.00     0.004 A 
ATOM     14  C   UNL A   1      28.779  26.673  23.813  1.00  0.00     0.008 A 
ATOM     15  C   UNL A   1      27.404  26.860  23.989  1.00  0.00     0.001 A 
BRANCH  11  16
ATOM     16  O   UNL A   1      29.675  29.991  22.509  1.00  0.00    -0.496 OA
ATOM     17  C   UNL A   1      29.149  30.735  21.420  1.00  0.00     0.278 C 
ENDBRANCH  11  16
ENDBRANCH   6  10
BRANCH   8  18
ATOM     18  C   UNL A   1      33.462  24.542  22.700  1.00  0.00     0.257 C 
ATOM     19  O   UNL A   1      33.572  24.275  21.502  1.00  0.00    -0.269 OA
BRANCH  18  20
ATOM     20  C   UNL A   1      34.210  23.807  23.694  1.00  0.00     0.085 A 
ATOM     21  C   UNL A   1      35.600  23.584  23.691  1.00  0.00     0.150 A 
ATOM     22  C   UNL A   1      33.763  23.121  24.809  1.00  0.00     0.079 A 
ATOM     23  N   UNL A   1      36.026  22.902  24.754  1.00  0.00    -0.176 NA
ATOM     24  N   UNL A   1      34.900  22.631  25.461  1.00  0.00    -0.240 N 
ATOM     25  C   UNL A   1      32.491  22.854  25.405  1.00  0.00     0.029 A 
ATOM     26  C   UNL A   1      34.820  21.967  26.686  1.00  0.00     0.113 A 
ATOM     27  C   UNL A   1      32.430  22.230  26.596  1.00  0.00     0.004 A 
ATOM     28  C   UNL A   1      33.628  21.768  27.273  1.00  0.00     0.020 A 
ENDBRANCH  18  20
ENDBRANCH   8  18
ENDBRANCH   3   5
ENDBRANCH   2   3
ENDBRANCH   1   2
BRANCH   1  29
ATOM     29  C   UNL A   1      32.029  31.070  26.707  1.00  0.00     0.275 C 
BRANCH  29  30
ATOM     30  O   UNL A   1      33.117  31.650  27.429  1.00  0.00    -0.458 OA
BRANCH  30  31
ATOM     31  C   UNL A   1      32.872  32.937  27.756  1.00  0.00     0.338 C 
ATOM     32  O   UNL A   1      31.939  33.615  27.364  1.00  0.00    -0.246 OA
BRANCH  31  33
ATOM     33  C   UNL A   1      33.978  33.527  28.503  1.00  0.00     0.060 A 
ATOM     34  C   UNL A   1      35.042  33.999  27.727  1.00  0.00     0.016 A 
ATOM     35  C   UNL A   1      34.154  33.003  29.781  1.00  0.00     0.016 A 
ATOM     36  C   UNL A   1      36.319  33.645  28.089  1.00  0.00     0.010 A 
ATOM     37  C   UNL A   1      35.424  32.635  30.135  1.00  0.00     0.010 A 
ATOM     38  C   UNL A   1      36.469  32.867  29.234  1.00  0.00    -0.014 A 
BRANCH  38  39
ATOM     39  C   UNL A   1      37.777  32.333  29.546  1.00  0.00     0.031 A 
ATOM     40  C   UNL A   1      37.911  30.907  29.156  1.00  0.00     0.074 A 
ATOM     41  C   UNL A   1      38.755  33.174  29.941  1.00  0.00     0.049 A 
ATOM     42  N   UNL A   1      38.309  29.899  29.862  1.00  0.00    -0.248 NA
ATOM     43  C   UNL A   1      37.373  30.530  27.832  1.00  0.00     0.031 C 
ATOM     44  C   UNL A   1      38.681  34.637  30.064  1.00  0.00     0.029 A 
ATOM     45  N   UNL A   1      40.068  32.923  30.179  1.00  0.00    -0.354 N 
ATOM     46  C   UNL A   1      38.235  28.801  29.004  1.00  0.00     0.074 A 
ATOM     47  C   UNL A   1      37.464  29.205  27.866  1.00  0.00     0.031 C 
ATOM     48  C   UNL A   1      39.931  35.149  30.107  1.00  0.00     0.029 A 
ATOM     49  C   UNL A   1      40.880  34.050  30.135  1.00  0.00     0.049 A 
ATOM     50  H   UNL A   1      40.415  32.020  30.366  1.00  0.00     0.167 HD
ATOM     51  C   UNL A   1      39.055  27.728  29.153  1.00  0.00     0.037 A 
ATOM     52  C   UNL A   1      42.230  34.049  30.024  1.00  0.00     0.037 A 
ATOM     53  C   UNL A   1      39.590  27.670  30.484  1.00  0.00     0.049 A 
ATOM     54  C   UNL A   1      42.694  32.674  30.335  1.00  0.00     0.074 A 
ATOM     55  C   UNL A   1      39.068  27.420  31.734  1.00  0.00     0.029 A 
ATOM     56  N   UNL A   1      40.812  28.261  30.678  1.00  0.00    -0.354 N 
ATOM     57  N   UNL A   1      42.609  32.128  31.516  1.00  0.00    -0.248 NA
ATOM     58  C   UNL A   1      42.862  31.744  29.228  1.00  0.00     0.031 C 
ATOM     59  C   UNL A   1      39.835  28.219  32.631  1.00  0.00     0.029 A 
ATOM     60  C   UNL A   1      40.814  28.888  31.894  1.00  0.00     0.049 A 
ATOM     61  H   UNL A   1      41.566  28.237  30.045  1.00  0.00     0.167 HD
ATOM     62  C   UNL A   1      42.310  30.794  31.271  1.00  0.00     0.074 A 
ATOM     63  C   UNL A   1      42.595  30.594  29.855  1.00  0.00     0.031 C 
ATOM     64  C   UNL A   1      41.593  30.072  32.179  1.00  0.00     0.037 A 
BRANCH  51  65
ATOM     65  C   UNL A   1      39.684  26.990  27.991  1.00  0.00     0.064 A 
ATOM     66  C   UNL A   1      39.674  25.582  27.996  1.00  0.00     0.173 A 
ATOM     67  C   UNL A   1      40.541  27.583  27.034  1.00  0.00     0.173 A 
ATOM     68  F   UNL A   1      38.913  24.908  28.872  1.00  0.00    -0.203 F 
ATOM     69  C   UNL A   1      40.510  24.834  27.163  1.00  0.00     0.198 A 
ATOM     70  C   UNL A   1      41.330  26.833  26.166  1.00  0.00     0.198 A 
ATOM     71  F   UNL A   1      40.745  28.904  26.969  1.00  0.00    -0.203 F 
ATOM     72  F   UNL A   1      40.556  23.501  27.292  1.00  0.00    -0.200 F 
ATOM     73  C   UNL A   1      41.341  25.460  26.252  1.00  0.00     0.200 A 
ATOM     74  F   UNL A   1      42.140  27.463  25.303  1.00  0.00    -0.200 F 
ATOM     75  F   UNL A   1      42.186  24.748  25.495  1.00  0.00    -0.200 F 
ENDBRANCH  51  65
BRANCH  52  76
ATOM     76  C   UNL A   1      43.097  35.034  29.334  1.00  0.00     0.064 A 
ATOM     77  C   UNL A   1      43.969  35.867  30.053  1.00  0.00     0.173 A 
ATOM     78  C   UNL A   1      43.282  34.989  27.939  1.00  0.00     0.173 A 
ATOM     79  F   UNL A   1      43.890  35.928  31.391  1.00  0.00    -0.203 F 
ATOM     80  C   UNL A   1      44.976  36.600  29.416  1.00  0.00     0.198 A 
ATOM     81  C   UNL A   1      44.284  35.723  27.302  1.00  0.00     0.198 A 
ATOM     82  F   UNL A   1      42.555  34.157  27.178  1.00  0.00    -0.203 F 
ATOM     83  F   UNL A   1      45.825  37.343  30.140  1.00  0.00    -0.200 F 
ATOM     84  C   UNL A   1      45.137  36.520  28.041  1.00  0.00     0.200 A 
ATOM     85  F   UNL A   1      44.455  35.606  25.978  1.00  0.00    -0.200 F 
ATOM     86  F   UNL A   1      46.139  37.176  27.437  1.00  0.00    -0.200 F 
ENDBRANCH  52  76
BRANCH  64  87
ATOM     87  C   UNL A   1      41.419  30.677  33.544  1.00  0.00     0.064 A 
ATOM     88  C   UNL A   1      40.353  31.523  33.894  1.00  0.00     0.173 A 
ATOM     89  C   UNL A   1      42.283  30.266  34.565  1.00  0.00     0.173 A 
ATOM     90  F   UNL A   1      39.434  31.881  32.990  1.00  0.00    -0.203 F 
ATOM     91  C   UNL A   1      40.183  31.965  35.204  1.00  0.00     0.198 A 
ATOM     92  C   UNL A   1      42.089  30.679  35.879  1.00  0.00     0.198 A 
ATOM     93  F   UNL A   1      43.283  29.414  34.295  1.00  0.00    -0.203 F 
ATOM     94  F   UNL A   1      39.159  32.777  35.513  1.00  0.00    -0.200 F 
ATOM     95  C   UNL A   1      41.046  31.535  36.198  1.00  0.00     0.200 A 
ATOM     96  F   UNL A   1      42.895  30.219  36.846  1.00  0.00    -0.200 F 
ATOM     97  F   UNL A   1      40.855  31.918  37.467  1.00  0.00    -0.200 F 
ENDBRANCH  64  87
ENDBRANCH  38  39
ENDBRANCH  31  33
ENDBRANCH  30  31
ENDBRANCH  29  30
ENDBRANCH   1  29
TORSDOF 15
ENDMDL
MODEL 2
REMARK VINA RESULT:     -12.6      1.321      2.563
REMARK SMILES COc1ccccc1[C@@H]1CN(C(=O)c2cnn3ccccc23)C[C@H]1C(=O)OCCOC(=O)c1ccc(-c2c3nc(c(-c4c(F)c(F)c(F)c(F)c4F)c4ccc([nH]4)c(-c4c(F)c(F)c(F)c(F)c4F)c4nc(c(-c5c(F)c(F)c(F)c(F)c5F)c5ccc2[nH]5)C=C4)C=C3)cc1
REMARK SMILES IDX 28 1 27 2 25 3 26 4 24 5 9 6 10 7 11 8 23 9 8 10 3 11 4 12
REMARK SMILES IDX 5 13 7 14 6 15 2 16 1 17 12 18 13 19 14 20 15 21 22 22 16 23
REMARK SMILES IDX 17 24 21 25 18 26 20 27 19 28 29 29 30 30 31 31 32 32 33 33
REMARK SMILES IDX 34 34 95 35 35 36 94 37 36 38 37 39 38 40 88 41 39 42 93 43
REMARK SMILES IDX 87 44 89 45 40 46 92 47 86 48 85 49 41 51 73 52 53 53 72 54
REMARK SMILES IDX 54 55 57 56 71 57 90 58 55 59 56 60 70 62 91 63 58 64 42 65
REMARK SMILES IDX 43 66 51 67 44 68 45 69 49 70 52 71 46 72 47 73 50 74 48 75
REMARK SMILES IDX 74 76 75 77 83 78 76 79 77 80 81 81 84 82 78 83 79 84 82 85
REMARK SMILES IDX 80 86 59 87 60 88 68 89 61 90 62 91 66 92 69 93 63 94 64 95
REMARK SMILES IDX 67 96 65 97
REMARK H PARENT 89 50 57 61
REMARK Flexibility Score: inf
ROOT
ATOM      1  C   UNL A   1      31.784  29.203  27.254  1.00  0.00     0.274 C 
ENDROOT
BRANCH   1   2
ATOM      2  O   UNL A   1      32.840  28.232  27.464  1.00  0.00    -0.462 OA
BRANCH   2   3
ATOM      3  C   UNL A   1      32.971  27.291  26.492  1.00  0.00     0.311 C 
ATOM      4  O   UNL A   1      34.045  26.965  25.990  1.00  0.00    -0.252 OA
BRANCH   3   5
ATOM      5  C   UNL A   1      31.673  26.712  25.974  1.00  0.00     0.128 C 
ATOM      6  C   UNL A   1      31.435  26.452  24.463  1.00  0.00     0.058 C 
ATOM      7  C   UNL A   1      30.683  25.122  24.452  1.00  0.00     0.129 C 
ATOM      8  N   UNL A   1      31.211  24.409  25.593  1.00  0.00    -0.337 N 
ATOM      9  C   UNL A   1      31.565  25.340  26.642  1.00  0.00     0.135 C 
BRANCH   6  10
ATOM     10  C   UNL A   1      30.700  27.460  23.582  1.00  0.00    -0.000 A 
ATOM     11  C   UNL A   1      31.274  28.312  22.618  1.00  0.00     0.122 A 
ATOM     12  C   UNL A   1      30.488  29.246  21.919  1.00  0.00     0.047 A 
ATOM     13  C   UNL A   1      29.124  29.371  22.176  1.00  0.00     0.004 A 
ATOM     14  C   UNL A   1      29.322  27.646  23.847  1.00  0.00     0.008 A 
ATOM     15  C   UNL A   1      28.543  28.579  23.155  1.00  0.00     0.001 A 
BRANCH  11  16
ATOM     16  O   UNL A   1      32.625  28.480  22.464  1.00  0.00    -0.496 OA
ATOM     17  C   UNL A   1      33.251  29.290  23.448  1.00  0.00     0.278 C 
ENDBRANCH  11  16
ENDBRANCH   6  10
BRANCH   8  18
ATOM     18  C   UNL A   1      31.157  23.054  25.841  1.00  0.00     0.257 C 
ATOM     19  O   UNL A   1      30.178  22.539  26.383  1.00  0.00    -0.269 OA
BRANCH  18  20
ATOM     20  C   UNL A   1      32.268  22.245  25.395  1.00  0.00     0.085 A 
ATOM     21  C   UNL A   1      32.180  21.031  24.688  1.00  0.00     0.150 A 
ATOM     22  C   UNL A   1      33.626  22.419  25.594  1.00  0.00     0.079 A 
ATOM     23  N   UNL A   1      33.370  20.517  24.374  1.00  0.00    -0.176 NA
ATOM     24  N   UNL A   1      34.268  21.381  24.911  1.00  0.00    -0.240 N 
ATOM     25  C   UNL A   1      34.447  23.376  26.269  1.00  0.00     0.029 A 
ATOM     26  C   UNL A   1      35.659  21.306  24.819  1.00  0.00     0.113 A 
ATOM     27  C   UNL A   1      35.786  23.302  26.157  1.00  0.00     0.004 A 
ATOM     28  C   UNL A   1      36.428  22.238  25.406  1.00  0.00     0.020 A 
ENDBRANCH  18  20
ENDBRANCH   8  18
ENDBRANCH   3   5
ENDBRANCH   2   3
ENDBRANCH   1   2
BRANCH   1  29
ATOM     29  C   UNL A   1      32.274  30.505  26.615  1.00  0.00     0.275 C 
BRANCH  29  30
ATOM     30  O   UNL A   1      33.237  31.168  27.437  1.00  0.00    -0.458 OA
BRANCH  30  31
ATOM     31  C   UNL A   1      32.897  32.454  27.669  1.00  0.00     0.338 C 
ATOM     32  O   UNL A   1      31.947  33.046  27.188  1.00  0.00    -0.246 OA
BRANCH  31  33
ATOM     33  C   UNL A   1      33.923  33.157  28.432  1.00  0.00     0.060 A 
ATOM     34  C   UNL A   1      34.996  33.651  27.682  1.00  0.00     0.016 A 
ATOM     35  C   UNL A   1      34.063  32.720  29.747  1.00  0.00     0.016 A 
ATOM     36  C   UNL A   1      36.271  33.402  28.128  1.00  0.00     0.010 A 
ATOM     37  C   UNL A   1      35.333  32.456  30.185  1.00  0.00     0.010 A 
ATOM     38  C   UNL A   1      36.408  32.703  29.324  1.00  0.00    -0.014 A 
BRANCH  38  39
ATOM     39  C   UNL A   1      37.727  32.274  29.733  1.00  0.00     0.031 A 
ATOM     40  C   UNL A   1      37.982  30.848  29.408  1.00  0.00     0.074 A 
ATOM     41  C   UNL A   1      38.620  33.196  30.151  1.00  0.00     0.049 A 
ATOM     42  N   UNL A   1      38.405  29.897  30.174  1.00  0.00    -0.248 NA
ATOM     43  C   UNL A   1      37.553  30.389  28.071  1.00  0.00     0.031 C 
ATOM     44  C   UNL A   1      38.438  34.654  30.212  1.00  0.00     0.029 A 
ATOM     45  N   UNL A   1      39.930  33.047  30.474  1.00  0.00    -0.354 N 
ATOM     46  C   UNL A   1      38.459  28.767  29.358  1.00  0.00     0.074 A 
ATOM     47  C   UNL A   1      37.732  29.076  28.162  1.00  0.00     0.031 C 
ATOM     48  C   UNL A   1      39.646  35.253  30.307  1.00  0.00     0.029 A 
ATOM     49  C   UNL A   1      40.664  34.226  30.434  1.00  0.00     0.049 A 
ATOM     50  H   UNL A   1      40.326  32.178  30.717  1.00  0.00     0.167 HD
ATOM     51  C   UNL A   1      39.340  27.761  29.596  1.00  0.00     0.037 A 
ATOM     52  C   UNL A   1      42.016  34.317  30.401  1.00  0.00     0.037 A 
ATOM     53  C   UNL A   1      39.795  27.787  30.957  1.00  0.00     0.049 A 
ATOM     54  C   UNL A   1      42.553  32.990  30.793  1.00  0.00     0.074 A 
ATOM     55  C   UNL A   1      39.217  27.545  32.183  1.00  0.00     0.029 A 
ATOM     56  N   UNL A   1      40.960  28.469  31.199  1.00  0.00    -0.354 N 
ATOM     57  N   UNL A   1      42.434  32.481  31.987  1.00  0.00    -0.248 NA
ATOM     58  C   UNL A   1      42.851  32.036  29.735  1.00  0.00     0.031 C 
ATOM     59  C   UNL A   1      39.871  28.427  33.092  1.00  0.00     0.029 A 
ATOM     60  C   UNL A   1      40.845  29.138  32.387  1.00  0.00     0.049 A 
ATOM     61  H   UNL A   1      41.751  28.477  30.612  1.00  0.00     0.167 HD
ATOM     62  C   UNL A   1      42.243  31.122  31.778  1.00  0.00     0.074 A 
ATOM     63  C   UNL A   1      42.626  30.893  30.390  1.00  0.00     0.031 C 
ATOM     64  C   UNL A   1      41.523  30.383  32.670  1.00  0.00     0.037 A 
BRANCH  51  65
ATOM     65  C   UNL A   1      40.087  27.029  28.502  1.00  0.00     0.064 A 
ATOM     66  C   UNL A   1      40.977  27.754  27.686  1.00  0.00     0.173 A 
ATOM     67  C   UNL A   1      39.757  25.736  28.034  1.00  0.00     0.173 A 
ATOM     68  F   UNL A   1      41.348  28.999  28.019  1.00  0.00    -0.203 F 
ATOM     69  C   UNL A   1      41.436  27.252  26.466  1.00  0.00     0.198 A 
ATOM     70  C   UNL A   1      40.263  25.216  26.844  1.00  0.00     0.198 A 
ATOM     71  F   UNL A   1      38.847  24.961  28.635  1.00  0.00    -0.203 F 
ATOM     72  F   UNL A   1      42.180  28.028  25.665  1.00  0.00    -0.200 F 
ATOM     73  C   UNL A   1      41.075  25.985  26.043  1.00  0.00     0.200 A 
ATOM     74  F   UNL A   1      39.884  23.992  26.448  1.00  0.00    -0.200 F 
ATOM     75  F   UNL A   1      41.465  25.526  24.847  1.00  0.00    -0.200 F 
ENDBRANCH  51  65
BRANCH  52  76
ATOM     76  C   UNL A   1      42.853  35.336  29.725  1.00  0.00     0.064 A 
ATOM     77  C   UNL A   1      42.829  35.489  28.329  1.00  0.00     0.173 A 
ATOM     78  C   UNL A   1      43.489  36.358  30.456  1.00  0.00     0.173 A 
ATOM     79  F   UNL A   1      42.200  34.584  27.564  1.00  0.00    -0.203 F 
ATOM     80  C   UNL A   1      43.395  36.606  27.703  1.00  0.00     0.198 A 
ATOM     81  C   UNL A   1      44.057  37.469  29.832  1.00  0.00     0.198 A 
ATOM     82  F   UNL A   1      43.486  36.343  31.797  1.00  0.00    -0.203 F 
ATOM     83  F   UNL A   1      43.305  36.745  26.373  1.00  0.00    -0.200 F 
ATOM     84  C   UNL A   1      44.001  37.598  28.457  1.00  0.00     0.200 A 
ATOM     85  F   UNL A   1      44.604  38.441  30.574  1.00  0.00    -0.200 F 
ATOM     86  F   UNL A   1      44.491  38.696  27.863  1.00  0.00    -0.200 F 
ENDBRANCH  52  76
BRANCH  64  87
ATOM     87  C   UNL A   1      41.225  31.022  33.998  1.00  0.00     0.064 A 
ATOM     88  C   UNL A   1      42.134  31.060  35.068  1.00  0.00     0.173 A 
ATOM     89  C   UNL A   1      40.033  31.742  34.134  1.00  0.00     0.173 A 
ATOM     90  F   UNL A   1      43.333  30.473  34.974  1.00  0.00    -0.203 F 
ATOM     91  C   UNL A   1      41.845  31.762  36.236  1.00  0.00     0.198 A 
ATOM     92  C   UNL A   1      39.762  32.473  35.286  1.00  0.00     0.198 A 
ATOM     93  F   UNL A   1      39.156  31.784  33.120  1.00  0.00    -0.203 F 
ATOM     94  F   UNL A   1      42.727  31.780  37.247  1.00  0.00    -0.200 F 
ATOM     95  C   UNL A   1      40.663  32.476  36.340  1.00  0.00     0.200 A 
ATOM     96  F   UNL A   1      38.642  33.204  35.362  1.00  0.00    -0.200 F 
ATOM     97  F   UNL A   1      40.404  33.192  37.443  1.00  0.00    -0.200 F 
ENDBRANCH  64  87
ENDBRANCH  38  39
ENDBRANCH  31  33
ENDBRANCH  30  31
ENDBRANCH  29  30
ENDBRANCH   1  29
TORSDOF 15
ENDMDL
MODEL 3
REMARK VINA RESULT:     -12.2      5.753     11.595
REMARK SMILES COc1ccccc1[C@@H]1CN(C(=O)c2cnn3ccccc23)C[C@H]1C(=O)OCCOC(=O)c1ccc(-c2c3nc(c(-c4c(F)c(F)c(F)c(F)c4F)c4ccc([nH]4)c(-c4c(F)c(F)c(F)c(F)c4F)c4nc(c(-c5c(F)c(F)c(F)c(F)c5F)c5ccc2[nH]5)C=C4)C=C3)cc1
REMARK SMILES IDX 28 1 27 2 25 3 26 4 24 5 9 6 10 7 11 8 23 9 8 10 3 11 4 12
REMARK SMILES IDX 5 13 7 14 6 15 2 16 1 17 12 18 13 19 14 20 15 21 22 22 16 23
REMARK SMILES IDX 17 24 21 25 18 26 20 27 19 28 29 29 30 30 31 31 32 32 33 33
REMARK SMILES IDX 34 34 95 35 35 36 94 37 36 38 37 39 38 40 88 41 39 42 93 43
REMARK SMILES IDX 87 44 89 45 40 46 92 47 86 48 85 49 41 51 73 52 53 53 72 54
REMARK SMILES IDX 54 55 57 56 71 57 90 58 55 59 56 60 70 62 91 63 58 64 42 65
REMARK SMILES IDX 43 66 51 67 44 68 45 69 49 70 52 71 46 72 47 73 50 74 48 75
REMARK SMILES IDX 74 76 75 77 83 78 76 79 77 80 81 81 84 82 78 83 79 84 82 85
REMARK SMILES IDX 80 86 59 87 60 88 68 89 61 90 62 91 66 92 69 93 63 94 64 95
REMARK SMILES IDX 67 96 65 97
REMARK H PARENT 89 50 57 61
REMARK Flexibility Score: inf
ROOT
ATOM      1  C   UNL A   1      37.965  29.315  32.440  1.00  0.00     0.274 C 
ENDROOT
BRANCH   1   2
ATOM      2  O   UNL A   1      37.892  29.442  33.883  1.00  0.00    -0.462 OA
BRANCH   2   3
ATOM      3  C   UNL A   1      38.934  30.090  34.466  1.00  0.00     0.311 C 
ATOM      4  O   UNL A   1      39.745  29.552  35.218  1.00  0.00    -0.252 OA
BRANCH   3   5
ATOM      5  C   UNL A   1      38.992  31.580  34.210  1.00  0.00     0.128 C 
ATOM      6  C   UNL A   1      39.039  32.165  32.774  1.00  0.00     0.058 C 
ATOM      7  C   UNL A   1      38.133  33.392  32.867  1.00  0.00     0.129 C 
ATOM      8  N   UNL A   1      37.133  33.019  33.842  1.00  0.00    -0.337 N 
ATOM      9  C   UNL A   1      37.706  32.131  34.830  1.00  0.00     0.135 C 
BRANCH   6  10
ATOM     10  C   UNL A   1      40.357  32.554  32.109  1.00  0.00    -0.000 A 
ATOM     11  C   UNL A   1      40.541  33.536  31.115  1.00  0.00     0.122 A 
ATOM     12  C   UNL A   1      41.806  33.750  30.537  1.00  0.00     0.047 A 
ATOM     13  C   UNL A   1      42.906  32.982  30.912  1.00  0.00     0.004 A 
ATOM     14  C   UNL A   1      41.487  31.766  32.432  1.00  0.00     0.008 A 
ATOM     15  C   UNL A   1      42.742  31.976  31.852  1.00  0.00     0.001 A 
BRANCH  11  16
ATOM     16  O   UNL A   1      39.509  34.165  30.471  1.00  0.00    -0.496 OA
ATOM     17  C   UNL A   1      39.881  34.924  29.330  1.00  0.00     0.278 C 
ENDBRANCH  11  16
ENDBRANCH   6  10
BRANCH   8  18
ATOM     18  C   UNL A   1      35.894  33.589  34.040  1.00  0.00     0.257 C 
ATOM     19  O   UNL A   1      35.485  33.860  35.171  1.00  0.00    -0.269 OA
BRANCH  18  20
ATOM     20  C   UNL A   1      35.107  33.909  32.872  1.00  0.00     0.085 A 
ATOM     21  C   UNL A   1      34.769  33.025  31.829  1.00  0.00     0.150 A 
ATOM     22  C   UNL A   1      34.566  35.118  32.473  1.00  0.00     0.079 A 
ATOM     23  N   UNL A   1      34.001  33.582  30.893  1.00  0.00    -0.176 NA
ATOM     24  N   UNL A   1      33.853  34.870  31.295  1.00  0.00    -0.240 N 
ATOM     25  C   UNL A   1      34.556  36.453  32.985  1.00  0.00     0.029 A 
ATOM     26  C   UNL A   1      33.095  35.860  30.669  1.00  0.00     0.113 A 
ATOM     27  C   UNL A   1      33.806  37.393  32.382  1.00  0.00     0.004 A 
ATOM     28  C   UNL A   1      33.040  37.100  31.183  1.00  0.00     0.020 A 
ENDBRANCH  18  20
ENDBRANCH   8  18
ENDBRANCH   3   5
ENDBRANCH   2   3
ENDBRANCH   1   2
BRANCH   1  29
ATOM     29  C   UNL A   1      36.699  29.790  31.723  1.00  0.00     0.275 C 
BRANCH  29  30
ATOM     30  O   UNL A   1      36.667  29.353  30.363  1.00  0.00    -0.458 OA
BRANCH  30  31
ATOM     31  C   UNL A   1      36.946  30.358  29.506  1.00  0.00     0.338 C 
ATOM     32  O   UNL A   1      36.243  31.326  29.276  1.00  0.00    -0.246 OA
BRANCH  31  33
ATOM     33  C   UNL A   1      38.132  30.073  28.704  1.00  0.00     0.060 A 
ATOM     34  C   UNL A   1      38.154  28.815  28.093  1.00  0.00     0.016 A 
ATOM     35  C   UNL A   1      39.287  30.721  29.133  1.00  0.00     0.016 A 
ATOM     36  C   UNL A   1      39.293  28.056  28.207  1.00  0.00     0.010 A 
ATOM     37  C   UNL A   1      40.417  29.960  29.264  1.00  0.00     0.010 A 
ATOM     38  C   UNL A   1      40.367  28.611  28.897  1.00  0.00    -0.014 A 
BRANCH  38  39
ATOM     39  C   UNL A   1      41.514  27.778  29.187  1.00  0.00     0.031 A 
ATOM     40  C   UNL A   1      41.930  27.865  30.609  1.00  0.00     0.074 A 
ATOM     41  C   UNL A   1      41.942  26.900  28.256  1.00  0.00     0.049 A 
ATOM     42  N   UNL A   1      43.097  28.110  31.107  1.00  0.00    -0.248 NA
ATOM     43  C   UNL A   1      40.850  27.827  31.616  1.00  0.00     0.031 C 
ATOM     44  C   UNL A   1      41.347  26.631  26.939  1.00  0.00     0.029 A 
ATOM     45  N   UNL A   1      42.912  25.953  28.341  1.00  0.00    -0.354 N 
ATOM     46  C   UNL A   1      42.918  28.077  32.490  1.00  0.00     0.074 A 
ATOM     47  C   UNL A   1      41.507  28.115  32.734  1.00  0.00     0.031 C 
ATOM     48  C   UNL A   1      41.806  25.449  26.471  1.00  0.00     0.029 A 
ATOM     49  C   UNL A   1      42.807  24.944  27.393  1.00  0.00     0.049 A 
ATOM     50  H   UNL A   1      43.629  25.980  29.016  1.00  0.00     0.167 HD
ATOM     51  C   UNL A   1      43.929  27.728  33.329  1.00  0.00     0.037 A 
ATOM     52  C   UNL A   1      43.431  23.742  27.442  1.00  0.00     0.037 A 
ATOM     53  C   UNL A   1      45.204  27.887  32.691  1.00  0.00     0.049 A 
ATOM     54  C   UNL A   1      44.508  23.850  28.458  1.00  0.00     0.074 A 
ATOM     55  C   UNL A   1      45.954  28.962  32.265  1.00  0.00     0.029 A 
ATOM     56  N   UNL A   1      45.724  26.777  32.077  1.00  0.00    -0.354 N 
ATOM     57  N   UNL A   1      45.566  24.599  28.319  1.00  0.00    -0.248 NA
ATOM     58  C   UNL A   1      44.199  23.454  29.824  1.00  0.00     0.031 C 
ATOM     59  C   UNL A   1      46.657  28.501  31.114  1.00  0.00     0.029 A 
ATOM     60  C   UNL A   1      46.334  27.157  30.913  1.00  0.00     0.049 A 
ATOM     61  H   UNL A   1      45.667  25.855  32.418  1.00  0.00     0.167 HD
ATOM     62  C   UNL A   1      45.820  25.096  29.590  1.00  0.00     0.074 A 
ATOM     63  C   UNL A   1      45.024  24.268  30.489  1.00  0.00     0.031 C 
ATOM     64  C   UNL A   1      46.427  26.307  29.747  1.00  0.00     0.037 A 
BRANCH  51  65
ATOM     65  C   UNL A   1      43.735  26.864  34.556  1.00  0.00     0.064 A 
ATOM     66  C   UNL A   1      43.957  27.430  35.826  1.00  0.00     0.173 A 
ATOM     67  C   UNL A   1      43.631  25.454  34.534  1.00  0.00     0.173 A 
ATOM     68  F   UNL A   1      44.092  28.757  35.969  1.00  0.00    -0.203 F 
ATOM     69  C   UNL A   1      44.136  26.641  36.966  1.00  0.00     0.198 A 
ATOM     70  C   UNL A   1      43.752  24.674  35.683  1.00  0.00     0.198 A 
ATOM     71  F   UNL A   1      43.524  24.755  33.398  1.00  0.00    -0.203 F 
ATOM     72  F   UNL A   1      44.470  27.218  38.128  1.00  0.00    -0.200 F 
ATOM     73  C   UNL A   1      44.038  25.263  36.892  1.00  0.00     0.200 A 
ATOM     74  F   UNL A   1      43.670  23.339  35.582  1.00  0.00    -0.200 F 
ATOM     75  F   UNL A   1      44.267  24.503  37.971  1.00  0.00    -0.200 F 
ENDBRANCH  51  65
BRANCH  52  76
ATOM     76  C   UNL A   1      42.945  22.431  26.948  1.00  0.00     0.064 A 
ATOM     77  C   UNL A   1      43.627  21.737  25.935  1.00  0.00     0.173 A 
ATOM     78  C   UNL A   1      41.958  21.711  27.646  1.00  0.00     0.173 A 
ATOM     79  F   UNL A   1      44.616  22.338  25.256  1.00  0.00    -0.203 F 
ATOM     80  C   UNL A   1      43.346  20.396  25.648  1.00  0.00     0.198 A 
ATOM     81  C   UNL A   1      41.674  20.375  27.357  1.00  0.00     0.198 A 
ATOM     82  F   UNL A   1      41.315  22.262  28.686  1.00  0.00    -0.203 F 
ATOM     83  F   UNL A   1      44.054  19.749  24.712  1.00  0.00    -0.200 F 
ATOM     84  C   UNL A   1      42.376  19.715  26.366  1.00  0.00     0.200 A 
ATOM     85  F   UNL A   1      40.762  19.716  28.085  1.00  0.00    -0.200 F 
ATOM     86  F   UNL A   1      42.147  18.414  26.132  1.00  0.00    -0.200 F 
ENDBRANCH  52  76
BRANCH  64  87
ATOM     87  C   UNL A   1      47.064  26.911  28.527  1.00  0.00     0.064 A 
ATOM     88  C   UNL A   1      48.345  26.566  28.062  1.00  0.00     0.173 A 
ATOM     89  C   UNL A   1      46.291  27.758  27.725  1.00  0.00     0.173 A 
ATOM     90  F   UNL A   1      49.104  25.688  28.727  1.00  0.00    -0.203 F 
ATOM     91  C   UNL A   1      48.840  27.076  26.864  1.00  0.00     0.198 A 
ATOM     92  C   UNL A   1      46.773  28.237  26.511  1.00  0.00     0.198 A 
ATOM     93  F   UNL A   1      45.041  28.074  28.096  1.00  0.00    -0.203 F 
ATOM     94  F   UNL A   1      50.068  26.735  26.443  1.00  0.00    -0.200 F 
ATOM     95  C   UNL A   1      48.049  27.904  26.085  1.00  0.00     0.200 A 
ATOM     96  F   UNL A   1      45.985  28.995  25.736  1.00  0.00    -0.200 F 
ATOM     97  F   UNL A   1      48.504  28.356  24.908  1.00  0.00    -0.200 F 
ENDBRANCH  64  87
ENDBRANCH  38  39
ENDBRANCH  31  33
ENDBRANCH  30  31
ENDBRANCH  29  30
ENDBRANCH   1  29
TORSDOF 15
ENDMDL
