MODEL 1
REMARK VINA RESULT:     -13.7      0.000      0.000
REMARK SMILES Cc1ccc(C)c(N2C(=O)S[C@H](CC(=O)Nc3ccc(C(=O)OCCOC(=O)c4ccc(-c5c6nc(c(-c7c(F)c(F)c(F)c(F)c7F)c7ccc([nH]7)c(-c7c(F)c(F)c(F)c(F)c7F)c7nc(c(-c8c(F)c(F)c(F)c(F)c8F)c8ccc5[nH]8)C=C7)C=C6)cc4)c(O)c3)C2=O)c1
REMARK SMILES IDX 24 1 23 2 21 3 22 4 20 5 17 6 18 7 94 8 19 9 92 10 16 11
REMARK SMILES IDX 14 12 15 13 13 15 12 16 8 17 9 18 95 19 10 20 11 21 96 22
REMARK SMILES IDX 7 23 1 24 2 25 3 26 97 27 4 28 5 29 6 30 93 31 25 33 26 34
REMARK SMILES IDX 27 35 28 36 29 37 30 38 91 39 31 40 90 41 32 42 33 43 34 44
REMARK SMILES IDX 84 45 35 46 89 47 83 48 85 49 36 50 88 51 82 52 81 53 37 55
REMARK SMILES IDX 69 56 49 57 68 58 50 59 53 60 67 61 86 62 51 63 52 64 66 66
REMARK SMILES IDX 87 67 54 68 38 69 39 70 47 71 40 72 41 73 45 74 48 75 42 76
REMARK SMILES IDX 43 77 46 78 44 79 70 80 71 81 79 82 72 83 73 84 77 85 80 86
REMARK SMILES IDX 74 87 75 88 78 89 76 90 55 91 56 92 64 93 57 94 58 95 62 96
REMARK SMILES IDX 65 97 59 98 60 99 63 100 61 101
REMARK H PARENT 16 14 93 32 85 54 53 65
REMARK Flexibility Score: inf
ROOT
ATOM      1  C   UNL A   1      41.040  20.576  26.960  1.00  0.00     0.275 C 
ENDROOT
BRANCH   1   2
ATOM      2  O   UNL A   1      40.108  20.767  25.896  1.00  0.00    -0.458 OA
BRANCH   2   3
ATOM      3  C   UNL A   1      39.211  21.752  26.130  1.00  0.00     0.342 C 
ATOM      4  O   UNL A   1      39.378  22.781  26.760  1.00  0.00    -0.246 OA
BRANCH   3   5
ATOM      5  C   UNL A   1      37.899  21.307  25.670  1.00  0.00     0.101 A 
ATOM      6  C   UNL A   1      35.368  20.356  25.025  1.00  0.00     0.044 A 
ATOM      7  C   UNL A   1      36.513  19.669  24.624  1.00  0.00     0.027 A 
ATOM      8  C   UNL A   1      35.498  21.615  25.610  1.00  0.00     0.073 A 
ATOM      9  C   UNL A   1      37.777  20.107  24.985  1.00  0.00     0.022 A 
ATOM     10  C   UNL A   1      36.772  22.094  25.919  1.00  0.00     0.132 A 
BRANCH   6  11
ATOM     11  N   UNL A   1      34.099  19.800  24.808  1.00  0.00    -0.326 N 
ATOM     12  C   UNL A   1      32.878  20.390  25.057  1.00  0.00     0.226 C 
ATOM     13  O   UNL A   1      31.867  19.697  25.164  1.00  0.00    -0.275 OA
ATOM     14  H   UNL A   1      34.078  18.887  24.439  1.00  0.00     0.169 HD
BRANCH  12  15
ATOM     15  C   UNL A   1      32.785  21.909  24.972  1.00  0.00     0.125 C 
BRANCH  15  16
ATOM     16  C   UNL A   1      31.414  22.505  25.269  1.00  0.00     0.156 C 
ATOM     17  N   UNL A   1      31.397  24.868  24.838  1.00  0.00    -0.240 N 
ATOM     18  C   UNL A   1      31.558  24.923  26.207  1.00  0.00     0.293 C 
ATOM     19  C   UNL A   1      31.167  23.627  24.273  1.00  0.00     0.248 C 
ATOM     20  O   UNL A   1      31.793  25.865  26.923  1.00  0.00    -0.261 OA
ATOM     21  S   UNL A   1      31.288  23.319  26.884  1.00  0.00    -0.050 SA
ATOM     22  O   UNL A   1      30.833  23.406  23.113  1.00  0.00    -0.273 OA
BRANCH  17  23
ATOM     23  C   UNL A   1      31.164  26.056  24.107  1.00  0.00     0.056 A 
ATOM     24  C   UNL A   1      28.218  28.282  23.107  1.00  0.00     0.044 C 
ATOM     25  C   UNL A   1      29.607  27.735  23.265  1.00  0.00    -0.049 A 
ATOM     26  C   UNL A   1      30.674  28.386  22.639  1.00  0.00     0.004 A 
ATOM     27  C   UNL A   1      29.863  26.577  24.018  1.00  0.00     0.030 A 
ATOM     28  C   UNL A   1      31.969  27.879  22.737  1.00  0.00     0.006 A 
ATOM     29  C   UNL A   1      32.231  26.707  23.461  1.00  0.00    -0.027 A 
ATOM     30  C   UNL A   1      33.653  26.223  23.518  1.00  0.00     0.046 C 
ENDBRANCH  17  23
ENDBRANCH  15  16
ENDBRANCH  12  15
ENDBRANCH   6  11
BRANCH  10  31
ATOM     31  O   UNL A   1      36.858  23.335  26.487  1.00  0.00    -0.507 OA
ATOM     32  H   UNL A   1      37.625  23.580  26.966  1.00  0.00     0.293 HD
ENDBRANCH  10  31
ENDBRANCH   3   5
ENDBRANCH   2   3
ENDBRANCH   1   2
BRANCH   1  33
ATOM     33  C   UNL A   1      42.149  19.599  26.550  1.00  0.00     0.275 C 
BRANCH  33  34
ATOM     34  O   UNL A   1      42.792  19.748  25.249  1.00  0.00    -0.458 OA
BRANCH  34  35
ATOM     35  C   UNL A   1      44.077  20.147  25.065  1.00  0.00     0.338 C 
ATOM     36  O   UNL A   1      44.960  19.372  24.734  1.00  0.00    -0.246 OA
BRANCH  35  37
ATOM     37  C   UNL A   1      44.331  21.595  25.243  1.00  0.00     0.060 A 
ATOM     38  C   UNL A   1      43.478  22.522  24.630  1.00  0.00     0.016 A 
ATOM     39  C   UNL A   1      45.249  22.014  26.193  1.00  0.00     0.016 A 
ATOM     40  C   UNL A   1      43.383  23.818  25.138  1.00  0.00     0.010 A 
ATOM     41  C   UNL A   1      45.060  23.249  26.777  1.00  0.00     0.010 A 
ATOM     42  C   UNL A   1      44.133  24.167  26.265  1.00  0.00    -0.014 A 
BRANCH  42  43
ATOM     43  C   UNL A   1      43.941  25.459  26.933  1.00  0.00     0.031 A 
ATOM     44  C   UNL A   1      44.869  26.605  26.634  1.00  0.00     0.074 A 
ATOM     45  C   UNL A   1      42.845  25.727  27.675  1.00  0.00     0.049 A 
ATOM     46  N   UNL A   1      45.679  27.211  27.448  1.00  0.00    -0.248 NA
ATOM     47  C   UNL A   1      44.884  27.165  25.279  1.00  0.00     0.031 C 
ATOM     48  C   UNL A   1      41.664  24.893  27.941  1.00  0.00     0.029 A 
ATOM     49  N   UNL A   1      42.540  26.890  28.309  1.00  0.00    -0.354 N 
ATOM     50  C   UNL A   1      46.226  28.299  26.753  1.00  0.00     0.074 A 
ATOM     51  C   UNL A   1      45.763  28.165  25.395  1.00  0.00     0.031 C 
ATOM     52  C   UNL A   1      40.686  25.647  28.482  1.00  0.00     0.029 A 
ATOM     53  C   UNL A   1      41.253  26.939  28.804  1.00  0.00     0.049 A 
ATOM     54  H   UNL A   1      43.180  27.632  28.407  1.00  0.00     0.167 HD
ATOM     55  C   UNL A   1      46.911  29.303  27.381  1.00  0.00     0.037 A 
ATOM     56  C   UNL A   1      40.681  27.946  29.492  1.00  0.00     0.037 A 
ATOM     57  C   UNL A   1      47.279  28.930  28.720  1.00  0.00     0.049 A 
ATOM     58  C   UNL A   1      41.773  28.713  30.132  1.00  0.00     0.074 A 
ATOM     59  C   UNL A   1      48.086  27.957  29.277  1.00  0.00     0.029 A 
ATOM     60  N   UNL A   1      46.534  29.413  29.766  1.00  0.00    -0.354 N 
ATOM     61  N   UNL A   1      42.550  28.220  31.059  1.00  0.00    -0.248 NA
ATOM     62  C   UNL A   1      42.288  29.881  29.440  1.00  0.00     0.031 C 
ATOM     63  C   UNL A   1      47.393  27.546  30.455  1.00  0.00     0.029 A 
ATOM     64  C   UNL A   1      46.241  28.329  30.553  1.00  0.00     0.049 A 
ATOM     65  H   UNL A   1      46.265  30.347  29.922  1.00  0.00     0.167 HD
ATOM     66  C   UNL A   1      43.804  28.752  30.795  1.00  0.00     0.074 A 
ATOM     67  C   UNL A   1      43.557  29.842  29.853  1.00  0.00     0.031 C 
ATOM     68  C   UNL A   1      44.949  28.104  31.160  1.00  0.00     0.037 A 
BRANCH  55  69
ATOM     69  C   UNL A   1      47.064  30.736  26.914  1.00  0.00     0.064 A 
ATOM     70  C   UNL A   1      48.341  31.346  26.930  1.00  0.00     0.173 A 
ATOM     71  C   UNL A   1      45.982  31.618  26.724  1.00  0.00     0.173 A 
ATOM     72  F   UNL A   1      49.450  30.613  27.113  1.00  0.00    -0.203 F 
ATOM     73  C   UNL A   1      48.510  32.732  26.844  1.00  0.00     0.198 A 
ATOM     74  C   UNL A   1      46.158  32.999  26.587  1.00  0.00     0.198 A 
ATOM     75  F   UNL A   1      44.713  31.195  26.773  1.00  0.00    -0.203 F 
ATOM     76  F   UNL A   1      49.731  33.266  26.986  1.00  0.00    -0.200 F 
ATOM     77  C   UNL A   1      47.417  33.559  26.678  1.00  0.00     0.200 A 
ATOM     78  F   UNL A   1      45.086  33.790  26.441  1.00  0.00    -0.200 F 
ATOM     79  F   UNL A   1      47.567  34.890  26.656  1.00  0.00    -0.200 F 
ENDBRANCH  55  69
BRANCH  56  80
ATOM     80  C   UNL A   1      39.286  28.392  29.358  1.00  0.00     0.064 A 
ATOM     81  C   UNL A   1      38.441  28.507  30.467  1.00  0.00     0.173 A 
ATOM     82  C   UNL A   1      38.823  28.937  28.142  1.00  0.00     0.173 A 
ATOM     83  F   UNL A   1      38.833  28.042  31.661  1.00  0.00    -0.203 F 
ATOM     84  C   UNL A   1      37.202  29.146  30.368  1.00  0.00     0.198 A 
ATOM     85  C   UNL A   1      37.588  29.572  28.044  1.00  0.00     0.198 A 
ATOM     86  F   UNL A   1      39.600  28.930  27.048  1.00  0.00    -0.203 F 
ATOM     87  F   UNL A   1      36.433  29.280  31.457  1.00  0.00    -0.200 F 
ATOM     88  C   UNL A   1      36.782  29.686  29.161  1.00  0.00     0.200 A 
ATOM     89  F   UNL A   1      37.209  30.116  26.879  1.00  0.00    -0.200 F 
ATOM     90  F   UNL A   1      35.619  30.346  29.083  1.00  0.00    -0.200 F 
ENDBRANCH  56  80
BRANCH  68  91
ATOM     91  C   UNL A   1      44.834  26.888  32.040  1.00  0.00     0.064 A 
ATOM     92  C   UNL A   1      44.672  26.955  33.434  1.00  0.00     0.173 A 
ATOM     93  C   UNL A   1      44.690  25.630  31.442  1.00  0.00     0.173 A 
ATOM     94  F   UNL A   1      44.688  28.127  34.072  1.00  0.00    -0.203 F 
ATOM     95  C   UNL A   1      44.414  25.816  34.196  1.00  0.00     0.198 A 
ATOM     96  C   UNL A   1      44.400  24.497  32.199  1.00  0.00     0.198 A 
ATOM     97  F   UNL A   1      44.768  25.509  30.107  1.00  0.00    -0.203 F 
ATOM     98  F   UNL A   1      44.262  25.916  35.525  1.00  0.00    -0.200 F 
ATOM     99  C   UNL A   1      44.270  24.589  33.576  1.00  0.00     0.200 A 
ATOM    100  F   UNL A   1      44.210  23.319  31.589  1.00  0.00    -0.200 F 
ATOM    101  F   UNL A   1      43.976  23.499  34.300  1.00  0.00    -0.200 F 
ENDBRANCH  68  91
ENDBRANCH  42  43
ENDBRANCH  35  37
ENDBRANCH  34  35
ENDBRANCH  33  34
ENDBRANCH   1  33
TORSDOF 16
ENDMDL
MODEL 2
REMARK VINA RESULT:     -13.5      2.923      8.788
REMARK SMILES Cc1ccc(C)c(N2C(=O)S[C@H](CC(=O)Nc3ccc(C(=O)OCCOC(=O)c4ccc(-c5c6nc(c(-c7c(F)c(F)c(F)c(F)c7F)c7ccc([nH]7)c(-c7c(F)c(F)c(F)c(F)c7F)c7nc(c(-c8c(F)c(F)c(F)c(F)c8F)c8ccc5[nH]8)C=C7)C=C6)cc4)c(O)c3)C2=O)c1
REMARK SMILES IDX 24 1 23 2 21 3 22 4 20 5 17 6 18 7 94 8 19 9 92 10 16 11
REMARK SMILES IDX 14 12 15 13 13 15 12 16 8 17 9 18 95 19 10 20 11 21 96 22
REMARK SMILES IDX 7 23 1 24 2 25 3 26 97 27 4 28 5 29 6 30 93 31 25 33 26 34
REMARK SMILES IDX 27 35 28 36 29 37 30 38 91 39 31 40 90 41 32 42 33 43 34 44
REMARK SMILES IDX 84 45 35 46 89 47 83 48 85 49 36 50 88 51 82 52 81 53 37 55
REMARK SMILES IDX 69 56 49 57 68 58 50 59 53 60 67 61 86 62 51 63 52 64 66 66
REMARK SMILES IDX 87 67 54 68 38 69 39 70 47 71 40 72 41 73 45 74 48 75 42 76
REMARK SMILES IDX 43 77 46 78 44 79 70 80 71 81 79 82 72 83 73 84 77 85 80 86
REMARK SMILES IDX 74 87 75 88 78 89 76 90 55 91 56 92 64 93 57 94 58 95 62 96
REMARK SMILES IDX 65 97 59 98 60 99 63 100 61 101
REMARK H PARENT 16 14 93 32 85 54 53 65
REMARK Flexibility Score: inf
ROOT
ATOM      1  C   UNL A   1      32.819  30.721  26.371  1.00  0.00     0.275 C 
ENDROOT
BRANCH   1   2
ATOM      2  O   UNL A   1      32.726  29.724  25.356  1.00  0.00    -0.458 OA
BRANCH   2   3
ATOM      3  C   UNL A   1      31.461  29.482  24.944  1.00  0.00     0.342 C 
ATOM      4  O   UNL A   1      30.650  30.281  24.512  1.00  0.00    -0.246 OA
BRANCH   3   5
ATOM      5  C   UNL A   1      31.114  28.105  25.285  1.00  0.00     0.101 A 
ATOM      6  C   UNL A   1      30.235  25.574  26.025  1.00  0.00     0.044 A 
ATOM      7  C   UNL A   1      31.127  26.283  26.827  1.00  0.00     0.027 A 
ATOM      8  C   UNL A   1      29.911  26.070  24.763  1.00  0.00     0.073 A 
ATOM      9  C   UNL A   1      31.532  27.566  26.494  1.00  0.00     0.022 A 
ATOM     10  C   UNL A   1      30.367  27.336  24.390  1.00  0.00     0.132 A 
BRANCH   6  11
ATOM     11  N   UNL A   1      29.698  24.358  26.471  1.00  0.00    -0.326 N 
ATOM     12  C   UNL A   1      30.301  23.118  26.432  1.00  0.00     0.226 C 
ATOM     13  O   UNL A   1      29.620  22.097  26.516  1.00  0.00    -0.275 OA
ATOM     14  H   UNL A   1      28.791  24.393  26.851  1.00  0.00     0.169 HD
BRANCH  12  15
ATOM     15  C   UNL A   1      31.822  23.057  26.510  1.00  0.00     0.125 C 
BRANCH  15  16
ATOM     16  C   UNL A   1      32.469  21.843  25.856  1.00  0.00     0.156 C 
ATOM     17  N   UNL A   1      34.782  22.265  25.366  1.00  0.00    -0.240 N 
ATOM     18  C   UNL A   1      34.274  22.494  24.104  1.00  0.00     0.293 C 
ATOM     19  C   UNL A   1      33.914  21.775  26.324  1.00  0.00     0.248 C 
ATOM     20  O   UNL A   1      34.812  22.938  23.121  1.00  0.00    -0.261 OA
ATOM     21  S   UNL A   1      32.600  21.947  24.050  1.00  0.00    -0.050 SA
ATOM     22  O   UNL A   1      34.219  21.354  27.436  1.00  0.00    -0.273 OA
BRANCH  17  23
ATOM     23  C   UNL A   1      36.182  22.236  25.568  1.00  0.00     0.056 A 
ATOM     24  C   UNL A   1      38.976  24.613  26.652  1.00  0.00     0.044 C 
ATOM     25  C   UNL A   1      38.237  23.385  26.207  1.00  0.00    -0.049 A 
ATOM     26  C   UNL A   1      38.954  22.213  25.946  1.00  0.00     0.004 A 
ATOM     27  C   UNL A   1      36.843  23.383  26.035  1.00  0.00     0.030 A 
ATOM     28  C   UNL A   1      38.298  21.067  25.496  1.00  0.00     0.006 A 
ATOM     29  C   UNL A   1      36.911  21.065  25.291  1.00  0.00    -0.027 A 
ATOM     30  C   UNL A   1      36.278  19.792  24.802  1.00  0.00     0.046 C 
ENDBRANCH  17  23
ENDBRANCH  15  16
ENDBRANCH  12  15
ENDBRANCH   6  11
BRANCH  10  31
ATOM     31  O   UNL A   1      30.034  27.784  23.142  1.00  0.00    -0.507 OA
ATOM     32  H   UNL A   1      29.203  28.192  22.997  1.00  0.00     0.293 HD
ENDBRANCH  10  31
ENDBRANCH   3   5
ENDBRANCH   2   3
ENDBRANCH   1   2
BRANCH   1  33
ATOM     33  C   UNL A   1      34.102  30.552  27.194  1.00  0.00     0.275 C 
BRANCH  33  34
ATOM     34  O   UNL A   1      34.472  31.576  28.166  1.00  0.00    -0.458 OA
BRANCH  34  35
ATOM     35  C   UNL A   1      35.670  32.214  28.194  1.00  0.00     0.338 C 
ATOM     36  O   UNL A   1      35.862  33.269  27.610  1.00  0.00    -0.246 OA
BRANCH  35  37
ATOM     37  C   UNL A   1      36.719  31.575  29.021  1.00  0.00     0.060 A 
ATOM     38  C   UNL A   1      36.536  30.259  29.465  1.00  0.00     0.016 A 
ATOM     39  C   UNL A   1      37.957  32.187  29.143  1.00  0.00     0.016 A 
ATOM     40  C   UNL A   1      37.644  29.484  29.810  1.00  0.00     0.010 A 
ATOM     41  C   UNL A   1      39.058  31.385  29.355  1.00  0.00     0.010 A 
ATOM     42  C   UNL A   1      38.925  30.031  29.691  1.00  0.00    -0.014 A 
BRANCH  42  43
ATOM     43  C   UNL A   1      40.123  29.204  29.880  1.00  0.00     0.031 A 
ATOM     44  C   UNL A   1      40.668  28.977  31.264  1.00  0.00     0.074 A 
ATOM     45  C   UNL A   1      40.658  28.478  28.876  1.00  0.00     0.049 A 
ATOM     46  N   UNL A   1      41.821  29.339  31.738  1.00  0.00    -0.248 NA
ATOM     47  C   UNL A   1      39.851  28.238  32.231  1.00  0.00     0.031 C 
ATOM     48  C   UNL A   1      40.200  28.312  27.489  1.00  0.00     0.029 A 
ATOM     49  N   UNL A   1      41.737  27.653  28.937  1.00  0.00    -0.354 N 
ATOM     50  C   UNL A   1      41.934  28.784  33.020  1.00  0.00     0.074 A 
ATOM     51  C   UNL A   1      40.651  28.189  33.300  1.00  0.00     0.031 C 
ATOM     52  C   UNL A   1      40.852  27.281  26.915  1.00  0.00     0.029 A 
ATOM     53  C   UNL A   1      41.915  26.878  27.810  1.00  0.00     0.049 A 
ATOM     54  H   UNL A   1      42.338  27.611  29.716  1.00  0.00     0.167 HD
ATOM     55  C   UNL A   1      43.120  28.740  33.701  1.00  0.00     0.037 A 
ATOM     56  C   UNL A   1      42.902  25.991  27.577  1.00  0.00     0.037 A 
ATOM     57  C   UNL A   1      44.099  29.609  33.106  1.00  0.00     0.049 A 
ATOM     58  C   UNL A   1      44.053  26.389  28.417  1.00  0.00     0.074 A 
ATOM     59  C   UNL A   1      44.202  30.971  32.905  1.00  0.00     0.029 A 
ATOM     60  N   UNL A   1      45.069  29.058  32.307  1.00  0.00    -0.354 N 
ATOM     61  N   UNL A   1      44.711  27.506  28.254  1.00  0.00    -0.248 NA
ATOM     62  C   UNL A   1      44.205  25.757  29.716  1.00  0.00     0.031 C 
ATOM     63  C   UNL A   1      44.818  31.100  31.623  1.00  0.00     0.029 A 
ATOM     64  C   UNL A   1      45.085  29.809  31.161  1.00  0.00     0.049 A 
ATOM     65  H   UNL A   1      45.639  28.282  32.515  1.00  0.00     0.167 HD
ATOM     66  C   UNL A   1      45.025  27.927  29.539  1.00  0.00     0.074 A 
ATOM     67  C   UNL A   1      44.777  26.762  30.385  1.00  0.00     0.031 C 
ATOM     68  C   UNL A   1      45.209  29.248  29.835  1.00  0.00     0.037 A 
BRANCH  55  69
ATOM     69  C   UNL A   1      43.525  27.743  34.768  1.00  0.00     0.064 A 
ATOM     70  C   UNL A   1      43.883  28.204  36.057  1.00  0.00     0.173 A 
ATOM     71  C   UNL A   1      43.849  26.398  34.501  1.00  0.00     0.173 A 
ATOM     72  F   UNL A   1      43.637  29.470  36.427  1.00  0.00    -0.203 F 
ATOM     73  C   UNL A   1      44.580  27.405  36.971  1.00  0.00     0.198 A 
ATOM     74  C   UNL A   1      44.499  25.587  35.437  1.00  0.00     0.198 A 
ATOM     75  F   UNL A   1      43.648  25.852  33.297  1.00  0.00    -0.203 F 
ATOM     76  F   UNL A   1      45.001  27.929  38.131  1.00  0.00    -0.200 F 
ATOM     77  C   UNL A   1      44.893  26.098  36.657  1.00  0.00     0.200 A 
ATOM     78  F   UNL A   1      44.809  24.323  35.112  1.00  0.00    -0.200 F 
ATOM     79  F   UNL A   1      45.612  25.348  37.503  1.00  0.00    -0.200 F 
ENDBRANCH  55  69
BRANCH  56  80
ATOM     80  C   UNL A   1      42.752  24.701  26.887  1.00  0.00     0.064 A 
ATOM     81  C   UNL A   1      43.289  24.480  25.615  1.00  0.00     0.173 A 
ATOM     82  C   UNL A   1      42.259  23.574  27.578  1.00  0.00     0.173 A 
ATOM     83  F   UNL A   1      43.806  25.500  24.917  1.00  0.00    -0.203 F 
ATOM     84  C   UNL A   1      43.345  23.195  25.067  1.00  0.00     0.198 A 
ATOM     85  C   UNL A   1      42.313  22.295  27.031  1.00  0.00     0.198 A 
ATOM     86  F   UNL A   1      41.790  23.689  28.831  1.00  0.00    -0.203 F 
ATOM     87  F   UNL A   1      43.905  23.007  23.865  1.00  0.00    -0.200 F 
ATOM     88  C   UNL A   1      42.867  22.105  25.779  1.00  0.00     0.200 A 
ATOM     89  F   UNL A   1      41.876  21.247  27.743  1.00  0.00    -0.200 F 
ATOM     90  F   UNL A   1      42.972  20.868  25.274  1.00  0.00    -0.200 F 
ENDBRANCH  56  80
BRANCH  68  91
ATOM     91  C   UNL A   1      45.267  30.235  28.700  1.00  0.00     0.064 A 
ATOM     92  C   UNL A   1      44.162  30.993  28.278  1.00  0.00     0.173 A 
ATOM     93  C   UNL A   1      46.512  30.566  28.154  1.00  0.00     0.173 A 
ATOM     94  F   UNL A   1      42.957  30.816  28.826  1.00  0.00    -0.203 F 
ATOM     95  C   UNL A   1      44.290  32.007  27.330  1.00  0.00     0.198 A 
ATOM     96  C   UNL A   1      46.646  31.600  27.229  1.00  0.00     0.198 A 
ATOM     97  F   UNL A   1      47.618  29.923  28.564  1.00  0.00    -0.203 F 
ATOM     98  F   UNL A   1      43.214  32.713  26.950  1.00  0.00    -0.200 F 
ATOM     99  C   UNL A   1      45.534  32.315  26.812  1.00  0.00     0.200 A 
ATOM    100  F   UNL A   1      47.861  31.930  26.770  1.00  0.00    -0.200 F 
ATOM    101  F   UNL A   1      45.669  33.320  25.935  1.00  0.00    -0.200 F 
ENDBRANCH  68  91
ENDBRANCH  42  43
ENDBRANCH  35  37
ENDBRANCH  34  35
ENDBRANCH  33  34
ENDBRANCH   1  33
TORSDOF 16
ENDMDL
MODEL 3
REMARK VINA RESULT:     -13.5      2.892      4.434
REMARK SMILES Cc1ccc(C)c(N2C(=O)S[C@H](CC(=O)Nc3ccc(C(=O)OCCOC(=O)c4ccc(-c5c6nc(c(-c7c(F)c(F)c(F)c(F)c7F)c7ccc([nH]7)c(-c7c(F)c(F)c(F)c(F)c7F)c7nc(c(-c8c(F)c(F)c(F)c(F)c8F)c8ccc5[nH]8)C=C7)C=C6)cc4)c(O)c3)C2=O)c1
REMARK SMILES IDX 24 1 23 2 21 3 22 4 20 5 17 6 18 7 94 8 19 9 92 10 16 11
REMARK SMILES IDX 14 12 15 13 13 15 12 16 8 17 9 18 95 19 10 20 11 21 96 22
REMARK SMILES IDX 7 23 1 24 2 25 3 26 97 27 4 28 5 29 6 30 93 31 25 33 26 34
REMARK SMILES IDX 27 35 28 36 29 37 30 38 91 39 31 40 90 41 32 42 33 43 34 44
REMARK SMILES IDX 84 45 35 46 89 47 83 48 85 49 36 50 88 51 82 52 81 53 37 55
REMARK SMILES IDX 69 56 49 57 68 58 50 59 53 60 67 61 86 62 51 63 52 64 66 66
REMARK SMILES IDX 87 67 54 68 38 69 39 70 47 71 40 72 41 73 45 74 48 75 42 76
REMARK SMILES IDX 43 77 46 78 44 79 70 80 71 81 79 82 72 83 73 84 77 85 80 86
REMARK SMILES IDX 74 87 75 88 78 89 76 90 55 91 56 92 64 93 57 94 58 95 62 96
REMARK SMILES IDX 65 97 59 98 60 99 63 100 61 101
REMARK H PARENT 16 14 93 32 85 54 53 65
REMARK Flexibility Score: inf
ROOT
ATOM      1  C   UNL A   1      38.147  21.116  25.748  1.00  0.00     0.275 C 
ENDROOT
BRANCH   1   2
ATOM      2  O   UNL A   1      37.887  22.084  24.732  1.00  0.00    -0.458 OA
BRANCH   2   3
ATOM      3  C   UNL A   1      37.204  23.165  25.174  1.00  0.00     0.342 C 
ATOM      4  O   UNL A   1      37.562  23.989  25.996  1.00  0.00    -0.246 OA
BRANCH   3   5
ATOM      5  C   UNL A   1      35.842  23.102  24.653  1.00  0.00     0.101 A 
ATOM      6  C   UNL A   1      33.257  23.236  23.641  1.00  0.00     0.044 A 
ATOM      7  C   UNL A   1      33.482  23.098  25.010  1.00  0.00     0.027 A 
ATOM      8  C   UNL A   1      34.333  23.140  22.760  1.00  0.00     0.073 A 
ATOM      9  C   UNL A   1      34.767  23.082  25.529  1.00  0.00     0.022 A 
ATOM     10  C   UNL A   1      35.628  23.058  23.273  1.00  0.00     0.132 A 
BRANCH   6  11
ATOM     11  N   UNL A   1      31.956  23.434  23.157  1.00  0.00    -0.326 N 
ATOM     12  C   UNL A   1      31.199  24.583  23.250  1.00  0.00     0.226 C 
ATOM     13  O   UNL A   1      29.977  24.531  23.114  1.00  0.00    -0.275 OA
ATOM     14  H   UNL A   1      31.536  22.668  22.702  1.00  0.00     0.169 HD
BRANCH  12  15
ATOM     15  C   UNL A   1      31.928  25.920  23.299  1.00  0.00     0.125 C 
BRANCH  15  16
ATOM     16  C   UNL A   1      31.127  27.090  23.858  1.00  0.00     0.156 C 
ATOM     17  N   UNL A   1      32.299  28.143  25.671  1.00  0.00    -0.240 N 
ATOM     18  C   UNL A   1      31.432  27.376  26.422  1.00  0.00     0.293 C 
ATOM     19  C   UNL A   1      32.111  28.161  24.301  1.00  0.00     0.248 C 
ATOM     20  O   UNL A   1      31.405  27.177  27.611  1.00  0.00    -0.261 OA
ATOM     21  S   UNL A   1      30.193  26.705  25.364  1.00  0.00    -0.050 SA
ATOM     22  O   UNL A   1      32.665  28.907  23.500  1.00  0.00    -0.273 OA
BRANCH  17  23
ATOM     23  C   UNL A   1      33.126  29.098  26.305  1.00  0.00     0.056 A 
ATOM     24  C   UNL A   1      36.678  29.342  27.705  1.00  0.00     0.044 C 
ATOM     25  C   UNL A   1      35.277  29.689  27.295  1.00  0.00    -0.049 A 
ATOM     26  C   UNL A   1      34.773  30.960  27.588  1.00  0.00     0.004 A 
ATOM     27  C   UNL A   1      34.451  28.767  26.632  1.00  0.00     0.030 A 
ATOM     28  C   UNL A   1      33.463  31.298  27.252  1.00  0.00     0.006 A 
ATOM     29  C   UNL A   1      32.621  30.374  26.618  1.00  0.00    -0.027 A 
ATOM     30  C   UNL A   1      31.220  30.812  26.290  1.00  0.00     0.046 C 
ENDBRANCH  17  23
ENDBRANCH  15  16
ENDBRANCH  12  15
ENDBRANCH   6  11
BRANCH  10  31
ATOM     31  O   UNL A   1      36.656  22.959  22.377  1.00  0.00    -0.507 OA
ATOM     32  H   UNL A   1      37.020  23.732  21.993  1.00  0.00     0.293 HD
ENDBRANCH  10  31
ENDBRANCH   3   5
ENDBRANCH   2   3
ENDBRANCH   1   2
BRANCH   1  33
ATOM     33  C   UNL A   1      39.649  21.014  26.039  1.00  0.00     0.275 C 
BRANCH  33  34
ATOM     34  O   UNL A   1      40.237  21.853  27.079  1.00  0.00    -0.458 OA
BRANCH  34  35
ATOM     35  C   UNL A   1      41.099  22.876  26.849  1.00  0.00     0.338 C 
ATOM     36  O   UNL A   1      41.881  22.871  25.911  1.00  0.00    -0.246 OA
BRANCH  35  37
ATOM     37  C   UNL A   1      40.999  24.023  27.779  1.00  0.00     0.060 A 
ATOM     38  C   UNL A   1      42.162  24.526  28.378  1.00  0.00     0.016 A 
ATOM     39  C   UNL A   1      39.810  24.731  27.860  1.00  0.00     0.016 A 
ATOM     40  C   UNL A   1      42.186  25.839  28.849  1.00  0.00     0.010 A 
ATOM     41  C   UNL A   1      39.873  26.066  28.203  1.00  0.00     0.010 A 
ATOM     42  C   UNL A   1      41.051  26.641  28.700  1.00  0.00    -0.014 A 
BRANCH  42  43
ATOM     43  C   UNL A   1      41.085  28.071  29.025  1.00  0.00     0.031 A 
ATOM     44  C   UNL A   1      42.103  28.966  28.372  1.00  0.00     0.074 A 
ATOM     45  C   UNL A   1      40.114  28.664  29.752  1.00  0.00     0.049 A 
ATOM     46  N   UNL A   1      43.061  29.633  28.938  1.00  0.00    -0.248 NA
ATOM     47  C   UNL A   1      42.036  29.168  26.921  1.00  0.00     0.031 C 
ATOM     48  C   UNL A   1      38.880  28.095  30.312  1.00  0.00     0.029 A 
ATOM     49  N   UNL A   1      40.019  29.978  30.087  1.00  0.00    -0.354 N 
ATOM     50  C   UNL A   1      43.653  30.429  27.948  1.00  0.00     0.074 A 
ATOM     51  C   UNL A   1      43.033  30.033  26.709  1.00  0.00     0.031 C 
ATOM     52  C   UNL A   1      38.062  29.089  30.713  1.00  0.00     0.029 A 
ATOM     53  C   UNL A   1      38.807  30.327  30.648  1.00  0.00     0.049 A 
ATOM     54  H   UNL A   1      40.748  30.624  29.941  1.00  0.00     0.167 HD
ATOM     55  C   UNL A   1      44.515  31.450  28.242  1.00  0.00     0.037 A 
ATOM     56  C   UNL A   1      38.435  31.542  31.094  1.00  0.00     0.037 A 
ATOM     57  C   UNL A   1      44.979  31.370  29.600  1.00  0.00     0.049 A 
ATOM     58  C   UNL A   1      39.672  32.281  31.431  1.00  0.00     0.074 A 
ATOM     59  C   UNL A   1      45.723  30.460  30.327  1.00  0.00     0.029 A 
ATOM     60  N   UNL A   1      44.414  32.195  30.540  1.00  0.00    -0.354 N 
ATOM     61  N   UNL A   1      40.482  31.927  32.393  1.00  0.00    -0.248 NA
ATOM     62  C   UNL A   1      40.241  33.160  30.424  1.00  0.00     0.031 C 
ATOM     63  C   UNL A   1      45.119  30.452  31.620  1.00  0.00     0.029 A 
ATOM     64  C   UNL A   1      44.083  31.390  31.599  1.00  0.00     0.049 A 
ATOM     65  H   UNL A   1      44.274  33.167  30.469  1.00  0.00     0.167 HD
ATOM     66  C   UNL A   1      41.753  32.197  31.907  1.00  0.00     0.074 A 
ATOM     67  C   UNL A   1      41.535  33.045  30.737  1.00  0.00     0.031 C 
ATOM     68  C   UNL A   1      42.848  31.504  32.339  1.00  0.00     0.037 A 
BRANCH  55  69
ATOM     69  C   UNL A   1      44.782  32.689  27.411  1.00  0.00     0.064 A 
ATOM     70  C   UNL A   1      46.023  32.831  26.745  1.00  0.00     0.173 A 
ATOM     71  C   UNL A   1      43.998  33.857  27.471  1.00  0.00     0.173 A 
ATOM     72  F   UNL A   1      46.865  31.792  26.632  1.00  0.00    -0.203 F 
ATOM     73  C   UNL A   1      46.472  34.062  26.254  1.00  0.00     0.198 A 
ATOM     74  C   UNL A   1      44.428  35.074  26.932  1.00  0.00     0.198 A 
ATOM     75  F   UNL A   1      42.841  33.894  28.143  1.00  0.00    -0.203 F 
ATOM     76  F   UNL A   1      47.706  34.166  25.740  1.00  0.00    -0.200 F 
ATOM     77  C   UNL A   1      45.676  35.185  26.352  1.00  0.00     0.200 A 
ATOM     78  F   UNL A   1      43.649  36.160  27.049  1.00  0.00    -0.200 F 
ATOM     79  F   UNL A   1      46.125  36.377  25.938  1.00  0.00    -0.200 F 
ENDBRANCH  55  69
BRANCH  56  80
ATOM     80  C   UNL A   1      37.095  32.134  30.956  1.00  0.00     0.064 A 
ATOM     81  C   UNL A   1      36.209  32.208  32.035  1.00  0.00     0.173 A 
ATOM     82  C   UNL A   1      36.746  32.849  29.791  1.00  0.00     0.173 A 
ATOM     83  F   UNL A   1      36.495  31.581  33.184  1.00  0.00    -0.203 F 
ATOM     84  C   UNL A   1      35.041  32.972  31.959  1.00  0.00     0.198 A 
ATOM     85  C   UNL A   1      35.582  33.608  29.715  1.00  0.00     0.198 A 
ATOM     86  F   UNL A   1      37.575  32.886  28.735  1.00  0.00    -0.203 F 
ATOM     87  F   UNL A   1      34.233  33.060  33.024  1.00  0.00    -0.200 F 
ATOM     88  C   UNL A   1      34.734  33.678  30.805  1.00  0.00     0.200 A 
ATOM     89  F   UNL A   1      35.314  34.309  28.605  1.00  0.00    -0.200 F 
ATOM     90  F   UNL A   1      33.641  34.452  30.755  1.00  0.00    -0.200 F 
ENDBRANCH  56  80
BRANCH  68  91
ATOM     91  C   UNL A   1      42.688  30.569  33.509  1.00  0.00     0.064 A 
ATOM     92  C   UNL A   1      42.696  30.998  34.847  1.00  0.00     0.173 A 
ATOM     93  C   UNL A   1      42.323  29.240  33.268  1.00  0.00     0.173 A 
ATOM     94  F   UNL A   1      42.929  32.275  35.158  1.00  0.00    -0.203 F 
ATOM     95  C   UNL A   1      42.391  30.130  35.894  1.00  0.00     0.198 A 
ATOM     96  C   UNL A   1      41.986  28.380  34.313  1.00  0.00     0.198 A 
ATOM     97  F   UNL A   1      42.231  28.786  32.007  1.00  0.00    -0.203 F 
ATOM     98  F   UNL A   1      42.407  30.573  37.161  1.00  0.00    -0.200 F 
ATOM     99  C   UNL A   1      42.028  28.824  35.626  1.00  0.00     0.200 A 
ATOM    100  F   UNL A   1      41.585  27.131  34.044  1.00  0.00    -0.200 F 
ATOM    101  F   UNL A   1      41.689  27.999  36.626  1.00  0.00    -0.200 F 
ENDBRANCH  68  91
ENDBRANCH  42  43
ENDBRANCH  35  37
ENDBRANCH  34  35
ENDBRANCH  33  34
ENDBRANCH   1  33
TORSDOF 16
ENDMDL
