MODEL 1
REMARK VINA RESULT:     -12.4      0.000      0.000
REMARK SMILES CC[C@H]1CCC[C@@H]([NH2+][C@@](C)(CC)C(=O)OCCOC(=O)c2ccc(-c3c4nc(c(-c5c(F)c(F)c(F)c(F)c5F)c5ccc([nH]5)c(-c5c(F)c(F)c(F)c(F)c5F)c5nc(c(-c6c(F)c(F)c(F)c(F)c6F)c6ccc3[nH]6)C=C5)C=C4)cc2)C1
REMARK SMILES IDX 16 1 15 2 13 3 14 4 9 5 10 6 8 7 7 10 3 11 4 12 84 13 5 14
REMARK SMILES IDX 6 15 2 16 1 17 11 18 12 19 17 20 18 21 19 22 20 23 21 24
REMARK SMILES IDX 22 25 83 26 23 27 82 28 24 29 25 30 26 31 76 32 27 33 81 34
REMARK SMILES IDX 75 35 77 36 28 37 80 38 74 39 73 40 29 42 61 43 41 44 60 45
REMARK SMILES IDX 42 46 45 47 59 48 78 49 43 50 44 51 58 53 79 54 46 55 30 56
REMARK SMILES IDX 31 57 39 58 32 59 33 60 37 61 40 62 34 63 35 64 38 65 36 66
REMARK SMILES IDX 62 67 63 68 71 69 64 70 65 71 69 72 72 73 66 74 67 75 70 76
REMARK SMILES IDX 68 77 47 78 48 79 56 80 49 81 50 82 54 83 57 84 51 85 52 86
REMARK SMILES IDX 55 87 53 88
REMARK H PARENT 8 8 8 9 77 41 45 52
REMARK Flexibility Score: inf
ROOT
ATOM      1  C   UNL A   1      31.678  28.944  23.719  1.00  0.00     0.274 C 
ENDROOT
BRANCH   1   2
ATOM      2  O   UNL A   1      31.096  27.604  23.707  1.00  0.00    -0.457 OA
BRANCH   2   3
ATOM      3  C   UNL A   1      31.875  26.642  23.127  1.00  0.00     0.367 C 
ATOM      4  O   UNL A   1      32.264  26.761  21.962  1.00  0.00    -0.245 OA
BRANCH   3   5
ATOM      5  C   UNL A   1      32.056  25.316  23.959  1.00  0.00     0.191 C 
ATOM      6  C   UNL A   1      30.539  24.847  23.976  1.00  0.00     0.092 C 
BRANCH   5   7
ATOM      7  N   UNL A   1      32.711  24.080  23.396  1.00  0.00    -0.330 N 
ATOM      8  H   UNL A   1      32.377  24.072  22.432  1.00  0.00     0.347 HD
ATOM      9  H   UNL A   1      33.621  24.277  23.813  1.00  0.00     0.347 HD
BRANCH   7  10
ATOM     10  C   UNL A   1      32.738  22.598  23.747  1.00  0.00     0.183 C 
ATOM     11  C   UNL A   1      35.358  22.651  25.592  1.00  0.00    -0.006 C 
ATOM     12  C   UNL A   1      34.438  22.954  27.252  1.00  0.00     0.004 C 
ATOM     13  C   UNL A   1      34.474  22.241  24.036  1.00  0.00     0.068 C 
ATOM     14  C   UNL A   1      32.471  22.429  27.294  1.00  0.00     0.006 C 
ATOM     15  C   UNL A   1      31.779  21.922  25.258  1.00  0.00     0.065 C 
BRANCH  11  16
ATOM     16  C   UNL A   1      36.415  23.749  25.305  1.00  0.00     0.000 C 
ATOM     17  C   UNL A   1      37.785  23.569  25.952  1.00  0.00     0.004 C 
ENDBRANCH  11  16
ENDBRANCH   7  10
ENDBRANCH   5   7
BRANCH   5  18
ATOM     18  C   UNL A   1      32.371  25.614  25.439  1.00  0.00     0.077 C 
ATOM     19  C   UNL A   1      33.695  26.306  25.681  1.00  0.00     0.011 C 
ENDBRANCH   5  18
ENDBRANCH   3   5
ENDBRANCH   2   3
ENDBRANCH   1   2
BRANCH   1  20
ATOM     20  C   UNL A   1      31.324  29.690  25.000  1.00  0.00     0.275 C 
BRANCH  20  21
ATOM     21  O   UNL A   1      32.539  29.886  25.745  1.00  0.00    -0.458 OA
BRANCH  21  22
ATOM     22  C   UNL A   1      32.427  30.848  26.675  1.00  0.00     0.338 C 
ATOM     23  O   UNL A   1      31.457  31.575  26.854  1.00  0.00    -0.246 OA
BRANCH  22  24
ATOM     24  C   UNL A   1      33.548  30.842  27.648  1.00  0.00     0.060 A 
ATOM     25  C   UNL A   1      34.237  32.376  28.004  1.00  0.00     0.016 A 
ATOM     26  C   UNL A   1      34.511  29.449  27.429  1.00  0.00     0.016 A 
ATOM     27  C   UNL A   1      36.021  32.501  28.146  1.00  0.00     0.010 A 
ATOM     28  C   UNL A   1      36.197  29.404  27.564  1.00  0.00     0.010 A 
ATOM     29  C   UNL A   1      37.102  30.879  27.967  1.00  0.00    -0.014 A 
BRANCH  29  30
ATOM     30  C   UNL A   1      38.280  29.994  28.893  1.00  0.00     0.031 A 
ATOM     31  C   UNL A   1      38.511  30.437  30.355  1.00  0.00     0.074 A 
ATOM     32  C   UNL A   1      39.367  29.269  28.409  1.00  0.00     0.049 A 
ATOM     33  N   UNL A   1      39.380  29.998  31.246  1.00  0.00    -0.248 NA
ATOM     34  C   UNL A   1      37.730  31.589  30.824  1.00  0.00     0.031 C 
ATOM     35  C   UNL A   1      39.685  28.922  27.011  1.00  0.00     0.029 A 
ATOM     36  N   UNL A   1      40.429  28.618  29.058  1.00  0.00    -0.354 N 
ATOM     37  C   UNL A   1      39.250  30.811  32.370  1.00  0.00     0.074 A 
ATOM     38  C   UNL A   1      38.252  31.808  32.025  1.00  0.00     0.031 C 
ATOM     39  C   UNL A   1      40.672  28.040  26.920  1.00  0.00     0.029 A 
ATOM     40  C   UNL A   1      41.222  27.829  28.229  1.00  0.00     0.049 A 
ATOM     41  H   UNL A   1      40.600  28.713  30.022  1.00  0.00     0.167 HD
ATOM     42  C   UNL A   1      39.885  30.754  33.575  1.00  0.00     0.037 A 
ATOM     43  C   UNL A   1      42.278  27.003  28.392  1.00  0.00     0.037 A 
ATOM     44  C   UNL A   1      40.933  29.823  33.935  1.00  0.00     0.049 A 
ATOM     45  C   UNL A   1      42.879  26.841  29.740  1.00  0.00     0.074 A 
ATOM     46  C   UNL A   1      41.514  29.615  35.179  1.00  0.00     0.029 A 
ATOM     47  N   UNL A   1      41.600  28.984  33.054  1.00  0.00    -0.354 N 
ATOM     48  N   UNL A   1      42.557  27.458  30.843  1.00  0.00    -0.248 NA
ATOM     49  C   UNL A   1      43.986  25.885  29.871  1.00  0.00     0.031 C 
ATOM     50  C   UNL A   1      42.571  28.707  35.038  1.00  0.00     0.029 A 
ATOM     51  C   UNL A   1      42.604  28.288  33.721  1.00  0.00     0.049 A 
ATOM     52  H   UNL A   1      41.394  28.894  32.097  1.00  0.00     0.167 HD
ATOM     53  C   UNL A   1      43.414  26.964  31.808  1.00  0.00     0.074 A 
ATOM     54  C   UNL A   1      44.255  25.975  31.166  1.00  0.00     0.031 C 
ATOM     55  C   UNL A   1      43.478  27.318  33.111  1.00  0.00     0.037 A 
BRANCH  42  56
ATOM     56  C   UNL A   1      39.444  31.736  34.640  1.00  0.00     0.064 A 
ATOM     57  C   UNL A   1      38.588  31.342  35.682  1.00  0.00     0.173 A 
ATOM     58  C   UNL A   1      39.923  33.057  34.662  1.00  0.00     0.173 A 
ATOM     59  F   UNL A   1      38.115  30.087  35.728  1.00  0.00    -0.203 F 
ATOM     60  C   UNL A   1      38.182  32.242  36.666  1.00  0.00     0.198 A 
ATOM     61  C   UNL A   1      39.544  33.946  35.669  1.00  0.00     0.198 A 
ATOM     62  F   UNL A   1      40.770  33.488  33.717  1.00  0.00    -0.203 F 
ATOM     63  F   UNL A   1      37.314  31.853  37.609  1.00  0.00    -0.200 F 
ATOM     64  C   UNL A   1      38.662  33.542  36.661  1.00  0.00     0.200 A 
ATOM     65  F   UNL A   1      40.030  35.194  35.681  1.00  0.00    -0.200 F 
ATOM     66  F   UNL A   1      38.270  34.406  37.607  1.00  0.00    -0.200 F 
ENDBRANCH  42  56
BRANCH  43  67
ATOM     67  C   UNL A   1      42.797  26.215  27.223  1.00  0.00     0.064 A 
ATOM     68  C   UNL A   1      43.914  26.664  26.500  1.00  0.00     0.173 A 
ATOM     69  C   UNL A   1      42.268  24.960  26.875  1.00  0.00     0.173 A 
ATOM     70  F   UNL A   1      44.449  27.864  26.772  1.00  0.00    -0.203 F 
ATOM     71  C   UNL A   1      44.482  25.891  25.486  1.00  0.00     0.198 A 
ATOM     72  C   UNL A   1      42.863  24.171  25.890  1.00  0.00     0.198 A 
ATOM     73  F   UNL A   1      41.217  24.468  27.546  1.00  0.00    -0.203 F 
ATOM     74  F   UNL A   1      45.535  26.357  24.800  1.00  0.00    -0.200 F 
ATOM     75  C   UNL A   1      43.967  24.638  25.195  1.00  0.00     0.200 A 
ATOM     76  F   UNL A   1      42.384  22.945  25.637  1.00  0.00    -0.200 F 
ATOM     77  F   UNL A   1      44.539  23.877  24.251  1.00  0.00    -0.200 F 
ENDBRANCH  43  67
BRANCH  55  78
ATOM     78  C   UNL A   1      44.493  26.609  33.956  1.00  0.00     0.064 A 
ATOM     79  C   UNL A   1      45.801  27.094  34.106  1.00  0.00     0.173 A 
ATOM     80  C   UNL A   1      44.151  25.424  34.621  1.00  0.00     0.173 A 
ATOM     81  F   UNL A   1      46.189  28.208  33.465  1.00  0.00    -0.203 F 
ATOM     82  C   UNL A   1      46.735  26.406  34.876  1.00  0.00     0.198 A 
ATOM     83  C   UNL A   1      45.078  24.755  35.415  1.00  0.00     0.198 A 
ATOM     84  F   UNL A   1      42.918  24.911  34.499  1.00  0.00    -0.203 F 
ATOM     85  F   UNL A   1      47.994  26.857  34.961  1.00  0.00    -0.200 F 
ATOM     86  C   UNL A   1      46.371  25.242  35.536  1.00  0.00     0.200 A 
ATOM     87  F   UNL A   1      44.722  23.634  36.057  1.00  0.00    -0.200 F 
ATOM     88  F   UNL A   1      47.268  24.583  36.281  1.00  0.00    -0.200 F 
ENDBRANCH  55  78
ENDBRANCH  29  30
ENDBRANCH  22  24
ENDBRANCH  21  22
ENDBRANCH  20  21
ENDBRANCH   1  20
TORSDOF 15
ENDMDL
MODEL 2
REMARK VINA RESULT:     -12.2      0.736      1.418
REMARK SMILES CC[C@H]1CCC[C@@H]([NH2+][C@@](C)(CC)C(=O)OCCOC(=O)c2ccc(-c3c4nc(c(-c5c(F)c(F)c(F)c(F)c5F)c5ccc([nH]5)c(-c5c(F)c(F)c(F)c(F)c5F)c5nc(c(-c6c(F)c(F)c(F)c(F)c6F)c6ccc3[nH]6)C=C5)C=C4)cc2)C1
REMARK SMILES IDX 16 1 15 2 13 3 14 4 9 5 10 6 8 7 7 10 3 11 4 12 84 13 5 14
REMARK SMILES IDX 6 15 2 16 1 17 11 18 12 19 17 20 18 21 19 22 20 23 21 24
REMARK SMILES IDX 22 25 83 26 23 27 82 28 24 29 25 30 26 31 76 32 27 33 81 34
REMARK SMILES IDX 75 35 77 36 28 37 80 38 74 39 73 40 29 42 61 43 41 44 60 45
REMARK SMILES IDX 42 46 45 47 59 48 78 49 43 50 44 51 58 53 79 54 46 55 30 56
REMARK SMILES IDX 31 57 39 58 32 59 33 60 37 61 40 62 34 63 35 64 38 65 36 66
REMARK SMILES IDX 62 67 63 68 71 69 64 70 65 71 69 72 72 73 66 74 67 75 70 76
REMARK SMILES IDX 68 77 47 78 48 79 56 80 49 81 50 82 54 83 57 84 51 85 52 86
REMARK SMILES IDX 55 87 53 88
REMARK H PARENT 8 8 8 9 77 41 45 52
REMARK Flexibility Score: inf
ROOT
ATOM      1  C   UNL A   1      30.907  29.123  24.140  1.00  0.00     0.274 C 
ENDROOT
BRANCH   1   2
ATOM      2  O   UNL A   1      30.510  27.775  24.539  1.00  0.00    -0.457 OA
BRANCH   2   3
ATOM      3  C   UNL A   1      31.252  26.768  23.988  1.00  0.00     0.367 C 
ATOM      4  O   UNL A   1      31.438  26.713  22.770  1.00  0.00    -0.245 OA
BRANCH   3   5
ATOM      5  C   UNL A   1      31.661  25.606  24.970  1.00  0.00     0.191 C 
ATOM      6  C   UNL A   1      30.256  25.402  25.681  1.00  0.00     0.092 C 
BRANCH   5   7
ATOM      7  N   UNL A   1      31.930  24.197  24.503  1.00  0.00    -0.330 N 
ATOM      8  H   UNL A   1      32.610  23.864  25.187  1.00  0.00     0.347 HD
ATOM      9  H   UNL A   1      30.947  23.979  24.339  1.00  0.00     0.347 HD
BRANCH   7  10
ATOM     10  C   UNL A   1      32.413  23.544  23.214  1.00  0.00     0.183 C 
ATOM     11  C   UNL A   1      35.273  22.571  24.284  1.00  0.00    -0.006 C 
ATOM     12  C   UNL A   1      34.698  20.832  24.864  1.00  0.00     0.004 C 
ATOM     13  C   UNL A   1      34.202  23.682  23.289  1.00  0.00     0.068 C 
ATOM     14  C   UNL A   1      32.992  20.122  24.010  1.00  0.00     0.006 C 
ATOM     15  C   UNL A   1      32.019  21.713  22.826  1.00  0.00     0.065 C 
BRANCH  11  16
ATOM     16  C   UNL A   1      35.923  23.382  25.435  1.00  0.00     0.000 C 
ATOM     17  C   UNL A   1      37.429  23.229  25.618  1.00  0.00     0.004 C 
ENDBRANCH  11  16
ENDBRANCH   7  10
ENDBRANCH   5   7
BRANCH   5  18
ATOM     18  C   UNL A   1      32.580  26.113  26.100  1.00  0.00     0.077 C 
ATOM     19  C   UNL A   1      34.004  26.404  25.678  1.00  0.00     0.011 C 
ENDBRANCH   5  18
ENDBRANCH   3   5
ENDBRANCH   2   3
ENDBRANCH   1   2
BRANCH   1  20
ATOM     20  C   UNL A   1      32.233  29.523  24.777  1.00  0.00     0.275 C 
BRANCH  20  21
ATOM     21  O   UNL A   1      32.041  29.566  26.202  1.00  0.00    -0.458 OA
BRANCH  21  22
ATOM     22  C   UNL A   1      32.257  30.787  26.716  1.00  0.00     0.338 C 
ATOM     23  O   UNL A   1      31.542  31.772  26.575  1.00  0.00    -0.246 OA
BRANCH  22  24
ATOM     24  C   UNL A   1      33.388  30.815  27.678  1.00  0.00     0.060 A 
ATOM     25  C   UNL A   1      34.047  32.368  28.012  1.00  0.00     0.016 A 
ATOM     26  C   UNL A   1      34.379  29.442  27.462  1.00  0.00     0.016 A 
ATOM     27  C   UNL A   1      35.829  32.533  28.135  1.00  0.00     0.010 A 
ATOM     28  C   UNL A   1      36.068  29.435  27.581  1.00  0.00     0.010 A 
ATOM     29  C   UNL A   1      36.944  30.933  27.961  1.00  0.00    -0.014 A 
BRANCH  29  30
ATOM     30  C   UNL A   1      38.150  30.084  28.883  1.00  0.00     0.031 A 
ATOM     31  C   UNL A   1      38.394  30.553  30.334  1.00  0.00     0.074 A 
ATOM     32  C   UNL A   1      39.242  29.370  28.394  1.00  0.00     0.049 A 
ATOM     33  N   UNL A   1      39.283  30.144  31.219  1.00  0.00    -0.248 NA
ATOM     34  C   UNL A   1      37.600  31.699  30.797  1.00  0.00     0.031 C 
ATOM     35  C   UNL A   1      39.546  29.007  26.997  1.00  0.00     0.029 A 
ATOM     36  N   UNL A   1      40.325  28.748  29.037  1.00  0.00    -0.354 N 
ATOM     37  C   UNL A   1      39.155  30.972  32.332  1.00  0.00     0.074 A 
ATOM     38  C   UNL A   1      38.135  31.946  31.986  1.00  0.00     0.031 C 
ATOM     39  C   UNL A   1      40.547  28.141  26.905  1.00  0.00     0.029 A 
ATOM     40  C   UNL A   1      41.119  27.960  28.209  1.00  0.00     0.049 A 
ATOM     41  H   UNL A   1      40.507  28.861  29.997  1.00  0.00     0.167 HD
ATOM     42  C   UNL A   1      39.808  30.945  33.529  1.00  0.00     0.037 A 
ATOM     43  C   UNL A   1      42.192  27.155  28.369  1.00  0.00     0.037 A 
ATOM     44  C   UNL A   1      40.877  30.037  33.888  1.00  0.00     0.049 A 
ATOM     45  C   UNL A   1      42.815  27.024  29.711  1.00  0.00     0.074 A 
ATOM     46  C   UNL A   1      41.480  29.860  35.126  1.00  0.00     0.029 A 
ATOM     47  N   UNL A   1      41.546  29.197  33.010  1.00  0.00    -0.354 N 
ATOM     48  N   UNL A   1      42.497  27.653  30.809  1.00  0.00    -0.248 NA
ATOM     49  C   UNL A   1      43.941  26.090  29.841  1.00  0.00     0.031 C 
ATOM     50  C   UNL A   1      42.550  28.967  34.984  1.00  0.00     0.029 A 
ATOM     51  C   UNL A   1      42.572  28.528  33.673  1.00  0.00     0.049 A 
ATOM     52  H   UNL A   1      41.328  29.088  32.057  1.00  0.00     0.167 HD
ATOM     53  C   UNL A   1      43.377  27.189  31.768  1.00  0.00     0.074 A 
ATOM     54  C   UNL A   1      44.226  26.205  31.130  1.00  0.00     0.031 C 
ATOM     55  C   UNL A   1      43.454  27.564  33.065  1.00  0.00     0.037 A 
BRANCH  42  56
ATOM     56  C   UNL A   1      39.366  31.935  34.585  1.00  0.00     0.064 A 
ATOM     57  C   UNL A   1      38.568  31.534  35.669  1.00  0.00     0.173 A 
ATOM     58  C   UNL A   1      39.786  33.276  34.554  1.00  0.00     0.173 A 
ATOM     59  F   UNL A   1      38.153  30.261  35.766  1.00  0.00    -0.203 F 
ATOM     60  C   UNL A   1      38.161  32.442  36.645  1.00  0.00     0.198 A 
ATOM     61  C   UNL A   1      39.407  34.175  35.552  1.00  0.00     0.198 A 
ATOM     62  F   UNL A   1      40.576  33.717  33.565  1.00  0.00    -0.203 F 
ATOM     63  F   UNL A   1      37.348  32.041  37.632  1.00  0.00    -0.200 F 
ATOM     64  C   UNL A   1      38.582  33.760  36.587  1.00  0.00     0.200 A 
ATOM     65  F   UNL A   1      39.837  35.443  35.512  1.00  0.00    -0.200 F 
ATOM     66  F   UNL A   1      38.189  34.633  37.526  1.00  0.00    -0.200 F 
ENDBRANCH  42  56
BRANCH  43  67
ATOM     67  C   UNL A   1      42.708  26.357  27.205  1.00  0.00     0.064 A 
ATOM     68  C   UNL A   1      43.802  26.818  26.454  1.00  0.00     0.173 A 
ATOM     69  C   UNL A   1      42.201  25.086  26.889  1.00  0.00     0.173 A 
ATOM     70  F   UNL A   1      44.314  28.034  26.696  1.00  0.00    -0.203 F 
ATOM     71  C   UNL A   1      44.369  26.040  25.444  1.00  0.00     0.198 A 
ATOM     72  C   UNL A   1      42.795  24.292  25.907  1.00  0.00     0.198 A 
ATOM     73  F   UNL A   1      41.173  24.582  27.587  1.00  0.00    -0.203 F 
ATOM     74  F   UNL A   1      45.399  26.517  24.732  1.00  0.00    -0.200 F 
ATOM     75  C   UNL A   1      43.877  24.771  25.185  1.00  0.00     0.200 A 
ATOM     76  F   UNL A   1      42.340  23.051  25.684  1.00  0.00    -0.200 F 
ATOM     77  F   UNL A   1      44.449  24.006  24.244  1.00  0.00    -0.200 F 
ENDBRANCH  43  67
BRANCH  55  78
ATOM     78  C   UNL A   1      44.493  26.886  33.905  1.00  0.00     0.064 A 
ATOM     79  C   UNL A   1      44.239  25.672  34.561  1.00  0.00     0.173 A 
ATOM     80  C   UNL A   1      45.760  27.464  34.060  1.00  0.00     0.173 A 
ATOM     81  F   UNL A   1      43.032  25.092  34.471  1.00  0.00    -0.203 F 
ATOM     82  C   UNL A   1      45.211  25.072  35.357  1.00  0.00     0.198 A 
ATOM     83  C   UNL A   1      46.740  26.847  34.832  1.00  0.00     0.198 A 
ATOM     84  F   UNL A   1      46.049  28.632  33.466  1.00  0.00    -0.203 F 
ATOM     85  F   UNL A   1      44.930  23.941  36.018  1.00  0.00    -0.200 F 
ATOM     86  C   UNL A   1      46.463  25.656  35.485  1.00  0.00     0.200 A 
ATOM     87  F   UNL A   1      47.951  27.409  34.949  1.00  0.00    -0.200 F 
ATOM     88  F   UNL A   1      47.400  25.076  36.248  1.00  0.00    -0.200 F 
ENDBRANCH  55  78
ENDBRANCH  29  30
ENDBRANCH  22  24
ENDBRANCH  21  22
ENDBRANCH  20  21
ENDBRANCH   1  20
TORSDOF 15
ENDMDL
MODEL 3
REMARK VINA RESULT:     -12.2      4.012      9.653
REMARK SMILES CC[C@H]1CCC[C@@H]([NH2+][C@@](C)(CC)C(=O)OCCOC(=O)c2ccc(-c3c4nc(c(-c5c(F)c(F)c(F)c(F)c5F)c5ccc([nH]5)c(-c5c(F)c(F)c(F)c(F)c5F)c5nc(c(-c6c(F)c(F)c(F)c(F)c6F)c6ccc3[nH]6)C=C5)C=C4)cc2)C1
REMARK SMILES IDX 16 1 15 2 13 3 14 4 9 5 10 6 8 7 7 10 3 11 4 12 84 13 5 14
REMARK SMILES IDX 6 15 2 16 1 17 11 18 12 19 17 20 18 21 19 22 20 23 21 24
REMARK SMILES IDX 22 25 83 26 23 27 82 28 24 29 25 30 26 31 76 32 27 33 81 34
REMARK SMILES IDX 75 35 77 36 28 37 80 38 74 39 73 40 29 42 61 43 41 44 60 45
REMARK SMILES IDX 42 46 45 47 59 48 78 49 43 50 44 51 58 53 79 54 46 55 30 56
REMARK SMILES IDX 31 57 39 58 32 59 33 60 37 61 40 62 34 63 35 64 38 65 36 66
REMARK SMILES IDX 62 67 63 68 71 69 64 70 65 71 69 72 72 73 66 74 67 75 70 76
REMARK SMILES IDX 68 77 47 78 48 79 56 80 49 81 50 82 54 83 57 84 51 85 52 86
REMARK SMILES IDX 55 87 53 88
REMARK H PARENT 8 8 8 9 77 41 45 52
REMARK Flexibility Score: inf
ROOT
ATOM      1  C   UNL A   1      34.213  21.084  25.719  1.00  0.00     0.274 C 
ENDROOT
BRANCH   1   2
ATOM      2  O   UNL A   1      33.200  21.561  24.782  1.00  0.00    -0.457 OA
BRANCH   2   3
ATOM      3  C   UNL A   1      32.536  22.689  25.175  1.00  0.00     0.367 C 
ATOM      4  O   UNL A   1      31.787  22.674  26.155  1.00  0.00    -0.245 OA
BRANCH   3   5
ATOM      5  C   UNL A   1      32.630  23.915  24.189  1.00  0.00     0.191 C 
ATOM      6  C   UNL A   1      32.644  23.109  22.821  1.00  0.00     0.092 C 
BRANCH   5   7
ATOM      7  N   UNL A   1      31.475  24.852  23.936  1.00  0.00    -0.330 N 
ATOM      8  H   UNL A   1      31.942  25.689  23.588  1.00  0.00     0.347 HD
ATOM      9  H   UNL A   1      30.896  24.143  23.485  1.00  0.00     0.347 HD
BRANCH   7  10
ATOM     10  C   UNL A   1      30.333  25.431  24.761  1.00  0.00     0.183 C 
ATOM     11  C   UNL A   1      31.777  28.159  25.620  1.00  0.00    -0.006 C 
ATOM     12  C   UNL A   1      31.143  29.207  24.139  1.00  0.00     0.004 C 
ATOM     13  C   UNL A   1      31.146  26.472  25.977  1.00  0.00     0.068 C 
ATOM     14  C   UNL A   1      29.471  28.516  23.206  1.00  0.00     0.006 C 
ATOM     15  C   UNL A   1      28.968  26.497  23.948  1.00  0.00     0.065 C 
BRANCH  11  16
ATOM     16  C   UNL A   1      33.326  28.155  25.707  1.00  0.00     0.000 C 
ATOM     17  C   UNL A   1      33.942  28.631  27.019  1.00  0.00     0.004 C 
ENDBRANCH  11  16
ENDBRANCH   7  10
ENDBRANCH   5   7
BRANCH   5  18
ATOM     18  C   UNL A   1      34.019  24.582  24.243  1.00  0.00     0.077 C 
ATOM     19  C   UNL A   1      34.598  24.734  25.633  1.00  0.00     0.011 C 
ENDBRANCH   5  18
ENDBRANCH   3   5
ENDBRANCH   2   3
ENDBRANCH   1   2
BRANCH   1  20
ATOM     20  C   UNL A   1      35.527  20.781  25.009  1.00  0.00     0.275 C 
BRANCH  20  21
ATOM     21  O   UNL A   1      36.579  21.456  25.722  1.00  0.00    -0.458 OA
BRANCH  21  22
ATOM     22  C   UNL A   1      37.802  21.088  25.310  1.00  0.00     0.338 C 
ATOM     23  O   UNL A   1      38.069  20.137  24.585  1.00  0.00    -0.246 OA
BRANCH  22  24
ATOM     24  C   UNL A   1      38.850  22.079  25.660  1.00  0.00     0.060 A 
ATOM     25  C   UNL A   1      40.166  21.480  26.590  1.00  0.00     0.016 A 
ATOM     26  C   UNL A   1      38.141  23.600  25.975  1.00  0.00     0.016 A 
ATOM     27  C   UNL A   1      40.801  22.493  27.927  1.00  0.00     0.010 A 
ATOM     28  C   UNL A   1      38.651  24.678  27.177  1.00  0.00     0.010 A 
ATOM     29  C   UNL A   1      40.025  24.265  28.225  1.00  0.00    -0.014 A 
BRANCH  29  30
ATOM     30  C   UNL A   1      40.557  25.919  28.305  1.00  0.00     0.031 A 
ATOM     31  C   UNL A   1      42.003  26.222  27.852  1.00  0.00     0.074 A 
ATOM     32  C   UNL A   1      40.069  26.926  29.135  1.00  0.00     0.049 A 
ATOM     33  N   UNL A   1      42.679  27.355  27.876  1.00  0.00    -0.248 NA
ATOM     34  C   UNL A   1      42.809  25.074  27.416  1.00  0.00     0.031 C 
ATOM     35  C   UNL A   1      38.880  26.896  30.008  1.00  0.00     0.029 A 
ATOM     36  N   UNL A   1      40.490  28.248  29.361  1.00  0.00    -0.354 N 
ATOM     37  C   UNL A   1      43.976  27.059  27.462  1.00  0.00     0.074 A 
ATOM     38  C   UNL A   1      44.005  25.624  27.245  1.00  0.00     0.031 C 
ATOM     39  C   UNL A   1      38.577  28.093  30.492  1.00  0.00     0.029 A 
ATOM     40  C   UNL A   1      39.617  29.013  30.130  1.00  0.00     0.049 A 
ATOM     41  H   UNL A   1      41.335  28.603  29.005  1.00  0.00     0.167 HD
ATOM     42  C   UNL A   1      45.049  27.880  27.275  1.00  0.00     0.037 A 
ATOM     43  C   UNL A   1      39.562  30.296  30.550  1.00  0.00     0.037 A 
ATOM     44  C   UNL A   1      45.082  29.302  27.546  1.00  0.00     0.049 A 
ATOM     45  C   UNL A   1      40.675  31.222  30.223  1.00  0.00     0.074 A 
ATOM     46  C   UNL A   1      46.084  30.215  27.243  1.00  0.00     0.029 A 
ATOM     47  N   UNL A   1      44.106  30.013  28.228  1.00  0.00    -0.354 N 
ATOM     48  N   UNL A   1      41.790  30.951  29.603  1.00  0.00    -0.248 NA
ATOM     49  C   UNL A   1      40.535  32.619  30.654  1.00  0.00     0.031 C 
ATOM     50  C   UNL A   1      45.746  31.456  27.799  1.00  0.00     0.029 A 
ATOM     51  C   UNL A   1      44.499  31.339  28.385  1.00  0.00     0.049 A 
ATOM     52  H   UNL A   1      43.259  29.635  28.556  1.00  0.00     0.167 HD
ATOM     53  C   UNL A   1      42.488  32.143  29.559  1.00  0.00     0.074 A 
ATOM     54  C   UNL A   1      41.659  33.147  30.192  1.00  0.00     0.031 C 
ATOM     55  C   UNL A   1      43.714  32.360  29.032  1.00  0.00     0.037 A 
BRANCH  42  56
ATOM     56  C   UNL A   1      46.311  27.259  26.717  1.00  0.00     0.064 A 
ATOM     57  C   UNL A   1      46.564  27.243  25.335  1.00  0.00     0.173 A 
ATOM     58  C   UNL A   1      47.303  26.730  27.561  1.00  0.00     0.173 A 
ATOM     59  F   UNL A   1      45.664  27.753  24.479  1.00  0.00    -0.203 F 
ATOM     60  C   UNL A   1      47.726  26.674  24.817  1.00  0.00     0.198 A 
ATOM     61  C   UNL A   1      48.482  26.194  27.041  1.00  0.00     0.198 A 
ATOM     62  F   UNL A   1      47.141  26.744  28.891  1.00  0.00    -0.203 F 
ATOM     63  F   UNL A   1      47.908  26.618  23.491  1.00  0.00    -0.200 F 
ATOM     64  C   UNL A   1      48.685  26.153  25.670  1.00  0.00     0.200 A 
ATOM     65  F   UNL A   1      49.423  25.716  27.868  1.00  0.00    -0.200 F 
ATOM     66  F   UNL A   1      49.802  25.605  25.170  1.00  0.00    -0.200 F 
ENDBRANCH  42  56
BRANCH  43  67
ATOM     67  C   UNL A   1      38.352  30.786  31.294  1.00  0.00     0.064 A 
ATOM     68  C   UNL A   1      38.377  30.910  32.693  1.00  0.00     0.173 A 
ATOM     69  C   UNL A   1      37.200  31.238  30.629  1.00  0.00     0.173 A 
ATOM     70  F   UNL A   1      39.441  30.475  33.384  1.00  0.00    -0.203 F 
ATOM     71  C   UNL A   1      37.307  31.471  33.391  1.00  0.00     0.198 A 
ATOM     72  C   UNL A   1      36.149  31.837  31.324  1.00  0.00     0.198 A 
ATOM     73  F   UNL A   1      37.128  31.167  29.292  1.00  0.00    -0.203 F 
ATOM     74  F   UNL A   1      37.352  31.557  34.728  1.00  0.00    -0.200 F 
ATOM     75  C   UNL A   1      36.203  31.951  32.704  1.00  0.00     0.200 A 
ATOM     76  F   UNL A   1      35.100  32.332  30.654  1.00  0.00    -0.200 F 
ATOM     77  F   UNL A   1      35.194  32.529  33.372  1.00  0.00    -0.200 F 
ENDBRANCH  43  67
BRANCH  55  78
ATOM     78  C   UNL A   1      44.240  33.761  29.096  1.00  0.00     0.064 A 
ATOM     79  C   UNL A   1      44.048  34.674  28.047  1.00  0.00     0.173 A 
ATOM     80  C   UNL A   1      44.951  34.197  30.222  1.00  0.00     0.173 A 
ATOM     81  F   UNL A   1      43.401  34.298  26.932  1.00  0.00    -0.203 F 
ATOM     82  C   UNL A   1      44.566  35.964  28.116  1.00  0.00     0.198 A 
ATOM     83  C   UNL A   1      45.442  35.496  30.302  1.00  0.00     0.198 A 
ATOM     84  F   UNL A   1      45.174  33.359  31.247  1.00  0.00    -0.203 F 
ATOM     85  F   UNL A   1      44.418  36.801  27.081  1.00  0.00    -0.200 F 
ATOM     86  C   UNL A   1      45.256  36.377  29.247  1.00  0.00     0.200 A 
ATOM     87  F   UNL A   1      46.103  35.895  31.398  1.00  0.00    -0.200 F 
ATOM     88  F   UNL A   1      45.751  37.620  29.316  1.00  0.00    -0.200 F 
ENDBRANCH  55  78
ENDBRANCH  29  30
ENDBRANCH  22  24
ENDBRANCH  21  22
ENDBRANCH  20  21
ENDBRANCH   1  20
TORSDOF 15
ENDMDL
