MODEL 1
REMARK VINA RESULT:     -11.4      0.000      0.000
REMARK SMILES O=C(CCCc1csc2ccccc12)OCCOC(=O)c1ccc(-c2c3nc(c(-c4c(F)c(F)c(F)c(F)c4F)c4ccc([nH]4)c(-c4c(F)c(F)c(F)c(F)c4F)c4nc(c(-c5c(F)c(F)c(F)c(F)c5F)c5ccc2[nH]5)C=C4)C=C3)cc1
REMARK SMILES IDX 16 1 15 2 2 3 1 4 3 5 4 6 5 7 6 8 7 9 14 10 8 11 9 12 13 13
REMARK SMILES IDX 10 14 12 15 11 16 17 17 18 18 19 19 20 20 21 21 22 22 83 23
REMARK SMILES IDX 23 24 82 25 24 26 25 27 26 28 76 29 27 30 81 31 75 32 77 33
REMARK SMILES IDX 28 34 80 35 74 36 73 37 29 39 61 40 41 41 60 42 42 43 45 44
REMARK SMILES IDX 59 45 78 46 43 47 44 48 58 50 79 51 46 52 30 53 31 54 39 55
REMARK SMILES IDX 32 56 33 57 37 58 40 59 34 60 35 61 38 62 36 63 62 64 63 65
REMARK SMILES IDX 71 66 64 67 65 68 69 69 72 70 66 71 67 72 70 73 68 74 47 75
REMARK SMILES IDX 48 76 56 77 49 78 50 79 54 80 57 81 51 82 52 83 55 84 53 85
REMARK H PARENT 77 38 45 49
REMARK Flexibility Score: inf
ROOT
ATOM      1  C   UNL A   1      44.359  21.428  25.264  1.00  0.00     0.274 C 
ENDROOT
BRANCH   1   2
ATOM      2  O   UNL A   1      43.772  20.263  24.663  1.00  0.00    -0.462 OA
BRANCH   2   3
ATOM      3  C   UNL A   1      43.682  19.094  25.349  1.00  0.00     0.305 C 
ATOM      4  O   UNL A   1      44.430  18.158  25.082  1.00  0.00    -0.252 OA
BRANCH   3   5
ATOM      5  C   UNL A   1      42.545  18.930  26.341  1.00  0.00     0.123 C 
BRANCH   5   6
ATOM      6  C   UNL A   1      41.314  19.784  26.036  1.00  0.00     0.016 C 
BRANCH   6   7
ATOM      7  C   UNL A   1      40.752  20.589  27.218  1.00  0.00     0.037 C 
BRANCH   7   8
ATOM      8  C   UNL A   1      39.909  21.791  26.848  1.00  0.00    -0.029 A 
ATOM      9  C   UNL A   1      40.077  23.042  27.411  1.00  0.00     0.069 A 
ATOM     10  C   UNL A   1      38.757  21.789  25.962  1.00  0.00    -0.004 A 
ATOM     11  S   UNL A   1      39.094  24.238  26.715  1.00  0.00    -0.144 S 
ATOM     12  C   UNL A   1      38.230  23.075  25.794  1.00  0.00     0.035 A 
ATOM     13  C   UNL A   1      38.101  20.726  25.290  1.00  0.00     0.010 A 
ATOM     14  C   UNL A   1      37.114  23.327  24.973  1.00  0.00     0.019 A 
ATOM     15  C   UNL A   1      36.965  20.965  24.508  1.00  0.00     0.001 A 
ATOM     16  C   UNL A   1      36.481  22.255  24.347  1.00  0.00     0.001 A 
ENDBRANCH   7   8
ENDBRANCH   6   7
ENDBRANCH   5   6
ENDBRANCH   3   5
ENDBRANCH   2   3
ENDBRANCH   1   2
BRANCH   1  17
ATOM     17  C   UNL A   1      44.752  22.509  24.254  1.00  0.00     0.275 C 
BRANCH  17  18
ATOM     18  O   UNL A   1      44.025  23.722  24.494  1.00  0.00    -0.458 OA
BRANCH  18  19
ATOM     19  C   UNL A   1      44.778  24.721  25.013  1.00  0.00     0.338 C 
ATOM     20  O   UNL A   1      45.890  25.064  24.647  1.00  0.00    -0.246 OA
BRANCH  19  21
ATOM     21  C   UNL A   1      43.986  25.490  25.995  1.00  0.00     0.060 A 
ATOM     22  C   UNL A   1      44.194  26.874  26.037  1.00  0.00     0.016 A 
ATOM     23  C   UNL A   1      43.071  24.887  26.864  1.00  0.00     0.016 A 
ATOM     24  C   UNL A   1      43.530  27.653  26.982  1.00  0.00     0.010 A 
ATOM     25  C   UNL A   1      42.407  25.672  27.815  1.00  0.00     0.010 A 
ATOM     26  C   UNL A   1      42.659  27.053  27.900  1.00  0.00    -0.014 A 
BRANCH  26  27
ATOM     27  C   UNL A   1      42.119  27.856  29.025  1.00  0.00     0.031 A 
ATOM     28  C   UNL A   1      42.847  27.848  30.340  1.00  0.00     0.074 A 
ATOM     29  C   UNL A   1      41.016  28.610  28.870  1.00  0.00     0.049 A 
ATOM     30  N   UNL A   1      42.555  28.470  31.454  1.00  0.00    -0.248 NA
ATOM     31  C   UNL A   1      44.070  27.031  30.410  1.00  0.00     0.031 C 
ATOM     32  C   UNL A   1      40.242  28.730  27.637  1.00  0.00     0.029 A 
ATOM     33  N   UNL A   1      40.351  29.410  29.768  1.00  0.00    -0.354 N 
ATOM     34  C   UNL A   1      43.552  28.119  32.354  1.00  0.00     0.074 A 
ATOM     35  C   UNL A   1      44.445  27.212  31.668  1.00  0.00     0.031 C 
ATOM     36  C   UNL A   1      39.193  29.543  27.861  1.00  0.00     0.029 A 
ATOM     37  C   UNL A   1      39.208  29.976  29.257  1.00  0.00     0.049 A 
ATOM     38  H   UNL A   1      40.664  29.564  30.688  1.00  0.00     0.167 HD
ATOM     39  C   UNL A   1      43.710  28.524  33.636  1.00  0.00     0.037 A 
ATOM     40  C   UNL A   1      38.270  30.734  29.859  1.00  0.00     0.037 A 
ATOM     41  C   UNL A   1      42.832  29.437  34.317  1.00  0.00     0.049 A 
ATOM     42  C   UNL A   1      38.432  31.106  31.313  1.00  0.00     0.074 A 
ATOM     43  C   UNL A   1      42.950  29.954  35.596  1.00  0.00     0.029 A 
ATOM     44  N   UNL A   1      41.663  29.954  33.782  1.00  0.00    -0.354 N 
ATOM     45  N   UNL A   1      39.414  30.826  32.135  1.00  0.00    -0.248 NA
ATOM     46  C   UNL A   1      37.353  31.898  31.922  1.00  0.00     0.031 C 
ATOM     47  C   UNL A   1      41.820  30.733  35.858  1.00  0.00     0.029 A 
ATOM     48  C   UNL A   1      41.025  30.746  34.723  1.00  0.00     0.049 A 
ATOM     49  H   UNL A   1      41.335  29.785  32.869  1.00  0.00     0.167 HD
ATOM     50  C   UNL A   1      39.084  31.424  33.344  1.00  0.00     0.074 A 
ATOM     51  C   UNL A   1      37.819  32.099  33.147  1.00  0.00     0.031 C 
ATOM     52  C   UNL A   1      39.768  31.415  34.515  1.00  0.00     0.037 A 
BRANCH  39  53
ATOM     53  C   UNL A   1      44.867  27.965  34.409  1.00  0.00     0.064 A 
ATOM     54  C   UNL A   1      44.788  26.731  35.069  1.00  0.00     0.173 A 
ATOM     55  C   UNL A   1      46.094  28.646  34.425  1.00  0.00     0.173 A 
ATOM     56  F   UNL A   1      43.633  26.049  35.088  1.00  0.00    -0.203 F 
ATOM     57  C   UNL A   1      45.894  26.204  35.729  1.00  0.00     0.198 A 
ATOM     58  C   UNL A   1      47.204  28.104  35.066  1.00  0.00     0.198 A 
ATOM     59  F   UNL A   1      46.221  29.828  33.805  1.00  0.00    -0.203 F 
ATOM     60  F   UNL A   1      45.790  25.036  36.379  1.00  0.00    -0.200 F 
ATOM     61  C   UNL A   1      47.102  26.885  35.720  1.00  0.00     0.200 A 
ATOM     62  F   UNL A   1      48.375  28.757  35.045  1.00  0.00    -0.200 F 
ATOM     63  F   UNL A   1      48.170  26.368  36.343  1.00  0.00    -0.200 F 
ENDBRANCH  39  53
BRANCH  40  64
ATOM     64  C   UNL A   1      37.061  31.163  29.106  1.00  0.00     0.064 A 
ATOM     65  C   UNL A   1      36.897  32.490  28.685  1.00  0.00     0.173 A 
ATOM     66  C   UNL A   1      36.019  30.261  28.841  1.00  0.00     0.173 A 
ATOM     67  F   UNL A   1      37.851  33.396  28.942  1.00  0.00    -0.203 F 
ATOM     68  C   UNL A   1      35.726  32.904  28.052  1.00  0.00     0.198 A 
ATOM     69  C   UNL A   1      34.863  30.669  28.181  1.00  0.00     0.198 A 
ATOM     70  F   UNL A   1      36.122  28.981  29.228  1.00  0.00    -0.203 F 
ATOM     71  F   UNL A   1      35.568  34.191  27.715  1.00  0.00    -0.200 F 
ATOM     72  C   UNL A   1      34.712  31.992  27.797  1.00  0.00     0.200 A 
ATOM     73  F   UNL A   1      33.890  29.783  27.929  1.00  0.00    -0.200 F 
ATOM     74  F   UNL A   1      33.584  32.393  27.195  1.00  0.00    -0.200 F 
ENDBRANCH  40  64
BRANCH  52  75
ATOM     75  C   UNL A   1      39.177  32.165  35.675  1.00  0.00     0.064 A 
ATOM     76  C   UNL A   1      38.361  31.528  36.619  1.00  0.00     0.173 A 
ATOM     77  C   UNL A   1      39.487  33.518  35.881  1.00  0.00     0.173 A 
ATOM     78  F   UNL A   1      38.023  30.239  36.460  1.00  0.00    -0.203 F 
ATOM     79  C   UNL A   1      37.865  32.220  37.721  1.00  0.00     0.198 A 
ATOM     80  C   UNL A   1      39.014  34.200  36.998  1.00  0.00     0.198 A 
ATOM     81  F   UNL A   1      40.270  34.173  35.010  1.00  0.00    -0.203 F 
ATOM     82  F   UNL A   1      37.058  31.600  38.593  1.00  0.00    -0.200 F 
ATOM     83  C   UNL A   1      38.200  33.552  37.914  1.00  0.00     0.200 A 
ATOM     84  F   UNL A   1      39.351  35.483  37.191  1.00  0.00    -0.200 F 
ATOM     85  F   UNL A   1      37.735  34.213  38.984  1.00  0.00    -0.200 F 
ENDBRANCH  52  75
ENDBRANCH  26  27
ENDBRANCH  19  21
ENDBRANCH  18  19
ENDBRANCH  17  18
ENDBRANCH   1  17
TORSDOF 14
ENDMDL
MODEL 2
REMARK VINA RESULT:     -11.4      4.867     10.982
REMARK SMILES O=C(CCCc1csc2ccccc12)OCCOC(=O)c1ccc(-c2c3nc(c(-c4c(F)c(F)c(F)c(F)c4F)c4ccc([nH]4)c(-c4c(F)c(F)c(F)c(F)c4F)c4nc(c(-c5c(F)c(F)c(F)c(F)c5F)c5ccc2[nH]5)C=C4)C=C3)cc1
REMARK SMILES IDX 16 1 15 2 2 3 1 4 3 5 4 6 5 7 6 8 7 9 14 10 8 11 9 12 13 13
REMARK SMILES IDX 10 14 12 15 11 16 17 17 18 18 19 19 20 20 21 21 22 22 83 23
REMARK SMILES IDX 23 24 82 25 24 26 25 27 26 28 76 29 27 30 81 31 75 32 77 33
REMARK SMILES IDX 28 34 80 35 74 36 73 37 29 39 61 40 41 41 60 42 42 43 45 44
REMARK SMILES IDX 59 45 78 46 43 47 44 48 58 50 79 51 46 52 30 53 31 54 39 55
REMARK SMILES IDX 32 56 33 57 37 58 40 59 34 60 35 61 38 62 36 63 62 64 63 65
REMARK SMILES IDX 71 66 64 67 65 68 69 69 72 70 66 71 67 72 70 73 68 74 47 75
REMARK SMILES IDX 48 76 56 77 49 78 50 79 54 80 57 81 51 82 52 83 55 84 53 85
REMARK H PARENT 77 38 45 49
REMARK Flexibility Score: inf
ROOT
ATOM      1  C   UNL A   1      33.561  34.761  28.783  1.00  0.00     0.274 C 
ENDROOT
BRANCH   1   2
ATOM      2  O   UNL A   1      32.922  34.699  30.068  1.00  0.00    -0.462 OA
BRANCH   2   3
ATOM      3  C   UNL A   1      33.015  35.733  30.943  1.00  0.00     0.305 C 
ATOM      4  O   UNL A   1      32.525  36.825  30.670  1.00  0.00    -0.252 OA
BRANCH   3   5
ATOM      5  C   UNL A   1      33.862  35.545  32.189  1.00  0.00     0.123 C 
BRANCH   5   6
ATOM      6  C   UNL A   1      33.664  34.198  32.887  1.00  0.00     0.016 C 
BRANCH   6   7
ATOM      7  C   UNL A   1      34.758  33.150  32.632  1.00  0.00     0.037 C 
BRANCH   7   8
ATOM      8  C   UNL A   1      36.178  33.674  32.627  1.00  0.00    -0.029 A 
ATOM      9  C   UNL A   1      36.801  34.196  33.745  1.00  0.00     0.069 A 
ATOM     10  C   UNL A   1      37.036  33.813  31.463  1.00  0.00    -0.004 A 
ATOM     11  S   UNL A   1      38.436  34.578  33.496  1.00  0.00    -0.144 S 
ATOM     12  C   UNL A   1      38.308  34.284  31.809  1.00  0.00     0.035 A 
ATOM     13  C   UNL A   1      36.784  33.575  30.087  1.00  0.00     0.010 A 
ATOM     14  C   UNL A   1      39.317  34.493  30.849  1.00  0.00     0.019 A 
ATOM     15  C   UNL A   1      37.770  33.824  29.125  1.00  0.00     0.001 A 
ATOM     16  C   UNL A   1      39.026  34.272  29.505  1.00  0.00     0.001 A 
ENDBRANCH   7   8
ENDBRANCH   6   7
ENDBRANCH   5   6
ENDBRANCH   3   5
ENDBRANCH   2   3
ENDBRANCH   1   2
BRANCH   1  17
ATOM     17  C   UNL A   1      33.442  33.466  27.975  1.00  0.00     0.275 C 
BRANCH  17  18
ATOM     18  O   UNL A   1      34.078  32.376  28.658  1.00  0.00    -0.458 OA
BRANCH  18  19
ATOM     19  C   UNL A   1      34.228  31.264  27.900  1.00  0.00     0.338 C 
ATOM     20  O   UNL A   1      33.538  30.928  26.951  1.00  0.00    -0.246 OA
BRANCH  19  21
ATOM     21  C   UNL A   1      35.484  30.574  28.262  1.00  0.00     0.060 A 
ATOM     22  C   UNL A   1      35.528  29.950  29.514  1.00  0.00     0.016 A 
ATOM     23  C   UNL A   1      36.597  30.539  27.416  1.00  0.00     0.016 A 
ATOM     24  C   UNL A   1      36.701  29.336  29.948  1.00  0.00     0.010 A 
ATOM     25  C   UNL A   1      37.775  29.924  27.856  1.00  0.00     0.010 A 
ATOM     26  C   UNL A   1      37.843  29.349  29.137  1.00  0.00    -0.014 A 
BRANCH  26  27
ATOM     27  C   UNL A   1      39.135  28.876  29.690  1.00  0.00     0.031 A 
ATOM     28  C   UNL A   1      39.724  29.588  30.876  1.00  0.00     0.074 A 
ATOM     29  C   UNL A   1      39.762  27.807  29.167  1.00  0.00     0.049 A 
ATOM     30  N   UNL A   1      40.840  29.349  31.518  1.00  0.00    -0.248 NA
ATOM     31  C   UNL A   1      38.952  30.720  31.413  1.00  0.00     0.031 C 
ATOM     32  C   UNL A   1      39.277  27.011  28.042  1.00  0.00     0.029 A 
ATOM     33  N   UNL A   1      40.952  27.214  29.514  1.00  0.00    -0.354 N 
ATOM     34  C   UNL A   1      40.904  30.298  32.528  1.00  0.00     0.074 A 
ATOM     35  C   UNL A   1      39.730  31.134  32.404  1.00  0.00     0.031 C 
ATOM     36  C   UNL A   1      40.173  26.043  27.777  1.00  0.00     0.029 A 
ATOM     37  C   UNL A   1      41.305  26.170  28.695  1.00  0.00     0.049 A 
ATOM     38  H   UNL A   1      41.500  27.510  30.276  1.00  0.00     0.167 HD
ATOM     39  C   UNL A   1      41.855  30.454  33.479  1.00  0.00     0.037 A 
ATOM     40  C   UNL A   1      42.425  25.421  28.674  1.00  0.00     0.037 A 
ATOM     41  C   UNL A   1      43.017  29.617  33.614  1.00  0.00     0.049 A 
ATOM     42  C   UNL A   1      43.506  25.668  29.698  1.00  0.00     0.074 A 
ATOM     43  C   UNL A   1      44.001  29.660  34.587  1.00  0.00     0.029 A 
ATOM     44  N   UNL A   1      43.361  28.597  32.741  1.00  0.00    -0.354 N 
ATOM     45  N   UNL A   1      43.525  26.523  30.692  1.00  0.00    -0.248 NA
ATOM     46  C   UNL A   1      44.721  24.847  29.595  1.00  0.00     0.031 C 
ATOM     47  C   UNL A   1      44.974  28.710  34.266  1.00  0.00     0.029 A 
ATOM     48  C   UNL A   1      44.569  28.037  33.125  1.00  0.00     0.049 A 
ATOM     49  H   UNL A   1      42.827  28.313  31.964  1.00  0.00     0.167 HD
ATOM     50  C   UNL A   1      44.737  26.326  31.343  1.00  0.00     0.074 A 
ATOM     51  C   UNL A   1      45.420  25.260  30.644  1.00  0.00     0.031 C 
ATOM     52  C   UNL A   1      45.238  26.973  32.423  1.00  0.00     0.037 A 
BRANCH  39  53
ATOM     53  C   UNL A   1      41.702  31.591  34.443  1.00  0.00     0.064 A 
ATOM     54  C   UNL A   1      42.274  32.848  34.202  1.00  0.00     0.173 A 
ATOM     55  C   UNL A   1      40.908  31.436  35.590  1.00  0.00     0.173 A 
ATOM     56  F   UNL A   1      43.048  33.041  33.124  1.00  0.00    -0.203 F 
ATOM     57  C   UNL A   1      42.067  33.906  35.082  1.00  0.00     0.198 A 
ATOM     58  C   UNL A   1      40.684  32.504  36.454  1.00  0.00     0.198 A 
ATOM     59  F   UNL A   1      40.335  30.255  35.862  1.00  0.00    -0.203 F 
ATOM     60  F   UNL A   1      42.647  35.093  34.848  1.00  0.00    -0.200 F 
ATOM     61  C   UNL A   1      41.266  33.737  36.201  1.00  0.00     0.200 A 
ATOM     62  F   UNL A   1      39.899  32.342  37.529  1.00  0.00    -0.200 F 
ATOM     63  F   UNL A   1      41.056  34.762  37.039  1.00  0.00    -0.200 F 
ENDBRANCH  39  53
BRANCH  40  64
ATOM     64  C   UNL A   1      42.614  24.388  27.620  1.00  0.00     0.064 A 
ATOM     65  C   UNL A   1      42.251  23.051  27.837  1.00  0.00     0.173 A 
ATOM     66  C   UNL A   1      43.212  24.711  26.393  1.00  0.00     0.173 A 
ATOM     67  F   UNL A   1      41.704  22.687  29.006  1.00  0.00    -0.203 F 
ATOM     68  C   UNL A   1      42.505  22.073  26.878  1.00  0.00     0.198 A 
ATOM     69  C   UNL A   1      43.437  23.737  25.423  1.00  0.00     0.198 A 
ATOM     70  F   UNL A   1      43.584  25.973  26.138  1.00  0.00    -0.203 F 
ATOM     71  F   UNL A   1      42.205  20.792  27.134  1.00  0.00    -0.200 F 
ATOM     72  C   UNL A   1      43.094  22.417  25.670  1.00  0.00     0.200 A 
ATOM     73  F   UNL A   1      43.998  24.077  24.255  1.00  0.00    -0.200 F 
ATOM     74  F   UNL A   1      43.345  21.475  24.751  1.00  0.00    -0.200 F 
ENDBRANCH  40  64
BRANCH  52  75
ATOM     75  C   UNL A   1      46.585  26.543  32.932  1.00  0.00     0.064 A 
ATOM     76  C   UNL A   1      46.727  25.442  33.787  1.00  0.00     0.173 A 
ATOM     77  C   UNL A   1      47.751  27.197  32.503  1.00  0.00     0.173 A 
ATOM     78  F   UNL A   1      45.643  24.793  34.238  1.00  0.00    -0.203 F 
ATOM     79  C   UNL A   1      47.986  25.019  34.207  1.00  0.00     0.198 A 
ATOM     80  C   UNL A   1      49.009  26.754  32.900  1.00  0.00     0.198 A 
ATOM     81  F   UNL A   1      47.670  28.251  31.676  1.00  0.00    -0.203 F 
ATOM     82  F   UNL A   1      48.096  23.986  35.053  1.00  0.00    -0.200 F 
ATOM     83  C   UNL A   1      49.126  25.668  33.755  1.00  0.00     0.200 A 
ATOM     84  F   UNL A   1      50.110  27.373  32.450  1.00  0.00    -0.200 F 
ATOM     85  F   UNL A   1      50.336  25.249  34.146  1.00  0.00    -0.200 F 
ENDBRANCH  52  75
ENDBRANCH  26  27
ENDBRANCH  19  21
ENDBRANCH  18  19
ENDBRANCH  17  18
ENDBRANCH   1  17
TORSDOF 14
ENDMDL
MODEL 3
REMARK VINA RESULT:     -11.1      1.485      2.041
REMARK SMILES O=C(CCCc1csc2ccccc12)OCCOC(=O)c1ccc(-c2c3nc(c(-c4c(F)c(F)c(F)c(F)c4F)c4ccc([nH]4)c(-c4c(F)c(F)c(F)c(F)c4F)c4nc(c(-c5c(F)c(F)c(F)c(F)c5F)c5ccc2[nH]5)C=C4)C=C3)cc1
REMARK SMILES IDX 16 1 15 2 2 3 1 4 3 5 4 6 5 7 6 8 7 9 14 10 8 11 9 12 13 13
REMARK SMILES IDX 10 14 12 15 11 16 17 17 18 18 19 19 20 20 21 21 22 22 83 23
REMARK SMILES IDX 23 24 82 25 24 26 25 27 26 28 76 29 27 30 81 31 75 32 77 33
REMARK SMILES IDX 28 34 80 35 74 36 73 37 29 39 61 40 41 41 60 42 42 43 45 44
REMARK SMILES IDX 59 45 78 46 43 47 44 48 58 50 79 51 46 52 30 53 31 54 39 55
REMARK SMILES IDX 32 56 33 57 37 58 40 59 34 60 35 61 38 62 36 63 62 64 63 65
REMARK SMILES IDX 71 66 64 67 65 68 69 69 72 70 66 71 67 72 70 73 68 74 47 75
REMARK SMILES IDX 48 76 56 77 49 78 50 79 54 80 57 81 51 82 52 83 55 84 53 85
REMARK H PARENT 77 38 45 49
REMARK Flexibility Score: inf
ROOT
ATOM      1  C   UNL A   1      42.860  21.514  26.049  1.00  0.00     0.274 C 
ENDROOT
BRANCH   1   2
ATOM      2  O   UNL A   1      41.487  21.258  25.711  1.00  0.00    -0.462 OA
BRANCH   2   3
ATOM      3  C   UNL A   1      40.522  21.258  26.666  1.00  0.00     0.305 C 
ATOM      4  O   UNL A   1      40.627  20.539  27.656  1.00  0.00    -0.252 OA
BRANCH   3   5
ATOM      5  C   UNL A   1      39.253  22.050  26.405  1.00  0.00     0.123 C 
BRANCH   5   6
ATOM      6  C   UNL A   1      38.493  21.625  25.148  1.00  0.00     0.016 C 
BRANCH   6   7
ATOM      7  C   UNL A   1      37.487  20.479  25.334  1.00  0.00     0.037 C 
BRANCH   7   8
ATOM      8  C   UNL A   1      36.030  20.856  25.174  1.00  0.00    -0.029 A 
ATOM      9  C   UNL A   1      35.531  22.113  25.461  1.00  0.00     0.069 A 
ATOM     10  C   UNL A   1      34.946  19.955  24.817  1.00  0.00    -0.004 A 
ATOM     11  S   UNL A   1      33.893  22.304  25.058  1.00  0.00    -0.144 S 
ATOM     12  C   UNL A   1      33.725  20.632  24.706  1.00  0.00     0.035 A 
ATOM     13  C   UNL A   1      34.934  18.554  24.597  1.00  0.00     0.010 A 
ATOM     14  C   UNL A   1      32.530  19.970  24.362  1.00  0.00     0.019 A 
ATOM     15  C   UNL A   1      33.741  17.886  24.298  1.00  0.00     0.001 A 
ATOM     16  C   UNL A   1      32.552  18.590  24.176  1.00  0.00     0.001 A 
ENDBRANCH   7   8
ENDBRANCH   6   7
ENDBRANCH   5   6
ENDBRANCH   3   5
ENDBRANCH   2   3
ENDBRANCH   1   2
BRANCH   1  17
ATOM     17  C   UNL A   1      43.661  22.160  24.916  1.00  0.00     0.275 C 
BRANCH  17  18
ATOM     18  O   UNL A   1      43.190  23.488  24.648  1.00  0.00    -0.458 OA
BRANCH  18  19
ATOM     19  C   UNL A   1      44.011  24.465  25.102  1.00  0.00     0.338 C 
ATOM     20  O   UNL A   1      45.125  24.736  24.684  1.00  0.00    -0.246 OA
BRANCH  19  21
ATOM     21  C   UNL A   1      43.295  25.310  26.080  1.00  0.00     0.060 A 
ATOM     22  C   UNL A   1      43.786  26.606  26.280  1.00  0.00     0.016 A 
ATOM     23  C   UNL A   1      42.182  24.859  26.796  1.00  0.00     0.016 A 
ATOM     24  C   UNL A   1      43.201  27.436  27.233  1.00  0.00     0.010 A 
ATOM     25  C   UNL A   1      41.598  25.694  27.756  1.00  0.00     0.010 A 
ATOM     26  C   UNL A   1      42.126  26.974  28.002  1.00  0.00    -0.014 A 
BRANCH  26  27
ATOM     27  C   UNL A   1      41.647  27.785  29.148  1.00  0.00     0.031 A 
ATOM     28  C   UNL A   1      42.360  27.677  30.466  1.00  0.00     0.074 A 
ATOM     29  C   UNL A   1      40.612  28.634  29.011  1.00  0.00     0.049 A 
ATOM     30  N   UNL A   1      42.112  28.287  31.598  1.00  0.00    -0.248 NA
ATOM     31  C   UNL A   1      43.509  26.758  30.518  1.00  0.00     0.031 C 
ATOM     32  C   UNL A   1      39.861  28.856  27.778  1.00  0.00     0.029 A 
ATOM     33  N   UNL A   1      40.010  29.460  29.928  1.00  0.00    -0.354 N 
ATOM     34  C   UNL A   1      43.068  27.826  32.492  1.00  0.00     0.074 A 
ATOM     35  C   UNL A   1      43.888  26.868  31.783  1.00  0.00     0.031 C 
ATOM     36  C   UNL A   1      38.882  29.748  28.020  1.00  0.00     0.029 A 
ATOM     37  C   UNL A   1      38.922  30.135  29.429  1.00  0.00     0.049 A 
ATOM     38  H   UNL A   1      40.327  29.559  30.855  1.00  0.00     0.167 HD
ATOM     39  C   UNL A   1      43.250  28.178  33.787  1.00  0.00     0.037 A 
ATOM     40  C   UNL A   1      38.046  30.951  30.048  1.00  0.00     0.037 A 
ATOM     41  C   UNL A   1      42.446  29.140  34.490  1.00  0.00     0.049 A 
ATOM     42  C   UNL A   1      38.227  31.264  31.514  1.00  0.00     0.074 A 
ATOM     43  C   UNL A   1      42.597  29.608  35.785  1.00  0.00     0.029 A 
ATOM     44  N   UNL A   1      41.329  29.771  33.964  1.00  0.00    -0.354 N 
ATOM     45  N   UNL A   1      39.175  30.878  32.333  1.00  0.00    -0.248 NA
ATOM     46  C   UNL A   1      37.214  32.127  32.141  1.00  0.00     0.031 C 
ATOM     47  C   UNL A   1      41.534  30.471  36.064  1.00  0.00     0.029 A 
ATOM     48  C   UNL A   1      40.753  30.584  34.926  1.00  0.00     0.049 A 
ATOM     49  H   UNL A   1      40.996  29.658  33.045  1.00  0.00     0.167 HD
ATOM     50  C   UNL A   1      38.887  31.466  33.558  1.00  0.00     0.074 A 
ATOM     51  C   UNL A   1      37.685  32.250  33.374  1.00  0.00     0.031 C 
ATOM     52  C   UNL A   1      39.558  31.363  34.731  1.00  0.00     0.037 A 
BRANCH  39  53
ATOM     53  C   UNL A   1      44.349  27.501  34.548  1.00  0.00     0.064 A 
ATOM     54  C   UNL A   1      44.148  26.281  35.209  1.00  0.00     0.173 A 
ATOM     55  C   UNL A   1      45.641  28.050  34.554  1.00  0.00     0.173 A 
ATOM     56  F   UNL A   1      42.929  25.722  35.239  1.00  0.00    -0.203 F 
ATOM     57  C   UNL A   1      45.199  25.640  35.858  1.00  0.00     0.198 A 
ATOM     58  C   UNL A   1      46.694  27.394  35.184  1.00  0.00     0.198 A 
ATOM     59  F   UNL A   1      45.885  29.212  33.932  1.00  0.00    -0.203 F 
ATOM     60  F   UNL A   1      44.980  24.488  36.509  1.00  0.00    -0.200 F 
ATOM     61  C   UNL A   1      46.472  26.191  35.838  1.00  0.00     0.200 A 
ATOM     62  F   UNL A   1      47.926  27.922  35.153  1.00  0.00    -0.200 F 
ATOM     63  F   UNL A   1      47.486  25.565  36.452  1.00  0.00    -0.200 F 
ENDBRANCH  39  53
BRANCH  40  64
ATOM     64  C   UNL A   1      36.884  31.503  29.302  1.00  0.00     0.064 A 
ATOM     65  C   UNL A   1      36.804  32.865  28.981  1.00  0.00     0.173 A 
ATOM     66  C   UNL A   1      35.803  30.684  28.944  1.00  0.00     0.173 A 
ATOM     67  F   UNL A   1      37.798  33.695  29.330  1.00  0.00    -0.203 F 
ATOM     68  C   UNL A   1      35.676  33.392  28.354  1.00  0.00     0.198 A 
ATOM     69  C   UNL A   1      34.689  31.205  28.289  1.00  0.00     0.198 A 
ATOM     70  F   UNL A   1      35.826  29.375  29.233  1.00  0.00    -0.203 F 
ATOM     71  F   UNL A   1      35.597  34.707  28.114  1.00  0.00    -0.200 F 
ATOM     72  C   UNL A   1      34.621  32.560  28.006  1.00  0.00     0.200 A 
ATOM     73  F   UNL A   1      33.677  30.397  27.947  1.00  0.00    -0.200 F 
ATOM     74  F   UNL A   1      33.533  33.068  27.410  1.00  0.00    -0.200 F 
ENDBRANCH  40  64
BRANCH  52  75
ATOM     75  C   UNL A   1      39.022  32.125  35.910  1.00  0.00     0.064 A 
ATOM     76  C   UNL A   1      38.170  31.523  36.846  1.00  0.00     0.173 A 
ATOM     77  C   UNL A   1      39.422  33.450  36.143  1.00  0.00     0.173 A 
ATOM     78  F   UNL A   1      37.747  30.263  36.660  1.00  0.00    -0.203 F 
ATOM     79  C   UNL A   1      37.725  32.223  37.965  1.00  0.00     0.198 A 
ATOM     80  C   UNL A   1      39.000  34.138  37.277  1.00  0.00     0.198 A 
ATOM     81  F   UNL A   1      40.244  34.071  35.282  1.00  0.00    -0.203 F 
ATOM     82  F   UNL A   1      36.883  31.639  38.827  1.00  0.00    -0.200 F 
ATOM     83  C   UNL A   1      38.149  33.525  38.185  1.00  0.00     0.200 A 
ATOM     84  F   UNL A   1      39.422  35.391  37.497  1.00  0.00    -0.200 F 
ATOM     85  F   UNL A   1      37.734  34.191  39.270  1.00  0.00    -0.200 F 
ENDBRANCH  52  75
ENDBRANCH  26  27
ENDBRANCH  19  21
ENDBRANCH  18  19
ENDBRANCH  17  18
ENDBRANCH   1  17
TORSDOF 14
ENDMDL
