MODEL 1
REMARK VINA RESULT:     -14.0      0.000      0.000
REMARK SMILES O=C(OCCOC(=O)c1cccc(Nc2ccnc3ccc(F)cc23)c1)c1ccc(-c2c3nc(c(-c4c(F)c(F)c(F)c(F)c4F)c4ccc([nH]4)c(-c4c(F)c(F)c(F)c(F)c4F)c4nc(c(-c5c(F)c(F)c(F)c(F)c5F)c5ccc2[nH]5)C=C4)C=C3)cc1
REMARK SMILES IDX 4 1 3 2 2 3 1 4 27 5 28 6 89 7 29 8 88 9 30 10 31 11 32 12
REMARK SMILES IDX 82 13 33 14 87 15 81 16 83 17 34 18 86 19 80 20 79 21 35 23
REMARK SMILES IDX 67 24 47 25 66 26 48 27 51 28 65 29 84 30 49 31 50 32 64 34
REMARK SMILES IDX 85 35 52 36 36 37 37 38 45 39 38 40 39 41 43 42 46 43 40 44
REMARK SMILES IDX 41 45 44 46 42 47 68 48 69 49 77 50 70 51 71 52 75 53 78 54
REMARK SMILES IDX 72 55 73 56 76 57 74 58 53 59 54 60 62 61 55 62 56 63 60 64
REMARK SMILES IDX 63 65 57 66 58 67 61 68 59 69 5 70 6 71 7 72 8 73 9 74 10 75
REMARK SMILES IDX 26 76 11 77 13 78 12 79 14 80 15 82 16 83 25 84 17 85 19 86
REMARK SMILES IDX 24 87 18 88 20 89 22 90 21 91 23 92
REMARK H PARENT 83 22 51 33 14 81
REMARK Flexibility Score: inf
ROOT
ATOM      1  C   UNL A   1      43.936  21.546  25.302  1.00  0.00     0.275 C 
ENDROOT
BRANCH   1   2
ATOM      2  O   UNL A   1      43.430  22.605  24.529  1.00  0.00    -0.458 OA
BRANCH   2   3
ATOM      3  C   UNL A   1      43.795  23.873  24.812  1.00  0.00     0.338 C 
ATOM      4  O   UNL A   1      44.891  24.256  24.413  1.00  0.00    -0.246 OA
BRANCH   3   5
ATOM      5  C   UNL A   1      42.893  24.834  25.592  1.00  0.00     0.060 A 
ATOM      6  C   UNL A   1      42.009  24.543  26.656  1.00  0.00     0.016 A 
ATOM      7  C   UNL A   1      43.158  26.177  25.417  1.00  0.00     0.016 A 
ATOM      8  C   UNL A   1      41.348  25.426  27.463  1.00  0.00     0.010 A 
ATOM      9  C   UNL A   1      42.670  27.088  26.365  1.00  0.00     0.010 A 
ATOM     10  C   UNL A   1      41.834  26.684  27.442  1.00  0.00    -0.014 A 
BRANCH  10  11
ATOM     11  C   UNL A   1      41.355  27.542  28.529  1.00  0.00     0.031 A 
ATOM     12  C   UNL A   1      42.138  27.398  29.756  1.00  0.00     0.074 A 
ATOM     13  C   UNL A   1      40.408  28.509  28.412  1.00  0.00     0.049 A 
ATOM     14  N   UNL A   1      41.960  28.026  30.870  1.00  0.00    -0.248 NA
ATOM     15  C   UNL A   1      43.310  26.499  29.708  1.00  0.00     0.031 C 
ATOM     16  C   UNL A   1      39.772  28.944  27.169  1.00  0.00     0.029 A 
ATOM     17  N   UNL A   1      39.774  29.294  29.351  1.00  0.00    -0.354 N 
ATOM     18  C   UNL A   1      42.998  27.602  31.654  1.00  0.00     0.074 A 
ATOM     19  C   UNL A   1      43.778  26.629  30.932  1.00  0.00     0.031 C 
ATOM     20  C   UNL A   1      38.726  29.742  27.428  1.00  0.00     0.029 A 
ATOM     21  C   UNL A   1      38.688  29.993  28.852  1.00  0.00     0.049 A 
ATOM     22  H   UNL A   1      40.065  29.352  30.289  1.00  0.00     0.167 HD
ATOM     23  C   UNL A   1      43.262  28.040  32.886  1.00  0.00     0.037 A 
ATOM     24  C   UNL A   1      37.763  30.771  29.448  1.00  0.00     0.037 A 
ATOM     25  C   UNL A   1      42.460  28.994  33.573  1.00  0.00     0.049 A 
ATOM     26  C   UNL A   1      37.989  31.079  30.891  1.00  0.00     0.074 A 
ATOM     27  C   UNL A   1      42.656  29.454  34.854  1.00  0.00     0.029 A 
ATOM     28  N   UNL A   1      41.311  29.593  33.081  1.00  0.00    -0.354 N 
ATOM     29  N   UNL A   1      38.983  30.677  31.637  1.00  0.00    -0.248 NA
ATOM     30  C   UNL A   1      37.034  31.963  31.568  1.00  0.00     0.031 C 
ATOM     31  C   UNL A   1      41.585  30.267  35.178  1.00  0.00     0.029 A 
ATOM     32  C   UNL A   1      40.768  30.391  34.069  1.00  0.00     0.049 A 
ATOM     33  H   UNL A   1      40.944  29.470  32.176  1.00  0.00     0.167 HD
ATOM     34  C   UNL A   1      38.808  31.294  32.854  1.00  0.00     0.074 A 
ATOM     35  C   UNL A   1      37.616  32.111  32.748  1.00  0.00     0.031 C 
ATOM     36  C   UNL A   1      39.584  31.187  33.954  1.00  0.00     0.037 A 
BRANCH  23  37
ATOM     37  C   UNL A   1      44.393  27.407  33.588  1.00  0.00     0.064 A 
ATOM     38  C   UNL A   1      45.687  27.933  33.550  1.00  0.00     0.173 A 
ATOM     39  C   UNL A   1      44.134  26.269  34.357  1.00  0.00     0.173 A 
ATOM     40  F   UNL A   1      45.962  29.020  32.813  1.00  0.00    -0.203 F 
ATOM     41  C   UNL A   1      46.704  27.314  34.258  1.00  0.00     0.198 A 
ATOM     42  C   UNL A   1      45.132  25.707  35.127  1.00  0.00     0.198 A 
ATOM     43  F   UNL A   1      42.900  25.743  34.397  1.00  0.00    -0.203 F 
ATOM     44  F   UNL A   1      47.961  27.764  34.148  1.00  0.00    -0.200 F 
ATOM     45  C   UNL A   1      46.417  26.226  35.074  1.00  0.00     0.200 A 
ATOM     46  F   UNL A   1      44.844  24.675  35.930  1.00  0.00    -0.200 F 
ATOM     47  F   UNL A   1      47.383  25.679  35.820  1.00  0.00    -0.200 F 
ENDBRANCH  23  37
BRANCH  24  48
ATOM     48  C   UNL A   1      36.576  31.313  28.727  1.00  0.00     0.064 A 
ATOM     49  C   UNL A   1      36.448  32.672  28.423  1.00  0.00     0.173 A 
ATOM     50  C   UNL A   1      35.470  30.498  28.447  1.00  0.00     0.173 A 
ATOM     51  F   UNL A   1      37.486  33.500  28.614  1.00  0.00    -0.203 F 
ATOM     52  C   UNL A   1      35.230  33.205  28.001  1.00  0.00     0.198 A 
ATOM     53  C   UNL A   1      34.274  31.014  27.962  1.00  0.00     0.198 A 
ATOM     54  F   UNL A   1      35.534  29.181  28.649  1.00  0.00    -0.203 F 
ATOM     55  F   UNL A   1      35.090  34.532  27.887  1.00  0.00    -0.200 F 
ATOM     56  C   UNL A   1      34.144  32.375  27.766  1.00  0.00     0.200 A 
ATOM     57  F   UNL A   1      33.244  30.190  27.728  1.00  0.00    -0.200 F 
ATOM     58  F   UNL A   1      32.974  32.885  27.361  1.00  0.00    -0.200 F 
ENDBRANCH  24  48
BRANCH  36  59
ATOM     59  C   UNL A   1      39.173  31.981  35.142  1.00  0.00     0.064 A 
ATOM     60  C   UNL A   1      38.466  31.382  36.190  1.00  0.00     0.173 A 
ATOM     61  C   UNL A   1      39.519  33.336  35.250  1.00  0.00     0.173 A 
ATOM     62  F   UNL A   1      38.153  30.078  36.139  1.00  0.00    -0.203 F 
ATOM     63  C   UNL A   1      38.027  32.141  37.262  1.00  0.00     0.198 A 
ATOM     64  C   UNL A   1      39.160  34.067  36.371  1.00  0.00     0.198 A 
ATOM     65  F   UNL A   1      40.235  33.938  34.287  1.00  0.00    -0.203 F 
ATOM     66  F   UNL A   1      37.216  31.589  38.173  1.00  0.00    -0.200 F 
ATOM     67  C   UNL A   1      38.394  33.474  37.364  1.00  0.00     0.200 A 
ATOM     68  F   UNL A   1      39.543  35.345  36.484  1.00  0.00    -0.200 F 
ATOM     69  F   UNL A   1      38.006  34.192  38.425  1.00  0.00    -0.200 F 
ENDBRANCH  36  59
ENDBRANCH  10  11
ENDBRANCH   3   5
ENDBRANCH   2   3
ENDBRANCH   1   2
BRANCH   1  70
ATOM     70  C   UNL A   1      42.784  20.598  25.751  1.00  0.00     0.275 C 
BRANCH  70  71
ATOM     71  O   UNL A   1      41.292  21.065  25.674  1.00  0.00    -0.458 OA
BRANCH  71  72
ATOM     72  C   UNL A   1      40.289  21.113  26.627  1.00  0.00     0.338 C 
ATOM     73  O   UNL A   1      40.466  20.710  27.764  1.00  0.00    -0.246 OA
BRANCH  72  74
ATOM     74  C   UNL A   1      38.956  21.897  26.217  1.00  0.00     0.062 A 
ATOM     75  C   UNL A   1      38.700  23.194  26.740  1.00  0.00     0.016 A 
ATOM     76  C   UNL A   1      37.912  21.427  25.375  1.00  0.00     0.041 A 
ATOM     77  C   UNL A   1      37.845  24.078  26.086  1.00  0.00     0.003 A 
ATOM     78  C   UNL A   1      36.919  22.345  24.897  1.00  0.00     0.039 A 
ATOM     79  C   UNL A   1      37.378  23.627  24.902  1.00  0.00     0.026 A 
BRANCH  78  80
ATOM     80  N   UNL A   1      35.339  22.275  25.253  1.00  0.00    -0.355 N 
ATOM     81  H   UNL A   1      34.966  22.930  25.885  1.00  0.00     0.167 HD
BRANCH  80  82
ATOM     82  C   UNL A   1      34.385  21.204  24.627  1.00  0.00     0.050 A 
ATOM     83  C   UNL A   1      33.166  21.802  24.644  1.00  0.00     0.047 A 
ATOM     84  C   UNL A   1      34.322  19.493  24.626  1.00  0.00     0.027 A 
ATOM     85  C   UNL A   1      32.657  21.095  25.680  1.00  0.00     0.114 A 
ATOM     86  C   UNL A   1      32.997  19.389  24.514  1.00  0.00     0.072 A 
ATOM     87  C   UNL A   1      34.223  17.879  24.597  1.00  0.00     0.051 A 
ATOM     88  N   UNL A   1      32.153  19.951  25.351  1.00  0.00    -0.256 NA
ATOM     89  C   UNL A   1      32.533  19.191  23.243  1.00  0.00     0.032 A 
ATOM     90  C   UNL A   1      33.359  17.145  23.669  1.00  0.00     0.124 A 
ATOM     91  C   UNL A   1      32.613  17.908  22.820  1.00  0.00     0.041 A 
ATOM     92  F   UNL A   1      33.133  15.828  23.713  1.00  0.00    -0.207 F 
ENDBRANCH  80  82
ENDBRANCH  78  80
ENDBRANCH  72  74
ENDBRANCH  71  72
ENDBRANCH  70  71
ENDBRANCH   1  70
TORSDOF 13
ENDMDL
MODEL 2
REMARK VINA RESULT:     -13.7      1.937      3.088
REMARK SMILES O=C(OCCOC(=O)c1cccc(Nc2ccnc3ccc(F)cc23)c1)c1ccc(-c2c3nc(c(-c4c(F)c(F)c(F)c(F)c4F)c4ccc([nH]4)c(-c4c(F)c(F)c(F)c(F)c4F)c4nc(c(-c5c(F)c(F)c(F)c(F)c5F)c5ccc2[nH]5)C=C4)C=C3)cc1
REMARK SMILES IDX 4 1 3 2 2 3 1 4 27 5 28 6 89 7 29 8 88 9 30 10 31 11 32 12
REMARK SMILES IDX 82 13 33 14 87 15 81 16 83 17 34 18 86 19 80 20 79 21 35 23
REMARK SMILES IDX 67 24 47 25 66 26 48 27 51 28 65 29 84 30 49 31 50 32 64 34
REMARK SMILES IDX 85 35 52 36 36 37 37 38 45 39 38 40 39 41 43 42 46 43 40 44
REMARK SMILES IDX 41 45 44 46 42 47 68 48 69 49 77 50 70 51 71 52 75 53 78 54
REMARK SMILES IDX 72 55 73 56 76 57 74 58 53 59 54 60 62 61 55 62 56 63 60 64
REMARK SMILES IDX 63 65 57 66 58 67 61 68 59 69 5 70 6 71 7 72 8 73 9 74 10 75
REMARK SMILES IDX 26 76 11 77 13 78 12 79 14 80 15 82 16 83 25 84 17 85 19 86
REMARK SMILES IDX 24 87 18 88 20 89 22 90 21 91 23 92
REMARK H PARENT 83 22 51 33 14 81
REMARK Flexibility Score: inf
ROOT
ATOM      1  C   UNL A   1      43.451  21.456  25.667  1.00  0.00     0.275 C 
ENDROOT
BRANCH   1   2
ATOM      2  O   UNL A   1      43.012  22.428  24.753  1.00  0.00    -0.458 OA
BRANCH   2   3
ATOM      3  C   UNL A   1      43.423  23.706  24.888  1.00  0.00     0.338 C 
ATOM      4  O   UNL A   1      44.498  24.019  24.385  1.00  0.00    -0.246 OA
BRANCH   3   5
ATOM      5  C   UNL A   1      42.595  24.762  25.628  1.00  0.00     0.060 A 
ATOM      6  C   UNL A   1      41.595  24.568  26.607  1.00  0.00     0.016 A 
ATOM      7  C   UNL A   1      43.050  26.060  25.522  1.00  0.00     0.016 A 
ATOM      8  C   UNL A   1      40.992  25.512  27.389  1.00  0.00     0.010 A 
ATOM      9  C   UNL A   1      42.611  27.005  26.460  1.00  0.00     0.010 A 
ATOM     10  C   UNL A   1      41.642  26.693  27.452  1.00  0.00    -0.014 A 
BRANCH  10  11
ATOM     11  C   UNL A   1      41.193  27.581  28.528  1.00  0.00     0.031 A 
ATOM     12  C   UNL A   1      41.989  27.447  29.747  1.00  0.00     0.074 A 
ATOM     13  C   UNL A   1      40.261  28.562  28.403  1.00  0.00     0.049 A 
ATOM     14  N   UNL A   1      41.837  28.101  30.850  1.00  0.00    -0.248 NA
ATOM     15  C   UNL A   1      43.145  26.527  29.703  1.00  0.00     0.031 C 
ATOM     16  C   UNL A   1      39.617  28.984  27.160  1.00  0.00     0.029 A 
ATOM     17  N   UNL A   1      39.654  29.378  29.334  1.00  0.00    -0.354 N 
ATOM     18  C   UNL A   1      42.878  27.675  31.629  1.00  0.00     0.074 A 
ATOM     19  C   UNL A   1      43.631  26.674  30.917  1.00  0.00     0.031 C 
ATOM     20  C   UNL A   1      38.588  29.805  27.416  1.00  0.00     0.029 A 
ATOM     21  C   UNL A   1      38.574  30.085  28.835  1.00  0.00     0.049 A 
ATOM     22  H   UNL A   1      39.959  29.450  30.267  1.00  0.00     0.167 HD
ATOM     23  C   UNL A   1      43.166  28.133  32.849  1.00  0.00     0.037 A 
ATOM     24  C   UNL A   1      37.671  30.892  29.426  1.00  0.00     0.037 A 
ATOM     25  C   UNL A   1      42.390  29.115  33.526  1.00  0.00     0.049 A 
ATOM     26  C   UNL A   1      37.922  31.225  30.860  1.00  0.00     0.074 A 
ATOM     27  C   UNL A   1      42.612  29.597  34.795  1.00  0.00     0.029 A 
ATOM     28  N   UNL A   1      41.246  29.724  33.037  1.00  0.00    -0.354 N 
ATOM     29  N   UNL A   1      38.919  30.820  31.601  1.00  0.00    -0.248 NA
ATOM     30  C   UNL A   1      36.991  32.140  31.531  1.00  0.00     0.031 C 
ATOM     31  C   UNL A   1      41.559  30.435  35.116  1.00  0.00     0.029 A 
ATOM     32  C   UNL A   1      40.730  30.552  34.015  1.00  0.00     0.049 A 
ATOM     33  H   UNL A   1      40.864  29.589  32.139  1.00  0.00     0.167 HD
ATOM     34  C   UNL A   1      38.771  31.465  32.807  1.00  0.00     0.074 A 
ATOM     35  C   UNL A   1      37.592  32.301  32.700  1.00  0.00     0.031 C 
ATOM     36  C   UNL A   1      39.558  31.366  33.899  1.00  0.00     0.037 A 
BRANCH  23  37
ATOM     37  C   UNL A   1      44.295  27.494  33.549  1.00  0.00     0.064 A 
ATOM     38  C   UNL A   1      45.598  27.993  33.481  1.00  0.00     0.173 A 
ATOM     39  C   UNL A   1      44.025  26.378  34.347  1.00  0.00     0.173 A 
ATOM     40  F   UNL A   1      45.883  29.059  32.716  1.00  0.00    -0.203 F 
ATOM     41  C   UNL A   1      46.613  27.371  34.188  1.00  0.00     0.198 A 
ATOM     42  C   UNL A   1      45.023  25.814  35.115  1.00  0.00     0.198 A 
ATOM     43  F   UNL A   1      42.782  25.877  34.415  1.00  0.00    -0.203 F 
ATOM     44  F   UNL A   1      47.876  27.794  34.051  1.00  0.00    -0.200 F 
ATOM     45  C   UNL A   1      46.317  26.307  35.032  1.00  0.00     0.200 A 
ATOM     46  F   UNL A   1      44.727  24.806  35.945  1.00  0.00    -0.200 F 
ATOM     47  F   UNL A   1      47.284  25.759  35.777  1.00  0.00    -0.200 F 
ENDBRANCH  23  37
BRANCH  24  48
ATOM     48  C   UNL A   1      36.484  31.440  28.710  1.00  0.00     0.064 A 
ATOM     49  C   UNL A   1      36.356  32.803  28.419  1.00  0.00     0.173 A 
ATOM     50  C   UNL A   1      35.379  30.628  28.421  1.00  0.00     0.173 A 
ATOM     51  F   UNL A   1      37.393  33.629  28.619  1.00  0.00    -0.203 F 
ATOM     52  C   UNL A   1      35.138  33.339  28.002  1.00  0.00     0.198 A 
ATOM     53  C   UNL A   1      34.183  31.149  27.940  1.00  0.00     0.198 A 
ATOM     54  F   UNL A   1      35.444  29.309  28.611  1.00  0.00    -0.203 F 
ATOM     55  F   UNL A   1      34.998  34.667  27.901  1.00  0.00    -0.200 F 
ATOM     56  C   UNL A   1      34.052  32.511  27.757  1.00  0.00     0.200 A 
ATOM     57  F   UNL A   1      33.154  30.326  27.697  1.00  0.00    -0.200 F 
ATOM     58  F   UNL A   1      32.883  33.025  27.356  1.00  0.00    -0.200 F 
ENDBRANCH  24  48
BRANCH  36  59
ATOM     59  C   UNL A   1      39.178  32.191  35.076  1.00  0.00     0.064 A 
ATOM     60  C   UNL A   1      39.516  33.547  35.136  1.00  0.00     0.173 A 
ATOM     61  C   UNL A   1      38.443  31.633  36.132  1.00  0.00     0.173 A 
ATOM     62  F   UNL A   1      40.185  34.125  34.126  1.00  0.00    -0.203 F 
ATOM     63  C   UNL A   1      39.222  34.293  36.265  1.00  0.00     0.198 A 
ATOM     64  C   UNL A   1      38.066  32.410  37.215  1.00  0.00     0.198 A 
ATOM     65  F   UNL A   1      38.060  30.346  36.094  1.00  0.00    -0.203 F 
ATOM     66  F   UNL A   1      39.693  35.542  36.372  1.00  0.00    -0.200 F 
ATOM     67  C   UNL A   1      38.476  33.733  37.290  1.00  0.00     0.200 A 
ATOM     68  F   UNL A   1      37.318  31.877  38.190  1.00  0.00    -0.200 F 
ATOM     69  F   UNL A   1      38.153  34.472  38.359  1.00  0.00    -0.200 F 
ENDBRANCH  36  59
ENDBRANCH  10  11
ENDBRANCH   3   5
ENDBRANCH   2   3
ENDBRANCH   1   2
BRANCH   1  70
ATOM     70  C   UNL A   1      42.259  20.932  26.522  1.00  0.00     0.275 C 
BRANCH  70  71
ATOM     71  O   UNL A   1      40.782  21.221  26.092  1.00  0.00    -0.458 OA
BRANCH  71  72
ATOM     72  C   UNL A   1      39.745  20.381  25.728  1.00  0.00     0.338 C 
ATOM     73  O   UNL A   1      39.865  19.168  25.753  1.00  0.00    -0.246 OA
BRANCH  72  74
ATOM     74  C   UNL A   1      38.328  21.074  25.460  1.00  0.00     0.062 A 
ATOM     75  C   UNL A   1      37.283  20.344  24.831  1.00  0.00     0.016 A 
ATOM     76  C   UNL A   1      37.963  22.416  25.755  1.00  0.00     0.041 A 
ATOM     77  C   UNL A   1      35.949  20.712  24.994  1.00  0.00     0.003 A 
ATOM     78  C   UNL A   1      36.584  22.804  25.696  1.00  0.00     0.039 A 
ATOM     79  C   UNL A   1      35.755  21.735  25.853  1.00  0.00     0.026 A 
BRANCH  78  80
ATOM     80  N   UNL A   1      35.966  23.893  24.666  1.00  0.00    -0.355 N 
ATOM     81  H   UNL A   1      36.514  24.189  23.905  1.00  0.00     0.167 HD
BRANCH  80  82
ATOM     82  C   UNL A   1      34.530  24.490  24.839  1.00  0.00     0.050 A 
ATOM     83  C   UNL A   1      33.900  24.167  23.681  1.00  0.00     0.047 A 
ATOM     84  C   UNL A   1      33.878  25.863  25.628  1.00  0.00     0.027 A 
ATOM     85  C   UNL A   1      33.934  25.403  23.131  1.00  0.00     0.114 A 
ATOM     86  C   UNL A   1      32.844  26.036  24.803  1.00  0.00     0.072 A 
ATOM     87  C   UNL A   1      33.217  27.145  26.358  1.00  0.00     0.051 A 
ATOM     88  N   UNL A   1      32.971  26.181  23.502  1.00  0.00    -0.256 NA
ATOM     89  C   UNL A   1      31.661  25.498  25.230  1.00  0.00     0.032 A 
ATOM     90  C   UNL A   1      31.776  27.285  26.587  1.00  0.00     0.124 A 
ATOM     91  C   UNL A   1      30.999  26.262  26.129  1.00  0.00     0.041 A 
ATOM     92  F   UNL A   1      31.178  28.389  27.046  1.00  0.00    -0.207 F 
ENDBRANCH  80  82
ENDBRANCH  78  80
ENDBRANCH  72  74
ENDBRANCH  71  72
ENDBRANCH  70  71
ENDBRANCH   1  70
TORSDOF 13
ENDMDL
MODEL 3
REMARK VINA RESULT:     -13.7      2.016      3.077
REMARK SMILES O=C(OCCOC(=O)c1cccc(Nc2ccnc3ccc(F)cc23)c1)c1ccc(-c2c3nc(c(-c4c(F)c(F)c(F)c(F)c4F)c4ccc([nH]4)c(-c4c(F)c(F)c(F)c(F)c4F)c4nc(c(-c5c(F)c(F)c(F)c(F)c5F)c5ccc2[nH]5)C=C4)C=C3)cc1
REMARK SMILES IDX 4 1 3 2 2 3 1 4 27 5 28 6 89 7 29 8 88 9 30 10 31 11 32 12
REMARK SMILES IDX 82 13 33 14 87 15 81 16 83 17 34 18 86 19 80 20 79 21 35 23
REMARK SMILES IDX 67 24 47 25 66 26 48 27 51 28 65 29 84 30 49 31 50 32 64 34
REMARK SMILES IDX 85 35 52 36 36 37 37 38 45 39 38 40 39 41 43 42 46 43 40 44
REMARK SMILES IDX 41 45 44 46 42 47 68 48 69 49 77 50 70 51 71 52 75 53 78 54
REMARK SMILES IDX 72 55 73 56 76 57 74 58 53 59 54 60 62 61 55 62 56 63 60 64
REMARK SMILES IDX 63 65 57 66 58 67 61 68 59 69 5 70 6 71 7 72 8 73 9 74 10 75
REMARK SMILES IDX 26 76 11 77 13 78 12 79 14 80 15 82 16 83 25 84 17 85 19 86
REMARK SMILES IDX 24 87 18 88 20 89 22 90 21 91 23 92
REMARK H PARENT 83 22 51 33 14 81
REMARK Flexibility Score: inf
ROOT
ATOM      1  C   UNL A   1      43.780  21.483  25.225  1.00  0.00     0.275 C 
ENDROOT
BRANCH   1   2
ATOM      2  O   UNL A   1      43.201  22.547  24.513  1.00  0.00    -0.458 OA
BRANCH   2   3
ATOM      3  C   UNL A   1      43.604  23.812  24.755  1.00  0.00     0.338 C 
ATOM      4  O   UNL A   1      44.703  24.154  24.329  1.00  0.00    -0.246 OA
BRANCH   3   5
ATOM      5  C   UNL A   1      42.740  24.818  25.522  1.00  0.00     0.060 A 
ATOM      6  C   UNL A   1      41.778  24.566  26.526  1.00  0.00     0.016 A 
ATOM      7  C   UNL A   1      43.121  26.139  25.411  1.00  0.00     0.016 A 
ATOM      8  C   UNL A   1      41.146  25.473  27.329  1.00  0.00     0.010 A 
ATOM      9  C   UNL A   1      42.656  27.056  26.365  1.00  0.00     0.010 A 
ATOM     10  C   UNL A   1      41.733  26.687  27.381  1.00  0.00    -0.014 A 
BRANCH  10  11
ATOM     11  C   UNL A   1      41.265  27.546  28.472  1.00  0.00     0.031 A 
ATOM     12  C   UNL A   1      42.056  27.397  29.694  1.00  0.00     0.074 A 
ATOM     13  C   UNL A   1      40.320  28.517  28.363  1.00  0.00     0.049 A 
ATOM     14  N   UNL A   1      41.888  28.024  30.809  1.00  0.00    -0.248 NA
ATOM     15  C   UNL A   1      43.224  26.493  29.636  1.00  0.00     0.031 C 
ATOM     16  C   UNL A   1      39.678  28.956  27.125  1.00  0.00     0.029 A 
ATOM     17  N   UNL A   1      39.696  29.303  29.307  1.00  0.00    -0.354 N 
ATOM     18  C   UNL A   1      42.929  27.596  31.586  1.00  0.00     0.074 A 
ATOM     19  C   UNL A   1      43.701  26.621  30.857  1.00  0.00     0.031 C 
ATOM     20  C   UNL A   1      38.636  29.757  27.392  1.00  0.00     0.029 A 
ATOM     21  C   UNL A   1      38.609  30.006  28.817  1.00  0.00     0.049 A 
ATOM     22  H   UNL A   1      39.994  29.359  30.243  1.00  0.00     0.167 HD
ATOM     23  C   UNL A   1      43.204  28.031  32.816  1.00  0.00     0.037 A 
ATOM     24  C   UNL A   1      37.692  30.788  29.419  1.00  0.00     0.037 A 
ATOM     25  C   UNL A   1      42.411  28.988  33.510  1.00  0.00     0.049 A 
ATOM     26  C   UNL A   1      37.929  31.093  30.861  1.00  0.00     0.074 A 
ATOM     27  C   UNL A   1      42.617  29.445  34.790  1.00  0.00     0.029 A 
ATOM     28  N   UNL A   1      41.261  29.591  33.026  1.00  0.00    -0.354 N 
ATOM     29  N   UNL A   1      38.927  30.686  31.600  1.00  0.00    -0.248 NA
ATOM     30  C   UNL A   1      36.982  31.980  31.546  1.00  0.00     0.031 C 
ATOM     31  C   UNL A   1      41.551  30.262  35.123  1.00  0.00     0.029 A 
ATOM     32  C   UNL A   1      40.727  30.390  34.019  1.00  0.00     0.049 A 
ATOM     33  H   UNL A   1      40.886  29.470  32.124  1.00  0.00     0.167 HD
ATOM     34  C   UNL A   1      38.763  31.303  32.819  1.00  0.00     0.074 A 
ATOM     35  C   UNL A   1      37.573  32.124  32.722  1.00  0.00     0.031 C 
ATOM     36  C   UNL A   1      39.545  31.191  33.913  1.00  0.00     0.037 A 
BRANCH  23  37
ATOM     37  C   UNL A   1      44.337  27.393  33.509  1.00  0.00     0.064 A 
ATOM     38  C   UNL A   1      44.200  26.205  34.233  1.00  0.00     0.173 A 
ATOM     39  C   UNL A   1      45.599  27.982  33.385  1.00  0.00     0.173 A 
ATOM     40  F   UNL A   1      42.997  25.625  34.373  1.00  0.00    -0.203 F 
ATOM     41  C   UNL A   1      45.308  25.632  34.834  1.00  0.00     0.198 A 
ATOM     42  C   UNL A   1      46.712  27.362  33.915  1.00  0.00     0.198 A 
ATOM     43  F   UNL A   1      45.748  29.128  32.703  1.00  0.00    -0.203 F 
ATOM     44  F   UNL A   1      45.161  24.545  35.604  1.00  0.00    -0.200 F 
ATOM     45  C   UNL A   1      46.566  26.190  34.643  1.00  0.00     0.200 A 
ATOM     46  F   UNL A   1      47.924  27.890  33.705  1.00  0.00    -0.200 F 
ATOM     47  F   UNL A   1      47.646  25.591  35.157  1.00  0.00    -0.200 F 
ENDBRANCH  23  37
BRANCH  24  48
ATOM     48  C   UNL A   1      36.501  31.335  28.708  1.00  0.00     0.064 A 
ATOM     49  C   UNL A   1      36.373  32.697  28.414  1.00  0.00     0.173 A 
ATOM     50  C   UNL A   1      35.394  30.523  28.427  1.00  0.00     0.173 A 
ATOM     51  F   UNL A   1      37.412  33.523  28.606  1.00  0.00    -0.203 F 
ATOM     52  C   UNL A   1      35.153  33.233  28.001  1.00  0.00     0.198 A 
ATOM     53  C   UNL A   1      34.196  31.043  27.950  1.00  0.00     0.198 A 
ATOM     54  F   UNL A   1      35.459  29.204  28.619  1.00  0.00    -0.203 F 
ATOM     55  F   UNL A   1      35.014  34.561  27.897  1.00  0.00    -0.200 F 
ATOM     56  C   UNL A   1      34.066  32.404  27.764  1.00  0.00     0.200 A 
ATOM     57  F   UNL A   1      33.165  30.220  27.715  1.00  0.00    -0.200 F 
ATOM     58  F   UNL A   1      32.895  32.918  27.368  1.00  0.00    -0.200 F 
ENDBRANCH  24  48
BRANCH  36  59
ATOM     59  C   UNL A   1      39.146  31.985  35.106  1.00  0.00     0.064 A 
ATOM     60  C   UNL A   1      38.458  31.384  36.165  1.00  0.00     0.173 A 
ATOM     61  C   UNL A   1      39.484  33.343  35.205  1.00  0.00     0.173 A 
ATOM     62  F   UNL A   1      38.153  30.078  36.121  1.00  0.00    -0.203 F 
ATOM     63  C   UNL A   1      38.028  32.143  37.240  1.00  0.00     0.198 A 
ATOM     64  C   UNL A   1      39.136  34.074  36.330  1.00  0.00     0.198 A 
ATOM     65  F   UNL A   1      40.183  33.947  34.230  1.00  0.00    -0.203 F 
ATOM     66  F   UNL A   1      37.234  31.587  38.165  1.00  0.00    -0.200 F 
ATOM     67  C   UNL A   1      38.389  33.479  37.335  1.00  0.00     0.200 A 
ATOM     68  F   UNL A   1      39.512  35.355  36.434  1.00  0.00    -0.200 F 
ATOM     69  F   UNL A   1      38.010  34.197  38.399  1.00  0.00    -0.200 F 
ENDBRANCH  36  59
ENDBRANCH  10  11
ENDBRANCH   3   5
ENDBRANCH   2   3
ENDBRANCH   1   2
BRANCH   1  70
ATOM     70  C   UNL A   1      42.683  20.656  25.959  1.00  0.00     0.275 C 
BRANCH  70  71
ATOM     71  O   UNL A   1      41.166  20.981  25.751  1.00  0.00    -0.458 OA
BRANCH  71  72
ATOM     72  C   UNL A   1      40.177  21.376  26.635  1.00  0.00     0.338 C 
ATOM     73  O   UNL A   1      40.421  21.611  27.806  1.00  0.00    -0.246 OA
BRANCH  72  74
ATOM     74  C   UNL A   1      38.742  21.694  26.000  1.00  0.00     0.062 A 
ATOM     75  C   UNL A   1      38.117  20.752  25.138  1.00  0.00     0.016 A 
ATOM     76  C   UNL A   1      37.977  22.880  26.168  1.00  0.00     0.041 A 
ATOM     77  C   UNL A   1      36.737  20.757  24.948  1.00  0.00     0.003 A 
ATOM     78  C   UNL A   1      36.605  22.903  25.751  1.00  0.00     0.039 A 
ATOM     79  C   UNL A   1      36.073  21.651  25.710  1.00  0.00     0.026 A 
BRANCH  78  80
ATOM     80  N   UNL A   1      36.004  23.847  24.578  1.00  0.00    -0.355 N 
ATOM     81  H   UNL A   1      36.553  24.017  23.779  1.00  0.00     0.167 HD
BRANCH  80  82
ATOM     82  C   UNL A   1      34.584  24.497  24.669  1.00  0.00     0.050 A 
ATOM     83  C   UNL A   1      33.860  23.835  23.732  1.00  0.00     0.047 A 
ATOM     84  C   UNL A   1      33.991  26.063  25.031  1.00  0.00     0.027 A 
ATOM     85  C   UNL A   1      33.839  24.831  22.815  1.00  0.00     0.114 A 
ATOM     86  C   UNL A   1      32.890  25.985  24.283  1.00  0.00     0.072 A 
ATOM     87  C   UNL A   1      33.386  27.524  25.366  1.00  0.00     0.051 A 
ATOM     88  N   UNL A   1      32.905  25.707  22.998  1.00  0.00    -0.256 NA
ATOM     89  C   UNL A   1      31.751  25.635  24.955  1.00  0.00     0.032 A 
ATOM     90  C   UNL A   1      31.969  27.758  25.657  1.00  0.00     0.124 A 
ATOM     91  C   UNL A   1      31.162  26.658  25.615  1.00  0.00     0.041 A 
ATOM     92  F   UNL A   1      31.403  28.962  25.788  1.00  0.00    -0.207 F 
ENDBRANCH  80  82
ENDBRANCH  78  80
ENDBRANCH  72  74
ENDBRANCH  71  72
ENDBRANCH  70  71
ENDBRANCH   1  70
TORSDOF 13
ENDMDL
