MODEL 1
REMARK VINA RESULT:     -12.5      0.000      0.000
REMARK SMILES O=C(OCCOC(=O)[C@@H]1[C@H](C(=O)Nc2ccccc2Cc2ccccc2)[C@H]2C=C[C@@H]1O2)c1ccc(-c2c3nc(c(-c4c(F)c(F)c(F)c(F)c4F)c4ccc([nH]4)c(-c4c(F)c(F)c(F)c(F)c4F)c4nc(c(-c5c(F)c(F)c(F)c(F)c5F)c5ccc2[nH]5)C=C4)C=C3)cc1
REMARK SMILES IDX 5 1 4 2 3 3 2 4 1 5 32 6 33 7 94 8 34 9 93 10 35 11 36 12
REMARK SMILES IDX 37 13 87 14 38 15 92 16 86 17 88 18 39 19 91 20 85 21 84 22
REMARK SMILES IDX 40 24 72 25 52 26 71 27 53 28 56 29 70 30 89 31 54 32 55 33
REMARK SMILES IDX 69 35 90 36 57 37 41 38 42 39 50 40 43 41 44 42 48 43 51 44
REMARK SMILES IDX 45 45 46 46 49 47 47 48 73 49 74 50 82 51 75 52 76 53 80 54
REMARK SMILES IDX 83 55 77 56 78 57 81 58 79 59 58 60 59 61 67 62 60 63 61 64
REMARK SMILES IDX 65 65 68 66 62 67 63 68 66 69 64 70 6 71 7 72 8 73 9 74
REMARK SMILES IDX 10 75 30 76 27 77 29 78 31 79 28 80 11 81 12 82 13 83 14 85
REMARK SMILES IDX 15 86 19 87 16 88 18 89 17 90 20 91 21 92 22 93 26 94 23 95
REMARK SMILES IDX 25 96 24 97
REMARK H PARENT 88 23 56 34 13 84
REMARK Flexibility Score: inf
ROOT
ATOM      1  C   UNL A   1      31.811  28.759  27.167  1.00  0.00     0.274 C 
ENDROOT
BRANCH   1   2
ATOM      2  C   UNL A   1      31.799  29.962  26.238  1.00  0.00     0.275 C 
BRANCH   2   3
ATOM      3  O   UNL A   1      33.039  30.695  26.222  1.00  0.00    -0.458 OA
BRANCH   3   4
ATOM      4  C   UNL A   1      33.713  31.335  27.201  1.00  0.00     0.338 C 
ATOM      5  O   UNL A   1      33.239  32.381  27.652  1.00  0.00    -0.246 OA
BRANCH   4   6
ATOM      6  C   UNL A   1      35.022  30.890  27.776  1.00  0.00     0.060 A 
ATOM      7  C   UNL A   1      35.324  29.598  28.213  1.00  0.00     0.016 A 
ATOM      8  C   UNL A   1      35.991  31.891  27.990  1.00  0.00     0.016 A 
ATOM      9  C   UNL A   1      36.562  29.298  28.811  1.00  0.00     0.010 A 
ATOM     10  C   UNL A   1      37.211  31.605  28.621  1.00  0.00     0.010 A 
ATOM     11  C   UNL A   1      37.507  30.301  29.040  1.00  0.00    -0.014 A 
BRANCH  11  12
ATOM     12  C   UNL A   1      38.695  30.048  29.897  1.00  0.00     0.031 A 
ATOM     13  C   UNL A   1      39.730  29.086  29.393  1.00  0.00     0.074 A 
ATOM     14  C   UNL A   1      38.886  30.658  31.083  1.00  0.00     0.049 A 
ATOM     15  N   UNL A   1      40.809  28.640  29.984  1.00  0.00    -0.248 NA
ATOM     16  C   UNL A   1      39.536  28.581  28.024  1.00  0.00     0.031 C 
ATOM     17  C   UNL A   1      38.047  31.707  31.643  1.00  0.00     0.029 A 
ATOM     18  N   UNL A   1      39.852  30.465  32.044  1.00  0.00    -0.354 N 
ATOM     19  C   UNL A   1      41.436  27.829  29.050  1.00  0.00     0.074 A 
ATOM     20  C   UNL A   1      40.603  27.813  27.868  1.00  0.00     0.031 C 
ATOM     21  C   UNL A   1      38.486  32.026  32.872  1.00  0.00     0.029 A 
ATOM     22  C   UNL A   1      39.634  31.186  33.195  1.00  0.00     0.049 A 
ATOM     23  H   UNL A   1      40.623  29.866  31.920  1.00  0.00     0.167 HD
ATOM     24  C   UNL A   1      42.610  27.168  29.163  1.00  0.00     0.037 A 
ATOM     25  C   UNL A   1      40.268  31.152  34.385  1.00  0.00     0.037 A 
ATOM     26  C   UNL A   1      43.424  27.146  30.345  1.00  0.00     0.049 A 
ATOM     27  C   UNL A   1      41.467  30.257  34.552  1.00  0.00     0.074 A 
ATOM     28  C   UNL A   1      44.606  26.463  30.566  1.00  0.00     0.029 A 
ATOM     29  N   UNL A   1      43.127  27.826  31.516  1.00  0.00    -0.354 N 
ATOM     30  N   UNL A   1      42.058  29.496  33.664  1.00  0.00    -0.248 NA
ATOM     31  C   UNL A   1      42.095  30.222  35.881  1.00  0.00     0.031 C 
ATOM     32  C   UNL A   1      45.000  26.692  31.889  1.00  0.00     0.029 A 
ATOM     33  C   UNL A   1      44.086  27.552  32.478  1.00  0.00     0.049 A 
ATOM     34  H   UNL A   1      42.351  28.417  31.645  1.00  0.00     0.167 HD
ATOM     35  C   UNL A   1      43.148  28.931  34.310  1.00  0.00     0.074 A 
ATOM     36  C   UNL A   1      43.139  29.435  35.667  1.00  0.00     0.031 C 
ATOM     37  C   UNL A   1      44.077  28.074  33.819  1.00  0.00     0.037 A 
BRANCH  24  38
ATOM     38  C   UNL A   1      43.052  26.379  27.970  1.00  0.00     0.064 A 
ATOM     39  C   UNL A   1      43.815  26.965  26.949  1.00  0.00     0.173 A 
ATOM     40  C   UNL A   1      42.694  25.031  27.842  1.00  0.00     0.173 A 
ATOM     41  F   UNL A   1      44.156  28.260  27.019  1.00  0.00    -0.203 F 
ATOM     42  C   UNL A   1      44.187  26.229  25.828  1.00  0.00     0.198 A 
ATOM     43  C   UNL A   1      43.084  24.293  26.729  1.00  0.00     0.198 A 
ATOM     44  F   UNL A   1      41.958  24.434  28.790  1.00  0.00    -0.203 F 
ATOM     45  F   UNL A   1      44.877  26.816  24.841  1.00  0.00    -0.200 F 
ATOM     46  C   UNL A   1      43.825  24.894  25.720  1.00  0.00     0.200 A 
ATOM     47  F   UNL A   1      42.735  23.004  26.626  1.00  0.00    -0.200 F 
ATOM     48  F   UNL A   1      44.178  24.188  24.638  1.00  0.00    -0.200 F 
ENDBRANCH  24  38
BRANCH  25  49
ATOM     49  C   UNL A   1      39.768  31.960  35.531  1.00  0.00     0.064 A 
ATOM     50  C   UNL A   1      38.771  31.473  36.387  1.00  0.00     0.173 A 
ATOM     51  C   UNL A   1      40.234  33.266  35.752  1.00  0.00     0.173 A 
ATOM     52  F   UNL A   1      38.271  30.243  36.200  1.00  0.00    -0.203 F 
ATOM     53  C   UNL A   1      38.238  32.270  37.401  1.00  0.00     0.198 A 
ATOM     54  C   UNL A   1      39.721  34.052  36.782  1.00  0.00     0.198 A 
ATOM     55  F   UNL A   1      41.179  33.787  34.954  1.00  0.00    -0.203 F 
ATOM     56  F   UNL A   1      37.241  31.801  38.163  1.00  0.00    -0.200 F 
ATOM     57  C   UNL A   1      38.716  33.557  37.598  1.00  0.00     0.200 A 
ATOM     58  F   UNL A   1      40.186  35.294  36.971  1.00  0.00    -0.200 F 
ATOM     59  F   UNL A   1      38.192  34.327  38.562  1.00  0.00    -0.200 F 
ENDBRANCH  25  49
BRANCH  37  60
ATOM     60  C   UNL A   1      45.186  27.659  34.738  1.00  0.00     0.064 A 
ATOM     61  C   UNL A   1      45.093  26.502  35.526  1.00  0.00     0.173 A 
ATOM     62  C   UNL A   1      46.375  28.401  34.794  1.00  0.00     0.173 A 
ATOM     63  F   UNL A   1      43.970  25.770  35.519  1.00  0.00    -0.203 F 
ATOM     64  C   UNL A   1      46.145  26.114  36.351  1.00  0.00     0.198 A 
ATOM     65  C   UNL A   1      47.435  27.996  35.600  1.00  0.00     0.198 A 
ATOM     66  F   UNL A   1      46.513  29.513  34.057  1.00  0.00    -0.203 F 
ATOM     67  F   UNL A   1      46.021  25.028  37.126  1.00  0.00    -0.200 F 
ATOM     68  C   UNL A   1      47.317  26.856  36.381  1.00  0.00     0.200 A 
ATOM     69  F   UNL A   1      48.571  28.707  35.620  1.00  0.00    -0.200 F 
ATOM     70  F   UNL A   1      48.333  26.475  37.169  1.00  0.00    -0.200 F 
ENDBRANCH  37  60
ENDBRANCH  11  12
ENDBRANCH   4   6
ENDBRANCH   3   4
ENDBRANCH   2   3
ENDBRANCH   1   2
BRANCH   1  71
ATOM     71  O   UNL A   1      31.594  27.530  26.453  1.00  0.00    -0.462 OA
BRANCH  71  72
ATOM     72  C   UNL A   1      32.676  27.061  25.802  1.00  0.00     0.312 C 
ATOM     73  O   UNL A   1      33.814  27.064  26.279  1.00  0.00    -0.252 OA
BRANCH  72  74
ATOM     74  C   UNL A   1      32.457  26.588  24.396  1.00  0.00     0.147 C 
ATOM     75  C   UNL A   1      31.824  25.181  24.354  1.00  0.00     0.129 C 
ATOM     76  C   UNL A   1      33.557  26.436  23.335  1.00  0.00     0.157 C 
ATOM     77  C   UNL A   1      32.334  24.665  23.011  1.00  0.00     0.155 C 
ATOM     78  C   UNL A   1      32.891  26.640  22.002  1.00  0.00     0.004 C 
ATOM     79  O   UNL A   1      33.736  25.000  23.192  1.00  0.00    -0.365 OA
ATOM     80  C   UNL A   1      32.059  25.595  21.853  1.00  0.00     0.004 C 
BRANCH  75  81
ATOM     81  C   UNL A   1      32.285  24.242  25.484  1.00  0.00     0.231 C 
ATOM     82  O   UNL A   1      31.665  24.185  26.547  1.00  0.00    -0.274 OA
ATOM     83  N   UNL A   1      33.480  23.551  25.306  1.00  0.00    -0.325 N 
ATOM     84  H   UNL A   1      34.321  24.057  25.369  1.00  0.00     0.169 HD
BRANCH  83  85
ATOM     85  C   UNL A   1      33.557  22.146  25.036  1.00  0.00     0.044 A 
ATOM     86  C   UNL A   1      32.383  21.389  25.144  1.00  0.00     0.026 A 
ATOM     87  C   UNL A   1      34.806  21.493  24.818  1.00  0.00    -0.020 A 
ATOM     88  C   UNL A   1      32.421  20.001  25.030  1.00  0.00     0.002 A 
ATOM     89  C   UNL A   1      34.811  20.089  24.715  1.00  0.00     0.006 A 
ATOM     90  C   UNL A   1      33.632  19.352  24.824  1.00  0.00     0.000 A 
BRANCH  87  91
ATOM     91  C   UNL A   1      36.066  22.233  24.417  1.00  0.00     0.073 C 
BRANCH  91  92
ATOM     92  C   UNL A   1      37.169  22.559  25.414  1.00  0.00    -0.044 A 
ATOM     93  C   UNL A   1      37.238  23.828  26.005  1.00  0.00     0.004 A 
ATOM     94  C   UNL A   1      38.254  21.690  25.608  1.00  0.00     0.004 A 
ATOM     95  C   UNL A   1      38.390  24.261  26.671  1.00  0.00     0.000 A 
ATOM     96  C   UNL A   1      39.395  22.108  26.305  1.00  0.00     0.000 A 
ATOM     97  C   UNL A   1      39.475  23.405  26.809  1.00  0.00     0.000 A 
ENDBRANCH  91  92
ENDBRANCH  87  91
ENDBRANCH  83  85
ENDBRANCH  75  81
ENDBRANCH  72  74
ENDBRANCH  71  72
ENDBRANCH   1  71
TORSDOF 15
ENDMDL
MODEL 2
REMARK VINA RESULT:     -12.5      1.468      7.345
REMARK SMILES O=C(OCCOC(=O)[C@@H]1[C@H](C(=O)Nc2ccccc2Cc2ccccc2)[C@H]2C=C[C@@H]1O2)c1ccc(-c2c3nc(c(-c4c(F)c(F)c(F)c(F)c4F)c4ccc([nH]4)c(-c4c(F)c(F)c(F)c(F)c4F)c4nc(c(-c5c(F)c(F)c(F)c(F)c5F)c5ccc2[nH]5)C=C4)C=C3)cc1
REMARK SMILES IDX 5 1 4 2 3 3 2 4 1 5 32 6 33 7 94 8 34 9 93 10 35 11 36 12
REMARK SMILES IDX 37 13 87 14 38 15 92 16 86 17 88 18 39 19 91 20 85 21 84 22
REMARK SMILES IDX 40 24 72 25 52 26 71 27 53 28 56 29 70 30 89 31 54 32 55 33
REMARK SMILES IDX 69 35 90 36 57 37 41 38 42 39 50 40 43 41 44 42 48 43 51 44
REMARK SMILES IDX 45 45 46 46 49 47 47 48 73 49 74 50 82 51 75 52 76 53 80 54
REMARK SMILES IDX 83 55 77 56 78 57 81 58 79 59 58 60 59 61 67 62 60 63 61 64
REMARK SMILES IDX 65 65 68 66 62 67 63 68 66 69 64 70 6 71 7 72 8 73 9 74
REMARK SMILES IDX 10 75 30 76 27 77 29 78 31 79 28 80 11 81 12 82 13 83 14 85
REMARK SMILES IDX 15 86 19 87 16 88 18 89 17 90 20 91 21 92 22 93 26 94 23 95
REMARK SMILES IDX 25 96 24 97
REMARK H PARENT 88 23 56 34 13 84
REMARK Flexibility Score: inf
ROOT
ATOM      1  C   UNL A   1      32.364  31.699  27.035  1.00  0.00     0.274 C 
ENDROOT
BRANCH   1   2
ATOM      2  C   UNL A   1      31.998  33.167  26.897  1.00  0.00     0.275 C 
BRANCH   2   3
ATOM      3  O   UNL A   1      32.622  34.015  27.880  1.00  0.00    -0.458 OA
BRANCH   3   4
ATOM      4  C   UNL A   1      33.920  34.273  28.144  1.00  0.00     0.338 C 
ATOM      5  O   UNL A   1      34.329  35.429  27.999  1.00  0.00    -0.246 OA
BRANCH   4   6
ATOM      6  C   UNL A   1      34.928  33.255  28.580  1.00  0.00     0.060 A 
ATOM      7  C   UNL A   1      34.644  32.059  29.243  1.00  0.00     0.016 A 
ATOM      8  C   UNL A   1      36.284  33.591  28.397  1.00  0.00     0.016 A 
ATOM      9  C   UNL A   1      35.672  31.203  29.679  1.00  0.00     0.010 A 
ATOM     10  C   UNL A   1      37.314  32.760  28.865  1.00  0.00     0.010 A 
ATOM     11  C   UNL A   1      37.015  31.555  29.515  1.00  0.00    -0.014 A 
BRANCH  11  12
ATOM     12  C   UNL A   1      38.093  30.793  30.197  1.00  0.00     0.031 A 
ATOM     13  C   UNL A   1      38.420  31.161  31.615  1.00  0.00     0.074 A 
ATOM     14  C   UNL A   1      38.764  29.785  29.608  1.00  0.00     0.049 A 
ATOM     15  N   UNL A   1      39.364  30.703  32.396  1.00  0.00    -0.248 NA
ATOM     16  C   UNL A   1      37.542  32.160  32.247  1.00  0.00     0.031 C 
ATOM     17  C   UNL A   1      38.475  29.226  28.295  1.00  0.00     0.029 A 
ATOM     18  N   UNL A   1      39.848  29.057  30.041  1.00  0.00    -0.354 N 
ATOM     19  C   UNL A   1      39.176  31.333  33.617  1.00  0.00     0.074 A 
ATOM     20  C   UNL A   1      38.053  32.233  33.466  1.00  0.00     0.031 C 
ATOM     21  C   UNL A   1      39.390  28.290  27.994  1.00  0.00     0.029 A 
ATOM     22  C   UNL A   1      40.346  28.195  29.092  1.00  0.00     0.049 A 
ATOM     23  H   UNL A   1      40.232  29.146  30.943  1.00  0.00     0.167 HD
ATOM     24  C   UNL A   1      39.868  31.168  34.766  1.00  0.00     0.037 A 
ATOM     25  C   UNL A   1      41.462  27.438  29.093  1.00  0.00     0.037 A 
ATOM     26  C   UNL A   1      41.009  30.308  34.914  1.00  0.00     0.049 A 
ATOM     27  C   UNL A   1      42.332  27.416  30.322  1.00  0.00     0.074 A 
ATOM     28  C   UNL A   1      41.803  30.114  36.030  1.00  0.00     0.029 A 
ATOM     29  N   UNL A   1      41.529  29.512  33.906  1.00  0.00    -0.354 N 
ATOM     30  N   UNL A   1      42.145  28.010  31.476  1.00  0.00    -0.248 NA
ATOM     31  C   UNL A   1      43.560  26.610  30.258  1.00  0.00     0.031 C 
ATOM     32  C   UNL A   1      42.835  29.235  35.681  1.00  0.00     0.029 A 
ATOM     33  C   UNL A   1      42.657  28.849  34.362  1.00  0.00     0.049 A 
ATOM     34  H   UNL A   1      41.152  29.429  33.000  1.00  0.00     0.167 HD
ATOM     35  C   UNL A   1      43.203  27.616  32.283  1.00  0.00     0.074 A 
ATOM     36  C   UNL A   1      44.029  26.731  31.491  1.00  0.00     0.031 C 
ATOM     37  C   UNL A   1      43.461  27.956  33.570  1.00  0.00     0.037 A 
BRANCH  24  38
ATOM     38  C   UNL A   1      39.420  31.977  35.942  1.00  0.00     0.064 A 
ATOM     39  C   UNL A   1      38.397  31.527  36.791  1.00  0.00     0.173 A 
ATOM     40  C   UNL A   1      40.007  33.220  36.210  1.00  0.00     0.173 A 
ATOM     41  F   UNL A   1      37.790  30.355  36.555  1.00  0.00    -0.203 F 
ATOM     42  C   UNL A   1      37.965  32.308  37.858  1.00  0.00     0.198 A 
ATOM     43  C   UNL A   1      39.584  33.990  37.290  1.00  0.00     0.198 A 
ATOM     44  F   UNL A   1      40.981  33.693  35.419  1.00  0.00    -0.203 F 
ATOM     45  F   UNL A   1      36.957  31.883  38.633  1.00  0.00    -0.200 F 
ATOM     46  C   UNL A   1      38.561  33.536  38.109  1.00  0.00     0.200 A 
ATOM     47  F   UNL A   1      40.160  35.174  37.532  1.00  0.00    -0.200 F 
ATOM     48  F   UNL A   1      38.139  34.289  39.134  1.00  0.00    -0.200 F 
ENDBRANCH  24  38
BRANCH  25  49
ATOM     49  C   UNL A   1      41.851  26.662  27.884  1.00  0.00     0.064 A 
ATOM     50  C   UNL A   1      41.374  25.362  27.666  1.00  0.00     0.173 A 
ATOM     51  C   UNL A   1      42.763  27.184  26.953  1.00  0.00     0.173 A 
ATOM     52  F   UNL A   1      40.524  24.806  28.542  1.00  0.00    -0.203 F 
ATOM     53  C   UNL A   1      41.816  24.603  26.583  1.00  0.00     0.198 A 
ATOM     54  C   UNL A   1      43.184  26.436  25.856  1.00  0.00     0.198 A 
ATOM     55  F   UNL A   1      43.262  28.418  27.120  1.00  0.00    -0.203 F 
ATOM     56  F   UNL A   1      41.393  23.341  26.435  1.00  0.00    -0.200 F 
ATOM     57  C   UNL A   1      42.719  25.142  25.677  1.00  0.00     0.200 A 
ATOM     58  F   UNL A   1      44.054  26.960  24.982  1.00  0.00    -0.200 F 
ATOM     59  F   UNL A   1      43.155  24.407  24.645  1.00  0.00    -0.200 F 
ENDBRANCH  25  49
BRANCH  37  60
ATOM     60  C   UNL A   1      44.662  27.336  34.219  1.00  0.00     0.064 A 
ATOM     61  C   UNL A   1      44.604  26.066  34.811  1.00  0.00     0.173 A 
ATOM     62  C   UNL A   1      45.897  28.001  34.204  1.00  0.00     0.173 A 
ATOM     63  F   UNL A   1      43.441  25.400  34.865  1.00  0.00    -0.203 F 
ATOM     64  C   UNL A   1      45.736  25.492  35.382  1.00  0.00     0.198 A 
ATOM     65  C   UNL A   1      47.033  27.413  34.752  1.00  0.00     0.198 A 
ATOM     66  F   UNL A   1      46.004  29.216  33.646  1.00  0.00    -0.203 F 
ATOM     67  F   UNL A   1      45.651  24.295  35.978  1.00  0.00    -0.200 F 
ATOM     68  C   UNL A   1      46.951  26.162  35.345  1.00  0.00     0.200 A 
ATOM     69  F   UNL A   1      48.208  28.056  34.705  1.00  0.00    -0.200 F 
ATOM     70  F   UNL A   1      48.043  25.603  35.885  1.00  0.00    -0.200 F 
ENDBRANCH  37  60
ENDBRANCH  11  12
ENDBRANCH   4   6
ENDBRANCH   3   4
ENDBRANCH   2   3
ENDBRANCH   1   2
BRANCH   1  71
ATOM     71  O   UNL A   1      31.503  30.855  26.251  1.00  0.00    -0.462 OA
BRANCH  71  72
ATOM     72  C   UNL A   1      32.139  29.879  25.575  1.00  0.00     0.312 C 
ATOM     73  O   UNL A   1      33.350  29.665  25.664  1.00  0.00    -0.252 OA
BRANCH  72  74
ATOM     74  C   UNL A   1      31.308  29.081  24.615  1.00  0.00     0.147 C 
ATOM     75  C   UNL A   1      30.662  27.854  25.294  1.00  0.00     0.129 C 
ATOM     76  C   UNL A   1      31.827  28.445  23.316  1.00  0.00     0.157 C 
ATOM     77  C   UNL A   1      30.513  26.902  24.110  1.00  0.00     0.155 C 
ATOM     78  C   UNL A   1      30.655  28.386  22.376  1.00  0.00     0.004 C 
ATOM     79  O   UNL A   1      31.866  27.018  23.594  1.00  0.00    -0.365 OA
ATOM     80  C   UNL A   1      29.799  27.507  22.925  1.00  0.00     0.004 C 
BRANCH  75  81
ATOM     81  C   UNL A   1      31.531  27.201  26.385  1.00  0.00     0.231 C 
ATOM     82  O   UNL A   1      31.390  27.506  27.569  1.00  0.00    -0.274 OA
ATOM     83  N   UNL A   1      32.548  26.343  25.976  1.00  0.00    -0.325 N 
ATOM     84  H   UNL A   1      33.348  26.739  25.561  1.00  0.00     0.169 HD
BRANCH  83  85
ATOM     85  C   UNL A   1      32.500  24.919  26.123  1.00  0.00     0.044 A 
ATOM     86  C   UNL A   1      31.297  24.341  26.549  1.00  0.00     0.026 A 
ATOM     87  C   UNL A   1      33.669  24.113  25.997  1.00  0.00    -0.020 A 
ATOM     88  C   UNL A   1      31.228  22.981  26.843  1.00  0.00     0.002 A 
ATOM     89  C   UNL A   1      33.568  22.744  26.309  1.00  0.00     0.006 A 
ATOM     90  C   UNL A   1      32.362  22.186  26.731  1.00  0.00     0.000 A 
BRANCH  87  91
ATOM     91  C   UNL A   1      34.924  24.583  25.289  1.00  0.00     0.073 C 
BRANCH  91  92
ATOM     92  C   UNL A   1      36.159  23.704  25.152  1.00  0.00    -0.044 A 
ATOM     93  C   UNL A   1      36.195  22.675  24.201  1.00  0.00     0.004 A 
ATOM     94  C   UNL A   1      37.197  23.756  26.096  1.00  0.00     0.004 A 
ATOM     95  C   UNL A   1      37.164  21.666  24.253  1.00  0.00     0.000 A 
ATOM     96  C   UNL A   1      38.188  22.767  26.129  1.00  0.00     0.000 A 
ATOM     97  C   UNL A   1      38.153  21.705  25.228  1.00  0.00     0.000 A 
ENDBRANCH  91  92
ENDBRANCH  87  91
ENDBRANCH  83  85
ENDBRANCH  75  81
ENDBRANCH  72  74
ENDBRANCH  71  72
ENDBRANCH   1  71
TORSDOF 15
ENDMDL
MODEL 3
REMARK VINA RESULT:     -12.5      2.081      3.386
REMARK SMILES O=C(OCCOC(=O)[C@@H]1[C@H](C(=O)Nc2ccccc2Cc2ccccc2)[C@H]2C=C[C@@H]1O2)c1ccc(-c2c3nc(c(-c4c(F)c(F)c(F)c(F)c4F)c4ccc([nH]4)c(-c4c(F)c(F)c(F)c(F)c4F)c4nc(c(-c5c(F)c(F)c(F)c(F)c5F)c5ccc2[nH]5)C=C4)C=C3)cc1
REMARK SMILES IDX 5 1 4 2 3 3 2 4 1 5 32 6 33 7 94 8 34 9 93 10 35 11 36 12
REMARK SMILES IDX 37 13 87 14 38 15 92 16 86 17 88 18 39 19 91 20 85 21 84 22
REMARK SMILES IDX 40 24 72 25 52 26 71 27 53 28 56 29 70 30 89 31 54 32 55 33
REMARK SMILES IDX 69 35 90 36 57 37 41 38 42 39 50 40 43 41 44 42 48 43 51 44
REMARK SMILES IDX 45 45 46 46 49 47 47 48 73 49 74 50 82 51 75 52 76 53 80 54
REMARK SMILES IDX 83 55 77 56 78 57 81 58 79 59 58 60 59 61 67 62 60 63 61 64
REMARK SMILES IDX 65 65 68 66 62 67 63 68 66 69 64 70 6 71 7 72 8 73 9 74
REMARK SMILES IDX 10 75 30 76 27 77 29 78 31 79 28 80 11 81 12 82 13 83 14 85
REMARK SMILES IDX 15 86 19 87 16 88 18 89 17 90 20 91 21 92 22 93 26 94 23 95
REMARK SMILES IDX 25 96 24 97
REMARK H PARENT 88 23 56 34 13 84
REMARK Flexibility Score: inf
ROOT
ATOM      1  C   UNL A   1      31.667  31.655  26.564  1.00  0.00     0.274 C 
ENDROOT
BRANCH   1   2
ATOM      2  C   UNL A   1      32.784  32.392  27.283  1.00  0.00     0.275 C 
BRANCH   2   3
ATOM      3  O   UNL A   1      32.397  33.687  27.782  1.00  0.00    -0.458 OA
BRANCH   3   4
ATOM      4  C   UNL A   1      33.038  34.567  28.580  1.00  0.00     0.338 C 
ATOM      5  O   UNL A   1      32.556  35.695  28.713  1.00  0.00    -0.246 OA
BRANCH   4   6
ATOM      6  C   UNL A   1      34.318  34.294  29.307  1.00  0.00     0.060 A 
ATOM      7  C   UNL A   1      35.600  34.372  28.759  1.00  0.00     0.016 A 
ATOM      8  C   UNL A   1      34.203  33.813  30.627  1.00  0.00     0.016 A 
ATOM      9  C   UNL A   1      36.738  34.020  29.507  1.00  0.00     0.010 A 
ATOM     10  C   UNL A   1      35.332  33.424  31.364  1.00  0.00     0.010 A 
ATOM     11  C   UNL A   1      36.614  33.523  30.807  1.00  0.00    -0.014 A 
BRANCH  11  12
ATOM     12  C   UNL A   1      37.775  32.909  31.503  1.00  0.00     0.031 A 
ATOM     13  C   UNL A   1      38.359  31.655  30.919  1.00  0.00     0.074 A 
ATOM     14  C   UNL A   1      38.330  33.438  32.611  1.00  0.00     0.049 A 
ATOM     15  N   UNL A   1      39.315  30.890  31.379  1.00  0.00    -0.248 NA
ATOM     16  C   UNL A   1      37.807  31.223  29.624  1.00  0.00     0.031 C 
ATOM     17  C   UNL A   1      37.966  34.710  33.218  1.00  0.00     0.029 A 
ATOM     18  N   UNL A   1      39.318  32.953  33.437  1.00  0.00    -0.354 N 
ATOM     19  C   UNL A   1      39.501  29.908  30.418  1.00  0.00     0.074 A 
ATOM     20  C   UNL A   1      38.536  30.148  29.367  1.00  0.00     0.031 C 
ATOM     21  C   UNL A   1      38.665  34.884  34.350  1.00  0.00     0.029 A 
ATOM     22  C   UNL A   1      39.520  33.720  34.561  1.00  0.00     0.049 A 
ATOM     23  H   UNL A   1      39.829  32.135  33.243  1.00  0.00     0.167 HD
ATOM     24  C   UNL A   1      40.404  28.903  30.405  1.00  0.00     0.037 A 
ATOM     25  C   UNL A   1      40.283  33.497  35.650  1.00  0.00     0.037 A 
ATOM     26  C   UNL A   1      41.338  28.632  31.461  1.00  0.00     0.049 A 
ATOM     27  C   UNL A   1      41.144  32.263  35.702  1.00  0.00     0.074 A 
ATOM     28  C   UNL A   1      42.260  27.605  31.556  1.00  0.00     0.029 A 
ATOM     29  N   UNL A   1      41.457  29.386  32.618  1.00  0.00    -0.354 N 
ATOM     30  N   UNL A   1      41.319  31.340  34.788  1.00  0.00    -0.248 NA
ATOM     31  C   UNL A   1      41.923  32.042  36.929  1.00  0.00     0.031 C 
ATOM     32  C   UNL A   1      42.903  27.710  32.794  1.00  0.00     0.029 A 
ATOM     33  C   UNL A   1      42.413  28.827  33.451  1.00  0.00     0.049 A 
ATOM     34  H   UNL A   1      40.939  30.199  32.818  1.00  0.00     0.167 HD
ATOM     35  C   UNL A   1      42.256  30.459  35.309  1.00  0.00     0.074 A 
ATOM     36  C   UNL A   1      42.615  30.956  36.619  1.00  0.00     0.031 C 
ATOM     37  C   UNL A   1      42.776  29.341  34.745  1.00  0.00     0.037 A 
BRANCH  24  38
ATOM     38  C   UNL A   1      40.384  27.998  29.213  1.00  0.00     0.064 A 
ATOM     39  C   UNL A   1      41.129  28.291  28.061  1.00  0.00     0.173 A 
ATOM     40  C   UNL A   1      39.599  26.838  29.219  1.00  0.00     0.173 A 
ATOM     41  F   UNL A   1      41.873  29.405  28.003  1.00  0.00    -0.203 F 
ATOM     42  C   UNL A   1      41.070  27.460  26.946  1.00  0.00     0.198 A 
ATOM     43  C   UNL A   1      39.558  25.999  28.110  1.00  0.00     0.198 A 
ATOM     44  F   UNL A   1      38.863  26.524  30.296  1.00  0.00    -0.203 F 
ATOM     45  F   UNL A   1      41.753  27.778  25.838  1.00  0.00    -0.200 F 
ATOM     46  C   UNL A   1      40.288  26.313  26.972  1.00  0.00     0.200 A 
ATOM     47  F   UNL A   1      38.803  24.893  28.136  1.00  0.00    -0.200 F 
ATOM     48  F   UNL A   1      40.228  25.518  25.897  1.00  0.00    -0.200 F 
ENDBRANCH  24  38
BRANCH  25  49
ATOM     49  C   UNL A   1      40.249  34.438  36.803  1.00  0.00     0.064 A 
ATOM     50  C   UNL A   1      41.154  35.503  36.902  1.00  0.00     0.173 A 
ATOM     51  C   UNL A   1      39.349  34.248  37.863  1.00  0.00     0.173 A 
ATOM     52  F   UNL A   1      42.054  35.710  35.930  1.00  0.00    -0.203 F 
ATOM     53  C   UNL A   1      41.181  36.323  38.030  1.00  0.00     0.198 A 
ATOM     54  C   UNL A   1      39.357  35.085  38.977  1.00  0.00     0.198 A 
ATOM     55  F   UNL A   1      38.469  33.236  37.826  1.00  0.00    -0.203 F 
ATOM     56  F   UNL A   1      42.100  37.294  38.127  1.00  0.00    -0.200 F 
ATOM     57  C   UNL A   1      40.281  36.115  39.065  1.00  0.00     0.200 A 
ATOM     58  F   UNL A   1      38.486  34.881  39.974  1.00  0.00    -0.200 F 
ATOM     59  F   UNL A   1      40.319  36.894  40.155  1.00  0.00    -0.200 F 
ENDBRANCH  25  49
BRANCH  37  60
ATOM     60  C   UNL A   1      43.820  28.599  35.523  1.00  0.00     0.064 A 
ATOM     61  C   UNL A   1      45.187  28.873  35.366  1.00  0.00     0.173 A 
ATOM     62  C   UNL A   1      43.446  27.637  36.473  1.00  0.00     0.173 A 
ATOM     63  F   UNL A   1      45.594  29.772  34.458  1.00  0.00    -0.203 F 
ATOM     64  C   UNL A   1      46.142  28.197  36.119  1.00  0.00     0.198 A 
ATOM     65  C   UNL A   1      44.402  26.980  37.243  1.00  0.00     0.198 A 
ATOM     66  F   UNL A   1      42.151  27.341  36.662  1.00  0.00    -0.203 F 
ATOM     67  F   UNL A   1      47.444  28.444  35.926  1.00  0.00    -0.200 F 
ATOM     68  C   UNL A   1      45.749  27.258  37.062  1.00  0.00     0.200 A 
ATOM     69  F   UNL A   1      44.020  26.083  38.162  1.00  0.00    -0.200 F 
ATOM     70  F   UNL A   1      46.670  26.615  37.794  1.00  0.00    -0.200 F 
ENDBRANCH  37  60
ENDBRANCH  11  12
ENDBRANCH   4   6
ENDBRANCH   3   4
ENDBRANCH   2   3
ENDBRANCH   1   2
BRANCH   1  71
ATOM     71  O   UNL A   1      31.749  30.232  26.764  1.00  0.00    -0.462 OA
BRANCH  71  72
ATOM     72  C   UNL A   1      32.325  29.557  25.751  1.00  0.00     0.312 C 
ATOM     73  O   UNL A   1      33.545  29.409  25.637  1.00  0.00    -0.252 OA
BRANCH  72  74
ATOM     74  C   UNL A   1      31.407  29.036  24.687  1.00  0.00     0.147 C 
ATOM     75  C   UNL A   1      30.659  27.765  25.142  1.00  0.00     0.129 C 
ATOM     76  C   UNL A   1      31.842  28.617  23.274  1.00  0.00     0.157 C 
ATOM     77  C   UNL A   1      30.400  27.075  23.805  1.00  0.00     0.155 C 
ATOM     78  C   UNL A   1      30.654  28.845  22.381  1.00  0.00     0.004 C 
ATOM     79  O   UNL A   1      31.750  27.166  23.275  1.00  0.00    -0.365 OA
ATOM     80  C   UNL A   1      29.728  27.958  22.781  1.00  0.00     0.004 C 
BRANCH  75  81
ATOM     81  C   UNL A   1      31.480  26.838  26.059  1.00  0.00     0.231 C 
ATOM     82  O   UNL A   1      31.403  26.935  27.284  1.00  0.00    -0.274 OA
ATOM     83  N   UNL A   1      32.387  25.970  25.458  1.00  0.00    -0.325 N 
ATOM     84  H   UNL A   1      33.215  26.352  25.085  1.00  0.00     0.169 HD
BRANCH  83  85
ATOM     85  C   UNL A   1      32.189  24.556  25.350  1.00  0.00     0.044 A 
ATOM     86  C   UNL A   1      30.947  24.033  25.736  1.00  0.00     0.026 A 
ATOM     87  C   UNL A   1      33.257  23.673  25.014  1.00  0.00    -0.020 A 
ATOM     88  C   UNL A   1      30.742  22.656  25.786  1.00  0.00     0.002 A 
ATOM     89  C   UNL A   1      33.019  22.288  25.081  1.00  0.00     0.006 A 
ATOM     90  C   UNL A   1      31.776  21.786  25.468  1.00  0.00     0.000 A 
BRANCH  87  91
ATOM     91  C   UNL A   1      34.527  24.137  24.329  1.00  0.00     0.073 C 
BRANCH  91  92
ATOM     92  C   UNL A   1      35.874  23.473  24.577  1.00  0.00    -0.044 A 
ATOM     93  C   UNL A   1      36.223  22.301  23.893  1.00  0.00     0.004 A 
ATOM     94  C   UNL A   1      36.705  23.884  25.631  1.00  0.00     0.004 A 
ATOM     95  C   UNL A   1      37.294  21.502  24.311  1.00  0.00     0.000 A 
ATOM     96  C   UNL A   1      37.799  23.105  26.030  1.00  0.00     0.000 A 
ATOM     97  C   UNL A   1      38.074  21.898  25.390  1.00  0.00     0.000 A 
ENDBRANCH  91  92
ENDBRANCH  87  91
ENDBRANCH  83  85
ENDBRANCH  75  81
ENDBRANCH  72  74
ENDBRANCH  71  72
ENDBRANCH   1  71
TORSDOF 15
ENDMDL
