MODEL 1
REMARK VINA RESULT:     -12.5      0.000      0.000
REMARK SMILES Cc1cc(OC(F)(F)F)cc2c1O[C@@H](C(F)(F)F)C(C(=O)OCCOC(=O)c1ccc(-c3c4nc(c(-c5c(F)c(F)c(F)c(F)c5F)c5ccc([nH]5)c(-c5c(F)c(F)c(F)c(F)c5F)c5nc(c(-c6c(F)c(F)c(F)c(F)c6F)c6ccc3[nH]6)C=C5)C=C4)cc1)=C2
REMARK SMILES IDX 23 1 22 2 20 3 21 4 19 5 1 6 2 7 3 8 12 9 4 10 11 11 13 12
REMARK SMILES IDX 10 13 91 14 14 15 5 16 6 17 7 18 8 19 9 20 15 21 16 22 17 23
REMARK SMILES IDX 18 24 24 25 25 26 26 27 27 28 28 29 29 30 90 31 30 32 89 33
REMARK SMILES IDX 31 34 32 35 33 36 83 37 34 38 88 39 82 40 84 41 35 42 87 43
REMARK SMILES IDX 81 44 80 45 36 47 68 48 48 49 67 50 49 51 52 52 66 53 85 54
REMARK SMILES IDX 50 55 51 56 65 58 86 59 53 60 37 61 38 62 46 63 39 64 40 65
REMARK SMILES IDX 44 66 47 67 41 68 42 69 45 70 43 71 69 72 70 73 78 74 71 75
REMARK SMILES IDX 72 76 76 77 79 78 73 79 74 80 77 81 75 82 54 83 55 84 63 85
REMARK SMILES IDX 56 86 57 87 61 88 64 89 58 90 59 91 62 92 60 93
REMARK H PARENT 84 46 52 57
REMARK Flexibility Score: inf
ROOT
ATOM      1  C   UNL A   1      31.473  29.455  25.348  1.00  0.00     0.275 C 
ENDROOT
BRANCH   1   2
ATOM      2  O   UNL A   1      32.497  28.604  25.906  1.00  0.00    -0.459 OA
BRANCH   2   3
ATOM      3  C   UNL A   1      32.063  27.510  26.565  1.00  0.00     0.338 C 
ATOM      4  O   UNL A   1      31.360  27.503  27.563  1.00  0.00    -0.246 OA
BRANCH   3   5
ATOM      5  C   UNL A   1      32.479  26.281  25.861  1.00  0.00     0.087 C 
ATOM      6  C   UNL A   1      32.905  22.527  22.399  1.00  0.00     0.048 C 
ATOM      7  C   UNL A   1      33.823  23.189  23.387  1.00  0.00    -0.005 A 
ATOM      8  C   UNL A   1      35.158  22.755  23.510  1.00  0.00     0.054 A 
ATOM      9  C   UNL A   1      33.368  24.240  24.192  1.00  0.00     0.131 A 
ATOM     10  C   UNL A   1      36.033  23.372  24.408  1.00  0.00     0.130 A 
ATOM     11  C   UNL A   1      34.247  24.878  25.067  1.00  0.00     0.021 A 
ATOM     12  O   UNL A   1      32.070  24.662  24.043  1.00  0.00    -0.475 OA
ATOM     13  C   UNL A   1      35.568  24.435  25.184  1.00  0.00     0.058 A 
ATOM     14  C   UNL A   1      33.798  26.052  25.793  1.00  0.00     0.027 C 
ATOM     15  C   UNL A   1      31.482  25.390  25.169  1.00  0.00     0.316 C 
BRANCH  10  16
ATOM     16  O   UNL A   1      37.342  23.054  24.625  1.00  0.00    -0.406 OA
BRANCH  16  17
ATOM     17  C   UNL A   1      37.631  21.818  25.256  1.00  0.00     0.573 C 
ATOM     18  F   UNL A   1      38.802  21.875  25.922  1.00  0.00    -0.132 F 
ATOM     19  F   UNL A   1      36.643  21.465  26.106  1.00  0.00    -0.132 F 
ATOM     20  F   UNL A   1      37.730  20.861  24.307  1.00  0.00    -0.132 F 
ENDBRANCH  16  17
ENDBRANCH  10  16
BRANCH  15  21
ATOM     21  C   UNL A   1      30.738  24.402  26.087  1.00  0.00     0.430 C 
ATOM     22  F   UNL A   1      31.401  24.174  27.243  1.00  0.00    -0.167 F 
ATOM     23  F   UNL A   1      29.525  24.899  26.442  1.00  0.00    -0.167 F 
ATOM     24  F   UNL A   1      30.523  23.208  25.494  1.00  0.00    -0.167 F 
ENDBRANCH  15  21
ENDBRANCH   3   5
ENDBRANCH   2   3
ENDBRANCH   1   2
BRANCH   1  25
ATOM     25  C   UNL A   1      31.516  30.838  25.997  1.00  0.00     0.275 C 
BRANCH  25  26
ATOM     26  O   UNL A   1      32.371  30.809  27.156  1.00  0.00    -0.458 OA
BRANCH  26  27
ATOM     27  C   UNL A   1      33.168  31.888  27.327  1.00  0.00     0.338 C 
ATOM     28  O   UNL A   1      32.893  33.057  27.119  1.00  0.00    -0.246 OA
BRANCH  27  29
ATOM     29  C   UNL A   1      34.480  31.464  27.842  1.00  0.00     0.060 A 
ATOM     30  C   UNL A   1      34.706  30.121  28.133  1.00  0.00     0.016 A 
ATOM     31  C   UNL A   1      35.437  32.424  28.172  1.00  0.00     0.016 A 
ATOM     32  C   UNL A   1      35.838  29.744  28.853  1.00  0.00     0.010 A 
ATOM     33  C   UNL A   1      36.622  32.029  28.803  1.00  0.00     0.010 A 
ATOM     34  C   UNL A   1      36.815  30.691  29.192  1.00  0.00    -0.014 A 
BRANCH  34  35
ATOM     35  C   UNL A   1      38.012  30.295  29.986  1.00  0.00     0.031 A 
ATOM     36  C   UNL A   1      39.063  29.402  29.381  1.00  0.00     0.074 A 
ATOM     37  C   UNL A   1      38.178  30.753  31.243  1.00  0.00     0.049 A 
ATOM     38  N   UNL A   1      40.098  28.833  29.950  1.00  0.00    -0.248 NA
ATOM     39  C   UNL A   1      38.934  29.102  27.946  1.00  0.00     0.031 C 
ATOM     40  C   UNL A   1      37.268  31.662  31.940  1.00  0.00     0.029 A 
ATOM     41  N   UNL A   1      39.178  30.522  32.158  1.00  0.00    -0.354 N 
ATOM     42  C   UNL A   1      40.711  28.078  28.958  1.00  0.00     0.074 A 
ATOM     43  C   UNL A   1      39.932  28.251  27.752  1.00  0.00     0.031 C 
ATOM     44  C   UNL A   1      37.771  31.947  33.151  1.00  0.00     0.029 A 
ATOM     45  C   UNL A   1      38.996  31.179  33.351  1.00  0.00     0.049 A 
ATOM     46  H   UNL A   1      39.952  29.943  31.975  1.00  0.00     0.167 HD
ATOM     47  C   UNL A   1      41.827  27.315  29.046  1.00  0.00     0.037 A 
ATOM     48  C   UNL A   1      39.711  31.142  34.491  1.00  0.00     0.037 A 
ATOM     49  C   UNL A   1      42.632  27.180  30.232  1.00  0.00     0.049 A 
ATOM     50  C   UNL A   1      40.918  30.252  34.578  1.00  0.00     0.074 A 
ATOM     51  C   UNL A   1      43.783  26.433  30.413  1.00  0.00     0.029 A 
ATOM     52  N   UNL A   1      42.381  27.825  31.434  1.00  0.00    -0.354 N 
ATOM     53  N   UNL A   1      41.452  29.494  33.652  1.00  0.00    -0.248 NA
ATOM     54  C   UNL A   1      41.608  30.192  35.874  1.00  0.00     0.031 C 
ATOM     55  C   UNL A   1      44.213  26.602  31.733  1.00  0.00     0.029 A 
ATOM     56  C   UNL A   1      43.350  27.482  32.363  1.00  0.00     0.049 A 
ATOM     57  H   UNL A   1      41.627  28.435  31.602  1.00  0.00     0.167 HD
ATOM     58  C   UNL A   1      42.539  28.873  34.249  1.00  0.00     0.074 A 
ATOM     59  C   UNL A   1      42.605  29.358  35.612  1.00  0.00     0.031 C 
ATOM     60  C   UNL A   1      43.401  27.973  33.716  1.00  0.00     0.037 A 
BRANCH  47  61
ATOM     61  C   UNL A   1      42.244  26.542  27.830  1.00  0.00     0.064 A 
ATOM     62  C   UNL A   1      43.222  27.025  26.950  1.00  0.00     0.173 A 
ATOM     63  C   UNL A   1      41.706  25.270  27.582  1.00  0.00     0.173 A 
ATOM     64  F   UNL A   1      43.757  28.240  27.138  1.00  0.00    -0.203 F 
ATOM     65  C   UNL A   1      43.639  26.267  25.858  1.00  0.00     0.198 A 
ATOM     66  C   UNL A   1      42.142  24.505  26.504  1.00  0.00     0.198 A 
ATOM     67  F   UNL A   1      40.772  24.760  28.400  1.00  0.00    -0.203 F 
ATOM     68  F   UNL A   1      44.555  26.759  25.013  1.00  0.00    -0.200 F 
ATOM     69  C   UNL A   1      43.104  25.005  25.642  1.00  0.00     0.200 A 
ATOM     70  F   UNL A   1      41.634  23.281  26.303  1.00  0.00    -0.200 F 
ATOM     71  F   UNL A   1      43.517  24.272  24.598  1.00  0.00    -0.200 F 
ENDBRANCH  47  61
BRANCH  48  72
ATOM     72  C   UNL A   1      39.282  31.960  35.655  1.00  0.00     0.064 A 
ATOM     73  C   UNL A   1      38.365  31.455  36.587  1.00  0.00     0.173 A 
ATOM     74  C   UNL A   1      39.792  33.248  35.871  1.00  0.00     0.173 A 
ATOM     75  F   UNL A   1      37.828  30.239  36.407  1.00  0.00    -0.203 F 
ATOM     76  C   UNL A   1      37.975  32.210  37.691  1.00  0.00     0.198 A 
ATOM     77  C   UNL A   1      39.423  33.990  36.990  1.00  0.00     0.198 A 
ATOM     78  F   UNL A   1      40.671  33.775  35.006  1.00  0.00    -0.203 F 
ATOM     79  F   UNL A   1      37.075  31.717  38.552  1.00  0.00    -0.200 F 
ATOM     80  C   UNL A   1      38.512  33.472  37.898  1.00  0.00     0.200 A 
ATOM     81  F   UNL A   1      39.955  35.203  37.192  1.00  0.00    -0.200 F 
ATOM     82  F   UNL A   1      38.148  34.190  38.968  1.00  0.00    -0.200 F 
ENDBRANCH  48  72
BRANCH  60  83
ATOM     83  C   UNL A   1      44.495  27.458  34.601  1.00  0.00     0.064 A 
ATOM     84  C   UNL A   1      44.356  26.252  35.303  1.00  0.00     0.173 A 
ATOM     85  C   UNL A   1      45.716  28.142  34.697  1.00  0.00     0.173 A 
ATOM     86  F   UNL A   1      43.201  25.571  35.251  1.00  0.00    -0.203 F 
ATOM     87  C   UNL A   1      45.398  25.754  36.079  1.00  0.00     0.198 A 
ATOM     88  C   UNL A   1      46.764  27.630  35.457  1.00  0.00     0.198 A 
ATOM     89  F   UNL A   1      45.898  29.296  34.040  1.00  0.00    -0.203 F 
ATOM     90  F   UNL A   1      45.235  24.615  36.765  1.00  0.00    -0.200 F 
ATOM     91  C   UNL A   1      46.603  26.438  36.150  1.00  0.00     0.200 A 
ATOM     92  F   UNL A   1      47.931  28.286  35.517  1.00  0.00    -0.200 F 
ATOM     93  F   UNL A   1      47.609  25.952  36.889  1.00  0.00    -0.200 F 
ENDBRANCH  60  83
ENDBRANCH  34  35
ENDBRANCH  27  29
ENDBRANCH  26  27
ENDBRANCH  25  26
ENDBRANCH   1  25
TORSDOF 14
ENDMDL
MODEL 2
REMARK VINA RESULT:     -12.4      1.679      2.532
REMARK SMILES Cc1cc(OC(F)(F)F)cc2c1O[C@@H](C(F)(F)F)C(C(=O)OCCOC(=O)c1ccc(-c3c4nc(c(-c5c(F)c(F)c(F)c(F)c5F)c5ccc([nH]5)c(-c5c(F)c(F)c(F)c(F)c5F)c5nc(c(-c6c(F)c(F)c(F)c(F)c6F)c6ccc3[nH]6)C=C5)C=C4)cc1)=C2
REMARK SMILES IDX 23 1 22 2 20 3 21 4 19 5 1 6 2 7 3 8 12 9 4 10 11 11 13 12
REMARK SMILES IDX 10 13 91 14 14 15 5 16 6 17 7 18 8 19 9 20 15 21 16 22 17 23
REMARK SMILES IDX 18 24 24 25 25 26 26 27 27 28 28 29 29 30 90 31 30 32 89 33
REMARK SMILES IDX 31 34 32 35 33 36 83 37 34 38 88 39 82 40 84 41 35 42 87 43
REMARK SMILES IDX 81 44 80 45 36 47 68 48 48 49 67 50 49 51 52 52 66 53 85 54
REMARK SMILES IDX 50 55 51 56 65 58 86 59 53 60 37 61 38 62 46 63 39 64 40 65
REMARK SMILES IDX 44 66 47 67 41 68 42 69 45 70 43 71 69 72 70 73 78 74 71 75
REMARK SMILES IDX 72 76 76 77 79 78 73 79 74 80 77 81 75 82 54 83 55 84 63 85
REMARK SMILES IDX 56 86 57 87 61 88 64 89 58 90 59 91 62 92 60 93
REMARK H PARENT 84 46 52 57
REMARK Flexibility Score: inf
ROOT
ATOM      1  C   UNL A   1      31.721  28.758  27.079  1.00  0.00     0.275 C 
ENDROOT
BRANCH   1   2
ATOM      2  O   UNL A   1      32.485  27.625  26.615  1.00  0.00    -0.459 OA
BRANCH   2   3
ATOM      3  C   UNL A   1      31.810  26.463  26.495  1.00  0.00     0.338 C 
ATOM      4  O   UNL A   1      30.648  26.271  26.820  1.00  0.00    -0.246 OA
BRANCH   3   5
ATOM      5  C   UNL A   1      32.641  25.446  25.822  1.00  0.00     0.087 C 
ATOM      6  C   UNL A   1      36.615  22.950  23.766  1.00  0.00     0.048 C 
ATOM      7  C   UNL A   1      35.339  22.559  24.454  1.00  0.00    -0.005 A 
ATOM      8  C   UNL A   1      35.019  21.197  24.627  1.00  0.00     0.054 A 
ATOM      9  C   UNL A   1      34.455  23.536  24.930  1.00  0.00     0.131 A 
ATOM     10  C   UNL A   1      33.846  20.815  25.284  1.00  0.00     0.130 A 
ATOM     11  C   UNL A   1      33.299  23.155  25.612  1.00  0.00     0.021 A 
ATOM     12  O   UNL A   1      34.794  24.857  24.769  1.00  0.00    -0.475 OA
ATOM     13  C   UNL A   1      32.991  21.802  25.774  1.00  0.00     0.058 A 
ATOM     14  C   UNL A   1      32.466  24.178  26.218  1.00  0.00     0.027 C 
ATOM     15  C   UNL A   1      33.698  25.827  24.820  1.00  0.00     0.316 C 
BRANCH  10  16
ATOM     16  O   UNL A   1      33.419  19.539  25.520  1.00  0.00    -0.406 OA
BRANCH  16  17
ATOM     17  C   UNL A   1      33.041  18.748  24.406  1.00  0.00     0.573 C 
ATOM     18  F   UNL A   1      34.106  18.104  23.885  1.00  0.00    -0.132 F 
ATOM     19  F   UNL A   1      32.093  17.850  24.748  1.00  0.00    -0.132 F 
ATOM     20  F   UNL A   1      32.529  19.558  23.454  1.00  0.00    -0.132 F 
ENDBRANCH  16  17
ENDBRANCH  10  16
BRANCH  15  21
ATOM     21  C   UNL A   1      33.184  26.097  23.394  1.00  0.00     0.430 C 
ATOM     22  F   UNL A   1      34.028  25.632  22.445  1.00  0.00    -0.167 F 
ATOM     23  F   UNL A   1      32.000  25.465  23.184  1.00  0.00    -0.167 F 
ATOM     24  F   UNL A   1      32.983  27.412  23.157  1.00  0.00    -0.167 F 
ENDBRANCH  15  21
ENDBRANCH   3   5
ENDBRANCH   2   3
ENDBRANCH   1   2
BRANCH   1  25
ATOM     25  C   UNL A   1      31.802  29.905  26.071  1.00  0.00     0.275 C 
BRANCH  25  26
ATOM     26  O   UNL A   1      33.136  30.448  26.052  1.00  0.00    -0.458 OA
BRANCH  26  27
ATOM     27  C   UNL A   1      33.437  31.304  27.053  1.00  0.00     0.338 C 
ATOM     28  O   UNL A   1      32.759  32.225  27.475  1.00  0.00    -0.246 OA
BRANCH  27  29
ATOM     29  C   UNL A   1      34.750  30.964  27.624  1.00  0.00     0.060 A 
ATOM     30  C   UNL A   1      35.053  29.636  27.915  1.00  0.00     0.016 A 
ATOM     31  C   UNL A   1      35.625  31.982  28.004  1.00  0.00     0.016 A 
ATOM     32  C   UNL A   1      36.175  29.328  28.682  1.00  0.00     0.010 A 
ATOM     33  C   UNL A   1      36.805  31.660  28.685  1.00  0.00     0.010 A 
ATOM     34  C   UNL A   1      37.070  30.335  29.072  1.00  0.00    -0.014 A 
BRANCH  34  35
ATOM     35  C   UNL A   1      38.255  30.012  29.916  1.00  0.00     0.031 A 
ATOM     36  C   UNL A   1      39.361  29.145  29.373  1.00  0.00     0.074 A 
ATOM     37  C   UNL A   1      38.360  30.512  31.164  1.00  0.00     0.049 A 
ATOM     38  N   UNL A   1      40.397  28.636  29.992  1.00  0.00    -0.248 NA
ATOM     39  C   UNL A   1      39.291  28.798  27.944  1.00  0.00     0.031 C 
ATOM     40  C   UNL A   1      37.391  31.403  31.803  1.00  0.00     0.029 A 
ATOM     41  N   UNL A   1      39.337  30.349  32.117  1.00  0.00    -0.354 N 
ATOM     42  C   UNL A   1      41.073  27.878  29.045  1.00  0.00     0.074 A 
ATOM     43  C   UNL A   1      40.329  27.984  27.809  1.00  0.00     0.031 C 
ATOM     44  C   UNL A   1      37.841  31.743  33.020  1.00  0.00     0.029 A 
ATOM     45  C   UNL A   1      39.088  31.032  33.282  1.00  0.00     0.049 A 
ATOM     46  H   UNL A   1      40.139  29.797  31.977  1.00  0.00     0.167 HD
ATOM     47  C   UNL A   1      42.215  27.164  29.192  1.00  0.00     0.037 A 
ATOM     48  C   UNL A   1      39.765  31.058  34.446  1.00  0.00     0.037 A 
ATOM     49  C   UNL A   1      42.985  27.097  30.407  1.00  0.00     0.049 A 
ATOM     50  C   UNL A   1      41.004  30.221  34.599  1.00  0.00     0.074 A 
ATOM     51  C   UNL A   1      44.158  26.404  30.648  1.00  0.00     0.029 A 
ATOM     52  N   UNL A   1      42.668  27.766  31.579  1.00  0.00    -0.354 N 
ATOM     53  N   UNL A   1      41.599  29.460  33.714  1.00  0.00    -0.248 NA
ATOM     54  C   UNL A   1      41.652  30.227  35.918  1.00  0.00     0.031 C 
ATOM     55  C   UNL A   1      44.536  26.628  31.975  1.00  0.00     0.029 A 
ATOM     56  C   UNL A   1      43.618  27.490  32.550  1.00  0.00     0.049 A 
ATOM     57  H   UNL A   1      41.885  28.349  31.704  1.00  0.00     0.167 HD
ATOM     58  C   UNL A   1      42.689  28.901  34.365  1.00  0.00     0.074 A 
ATOM     59  C   UNL A   1      42.690  29.427  35.714  1.00  0.00     0.031 C 
ATOM     60  C   UNL A   1      43.603  28.022  33.888  1.00  0.00     0.037 A 
BRANCH  47  61
ATOM     61  C   UNL A   1      42.704  26.374  28.014  1.00  0.00     0.064 A 
ATOM     62  C   UNL A   1      42.299  25.051  27.794  1.00  0.00     0.173 A 
ATOM     63  C   UNL A   1      43.535  26.976  27.056  1.00  0.00     0.173 A 
ATOM     64  F   UNL A   1      41.514  24.429  28.686  1.00  0.00    -0.203 F 
ATOM     65  C   UNL A   1      42.717  24.354  26.663  1.00  0.00     0.198 A 
ATOM     66  C   UNL A   1      43.933  26.283  25.915  1.00  0.00     0.198 A 
ATOM     67  F   UNL A   1      43.946  28.243  27.217  1.00  0.00    -0.203 F 
ATOM     68  F   UNL A   1      42.339  23.080  26.486  1.00  0.00    -0.200 F 
ATOM     69  C   UNL A   1      43.526  24.973  25.722  1.00  0.00     0.200 A 
ATOM     70  F   UNL A   1      44.703  26.888  25.001  1.00  0.00    -0.200 F 
ATOM     71  F   UNL A   1      43.915  24.304  24.627  1.00  0.00    -0.200 F 
ENDBRANCH  47  61
BRANCH  48  72
ATOM     72  C   UNL A   1      39.265  31.891  35.570  1.00  0.00     0.064 A 
ATOM     73  C   UNL A   1      38.394  31.354  36.528  1.00  0.00     0.173 A 
ATOM     74  C   UNL A   1      39.662  33.228  35.723  1.00  0.00     0.173 A 
ATOM     75  F   UNL A   1      37.965  30.089  36.408  1.00  0.00    -0.203 F 
ATOM     76  C   UNL A   1      37.939  32.125  37.595  1.00  0.00     0.198 A 
ATOM     77  C   UNL A   1      39.227  33.988  36.805  1.00  0.00     0.198 A 
ATOM     78  F   UNL A   1      40.493  33.786  34.830  1.00  0.00    -0.203 F 
ATOM     79  F   UNL A   1      37.083  31.598  38.481  1.00  0.00    -0.200 F 
ATOM     80  C   UNL A   1      38.363  33.437  37.739  1.00  0.00     0.200 A 
ATOM     81  F   UNL A   1      39.652  35.251  36.947  1.00  0.00    -0.200 F 
ATOM     82  F   UNL A   1      37.936  34.173  38.774  1.00  0.00    -0.200 F 
ENDBRANCH  48  72
BRANCH  60  83
ATOM     83  C   UNL A   1      44.687  27.578  34.823  1.00  0.00     0.064 A 
ATOM     84  C   UNL A   1      45.875  28.311  34.958  1.00  0.00     0.173 A 
ATOM     85  C   UNL A   1      44.511  26.449  35.635  1.00  0.00     0.173 A 
ATOM     86  F   UNL A   1      46.093  29.391  34.192  1.00  0.00    -0.203 F 
ATOM     87  C   UNL A   1      46.854  27.921  35.868  1.00  0.00     0.198 A 
ATOM     88  C   UNL A   1      45.483  26.074  36.559  1.00  0.00     0.198 A 
ATOM     89  F   UNL A   1      43.390  25.720  35.545  1.00  0.00    -0.203 F 
ATOM     90  F   UNL A   1      47.994  28.619  35.962  1.00  0.00    -0.200 F 
ATOM     91  C   UNL A   1      46.654  26.809  36.673  1.00  0.00     0.200 A 
ATOM     92  F   UNL A   1      45.285  25.006  37.343  1.00  0.00    -0.200 F 
ATOM     93  F   UNL A   1      47.592  26.442  37.556  1.00  0.00    -0.200 F 
ENDBRANCH  60  83
ENDBRANCH  34  35
ENDBRANCH  27  29
ENDBRANCH  26  27
ENDBRANCH  25  26
ENDBRANCH   1  25
TORSDOF 14
ENDMDL
MODEL 3
REMARK VINA RESULT:     -12.2      0.448      1.738
REMARK SMILES Cc1cc(OC(F)(F)F)cc2c1O[C@@H](C(F)(F)F)C(C(=O)OCCOC(=O)c1ccc(-c3c4nc(c(-c5c(F)c(F)c(F)c(F)c5F)c5ccc([nH]5)c(-c5c(F)c(F)c(F)c(F)c5F)c5nc(c(-c6c(F)c(F)c(F)c(F)c6F)c6ccc3[nH]6)C=C5)C=C4)cc1)=C2
REMARK SMILES IDX 23 1 22 2 20 3 21 4 19 5 1 6 2 7 3 8 12 9 4 10 11 11 13 12
REMARK SMILES IDX 10 13 91 14 14 15 5 16 6 17 7 18 8 19 9 20 15 21 16 22 17 23
REMARK SMILES IDX 18 24 24 25 25 26 26 27 27 28 28 29 29 30 90 31 30 32 89 33
REMARK SMILES IDX 31 34 32 35 33 36 83 37 34 38 88 39 82 40 84 41 35 42 87 43
REMARK SMILES IDX 81 44 80 45 36 47 68 48 48 49 67 50 49 51 52 52 66 53 85 54
REMARK SMILES IDX 50 55 51 56 65 58 86 59 53 60 37 61 38 62 46 63 39 64 40 65
REMARK SMILES IDX 44 66 47 67 41 68 42 69 45 70 43 71 69 72 70 73 78 74 71 75
REMARK SMILES IDX 72 76 76 77 79 78 73 79 74 80 77 81 75 82 54 83 55 84 63 85
REMARK SMILES IDX 56 86 57 87 61 88 64 89 58 90 59 91 62 92 60 93
REMARK H PARENT 84 46 52 57
REMARK Flexibility Score: inf
ROOT
ATOM      1  C   UNL A   1      32.441  29.122  25.298  1.00  0.00     0.275 C 
ENDROOT
BRANCH   1   2
ATOM      2  O   UNL A   1      31.387  28.137  25.248  1.00  0.00    -0.459 OA
BRANCH   2   3
ATOM      3  C   UNL A   1      31.423  27.181  26.198  1.00  0.00     0.338 C 
ATOM      4  O   UNL A   1      31.013  27.289  27.343  1.00  0.00    -0.246 OA
BRANCH   3   5
ATOM      5  C   UNL A   1      31.955  25.920  25.646  1.00  0.00     0.087 C 
ATOM      6  C   UNL A   1      32.636  21.743  22.758  1.00  0.00     0.048 C 
ATOM      7  C   UNL A   1      33.526  22.671  23.533  1.00  0.00    -0.005 A 
ATOM      8  C   UNL A   1      34.916  22.441  23.580  1.00  0.00     0.054 A 
ATOM      9  C   UNL A   1      32.990  23.770  24.216  1.00  0.00     0.131 A 
ATOM     10  C   UNL A   1      35.762  23.306  24.279  1.00  0.00     0.130 A 
ATOM     11  C   UNL A   1      33.837  24.650  24.889  1.00  0.00     0.021 A 
ATOM     12  O   UNL A   1      31.637  23.988  24.143  1.00  0.00    -0.475 OA
ATOM     13  C   UNL A   1      35.213  24.410  24.932  1.00  0.00     0.058 A 
ATOM     14  C   UNL A   1      33.283  25.857  25.475  1.00  0.00     0.027 C 
ATOM     15  C   UNL A   1      31.044  24.805  25.204  1.00  0.00     0.316 C 
BRANCH  10  16
ATOM     16  O   UNL A   1      37.118  23.202  24.402  1.00  0.00    -0.406 OA
BRANCH  16  17
ATOM     17  C   UNL A   1      37.634  22.591  25.573  1.00  0.00     0.573 C 
ATOM     18  F   UNL A   1      36.681  21.878  26.208  1.00  0.00    -0.132 F 
ATOM     19  F   UNL A   1      38.679  21.788  25.281  1.00  0.00    -0.132 F 
ATOM     20  F   UNL A   1      38.068  23.558  26.410  1.00  0.00    -0.132 F 
ENDBRANCH  16  17
ENDBRANCH  10  16
BRANCH  15  21
ATOM     21  C   UNL A   1      30.532  23.890  26.331  1.00  0.00     0.430 C 
ATOM     22  F   UNL A   1      30.304  22.627  25.906  1.00  0.00    -0.167 F 
ATOM     23  F   UNL A   1      31.453  23.792  27.324  1.00  0.00    -0.167 F 
ATOM     24  F   UNL A   1      29.389  24.349  26.889  1.00  0.00    -0.167 F 
ENDBRANCH  15  21
ENDBRANCH   3   5
ENDBRANCH   2   3
ENDBRANCH   1   2
BRANCH   1  25
ATOM     25  C   UNL A   1      31.896  30.462  25.792  1.00  0.00     0.275 C 
BRANCH  25  26
ATOM     26  O   UNL A   1      32.346  30.709  27.138  1.00  0.00    -0.458 OA
BRANCH  26  27
ATOM     27  C   UNL A   1      33.123  31.802  27.308  1.00  0.00     0.338 C 
ATOM     28  O   UNL A   1      32.821  32.967  27.115  1.00  0.00    -0.246 OA
BRANCH  27  29
ATOM     29  C   UNL A   1      34.451  31.400  27.800  1.00  0.00     0.060 A 
ATOM     30  C   UNL A   1      34.703  30.062  28.089  1.00  0.00     0.016 A 
ATOM     31  C   UNL A   1      35.398  32.376  28.110  1.00  0.00     0.016 A 
ATOM     32  C   UNL A   1      35.854  29.704  28.789  1.00  0.00     0.010 A 
ATOM     33  C   UNL A   1      36.601  32.000  28.720  1.00  0.00     0.010 A 
ATOM     34  C   UNL A   1      36.822  30.667  29.108  1.00  0.00    -0.014 A 
BRANCH  34  35
ATOM     35  C   UNL A   1      38.040  30.292  29.881  1.00  0.00     0.031 A 
ATOM     36  C   UNL A   1      39.084  29.398  29.266  1.00  0.00     0.074 A 
ATOM     37  C   UNL A   1      38.229  30.769  31.128  1.00  0.00     0.049 A 
ATOM     38  N   UNL A   1      40.135  28.846  29.819  1.00  0.00    -0.248 NA
ATOM     39  C   UNL A   1      38.925  29.077  27.838  1.00  0.00     0.031 C 
ATOM     40  C   UNL A   1      37.328  31.681  31.832  1.00  0.00     0.029 A 
ATOM     41  N   UNL A   1      39.251  30.559  32.023  1.00  0.00    -0.354 N 
ATOM     42  C   UNL A   1      40.733  28.082  28.825  1.00  0.00     0.074 A 
ATOM     43  C   UNL A   1      39.926  28.231  27.634  1.00  0.00     0.031 C 
ATOM     44  C   UNL A   1      37.855  31.987  33.027  1.00  0.00     0.029 A 
ATOM     45  C   UNL A   1      39.090  31.231  33.210  1.00  0.00     0.049 A 
ATOM     46  H   UNL A   1      40.026  29.983  31.831  1.00  0.00     0.167 HD
ATOM     47  C   UNL A   1      41.856  27.328  28.899  1.00  0.00     0.037 A 
ATOM     48  C   UNL A   1      39.830  31.217  34.335  1.00  0.00     0.037 A 
ATOM     49  C   UNL A   1      42.689  27.217  30.069  1.00  0.00     0.049 A 
ATOM     50  C   UNL A   1      41.046  30.337  34.407  1.00  0.00     0.074 A 
ATOM     51  C   UNL A   1      43.850  26.482  30.235  1.00  0.00     0.029 A 
ATOM     52  N   UNL A   1      42.459  27.877  31.266  1.00  0.00    -0.354 N 
ATOM     53  N   UNL A   1      41.566  29.571  33.480  1.00  0.00    -0.248 NA
ATOM     54  C   UNL A   1      41.765  30.302  35.688  1.00  0.00     0.031 C 
ATOM     55  C   UNL A   1      44.307  26.672  31.542  1.00  0.00     0.029 A 
ATOM     56  C   UNL A   1      43.451  27.555  32.179  1.00  0.00     0.049 A 
ATOM     57  H   UNL A   1      41.705  28.483  31.442  1.00  0.00     0.167 HD
ATOM     58  C   UNL A   1      42.671  28.966  34.062  1.00  0.00     0.074 A 
ATOM     59  C   UNL A   1      42.763  29.471  35.416  1.00  0.00     0.031 C 
ATOM     60  C   UNL A   1      43.528  28.065  33.523  1.00  0.00     0.037 A 
BRANCH  47  61
ATOM     61  C   UNL A   1      42.253  26.541  27.685  1.00  0.00     0.064 A 
ATOM     62  C   UNL A   1      43.262  26.982  26.818  1.00  0.00     0.173 A 
ATOM     63  C   UNL A   1      41.661  25.296  27.426  1.00  0.00     0.173 A 
ATOM     64  F   UNL A   1      43.850  28.171  27.018  1.00  0.00    -0.203 F 
ATOM     65  C   UNL A   1      43.657  26.210  25.729  1.00  0.00     0.198 A 
ATOM     66  C   UNL A   1      42.075  24.515  26.350  1.00  0.00     0.198 A 
ATOM     67  F   UNL A   1      40.695  24.826  28.230  1.00  0.00    -0.203 F 
ATOM     68  F   UNL A   1      44.606  26.663  24.897  1.00  0.00    -0.200 F 
ATOM     69  C   UNL A   1      43.069  24.974  25.501  1.00  0.00     0.200 A 
ATOM     70  F   UNL A   1      41.514  23.316  26.139  1.00  0.00    -0.200 F 
ATOM     71  F   UNL A   1      43.461  24.226  24.460  1.00  0.00    -0.200 F 
ENDBRANCH  47  61
BRANCH  48  72
ATOM     72  C   UNL A   1      39.420  32.047  35.496  1.00  0.00     0.064 A 
ATOM     73  C   UNL A   1      39.865  33.370  35.624  1.00  0.00     0.173 A 
ATOM     74  C   UNL A   1      38.562  31.547  36.486  1.00  0.00     0.173 A 
ATOM     75  F   UNL A   1      40.709  33.884  34.718  1.00  0.00    -0.203 F 
ATOM     76  C   UNL A   1      39.466  34.160  36.701  1.00  0.00     0.198 A 
ATOM     77  C   UNL A   1      38.142  32.346  37.546  1.00  0.00     0.198 A 
ATOM     78  F   UNL A   1      38.111  30.286  36.408  1.00  0.00    -0.203 F 
ATOM     79  F   UNL A   1      39.929  35.412  36.817  1.00  0.00    -0.200 F 
ATOM     80  C   UNL A   1      38.598  33.652  37.655  1.00  0.00     0.200 A 
ATOM     81  F   UNL A   1      37.292  31.855  38.458  1.00  0.00    -0.200 F 
ATOM     82  F   UNL A   1      38.203  34.417  38.681  1.00  0.00    -0.200 F 
ENDBRANCH  48  72
BRANCH  60  83
ATOM     83  C   UNL A   1      44.646  27.572  34.390  1.00  0.00     0.064 A 
ATOM     84  C   UNL A   1      45.858  28.271  34.482  1.00  0.00     0.173 A 
ATOM     85  C   UNL A   1      44.482  26.427  35.183  1.00  0.00     0.173 A 
ATOM     86  F   UNL A   1      46.065  29.364  33.732  1.00  0.00    -0.203 F 
ATOM     87  C   UNL A   1      46.871  27.835  35.331  1.00  0.00     0.198 A 
ATOM     88  C   UNL A   1      45.489  26.006  36.047  1.00  0.00     0.198 A 
ATOM     89  F   UNL A   1      43.339  25.729  35.134  1.00  0.00    -0.203 F 
ATOM     90  F   UNL A   1      48.032  28.501  35.383  1.00  0.00    -0.200 F 
ATOM     91  C   UNL A   1      46.683  26.708  36.118  1.00  0.00     0.200 A 
ATOM     92  F   UNL A   1      45.303  24.923  36.815  1.00  0.00    -0.200 F 
ATOM     93  F   UNL A   1      47.655  26.296  36.943  1.00  0.00    -0.200 F 
ENDBRANCH  60  83
ENDBRANCH  34  35
ENDBRANCH  27  29
ENDBRANCH  26  27
ENDBRANCH  25  26
ENDBRANCH   1  25
TORSDOF 14
ENDMDL
