MODEL 1
REMARK VINA RESULT:     -11.3      0.000      0.000
REMARK SMILES C[NH2+][C@@](C)(CC[N@@H+](C)C1CCC(C)(C)CC1)C(=O)OCCOC(=O)c1ccc(-c2c3nc(c(-c4c(F)c(F)c(F)c(F)c4F)c4ccc([nH]4)c(-c4c(F)c(F)c(F)c(F)c4F)c4nc(c(-c5c(F)c(F)c(F)c(F)c5F)c5ccc2[nH]5)C=C4)C=C3)cc1
REMARK SMILES IDX 20 1 19 2 17 3 18 4 3 5 4 6 2 7 1 8 5 11 6 12 7 13 8 14 9 16
REMARK SMILES IDX 10 17 16 18 11 19 15 20 12 21 13 22 14 23 21 24 22 25 23 26
REMARK SMILES IDX 24 27 25 28 26 29 87 30 27 31 86 32 28 33 29 34 30 35 80 36
REMARK SMILES IDX 31 37 85 38 79 39 81 40 32 41 84 42 78 43 77 44 33 46 65 47
REMARK SMILES IDX 45 48 64 49 46 50 49 51 63 52 82 53 47 54 48 55 62 57 83 58
REMARK SMILES IDX 50 59 34 60 35 61 43 62 36 63 37 64 41 65 44 66 38 67 39 68
REMARK SMILES IDX 42 69 40 70 66 71 67 72 75 73 68 74 69 75 73 76 76 77 70 78
REMARK SMILES IDX 71 79 74 80 72 81 51 82 52 83 60 84 53 85 54 86 58 87 61 88
REMARK SMILES IDX 55 89 56 90 59 91 57 92
REMARK H PARENT 2 9 2 10 7 15 81 45 49 56
REMARK Flexibility Score: inf
ROOT
ATOM      1  C   UNL A   1      36.168  19.621  24.853  1.00  0.00     0.274 C 
ENDROOT
BRANCH   1   2
ATOM      2  O   UNL A   1      35.294  20.520  25.560  1.00  0.00    -0.457 OA
BRANCH   2   3
ATOM      3  C   UNL A   1      34.307  21.033  24.776  1.00  0.00     0.368 C 
ATOM      4  O   UNL A   1      34.521  21.853  23.884  1.00  0.00    -0.245 OA
BRANCH   3   5
ATOM      5  C   UNL A   1      32.905  20.426  25.037  1.00  0.00     0.196 C 
ATOM      6  C   UNL A   1      32.531  19.608  23.766  1.00  0.00     0.092 C 
BRANCH   5   7
ATOM      7  N   UNL A   1      32.895  19.401  26.127  1.00  0.00    -0.335 N 
ATOM      8  C   UNL A   1      32.751  18.007  25.750  1.00  0.00     0.331 C 
ATOM      9  H   UNL A   1      33.776  19.488  26.633  1.00  0.00     0.347 HD
ATOM     10  H   UNL A   1      32.052  19.608  26.664  1.00  0.00     0.347 HD
ENDBRANCH   5   7
BRANCH   5  11
ATOM     11  C   UNL A   1      31.739  21.456  25.265  1.00  0.00     0.142 C 
BRANCH  11  12
ATOM     12  C   UNL A   1      31.748  22.800  26.077  1.00  0.00     0.269 C 
BRANCH  12  13
ATOM     13  N   UNL A   1      32.751  23.808  26.420  1.00  0.00    -0.335 N 
ATOM     14  C   UNL A   1      33.794  23.323  27.314  1.00  0.00     0.332 C 
ATOM     15  H   UNL A   1      31.871  24.315  26.332  1.00  0.00     0.348 HD
BRANCH  13  16
ATOM     16  C   UNL A   1      32.967  25.150  25.890  1.00  0.00     0.183 C 
ATOM     17  C   UNL A   1      32.984  25.381  24.357  1.00  0.00     0.065 C 
ATOM     18  C   UNL A   1      32.095  26.217  26.492  1.00  0.00     0.065 C 
ATOM     19  C   UNL A   1      31.642  25.703  23.679  1.00  0.00     0.012 C 
ATOM     20  C   UNL A   1      30.675  26.178  25.954  1.00  0.00     0.012 C 
ATOM     21  C   UNL A   1      30.646  26.586  24.475  1.00  0.00    -0.035 C 
ATOM     22  C   UNL A   1      29.225  26.361  23.927  1.00  0.00     0.011 C 
ATOM     23  C   UNL A   1      30.943  28.094  24.339  1.00  0.00     0.011 C 
ENDBRANCH  13  16
ENDBRANCH  12  13
ENDBRANCH  11  12
ENDBRANCH   5  11
ENDBRANCH   3   5
ENDBRANCH   2   3
ENDBRANCH   1   2
BRANCH   1  24
ATOM     24  C   UNL A   1      37.557  20.237  24.662  1.00  0.00     0.275 C 
BRANCH  24  25
ATOM     25  O   UNL A   1      37.981  21.078  25.751  1.00  0.00    -0.458 OA
BRANCH  25  26
ATOM     26  C   UNL A   1      39.277  20.970  26.127  1.00  0.00     0.338 C 
ATOM     27  O   UNL A   1      39.934  19.960  26.244  1.00  0.00    -0.246 OA
BRANCH  26  28
ATOM     28  C   UNL A   1      39.735  22.309  26.545  1.00  0.00     0.060 A 
ATOM     29  C   UNL A   1      40.838  22.368  27.384  1.00  0.00     0.016 A 
ATOM     30  C   UNL A   1      39.089  23.485  26.152  1.00  0.00     0.016 A 
ATOM     31  C   UNL A   1      41.267  23.605  27.864  1.00  0.00     0.010 A 
ATOM     32  C   UNL A   1      39.595  24.734  26.561  1.00  0.00     0.010 A 
ATOM     33  C   UNL A   1      40.705  24.816  27.416  1.00  0.00    -0.014 A 
BRANCH  33  34
ATOM     34  C   UNL A   1      41.376  26.115  27.765  1.00  0.00     0.031 A 
ATOM     35  C   UNL A   1      40.732  27.183  28.618  1.00  0.00     0.074 A 
ATOM     36  C   UNL A   1      42.632  26.335  27.318  1.00  0.00     0.049 A 
ATOM     37  N   UNL A   1      41.160  28.399  28.877  1.00  0.00    -0.248 NA
ATOM     38  C   UNL A   1      39.457  26.857  29.270  1.00  0.00     0.031 C 
ATOM     39  C   UNL A   1      43.410  25.401  26.499  1.00  0.00     0.029 A 
ATOM     40  N   UNL A   1      43.495  27.390  27.507  1.00  0.00    -0.354 N 
ATOM     41  C   UNL A   1      40.196  28.992  29.683  1.00  0.00     0.074 A 
ATOM     42  C   UNL A   1      39.162  27.996  29.889  1.00  0.00     0.031 C 
ATOM     43  C   UNL A   1      44.654  25.866  26.351  1.00  0.00     0.029 A 
ATOM     44  C   UNL A   1      44.722  27.207  26.913  1.00  0.00     0.049 A 
ATOM     45  H   UNL A   1      43.258  28.198  28.016  1.00  0.00     0.167 HD
ATOM     46  C   UNL A   1      40.170  30.250  30.192  1.00  0.00     0.037 A 
ATOM     47  C   UNL A   1      45.774  28.031  26.758  1.00  0.00     0.037 A 
ATOM     48  C   UNL A   1      41.205  31.242  30.011  1.00  0.00     0.049 A 
ATOM     49  C   UNL A   1      45.685  29.439  27.258  1.00  0.00     0.074 A 
ATOM     50  C   UNL A   1      41.244  32.546  30.481  1.00  0.00     0.029 A 
ATOM     51  N   UNL A   1      42.387  31.041  29.314  1.00  0.00    -0.354 N 
ATOM     52  N   UNL A   1      44.721  30.013  27.932  1.00  0.00    -0.248 NA
ATOM     53  C   UNL A   1      46.809  30.326  26.934  1.00  0.00     0.031 C 
ATOM     54  C   UNL A   1      42.427  33.146  30.034  1.00  0.00     0.029 A 
ATOM     55  C   UNL A   1      43.148  32.203  29.324  1.00  0.00     0.049 A 
ATOM     56  H   UNL A   1      42.647  30.199  28.876  1.00  0.00     0.167 HD
ATOM     57  C   UNL A   1      45.112  31.332  28.099  1.00  0.00     0.074 A 
ATOM     58  C   UNL A   1      46.418  31.465  27.489  1.00  0.00     0.031 C 
ATOM     59  C   UNL A   1      44.436  32.342  28.694  1.00  0.00     0.037 A 
BRANCH  46  60
ATOM     60  C   UNL A   1      38.955  30.673  30.971  1.00  0.00     0.064 A 
ATOM     61  C   UNL A   1      38.887  30.547  32.365  1.00  0.00     0.173 A 
ATOM     62  C   UNL A   1      37.891  31.317  30.318  1.00  0.00     0.173 A 
ATOM     63  F   UNL A   1      39.877  29.939  33.037  1.00  0.00    -0.203 F 
ATOM     64  C   UNL A   1      37.795  31.041  33.076  1.00  0.00     0.198 A 
ATOM     65  C   UNL A   1      36.812  31.829  31.034  1.00  0.00     0.198 A 
ATOM     66  F   UNL A   1      37.913  31.478  28.987  1.00  0.00    -0.203 F 
ATOM     67  F   UNL A   1      37.741  30.895  34.408  1.00  0.00    -0.200 F 
ATOM     68  C   UNL A   1      36.763  31.689  32.412  1.00  0.00     0.200 A 
ATOM     69  F   UNL A   1      35.825  32.469  30.391  1.00  0.00    -0.200 F 
ATOM     70  F   UNL A   1      35.723  32.181  33.100  1.00  0.00    -0.200 F 
ENDBRANCH  46  60
BRANCH  47  71
ATOM     71  C   UNL A   1      46.964  27.558  26.003  1.00  0.00     0.064 A 
ATOM     72  C   UNL A   1      47.050  27.711  24.615  1.00  0.00     0.173 A 
ATOM     73  C   UNL A   1      48.061  26.987  26.669  1.00  0.00     0.173 A 
ATOM     74  F   UNL A   1      46.014  28.219  23.931  1.00  0.00    -0.203 F 
ATOM     75  C   UNL A   1      48.195  27.323  23.922  1.00  0.00     0.198 A 
ATOM     76  C   UNL A   1      49.218  26.639  25.982  1.00  0.00     0.198 A 
ATOM     77  F   UNL A   1      48.024  26.815  27.999  1.00  0.00    -0.203 F 
ATOM     78  F   UNL A   1      48.245  27.454  22.589  1.00  0.00    -0.200 F 
ATOM     79  C   UNL A   1      49.284  26.804  24.608  1.00  0.00     0.200 A 
ATOM     80  F   UNL A   1      50.274  26.162  26.654  1.00  0.00    -0.200 F 
ATOM     81  F   UNL A   1      50.396  26.462  23.944  1.00  0.00    -0.200 F 
ENDBRANCH  47  71
BRANCH  59  82
ATOM     82  C   UNL A   1      45.105  33.683  28.711  1.00  0.00     0.064 A 
ATOM     83  C   UNL A   1      45.992  34.043  29.737  1.00  0.00     0.173 A 
ATOM     84  C   UNL A   1      44.849  34.624  27.702  1.00  0.00     0.173 A 
ATOM     85  F   UNL A   1      46.251  33.185  30.735  1.00  0.00    -0.203 F 
ATOM     86  C   UNL A   1      46.575  35.307  29.767  1.00  0.00     0.198 A 
ATOM     87  C   UNL A   1      45.453  35.878  27.724  1.00  0.00     0.198 A 
ATOM     88  F   UNL A   1      44.007  34.328  26.700  1.00  0.00    -0.203 F 
ATOM     89  F   UNL A   1      47.377  35.648  30.786  1.00  0.00    -0.200 F 
ATOM     90  C   UNL A   1      46.307  36.222  28.761  1.00  0.00     0.200 A 
ATOM     91  F   UNL A   1      45.196  36.760  26.748  1.00  0.00    -0.200 F 
ATOM     92  F   UNL A   1      46.863  37.441  28.796  1.00  0.00    -0.200 F 
ENDBRANCH  59  82
ENDBRANCH  33  34
ENDBRANCH  26  28
ENDBRANCH  25  26
ENDBRANCH  24  25
ENDBRANCH   1  24
TORSDOF 16
ENDMDL
MODEL 2
REMARK VINA RESULT:     -11.3      4.614      9.895
REMARK SMILES C[NH2+][C@@](C)(CC[N@@H+](C)C1CCC(C)(C)CC1)C(=O)OCCOC(=O)c1ccc(-c2c3nc(c(-c4c(F)c(F)c(F)c(F)c4F)c4ccc([nH]4)c(-c4c(F)c(F)c(F)c(F)c4F)c4nc(c(-c5c(F)c(F)c(F)c(F)c5F)c5ccc2[nH]5)C=C4)C=C3)cc1
REMARK SMILES IDX 20 1 19 2 17 3 18 4 3 5 4 6 2 7 1 8 5 11 6 12 7 13 8 14 9 16
REMARK SMILES IDX 10 17 16 18 11 19 15 20 12 21 13 22 14 23 21 24 22 25 23 26
REMARK SMILES IDX 24 27 25 28 26 29 87 30 27 31 86 32 28 33 29 34 30 35 80 36
REMARK SMILES IDX 31 37 85 38 79 39 81 40 32 41 84 42 78 43 77 44 33 46 65 47
REMARK SMILES IDX 45 48 64 49 46 50 49 51 63 52 82 53 47 54 48 55 62 57 83 58
REMARK SMILES IDX 50 59 34 60 35 61 43 62 36 63 37 64 41 65 44 66 38 67 39 68
REMARK SMILES IDX 42 69 40 70 66 71 67 72 75 73 68 74 69 75 73 76 76 77 70 78
REMARK SMILES IDX 71 79 74 80 72 81 51 82 52 83 60 84 53 85 54 86 58 87 61 88
REMARK SMILES IDX 55 89 56 90 59 91 57 92
REMARK H PARENT 2 9 2 10 7 15 81 45 49 56
REMARK Flexibility Score: inf
ROOT
ATOM      1  C   UNL A   1      31.070  29.548  24.741  1.00  0.00     0.274 C 
ENDROOT
BRANCH   1   2
ATOM      2  O   UNL A   1      31.262  28.179  25.141  1.00  0.00    -0.457 OA
BRANCH   2   3
ATOM      3  C   UNL A   1      31.002  27.289  24.146  1.00  0.00     0.368 C 
ATOM      4  O   UNL A   1      31.489  27.384  23.020  1.00  0.00    -0.245 OA
BRANCH   3   5
ATOM      5  C   UNL A   1      30.118  26.090  24.577  1.00  0.00     0.196 C 
ATOM      6  C   UNL A   1      30.238  25.985  26.126  1.00  0.00     0.092 C 
BRANCH   5   7
ATOM      7  N   UNL A   1      28.656  26.321  24.355  1.00  0.00    -0.335 N 
ATOM      8  C   UNL A   1      28.263  27.426  23.501  1.00  0.00     0.331 C 
ATOM      9  H   UNL A   1      28.273  25.469  23.946  1.00  0.00     0.347 HD
ATOM     10  H   UNL A   1      28.296  26.571  25.277  1.00  0.00     0.347 HD
ENDBRANCH   5   7
BRANCH   5  11
ATOM     11  C   UNL A   1      30.530  24.687  23.999  1.00  0.00     0.142 C 
BRANCH  11  12
ATOM     12  C   UNL A   1      31.420  24.350  22.751  1.00  0.00     0.269 C 
BRANCH  12  13
ATOM     13  N   UNL A   1      32.793  24.638  22.338  1.00  0.00    -0.335 N 
ATOM     14  C   UNL A   1      32.903  25.184  20.991  1.00  0.00     0.332 C 
ATOM     15  H   UNL A   1      32.853  23.810  22.930  1.00  0.00     0.348 HD
BRANCH  13  16
ATOM     16  C   UNL A   1      34.036  24.624  23.101  1.00  0.00     0.183 C 
ATOM     17  C   UNL A   1      34.159  25.475  24.392  1.00  0.00     0.065 C 
ATOM     18  C   UNL A   1      34.571  23.256  23.417  1.00  0.00     0.065 C 
ATOM     19  C   UNL A   1      33.743  24.810  25.715  1.00  0.00     0.012 C 
ATOM     20  C   UNL A   1      33.811  22.582  24.546  1.00  0.00     0.012 C 
ATOM     21  C   UNL A   1      34.068  23.302  25.877  1.00  0.00    -0.035 C 
ATOM     22  C   UNL A   1      33.145  22.701  26.952  1.00  0.00     0.011 C 
ATOM     23  C   UNL A   1      35.517  23.050  26.341  1.00  0.00     0.011 C 
ENDBRANCH  13  16
ENDBRANCH  12  13
ENDBRANCH  11  12
ENDBRANCH   5  11
ENDBRANCH   3   5
ENDBRANCH   2   3
ENDBRANCH   1   2
BRANCH   1  24
ATOM     24  C   UNL A   1      31.440  30.511  25.873  1.00  0.00     0.275 C 
BRANCH  24  25
ATOM     25  O   UNL A   1      32.845  30.543  26.181  1.00  0.00    -0.458 OA
BRANCH  25  26
ATOM     26  C   UNL A   1      33.248  31.484  27.066  1.00  0.00     0.338 C 
ATOM     27  O   UNL A   1      32.770  32.582  27.251  1.00  0.00    -0.246 OA
BRANCH  26  28
ATOM     28  C   UNL A   1      34.503  31.013  27.681  1.00  0.00     0.060 A 
ATOM     29  C   UNL A   1      35.452  31.974  28.001  1.00  0.00     0.016 A 
ATOM     30  C   UNL A   1      34.768  29.662  27.918  1.00  0.00     0.016 A 
ATOM     31  C   UNL A   1      36.683  31.574  28.519  1.00  0.00     0.010 A 
ATOM     32  C   UNL A   1      35.973  29.279  28.537  1.00  0.00     0.010 A 
ATOM     33  C   UNL A   1      36.950  30.234  28.861  1.00  0.00    -0.014 A 
BRANCH  33  34
ATOM     34  C   UNL A   1      38.186  29.906  29.651  1.00  0.00     0.031 A 
ATOM     35  C   UNL A   1      39.316  29.056  29.117  1.00  0.00     0.074 A 
ATOM     36  C   UNL A   1      38.313  30.417  30.896  1.00  0.00     0.049 A 
ATOM     37  N   UNL A   1      40.371  28.596  29.752  1.00  0.00    -0.248 NA
ATOM     38  C   UNL A   1      39.270  28.676  27.699  1.00  0.00     0.031 C 
ATOM     39  C   UNL A   1      37.325  31.274  31.558  1.00  0.00     0.029 A 
ATOM     40  N   UNL A   1      39.328  30.324  31.821  1.00  0.00    -0.354 N 
ATOM     41  C   UNL A   1      41.089  27.846  28.830  1.00  0.00     0.074 A 
ATOM     42  C   UNL A   1      40.359  27.923  27.579  1.00  0.00     0.031 C 
ATOM     43  C   UNL A   1      37.823  31.713  32.718  1.00  0.00     0.029 A 
ATOM     44  C   UNL A   1      39.088  31.040  32.970  1.00  0.00     0.049 A 
ATOM     45  H   UNL A   1      40.145  29.796  31.674  1.00  0.00     0.167 HD
ATOM     46  C   UNL A   1      42.240  27.149  29.012  1.00  0.00     0.037 A 
ATOM     47  C   UNL A   1      39.754  31.108  34.138  1.00  0.00     0.037 A 
ATOM     48  C   UNL A   1      42.986  27.084  30.248  1.00  0.00     0.049 A 
ATOM     49  C   UNL A   1      40.974  30.266  34.338  1.00  0.00     0.074 A 
ATOM     50  C   UNL A   1      44.152  26.384  30.518  1.00  0.00     0.029 A 
ATOM     51  N   UNL A   1      42.647  27.746  31.418  1.00  0.00    -0.354 N 
ATOM     52  N   UNL A   1      41.582  29.482  33.484  1.00  0.00    -0.248 NA
ATOM     53  C   UNL A   1      41.572  30.280  35.679  1.00  0.00     0.031 C 
ATOM     54  C   UNL A   1      44.495  26.589  31.859  1.00  0.00     0.029 A 
ATOM     55  C   UNL A   1      43.569  27.453  32.415  1.00  0.00     0.049 A 
ATOM     56  H   UNL A   1      41.867  28.336  31.526  1.00  0.00     0.167 HD
ATOM     57  C   UNL A   1      42.624  28.897  34.186  1.00  0.00     0.074 A 
ATOM     58  C   UNL A   1      42.589  29.443  35.526  1.00  0.00     0.031 C 
ATOM     59  C   UNL A   1      43.518  27.976  33.755  1.00  0.00     0.037 A 
BRANCH  46  60
ATOM     60  C   UNL A   1      42.769  26.342  27.859  1.00  0.00     0.064 A 
ATOM     61  C   UNL A   1      42.294  25.054  27.575  1.00  0.00     0.173 A 
ATOM     62  C   UNL A   1      43.686  26.915  26.962  1.00  0.00     0.173 A 
ATOM     63  F   UNL A   1      41.418  24.460  28.400  1.00  0.00    -0.203 F 
ATOM     64  C   UNL A   1      42.723  24.367  26.440  1.00  0.00     0.198 A 
ATOM     65  C   UNL A   1      44.095  26.235  25.818  1.00  0.00     0.198 A 
ATOM     66  F   UNL A   1      44.160  28.152  27.179  1.00  0.00    -0.203 F 
ATOM     67  F   UNL A   1      42.270  23.129  26.196  1.00  0.00    -0.200 F 
ATOM     68  C   UNL A   1      43.616  24.961  25.559  1.00  0.00     0.200 A 
ATOM     69  F   UNL A   1      44.944  26.817  24.960  1.00  0.00    -0.200 F 
ATOM     70  F   UNL A   1      44.012  24.305  24.459  1.00  0.00    -0.200 F 
ENDBRANCH  46  60
BRANCH  47  71
ATOM     71  C   UNL A   1      39.205  31.941  35.240  1.00  0.00     0.064 A 
ATOM     72  C   UNL A   1      38.426  31.377  36.256  1.00  0.00     0.173 A 
ATOM     73  C   UNL A   1      39.495  33.313  35.320  1.00  0.00     0.173 A 
ATOM     74  F   UNL A   1      38.095  30.079  36.205  1.00  0.00    -0.203 F 
ATOM     75  C   UNL A   1      37.970  32.152  37.320  1.00  0.00     0.198 A 
ATOM     76  C   UNL A   1      39.073  34.076  36.403  1.00  0.00     0.198 A 
ATOM     77  F   UNL A   1      40.234  33.901  34.366  1.00  0.00    -0.203 F 
ATOM     78  F   UNL A   1      37.203  31.597  38.269  1.00  0.00    -0.200 F 
ATOM     79  C   UNL A   1      38.308  33.496  37.402  1.00  0.00     0.200 A 
ATOM     80  F   UNL A   1      39.424  35.366  36.487  1.00  0.00    -0.200 F 
ATOM     81  F   UNL A   1      37.894  34.231  38.442  1.00  0.00    -0.200 F 
ENDBRANCH  47  71
BRANCH  59  82
ATOM     82  C   UNL A   1      44.533  27.505  34.752  1.00  0.00     0.064 A 
ATOM     83  C   UNL A   1      44.306  26.368  35.542  1.00  0.00     0.173 A 
ATOM     84  C   UNL A   1      45.737  28.202  34.933  1.00  0.00     0.173 A 
ATOM     85  F   UNL A   1      43.160  25.681  35.421  1.00  0.00    -0.203 F 
ATOM     86  C   UNL A   1      45.236  25.962  36.496  1.00  0.00     0.198 A 
ATOM     87  C   UNL A   1      46.674  27.780  35.872  1.00  0.00     0.198 A 
ATOM     88  F   UNL A   1      46.000  29.297  34.204  1.00  0.00    -0.203 F 
ATOM     89  F   UNL A   1      44.973  24.904  37.277  1.00  0.00    -0.200 F 
ATOM     90  C   UNL A   1      46.419  26.667  36.659  1.00  0.00     0.200 A 
ATOM     91  F   UNL A   1      47.819  28.460  36.026  1.00  0.00    -0.200 F 
ATOM     92  F   UNL A   1      47.308  26.280  37.584  1.00  0.00    -0.200 F 
ENDBRANCH  59  82
ENDBRANCH  33  34
ENDBRANCH  26  28
ENDBRANCH  25  26
ENDBRANCH  24  25
ENDBRANCH   1  24
TORSDOF 16
ENDMDL
MODEL 3
REMARK VINA RESULT:     -11.3      5.602      9.514
REMARK SMILES C[NH2+][C@@](C)(CC[N@@H+](C)C1CCC(C)(C)CC1)C(=O)OCCOC(=O)c1ccc(-c2c3nc(c(-c4c(F)c(F)c(F)c(F)c4F)c4ccc([nH]4)c(-c4c(F)c(F)c(F)c(F)c4F)c4nc(c(-c5c(F)c(F)c(F)c(F)c5F)c5ccc2[nH]5)C=C4)C=C3)cc1
REMARK SMILES IDX 20 1 19 2 17 3 18 4 3 5 4 6 2 7 1 8 5 11 6 12 7 13 8 14 9 16
REMARK SMILES IDX 10 17 16 18 11 19 15 20 12 21 13 22 14 23 21 24 22 25 23 26
REMARK SMILES IDX 24 27 25 28 26 29 87 30 27 31 86 32 28 33 29 34 30 35 80 36
REMARK SMILES IDX 31 37 85 38 79 39 81 40 32 41 84 42 78 43 77 44 33 46 65 47
REMARK SMILES IDX 45 48 64 49 46 50 49 51 63 52 82 53 47 54 48 55 62 57 83 58
REMARK SMILES IDX 50 59 34 60 35 61 43 62 36 63 37 64 41 65 44 66 38 67 39 68
REMARK SMILES IDX 42 69 40 70 66 71 67 72 75 73 68 74 69 75 73 76 76 77 70 78
REMARK SMILES IDX 71 79 74 80 72 81 51 82 52 83 60 84 53 85 54 86 58 87 61 88
REMARK SMILES IDX 55 89 56 90 59 91 57 92
REMARK H PARENT 2 9 2 10 7 15 81 45 49 56
REMARK Flexibility Score: inf
ROOT
ATOM      1  C   UNL A   1      33.755  34.194  28.521  1.00  0.00     0.274 C 
ENDROOT
BRANCH   1   2
ATOM      2  O   UNL A   1      33.613  34.280  29.950  1.00  0.00    -0.457 OA
BRANCH   2   3
ATOM      3  C   UNL A   1      33.127  35.479  30.370  1.00  0.00     0.368 C 
ATOM      4  O   UNL A   1      32.483  36.231  29.639  1.00  0.00    -0.245 OA
BRANCH   3   5
ATOM      5  C   UNL A   1      33.368  35.774  31.873  1.00  0.00     0.196 C 
ATOM      6  C   UNL A   1      33.205  37.312  32.055  1.00  0.00     0.092 C 
BRANCH   5   7
ATOM      7  N   UNL A   1      32.312  35.204  32.767  1.00  0.00    -0.335 N 
ATOM      8  C   UNL A   1      31.069  35.938  32.907  1.00  0.00     0.331 C 
ATOM      9  H   UNL A   1      32.080  34.278  32.409  1.00  0.00     0.347 HD
ATOM     10  H   UNL A   1      32.728  35.227  33.699  1.00  0.00     0.347 HD
ENDBRANCH   5   7
BRANCH   5  11
ATOM     11  C   UNL A   1      34.792  35.406  32.427  1.00  0.00     0.142 C 
BRANCH  11  12
ATOM     12  C   UNL A   1      35.182  34.416  33.582  1.00  0.00     0.269 C 
BRANCH  12  13
ATOM     13  N   UNL A   1      36.417  33.781  34.042  1.00  0.00    -0.335 N 
ATOM     14  C   UNL A   1      36.580  33.789  35.491  1.00  0.00     0.332 C 
ATOM     15  H   UNL A   1      36.651  34.226  33.156  1.00  0.00     0.348 HD
BRANCH  13  16
ATOM     16  C   UNL A   1      37.415  33.007  33.313  1.00  0.00     0.183 C 
ATOM     17  C   UNL A   1      36.965  31.993  32.230  1.00  0.00     0.065 C 
ATOM     18  C   UNL A   1      38.539  33.815  32.727  1.00  0.00     0.065 C 
ATOM     19  C   UNL A   1      36.822  32.517  30.792  1.00  0.00     0.012 C 
ATOM     20  C   UNL A   1      38.125  34.560  31.470  1.00  0.00     0.012 C 
ATOM     21  C   UNL A   1      37.852  33.578  30.324  1.00  0.00    -0.035 C 
ATOM     22  C   UNL A   1      37.266  34.357  29.132  1.00  0.00     0.011 C 
ATOM     23  C   UNL A   1      39.177  32.952  29.840  1.00  0.00     0.011 C 
ENDBRANCH  13  16
ENDBRANCH  12  13
ENDBRANCH  11  12
ENDBRANCH   5  11
ENDBRANCH   3   5
ENDBRANCH   2   3
ENDBRANCH   1   2
BRANCH   1  24
ATOM     24  C   UNL A   1      33.652  32.744  28.041  1.00  0.00     0.275 C 
BRANCH  24  25
ATOM     25  O   UNL A   1      34.905  32.035  28.040  1.00  0.00    -0.458 OA
BRANCH  25  26
ATOM     26  C   UNL A   1      34.841  30.696  27.853  1.00  0.00     0.338 C 
ATOM     27  O   UNL A   1      33.887  30.042  27.494  1.00  0.00    -0.246 OA
BRANCH  26  28
ATOM     28  C   UNL A   1      36.112  30.117  28.326  1.00  0.00     0.060 A 
ATOM     29  C   UNL A   1      37.219  30.257  27.501  1.00  0.00     0.016 A 
ATOM     30  C   UNL A   1      36.223  29.425  29.536  1.00  0.00     0.016 A 
ATOM     31  C   UNL A   1      38.427  29.666  27.871  1.00  0.00     0.010 A 
ATOM     32  C   UNL A   1      37.472  28.922  29.946  1.00  0.00     0.010 A 
ATOM     33  C   UNL A   1      38.603  29.045  29.123  1.00  0.00    -0.014 A 
BRANCH  33  34
ATOM     34  C   UNL A   1      39.986  28.661  29.568  1.00  0.00     0.031 A 
ATOM     35  C   UNL A   1      40.778  29.438  30.593  1.00  0.00     0.074 A 
ATOM     36  C   UNL A   1      40.547  27.547  29.047  1.00  0.00     0.049 A 
ATOM     37  N   UNL A   1      42.031  29.279  30.959  1.00  0.00    -0.248 NA
ATOM     38  C   UNL A   1      40.090  30.524  31.305  1.00  0.00     0.031 C 
ATOM     39  C   UNL A   1      39.914  26.668  28.061  1.00  0.00     0.029 A 
ATOM     40  N   UNL A   1      41.757  26.937  29.289  1.00  0.00    -0.354 N 
ATOM     41  C   UNL A   1      42.291  30.260  31.908  1.00  0.00     0.074 A 
ATOM     42  C   UNL A   1      41.059  31.006  32.078  1.00  0.00     0.031 C 
ATOM     43  C   UNL A   1      40.679  25.590  27.867  1.00  0.00     0.029 A 
ATOM     44  C   UNL A   1      41.936  25.774  28.578  1.00  0.00     0.049 A 
ATOM     45  H   UNL A   1      42.430  27.299  29.909  1.00  0.00     0.167 HD
ATOM     46  C   UNL A   1      43.451  30.523  32.565  1.00  0.00     0.037 A 
ATOM     47  C   UNL A   1      43.002  24.966  28.436  1.00  0.00     0.037 A 
ATOM     48  C   UNL A   1      44.677  29.772  32.418  1.00  0.00     0.049 A 
ATOM     49  C   UNL A   1      44.291  25.324  29.106  1.00  0.00     0.074 A 
ATOM     50  C   UNL A   1      45.899  29.986  33.036  1.00  0.00     0.029 A 
ATOM     51  N   UNL A   1      44.838  28.660  31.606  1.00  0.00    -0.354 N 
ATOM     52  N   UNL A   1      44.545  26.317  29.922  1.00  0.00    -0.248 NA
ATOM     53  C   UNL A   1      45.452  24.480  28.799  1.00  0.00     0.031 C 
ATOM     54  C   UNL A   1      46.810  29.032  32.567  1.00  0.00     0.029 A 
ATOM     55  C   UNL A   1      46.143  28.193  31.692  1.00  0.00     0.049 A 
ATOM     56  H   UNL A   1      44.130  28.261  31.051  1.00  0.00     0.167 HD
ATOM     57  C   UNL A   1      45.897  26.227  30.213  1.00  0.00     0.074 A 
ATOM     58  C   UNL A   1      46.402  25.062  29.516  1.00  0.00     0.031 C 
ATOM     59  C   UNL A   1      46.651  27.050  30.979  1.00  0.00     0.037 A 
BRANCH  46  60
ATOM     60  C   UNL A   1      43.489  31.710  33.487  1.00  0.00     0.064 A 
ATOM     61  C   UNL A   1      43.243  31.589  34.861  1.00  0.00     0.173 A 
ATOM     62  C   UNL A   1      43.887  32.966  32.999  1.00  0.00     0.173 A 
ATOM     63  F   UNL A   1      42.859  30.412  35.378  1.00  0.00    -0.203 F 
ATOM     64  C   UNL A   1      43.386  32.684  35.712  1.00  0.00     0.198 A 
ATOM     65  C   UNL A   1      44.050  34.051  33.856  1.00  0.00     0.198 A 
ATOM     66  F   UNL A   1      44.149  33.132  31.694  1.00  0.00    -0.203 F 
ATOM     67  F   UNL A   1      43.129  32.551  37.022  1.00  0.00    -0.200 F 
ATOM     68  C   UNL A   1      43.798  33.911  35.211  1.00  0.00     0.200 A 
ATOM     69  F   UNL A   1      44.464  35.230  33.372  1.00  0.00    -0.200 F 
ATOM     70  F   UNL A   1      43.953  34.957  36.035  1.00  0.00    -0.200 F 
ENDBRANCH  46  60
BRANCH  47  71
ATOM     71  C   UNL A   1      42.907  23.789  27.533  1.00  0.00     0.064 A 
ATOM     72  C   UNL A   1      43.294  23.870  26.191  1.00  0.00     0.173 A 
ATOM     73  C   UNL A   1      42.471  22.543  28.015  1.00  0.00     0.173 A 
ATOM     74  F   UNL A   1      43.685  25.046  25.677  1.00  0.00    -0.203 F 
ATOM     75  C   UNL A   1      43.263  22.747  25.368  1.00  0.00     0.198 A 
ATOM     76  C   UNL A   1      42.480  21.414  27.204  1.00  0.00     0.198 A 
ATOM     77  F   UNL A   1      42.085  22.415  29.294  1.00  0.00    -0.203 F 
ATOM     78  F   UNL A   1      43.614  22.854  24.079  1.00  0.00    -0.200 F 
ATOM     79  C   UNL A   1      42.873  21.517  25.879  1.00  0.00     0.200 A 
ATOM     80  F   UNL A   1      42.126  20.226  27.711  1.00  0.00    -0.200 F 
ATOM     81  F   UNL A   1      42.875  20.432  25.095  1.00  0.00    -0.200 F 
ENDBRANCH  47  71
BRANCH  59  82
ATOM     82  C   UNL A   1      48.106  26.713  31.100  1.00  0.00     0.064 A 
ATOM     83  C   UNL A   1      48.568  25.813  32.072  1.00  0.00     0.173 A 
ATOM     84  C   UNL A   1      49.051  27.305  30.248  1.00  0.00     0.173 A 
ATOM     85  F   UNL A   1      47.704  25.239  32.923  1.00  0.00    -0.203 F 
ATOM     86  C   UNL A   1      49.926  25.539  32.205  1.00  0.00     0.198 A 
ATOM     87  C   UNL A   1      50.407  27.010  30.371  1.00  0.00     0.198 A 
ATOM     88  F   UNL A   1      48.661  28.173  29.304  1.00  0.00    -0.203 F 
ATOM     89  F   UNL A   1      50.350  24.717  33.176  1.00  0.00    -0.200 F 
ATOM     90  C   UNL A   1      50.844  26.136  31.354  1.00  0.00     0.200 A 
ATOM     91  F   UNL A   1      51.292  27.585  29.544  1.00  0.00    -0.200 F 
ATOM     92  F   UNL A   1      52.152  25.878  31.489  1.00  0.00    -0.200 F 
ENDBRANCH  59  82
ENDBRANCH  33  34
ENDBRANCH  26  28
ENDBRANCH  25  26
ENDBRANCH  24  25
ENDBRANCH   1  24
TORSDOF 16
ENDMDL
