MODEL 1
REMARK VINA RESULT:     -12.2      0.000      0.000
REMARK SMILES C[C@@H]1CN(C(=O)Nc2ccc(O)c(C(=O)OCCOC(=O)c3ccc(-c4c5nc(c(-c6c(F)c(F)c(F)c(F)c6F)c6ccc([nH]6)c(-c6c(F)c(F)c(F)c(F)c6F)c6nc(c(-c7c(F)c(F)c(F)c(F)c7F)c7ccc4[nH]7)C=C6)C=C5)cc3)c2)C[C@@H]1C
REMARK SMILES IDX 17 1 16 2 14 3 15 4 13 5 8 6 9 7 85 8 10 9 11 10 7 11 5 12
REMARK SMILES IDX 6 13 4 15 1 16 2 17 3 18 87 19 86 20 88 21 12 22 18 24 19 25
REMARK SMILES IDX 20 26 21 27 22 28 23 29 84 30 24 31 83 32 25 33 26 34 27 35
REMARK SMILES IDX 77 36 28 37 82 38 76 39 78 40 29 41 81 42 75 43 74 44 30 46
REMARK SMILES IDX 62 47 42 48 61 49 43 50 46 51 60 52 79 53 44 54 45 55 59 57
REMARK SMILES IDX 80 58 47 59 31 60 32 61 40 62 33 63 34 64 38 65 41 66 35 67
REMARK SMILES IDX 36 68 39 69 37 70 63 71 64 72 72 73 65 74 66 75 70 76 73 77
REMARK SMILES IDX 67 78 68 79 71 80 69 81 48 82 49 83 57 84 50 85 51 86 55 87
REMARK SMILES IDX 58 88 52 89 53 90 56 91 54 92
REMARK H PARENT 7 14 12 23 78 45 46 56
REMARK Flexibility Score: inf
ROOT
ATOM      1  C   UNL A   1      31.588  30.953  26.837  1.00  0.00     0.275 C 
ENDROOT
BRANCH   1   2
ATOM      2  O   UNL A   1      32.363  30.519  25.705  1.00  0.00    -0.458 OA
BRANCH   2   3
ATOM      3  C   UNL A   1      32.864  29.260  25.759  1.00  0.00     0.342 C 
ATOM      4  O   UNL A   1      33.893  28.909  26.298  1.00  0.00    -0.246 OA
BRANCH   3   5
ATOM      5  C   UNL A   1      31.872  28.291  25.232  1.00  0.00     0.103 A 
ATOM      6  C   UNL A   1      30.576  26.295  25.691  1.00  0.00     0.044 A 
ATOM      7  C   UNL A   1      29.954  26.408  24.450  1.00  0.00     0.030 A 
ATOM      8  C   UNL A   1      31.515  27.241  26.088  1.00  0.00     0.045 A 
ATOM      9  C   UNL A   1      30.326  27.433  23.576  1.00  0.00     0.049 A 
ATOM     10  C   UNL A   1      31.297  28.362  23.960  1.00  0.00     0.130 A 
BRANCH   6  11
ATOM     11  N   UNL A   1      30.261  25.270  26.578  1.00  0.00    -0.308 N 
ATOM     12  C   UNL A   1      30.598  23.954  26.578  1.00  0.00     0.321 C 
ATOM     13  O   UNL A   1      29.991  23.223  27.367  1.00  0.00    -0.248 OA
ATOM     14  H   UNL A   1      29.696  25.547  27.335  1.00  0.00     0.171 HD
BRANCH  12  15
ATOM     15  N   UNL A   1      31.666  23.500  25.851  1.00  0.00    -0.324 N 
ATOM     16  C   UNL A   1      33.556  23.001  22.694  1.00  0.00     0.010 C 
ATOM     17  C   UNL A   1      33.216  22.842  24.168  1.00  0.00     0.010 C 
ATOM     18  C   UNL A   1      31.731  23.073  24.458  1.00  0.00     0.125 C 
ATOM     19  C   UNL A   1      33.908  23.803  25.147  1.00  0.00     0.010 C 
ATOM     20  C   UNL A   1      33.010  23.671  26.384  1.00  0.00     0.125 C 
ATOM     21  C   UNL A   1      33.986  25.250  24.654  1.00  0.00     0.010 C 
ENDBRANCH  12  15
ENDBRANCH   6  11
BRANCH  10  22
ATOM     22  O   UNL A   1      31.711  29.306  23.064  1.00  0.00    -0.507 OA
ATOM     23  H   UNL A   1      32.168  29.047  22.288  1.00  0.00     0.293 HD
ENDBRANCH  10  22
ENDBRANCH   3   5
ENDBRANCH   2   3
ENDBRANCH   1   2
BRANCH   1  24
ATOM     24  C   UNL A   1      31.520  32.478  26.841  1.00  0.00     0.275 C 
BRANCH  24  25
ATOM     25  O   UNL A   1      32.859  33.006  26.767  1.00  0.00    -0.458 OA
BRANCH  25  26
ATOM     26  C   UNL A   1      33.313  33.639  27.870  1.00  0.00     0.338 C 
ATOM     27  O   UNL A   1      32.810  34.585  28.458  1.00  0.00    -0.246 OA
BRANCH  26  28
ATOM     28  C   UNL A   1      34.540  32.973  28.331  1.00  0.00     0.060 A 
ATOM     29  C   UNL A   1      34.496  31.607  28.595  1.00  0.00     0.016 A 
ATOM     30  C   UNL A   1      35.692  33.702  28.614  1.00  0.00     0.016 A 
ATOM     31  C   UNL A   1      35.571  30.972  29.211  1.00  0.00     0.010 A 
ATOM     32  C   UNL A   1      36.806  33.047  29.158  1.00  0.00     0.010 A 
ATOM     33  C   UNL A   1      36.748  31.681  29.498  1.00  0.00    -0.014 A 
BRANCH  33  34
ATOM     34  C   UNL A   1      37.879  31.002  30.199  1.00  0.00     0.031 A 
ATOM     35  C   UNL A   1      38.113  31.231  31.671  1.00  0.00     0.074 A 
ATOM     36  C   UNL A   1      38.683  30.147  29.532  1.00  0.00     0.049 A 
ATOM     37  N   UNL A   1      39.097  30.814  32.432  1.00  0.00    -0.248 NA
ATOM     38  C   UNL A   1      37.116  32.045  32.384  1.00  0.00     0.031 C 
ATOM     39  C   UNL A   1      38.567  29.803  28.115  1.00  0.00     0.029 A 
ATOM     40  N   UNL A   1      39.752  29.398  29.965  1.00  0.00    -0.354 N 
ATOM     41  C   UNL A   1      38.869  31.361  33.688  1.00  0.00     0.074 A 
ATOM     42  C   UNL A   1      37.654  32.141  33.593  1.00  0.00     0.031 C 
ATOM     43  C   UNL A   1      39.487  28.876  27.809  1.00  0.00     0.029 A 
ATOM     44  C   UNL A   1      40.310  28.613  28.985  1.00  0.00     0.049 A 
ATOM     45  H   UNL A   1      40.086  29.420  30.891  1.00  0.00     0.167 HD
ATOM     46  C   UNL A   1      39.603  31.224  34.819  1.00  0.00     0.037 A 
ATOM     47  C   UNL A   1      41.380  27.795  29.016  1.00  0.00     0.037 A 
ATOM     48  C   UNL A   1      40.768  30.386  34.944  1.00  0.00     0.049 A 
ATOM     49  C   UNL A   1      42.173  27.662  30.287  1.00  0.00     0.074 A 
ATOM     50  C   UNL A   1      41.544  30.151  36.067  1.00  0.00     0.029 A 
ATOM     51  N   UNL A   1      41.313  29.631  33.918  1.00  0.00    -0.354 N 
ATOM     52  N   UNL A   1      41.961  28.209  31.459  1.00  0.00    -0.248 NA
ATOM     53  C   UNL A   1      43.371  26.809  30.232  1.00  0.00     0.031 C 
ATOM     54  C   UNL A   1      42.581  29.283  35.712  1.00  0.00     0.029 A 
ATOM     55  C   UNL A   1      42.428  28.946  34.378  1.00  0.00     0.049 A 
ATOM     56  H   UNL A   1      40.962  29.588  33.000  1.00  0.00     0.167 HD
ATOM     57  C   UNL A   1      42.987  27.760  32.280  1.00  0.00     0.074 A 
ATOM     58  C   UNL A   1      43.805  26.872  31.482  1.00  0.00     0.031 C 
ATOM     59  C   UNL A   1      43.234  28.066  33.576  1.00  0.00     0.037 A 
BRANCH  46  60
ATOM     60  C   UNL A   1      39.189  32.018  36.024  1.00  0.00     0.064 A 
ATOM     61  C   UNL A   1      39.661  33.316  36.258  1.00  0.00     0.173 A 
ATOM     62  C   UNL A   1      38.244  31.490  36.918  1.00  0.00     0.173 A 
ATOM     63  F   UNL A   1      40.574  33.861  35.439  1.00  0.00    -0.203 F 
ATOM     64  C   UNL A   1      39.214  34.053  37.352  1.00  0.00     0.198 A 
ATOM     65  C   UNL A   1      37.780  32.239  37.996  1.00  0.00     0.198 A 
ATOM     66  F   UNL A   1      37.755  30.254  36.734  1.00  0.00    -0.203 F 
ATOM     67  F   UNL A   1      39.700  35.282  37.575  1.00  0.00    -0.200 F 
ATOM     68  C   UNL A   1      38.267  33.517  38.214  1.00  0.00     0.200 A 
ATOM     69  F   UNL A   1      36.856  31.724  38.820  1.00  0.00    -0.200 F 
ATOM     70  F   UNL A   1      37.826  34.234  39.257  1.00  0.00    -0.200 F 
ENDBRANCH  46  60
BRANCH  47  71
ATOM     71  C   UNL A   1      41.794  27.056  27.793  1.00  0.00     0.064 A 
ATOM     72  C   UNL A   1      41.305  25.768  27.528  1.00  0.00     0.173 A 
ATOM     73  C   UNL A   1      42.712  27.604  26.886  1.00  0.00     0.173 A 
ATOM     74  F   UNL A   1      40.452  25.186  28.383  1.00  0.00    -0.203 F 
ATOM     75  C   UNL A   1      41.735  25.051  26.413  1.00  0.00     0.198 A 
ATOM     76  C   UNL A   1      43.115  26.899  25.754  1.00  0.00     0.198 A 
ATOM     77  F   UNL A   1      43.216  28.829  27.097  1.00  0.00    -0.203 F 
ATOM     78  F   UNL A   1      41.296  23.801  26.213  1.00  0.00    -0.200 F 
ATOM     79  C   UNL A   1      42.634  25.619  25.524  1.00  0.00     0.200 A 
ATOM     80  F   UNL A   1      43.977  27.456  24.893  1.00  0.00    -0.200 F 
ATOM     81  F   UNL A   1      43.048  24.929  24.452  1.00  0.00    -0.200 F 
ENDBRANCH  47  71
BRANCH  59  82
ATOM     82  C   UNL A   1      44.429  27.420  34.213  1.00  0.00     0.064 A 
ATOM     83  C   UNL A   1      44.354  26.135  34.773  1.00  0.00     0.173 A 
ATOM     84  C   UNL A   1      45.662  28.086  34.257  1.00  0.00     0.173 A 
ATOM     85  F   UNL A   1      43.192  25.465  34.771  1.00  0.00    -0.203 F 
ATOM     86  C   UNL A   1      45.462  25.555  35.384  1.00  0.00     0.198 A 
ATOM     87  C   UNL A   1      46.776  27.491  34.845  1.00  0.00     0.198 A 
ATOM     88  F   UNL A   1      45.788  29.312  33.731  1.00  0.00    -0.203 F 
ATOM     89  F   UNL A   1      45.354  24.350  35.959  1.00  0.00    -0.200 F 
ATOM     90  C   UNL A   1      46.673  26.231  35.415  1.00  0.00     0.200 A 
ATOM     91  F   UNL A   1      47.948  28.141  34.866  1.00  0.00    -0.200 F 
ATOM     92  F   UNL A   1      47.738  25.673  36.005  1.00  0.00    -0.200 F 
ENDBRANCH  59  82
ENDBRANCH  33  34
ENDBRANCH  26  28
ENDBRANCH  25  26
ENDBRANCH  24  25
ENDBRANCH   1  24
TORSDOF 14
ENDMDL
MODEL 2
REMARK VINA RESULT:     -12.1      0.341      1.637
REMARK SMILES C[C@@H]1CN(C(=O)Nc2ccc(O)c(C(=O)OCCOC(=O)c3ccc(-c4c5nc(c(-c6c(F)c(F)c(F)c(F)c6F)c6ccc([nH]6)c(-c6c(F)c(F)c(F)c(F)c6F)c6nc(c(-c7c(F)c(F)c(F)c(F)c7F)c7ccc4[nH]7)C=C6)C=C5)cc3)c2)C[C@@H]1C
REMARK SMILES IDX 17 1 16 2 14 3 15 4 13 5 8 6 9 7 85 8 10 9 11 10 7 11 5 12
REMARK SMILES IDX 6 13 4 15 1 16 2 17 3 18 87 19 86 20 88 21 12 22 18 24 19 25
REMARK SMILES IDX 20 26 21 27 22 28 23 29 84 30 24 31 83 32 25 33 26 34 27 35
REMARK SMILES IDX 77 36 28 37 82 38 76 39 78 40 29 41 81 42 75 43 74 44 30 46
REMARK SMILES IDX 62 47 42 48 61 49 43 50 46 51 60 52 79 53 44 54 45 55 59 57
REMARK SMILES IDX 80 58 47 59 31 60 32 61 40 62 33 63 34 64 38 65 41 66 35 67
REMARK SMILES IDX 36 68 39 69 37 70 63 71 64 72 72 73 65 74 66 75 70 76 73 77
REMARK SMILES IDX 67 78 68 79 71 80 69 81 48 82 49 83 57 84 50 85 51 86 55 87
REMARK SMILES IDX 58 88 52 89 53 90 56 91 54 92
REMARK H PARENT 7 14 12 23 78 45 46 56
REMARK Flexibility Score: inf
ROOT
ATOM      1  C   UNL A   1      31.660  31.322  26.877  1.00  0.00     0.275 C 
ENDROOT
BRANCH   1   2
ATOM      2  O   UNL A   1      31.555  30.684  25.591  1.00  0.00    -0.458 OA
BRANCH   2   3
ATOM      3  C   UNL A   1      32.283  29.555  25.411  1.00  0.00     0.342 C 
ATOM      4  O   UNL A   1      33.446  29.384  25.714  1.00  0.00    -0.246 OA
BRANCH   3   5
ATOM      5  C   UNL A   1      31.406  28.446  24.963  1.00  0.00     0.103 A 
ATOM      6  C   UNL A   1      30.397  26.323  25.551  1.00  0.00     0.044 A 
ATOM      7  C   UNL A   1      29.721  26.301  24.334  1.00  0.00     0.030 A 
ATOM      8  C   UNL A   1      31.220  27.397  25.873  1.00  0.00     0.045 A 
ATOM      9  C   UNL A   1      29.925  27.327  23.407  1.00  0.00     0.049 A 
ATOM     10  C   UNL A   1      30.782  28.388  23.714  1.00  0.00     0.130 A 
BRANCH   6  11
ATOM     11  N   UNL A   1      30.249  25.305  26.489  1.00  0.00    -0.308 N 
ATOM     12  C   UNL A   1      30.695  24.021  26.492  1.00  0.00     0.321 C 
ATOM     13  O   UNL A   1      30.224  23.270  27.351  1.00  0.00    -0.248 OA
ATOM     14  H   UNL A   1      29.733  25.560  27.288  1.00  0.00     0.171 HD
BRANCH  12  15
ATOM     15  N   UNL A   1      31.727  23.632  25.682  1.00  0.00    -0.324 N 
ATOM     16  C   UNL A   1      33.277  22.961  22.374  1.00  0.00     0.010 C 
ATOM     17  C   UNL A   1      33.150  22.975  23.891  1.00  0.00     0.010 C 
ATOM     18  C   UNL A   1      31.695  23.017  24.360  1.00  0.00     0.125 C 
ATOM     19  C   UNL A   1      33.782  24.165  24.628  1.00  0.00     0.010 C 
ATOM     20  C   UNL A   1      33.077  24.084  25.988  1.00  0.00     0.125 C 
ATOM     21  C   UNL A   1      33.549  25.517  23.948  1.00  0.00     0.010 C 
ENDBRANCH  12  15
ENDBRANCH   6  11
BRANCH  10  22
ATOM     22  O   UNL A   1      31.037  29.338  22.767  1.00  0.00    -0.507 OA
ATOM     23  H   UNL A   1      30.328  29.769  22.333  1.00  0.00     0.293 HD
ENDBRANCH  10  22
ENDBRANCH   3   5
ENDBRANCH   2   3
ENDBRANCH   1   2
BRANCH   1  24
ATOM     24  C   UNL A   1      31.610  32.836  26.689  1.00  0.00     0.275 C 
BRANCH  24  25
ATOM     25  O   UNL A   1      32.946  33.365  26.795  1.00  0.00    -0.458 OA
BRANCH  25  26
ATOM     26  C   UNL A   1      33.299  33.859  28.001  1.00  0.00     0.338 C 
ATOM     27  O   UNL A   1      32.727  34.710  28.665  1.00  0.00    -0.246 OA
BRANCH  26  28
ATOM     28  C   UNL A   1      34.508  33.163  28.467  1.00  0.00     0.060 A 
ATOM     29  C   UNL A   1      34.410  31.819  28.811  1.00  0.00     0.016 A 
ATOM     30  C   UNL A   1      35.700  33.852  28.674  1.00  0.00     0.016 A 
ATOM     31  C   UNL A   1      35.474  31.170  29.433  1.00  0.00     0.010 A 
ATOM     32  C   UNL A   1      36.799  33.178  29.224  1.00  0.00     0.010 A 
ATOM     33  C   UNL A   1      36.690  31.838  29.645  1.00  0.00    -0.014 A 
BRANCH  33  34
ATOM     34  C   UNL A   1      37.810  31.147  30.353  1.00  0.00     0.031 A 
ATOM     35  C   UNL A   1      38.033  31.369  31.828  1.00  0.00     0.074 A 
ATOM     36  C   UNL A   1      38.612  30.289  29.690  1.00  0.00     0.049 A 
ATOM     37  N   UNL A   1      39.008  30.942  32.595  1.00  0.00    -0.248 NA
ATOM     38  C   UNL A   1      37.037  32.188  32.536  1.00  0.00     0.031 C 
ATOM     39  C   UNL A   1      38.505  29.950  28.271  1.00  0.00     0.029 A 
ATOM     40  N   UNL A   1      39.671  29.529  30.129  1.00  0.00    -0.354 N 
ATOM     41  C   UNL A   1      38.773  31.486  33.851  1.00  0.00     0.074 A 
ATOM     42  C   UNL A   1      37.565  32.276  33.749  1.00  0.00     0.031 C 
ATOM     43  C   UNL A   1      39.420  29.017  27.968  1.00  0.00     0.029 A 
ATOM     44  C   UNL A   1      40.231  28.743  29.150  1.00  0.00     0.049 A 
ATOM     45  H   UNL A   1      39.998  29.546  31.058  1.00  0.00     0.167 HD
ATOM     46  C   UNL A   1      39.496  31.339  34.987  1.00  0.00     0.037 A 
ATOM     47  C   UNL A   1      41.295  27.917  29.187  1.00  0.00     0.037 A 
ATOM     48  C   UNL A   1      40.654  30.492  35.120  1.00  0.00     0.049 A 
ATOM     49  C   UNL A   1      42.076  27.773  30.464  1.00  0.00     0.074 A 
ATOM     50  C   UNL A   1      41.419  30.247  36.248  1.00  0.00     0.029 A 
ATOM     51  N   UNL A   1      41.202  29.736  34.096  1.00  0.00    -0.354 N 
ATOM     52  N   UNL A   1      41.859  28.318  31.636  1.00  0.00    -0.248 NA
ATOM     53  C   UNL A   1      43.268  26.911  30.416  1.00  0.00     0.031 C 
ATOM     54  C   UNL A   1      42.452  29.372  35.898  1.00  0.00     0.029 A 
ATOM     55  C   UNL A   1      42.307  29.041  34.562  1.00  0.00     0.049 A 
ATOM     56  H   UNL A   1      40.858  29.699  33.174  1.00  0.00     0.167 HD
ATOM     57  C   UNL A   1      42.874  27.857  32.464  1.00  0.00     0.074 A 
ATOM     58  C   UNL A   1      43.693  26.966  31.670  1.00  0.00     0.031 C 
ATOM     59  C   UNL A   1      43.114  28.157  33.763  1.00  0.00     0.037 A 
BRANCH  46  60
ATOM     60  C   UNL A   1      39.079  32.132  36.192  1.00  0.00     0.064 A 
ATOM     61  C   UNL A   1      38.203  31.617  37.156  1.00  0.00     0.173 A 
ATOM     62  C   UNL A   1      39.631  33.404  36.416  1.00  0.00     0.173 A 
ATOM     63  F   UNL A   1      37.641  30.411  36.983  1.00  0.00    -0.203 F 
ATOM     64  C   UNL A   1      37.882  32.352  38.296  1.00  0.00     0.198 A 
ATOM     65  C   UNL A   1      39.327  34.124  37.568  1.00  0.00     0.198 A 
ATOM     66  F   UNL A   1      40.481  33.939  35.527  1.00  0.00    -0.203 F 
ATOM     67  F   UNL A   1      37.018  31.853  39.191  1.00  0.00    -0.200 F 
ATOM     68  C   UNL A   1      38.451  33.600  38.504  1.00  0.00     0.200 A 
ATOM     69  F   UNL A   1      39.888  35.325  37.774  1.00  0.00    -0.200 F 
ATOM     70  F   UNL A   1      38.153  34.298  39.609  1.00  0.00    -0.200 F 
ENDBRANCH  46  60
BRANCH  47  71
ATOM     71  C   UNL A   1      41.713  27.179  27.965  1.00  0.00     0.064 A 
ATOM     72  C   UNL A   1      41.261  25.874  27.720  1.00  0.00     0.173 A 
ATOM     73  C   UNL A   1      42.600  27.746  27.039  1.00  0.00     0.173 A 
ATOM     74  F   UNL A   1      40.439  25.274  28.594  1.00  0.00    -0.203 F 
ATOM     75  C   UNL A   1      41.695  25.160  26.605  1.00  0.00     0.198 A 
ATOM     76  C   UNL A   1      43.007  27.042  25.908  1.00  0.00     0.198 A 
ATOM     77  F   UNL A   1      43.068  28.988  27.230  1.00  0.00    -0.203 F 
ATOM     78  F   UNL A   1      41.292  23.895  26.424  1.00  0.00    -0.200 F 
ATOM     79  C   UNL A   1      42.563  25.746  25.697  1.00  0.00     0.200 A 
ATOM     80  F   UNL A   1      43.838  27.618  25.028  1.00  0.00    -0.200 F 
ATOM     81  F   UNL A   1      42.982  25.059  24.626  1.00  0.00    -0.200 F 
ENDBRANCH  47  71
BRANCH  59  82
ATOM     82  C   UNL A   1      44.298  27.499  34.408  1.00  0.00     0.064 A 
ATOM     83  C   UNL A   1      45.554  28.124  34.439  1.00  0.00     0.173 A 
ATOM     84  C   UNL A   1      44.175  26.238  35.008  1.00  0.00     0.173 A 
ATOM     85  F   UNL A   1      45.726  29.323  33.863  1.00  0.00    -0.203 F 
ATOM     86  C   UNL A   1      46.652  27.494  35.018  1.00  0.00     0.198 A 
ATOM     87  C   UNL A   1      45.270  25.623  35.611  1.00  0.00     0.198 A 
ATOM     88  F   UNL A   1      42.995  25.601  35.011  1.00  0.00    -0.203 F 
ATOM     89  F   UNL A   1      47.854  28.086  34.989  1.00  0.00    -0.200 F 
ATOM     90  C   UNL A   1      46.508  26.247  35.607  1.00  0.00     0.200 A 
ATOM     91  F   UNL A   1      45.128  24.422  36.189  1.00  0.00    -0.200 F 
ATOM     92  F   UNL A   1      47.566  25.641  36.163  1.00  0.00    -0.200 F 
ENDBRANCH  59  82
ENDBRANCH  33  34
ENDBRANCH  26  28
ENDBRANCH  25  26
ENDBRANCH  24  25
ENDBRANCH   1  24
TORSDOF 14
ENDMDL
MODEL 3
REMARK VINA RESULT:     -12.1      1.271      7.493
REMARK SMILES C[C@@H]1CN(C(=O)Nc2ccc(O)c(C(=O)OCCOC(=O)c3ccc(-c4c5nc(c(-c6c(F)c(F)c(F)c(F)c6F)c6ccc([nH]6)c(-c6c(F)c(F)c(F)c(F)c6F)c6nc(c(-c7c(F)c(F)c(F)c(F)c7F)c7ccc4[nH]7)C=C6)C=C5)cc3)c2)C[C@@H]1C
REMARK SMILES IDX 17 1 16 2 14 3 15 4 13 5 8 6 9 7 85 8 10 9 11 10 7 11 5 12
REMARK SMILES IDX 6 13 4 15 1 16 2 17 3 18 87 19 86 20 88 21 12 22 18 24 19 25
REMARK SMILES IDX 20 26 21 27 22 28 23 29 84 30 24 31 83 32 25 33 26 34 27 35
REMARK SMILES IDX 77 36 28 37 82 38 76 39 78 40 29 41 81 42 75 43 74 44 30 46
REMARK SMILES IDX 62 47 42 48 61 49 43 50 46 51 60 52 79 53 44 54 45 55 59 57
REMARK SMILES IDX 80 58 47 59 31 60 32 61 40 62 33 63 34 64 38 65 41 66 35 67
REMARK SMILES IDX 36 68 39 69 37 70 63 71 64 72 72 73 65 74 66 75 70 76 73 77
REMARK SMILES IDX 67 78 68 79 71 80 69 81 48 82 49 83 57 84 50 85 51 86 55 87
REMARK SMILES IDX 58 88 52 89 53 90 56 91 54 92
REMARK H PARENT 7 14 12 23 78 45 46 56
REMARK Flexibility Score: inf
ROOT
ATOM      1  C   UNL A   1      31.371  29.252  24.720  1.00  0.00     0.275 C 
ENDROOT
BRANCH   1   2
ATOM      2  O   UNL A   1      32.286  28.209  25.102  1.00  0.00    -0.458 OA
BRANCH   2   3
ATOM      3  C   UNL A   1      33.124  27.753  24.139  1.00  0.00     0.342 C 
ATOM      4  O   UNL A   1      34.160  28.269  23.771  1.00  0.00    -0.246 OA
BRANCH   3   5
ATOM      5  C   UNL A   1      32.715  26.394  23.706  1.00  0.00     0.103 A 
ATOM      6  C   UNL A   1      31.429  24.416  24.256  1.00  0.00     0.044 A 
ATOM      7  C   UNL A   1      31.769  23.848  23.030  1.00  0.00     0.030 A 
ATOM      8  C   UNL A   1      31.884  25.688  24.585  1.00  0.00     0.045 A 
ATOM      9  C   UNL A   1      32.623  24.531  22.161  1.00  0.00     0.049 A 
ATOM     10  C   UNL A   1      33.111  25.795  22.507  1.00  0.00     0.130 A 
BRANCH   6  11
ATOM     11  N   UNL A   1      30.609  23.756  25.167  1.00  0.00    -0.308 N 
ATOM     12  C   UNL A   1      30.830  22.658  25.936  1.00  0.00     0.321 C 
ATOM     13  O   UNL A   1      29.846  22.155  26.486  1.00  0.00    -0.248 OA
ATOM     14  H   UNL A   1      29.714  24.153  25.271  1.00  0.00     0.171 HD
BRANCH  12  15
ATOM     15  N   UNL A   1      32.103  22.232  26.207  1.00  0.00    -0.324 N 
ATOM     16  C   UNL A   1      35.460  20.981  25.232  1.00  0.00     0.010 C 
ATOM     17  C   UNL A   1      34.317  21.359  26.162  1.00  0.00     0.010 C 
ATOM     18  C   UNL A   1      32.953  21.304  25.471  1.00  0.00     0.125 C 
ATOM     19  C   UNL A   1      34.344  22.777  26.752  1.00  0.00     0.010 C 
ATOM     20  C   UNL A   1      32.888  22.941  27.207  1.00  0.00     0.125 C 
ATOM     21  C   UNL A   1      34.750  23.863  25.752  1.00  0.00     0.010 C 
ENDBRANCH  12  15
ENDBRANCH   6  11
BRANCH  10  22
ATOM     22  O   UNL A   1      34.011  26.412  21.687  1.00  0.00    -0.507 OA
ATOM     23  H   UNL A   1      34.929  26.331  21.854  1.00  0.00     0.293 HD
ENDBRANCH  10  22
ENDBRANCH   3   5
ENDBRANCH   2   3
ENDBRANCH   1   2
BRANCH   1  24
ATOM     24  C   UNL A   1      31.611  30.476  25.600  1.00  0.00     0.275 C 
BRANCH  24  25
ATOM     25  O   UNL A   1      32.887  30.337  26.254  1.00  0.00    -0.458 OA
BRANCH  25  26
ATOM     26  C   UNL A   1      33.274  31.369  27.035  1.00  0.00     0.338 C 
ATOM     27  O   UNL A   1      32.669  32.402  27.274  1.00  0.00    -0.246 OA
BRANCH  26  28
ATOM     28  C   UNL A   1      34.575  31.046  27.642  1.00  0.00     0.060 A 
ATOM     29  C   UNL A   1      34.850  29.719  27.956  1.00  0.00     0.016 A 
ATOM     30  C   UNL A   1      35.467  32.050  28.006  1.00  0.00     0.016 A 
ATOM     31  C   UNL A   1      35.981  29.390  28.699  1.00  0.00     0.010 A 
ATOM     32  C   UNL A   1      36.648  31.711  28.682  1.00  0.00     0.010 A 
ATOM     33  C   UNL A   1      36.903  30.381  29.071  1.00  0.00    -0.014 A 
BRANCH  33  34
ATOM     34  C   UNL A   1      38.089  30.026  29.906  1.00  0.00     0.031 A 
ATOM     35  C   UNL A   1      39.180  29.147  29.348  1.00  0.00     0.074 A 
ATOM     36  C   UNL A   1      38.217  30.515  31.157  1.00  0.00     0.049 A 
ATOM     37  N   UNL A   1      40.233  28.646  29.948  1.00  0.00    -0.248 NA
ATOM     38  C   UNL A   1      39.070  28.770  27.930  1.00  0.00     0.031 C 
ATOM     39  C   UNL A   1      37.261  31.398  31.826  1.00  0.00     0.029 A 
ATOM     40  N   UNL A   1      39.217  30.351  32.087  1.00  0.00    -0.354 N 
ATOM     41  C   UNL A   1      40.873  27.855  29.002  1.00  0.00     0.074 A 
ATOM     42  C   UNL A   1      40.093  27.938  27.786  1.00  0.00     0.031 C 
ATOM     43  C   UNL A   1      37.741  31.739  33.031  1.00  0.00     0.029 A 
ATOM     44  C   UNL A   1      39.003  31.042  33.256  1.00  0.00     0.049 A 
ATOM     45  H   UNL A   1      40.012  29.793  31.930  1.00  0.00     0.167 HD
ATOM     46  C   UNL A   1      42.008  27.126  29.134  1.00  0.00     0.037 A 
ATOM     47  C   UNL A   1      39.723  31.087  34.394  1.00  0.00     0.037 A 
ATOM     48  C   UNL A   1      42.834  27.100  30.313  1.00  0.00     0.049 A 
ATOM     49  C   UNL A   1      40.980  30.269  34.509  1.00  0.00     0.074 A 
ATOM     50  C   UNL A   1      44.027  26.427  30.515  1.00  0.00     0.029 A 
ATOM     51  N   UNL A   1      42.565  27.792  31.483  1.00  0.00    -0.354 N 
ATOM     52  N   UNL A   1      41.555  29.503  33.616  1.00  0.00    -0.248 NA
ATOM     53  C   UNL A   1      41.678  30.309  35.803  1.00  0.00     0.031 C 
ATOM     54  C   UNL A   1      44.461  26.681  31.820  1.00  0.00     0.029 A 
ATOM     55  C   UNL A   1      43.559  27.545  32.417  1.00  0.00     0.049 A 
ATOM     56  H   UNL A   1      41.782  28.372  31.629  1.00  0.00     0.167 HD
ATOM     57  C   UNL A   1      42.684  28.980  34.233  1.00  0.00     0.074 A 
ATOM     58  C   UNL A   1      42.730  29.540  35.567  1.00  0.00     0.031 C 
ATOM     59  C   UNL A   1      43.595  28.106  33.741  1.00  0.00     0.037 A 
BRANCH  46  60
ATOM     60  C   UNL A   1      42.426  26.265  27.978  1.00  0.00     0.064 A 
ATOM     61  C   UNL A   1      41.910  24.977  27.784  1.00  0.00     0.173 A 
ATOM     62  C   UNL A   1      43.306  26.775  27.009  1.00  0.00     0.173 A 
ATOM     63  F   UNL A   1      41.076  24.440  28.687  1.00  0.00    -0.203 F 
ATOM     64  C   UNL A   1      42.270  24.223  26.668  1.00  0.00     0.198 A 
ATOM     65  C   UNL A   1      43.642  26.028  25.883  1.00  0.00     0.198 A 
ATOM     66  F   UNL A   1      43.821  28.005  27.144  1.00  0.00    -0.203 F 
ATOM     67  F   UNL A   1      41.789  22.981  26.517  1.00  0.00    -0.200 F 
ATOM     68  C   UNL A   1      43.128  24.753  25.715  1.00  0.00     0.200 A 
ATOM     69  F   UNL A   1      44.462  26.548  24.957  1.00  0.00    -0.200 F 
ATOM     70  F   UNL A   1      43.460  24.032  24.635  1.00  0.00    -0.200 F 
ENDBRANCH  46  60
BRANCH  47  71
ATOM     71  C   UNL A   1      39.259  31.914  35.541  1.00  0.00     0.064 A 
ATOM     72  C   UNL A   1      38.416  31.377  36.524  1.00  0.00     0.173 A 
ATOM     73  C   UNL A   1      39.618  33.265  35.657  1.00  0.00     0.173 A 
ATOM     74  F   UNL A   1      38.015  30.100  36.439  1.00  0.00    -0.203 F 
ATOM     75  C   UNL A   1      37.935  32.165  37.569  1.00  0.00     0.198 A 
ATOM     76  C   UNL A   1      39.163  34.042  36.720  1.00  0.00     0.198 A 
ATOM     77  F   UNL A   1      40.416  33.830  34.740  1.00  0.00    -0.203 F 
ATOM     78  F   UNL A   1      37.086  31.642  38.463  1.00  0.00    -0.200 F 
ATOM     79  C   UNL A   1      38.314  33.495  37.669  1.00  0.00     0.200 A 
ATOM     80  F   UNL A   1      39.541  35.325  36.818  1.00  0.00    -0.200 F 
ATOM     81  F   UNL A   1      37.851  34.253  38.672  1.00  0.00    -0.200 F 
ENDBRANCH  47  71
BRANCH  59  82
ATOM     82  C   UNL A   1      44.725  27.717  34.647  1.00  0.00     0.064 A 
ATOM     83  C   UNL A   1      44.643  26.589  35.477  1.00  0.00     0.173 A 
ATOM     84  C   UNL A   1      45.906  28.473  34.680  1.00  0.00     0.173 A 
ATOM     85  F   UNL A   1      43.527  25.844  35.493  1.00  0.00    -0.203 F 
ATOM     86  C   UNL A   1      45.688  26.251  36.332  1.00  0.00     0.198 A 
ATOM     87  C   UNL A   1      46.961  28.116  35.517  1.00  0.00     0.198 A 
ATOM     88  F   UNL A   1      46.038  29.557  33.903  1.00  0.00    -0.203 F 
ATOM     89  F   UNL A   1      45.566  25.200  37.154  1.00  0.00    -0.200 F 
ATOM     90  C   UNL A   1      46.847  27.011  36.348  1.00  0.00     0.200 A 
ATOM     91  F   UNL A   1      48.085  28.846  35.525  1.00  0.00    -0.200 F 
ATOM     92  F   UNL A   1      47.852  26.686  37.172  1.00  0.00    -0.200 F 
ENDBRANCH  59  82
ENDBRANCH  33  34
ENDBRANCH  26  28
ENDBRANCH  25  26
ENDBRANCH  24  25
ENDBRANCH   1  24
TORSDOF 14
ENDMDL
