MODEL 1
REMARK VINA RESULT:     -12.0      0.000      0.000
REMARK SMILES Cc1cc(CNc2ccc(C(=O)OCCOC(=O)c3ccc(-c4c5nc(c(-c6c(F)c(F)c(F)c(F)c6F)c6ccc([nH]6)c(-c6c(F)c(F)c(F)c(F)c6F)c6nc(c(-c7c(F)c(F)c(F)c(F)c7F)c7ccc4[nH]7)C=C6)C=C5)cc3)c(F)c2F)sc1C
REMARK SMILES IDX 14 1 13 2 11 3 12 4 10 5 7 6 8 7 84 8 9 9 82 10 85 11 83 12
REMARK SMILES IDX 6 13 5 15 4 16 1 17 2 18 3 19 87 20 86 21 88 22 15 23 16 24
REMARK SMILES IDX 17 25 18 26 19 27 20 28 81 29 21 30 80 31 22 32 23 33 24 34
REMARK SMILES IDX 74 35 25 36 79 37 73 38 75 39 26 40 78 41 72 42 71 43 27 45
REMARK SMILES IDX 59 46 39 47 58 48 40 49 43 50 57 51 76 52 41 53 42 54 56 56
REMARK SMILES IDX 77 57 44 58 28 59 29 60 37 61 30 62 31 63 35 64 38 65 32 66
REMARK SMILES IDX 33 67 36 68 34 69 60 70 61 71 69 72 62 73 63 74 67 75 70 76
REMARK SMILES IDX 64 77 65 78 68 79 66 80 45 81 46 82 54 83 47 84 48 85 52 86
REMARK SMILES IDX 55 87 49 88 50 89 53 90 51 91
REMARK H PARENT 6 14 75 44 43 55
REMARK Flexibility Score: inf
ROOT
ATOM      1  C   UNL A   1      42.660  20.877  26.110  1.00  0.00     0.275 C 
ENDROOT
BRANCH   1   2
ATOM      2  O   UNL A   1      41.312  21.180  25.699  1.00  0.00    -0.458 OA
BRANCH   2   3
ATOM      3  C   UNL A   1      40.401  21.324  26.688  1.00  0.00     0.341 C 
ATOM      4  O   UNL A   1      40.553  21.045  27.868  1.00  0.00    -0.246 OA
BRANCH   3   5
ATOM      5  C   UNL A   1      39.191  22.011  26.200  1.00  0.00     0.099 A 
ATOM      6  C   UNL A   1      36.906  23.419  25.325  1.00  0.00     0.074 A 
ATOM      7  C   UNL A   1      37.858  24.046  26.127  1.00  0.00     0.030 A 
ATOM      8  C   UNL A   1      37.117  22.068  24.988  1.00  0.00     0.182 A 
ATOM      9  C   UNL A   1      38.972  23.342  26.590  1.00  0.00     0.021 A 
ATOM     10  C   UNL A   1      38.249  21.373  25.405  1.00  0.00     0.175 A 
ATOM     11  F   UNL A   1      36.205  21.437  24.230  1.00  0.00    -0.201 F 
ATOM     12  F   UNL A   1      38.389  20.084  25.062  1.00  0.00    -0.203 F 
BRANCH   6  13
ATOM     13  N   UNL A   1      35.786  24.082  24.855  1.00  0.00    -0.378 N 
ATOM     14  H   UNL A   1      35.647  24.136  23.881  1.00  0.00     0.161 HD
BRANCH  13  15
ATOM     15  C   UNL A   1      34.802  24.704  25.734  1.00  0.00     0.160 C 
BRANCH  15  16
ATOM     16  C   UNL A   1      33.877  25.598  24.959  1.00  0.00     0.024 A 
ATOM     17  C   UNL A   1      32.524  28.993  24.094  1.00  0.00     0.045 C 
ATOM     18  C   UNL A   1      32.825  27.531  24.149  1.00  0.00    -0.037 A 
ATOM     19  C   UNL A   1      33.683  26.952  25.137  1.00  0.00     0.021 A 
ATOM     20  C   UNL A   1      32.359  26.563  23.273  1.00  0.00     0.005 A 
ATOM     21  S   UNL A   1      32.956  25.004  23.654  1.00  0.00    -0.144 S 
ATOM     22  C   UNL A   1      31.457  26.738  22.095  1.00  0.00     0.056 C 
ENDBRANCH  15  16
ENDBRANCH  13  15
ENDBRANCH   6  13
ENDBRANCH   3   5
ENDBRANCH   2   3
ENDBRANCH   1   2
BRANCH   1  23
ATOM     23  C   UNL A   1      43.656  21.839  25.464  1.00  0.00     0.275 C 
BRANCH  23  24
ATOM     24  O   UNL A   1      42.967  23.017  25.007  1.00  0.00    -0.458 OA
BRANCH  24  25
ATOM     25  C   UNL A   1      43.670  24.169  25.066  1.00  0.00     0.338 C 
ATOM     26  O   UNL A   1      44.661  24.480  24.431  1.00  0.00    -0.246 OA
BRANCH  25  27
ATOM     27  C   UNL A   1      43.030  25.081  26.027  1.00  0.00     0.060 A 
ATOM     28  C   UNL A   1      43.309  26.442  25.948  1.00  0.00     0.016 A 
ATOM     29  C   UNL A   1      42.276  24.579  27.086  1.00  0.00     0.016 A 
ATOM     30  C   UNL A   1      42.915  27.299  26.973  1.00  0.00     0.010 A 
ATOM     31  C   UNL A   1      41.798  25.458  28.065  1.00  0.00     0.010 A 
ATOM     32  C   UNL A   1      42.143  26.822  28.042  1.00  0.00    -0.014 A 
BRANCH  32  33
ATOM     33  C   UNL A   1      41.734  27.734  29.150  1.00  0.00     0.031 A 
ATOM     34  C   UNL A   1      42.548  27.804  30.416  1.00  0.00     0.074 A 
ATOM     35  C   UNL A   1      40.642  28.516  29.029  1.00  0.00     0.049 A 
ATOM     36  N   UNL A   1      42.263  28.385  31.556  1.00  0.00    -0.248 NA
ATOM     37  C   UNL A   1      43.850  27.120  30.404  1.00  0.00     0.031 C 
ATOM     38  C   UNL A   1      39.783  28.594  27.848  1.00  0.00     0.029 A 
ATOM     39  N   UNL A   1      40.072  29.403  29.911  1.00  0.00    -0.354 N 
ATOM     40  C   UNL A   1      43.316  28.082  32.410  1.00  0.00     0.074 A 
ATOM     41  C   UNL A   1      44.250  27.271  31.659  1.00  0.00     0.031 C 
ATOM     42  C   UNL A   1      38.826  29.510  28.059  1.00  0.00     0.029 A 
ATOM     43  C   UNL A   1      38.945  30.017  29.422  1.00  0.00     0.049 A 
ATOM     44  H   UNL A   1      40.437  29.581  30.808  1.00  0.00     0.167 HD
ATOM     45  C   UNL A   1      43.483  28.446  33.704  1.00  0.00     0.037 A 
ATOM     46  C   UNL A   1      38.075  30.860  30.012  1.00  0.00     0.037 A 
ATOM     47  C   UNL A   1      42.588  29.311  34.430  1.00  0.00     0.049 A 
ATOM     48  C   UNL A   1      38.270  31.238  31.452  1.00  0.00     0.074 A 
ATOM     49  C   UNL A   1      42.692  29.756  35.737  1.00  0.00     0.029 A 
ATOM     50  N   UNL A   1      41.437  29.877  33.906  1.00  0.00    -0.354 N 
ATOM     51  N   UNL A   1      39.228  30.887  32.273  1.00  0.00    -0.248 NA
ATOM     52  C   UNL A   1      37.248  32.104  32.056  1.00  0.00     0.031 C 
ATOM     53  C   UNL A   1      41.586  30.566  36.014  1.00  0.00     0.029 A 
ATOM     54  C   UNL A   1      40.814  30.658  34.867  1.00  0.00     0.049 A 
ATOM     55  H   UNL A   1      41.110  29.745  32.986  1.00  0.00     0.167 HD
ATOM     56  C   UNL A   1      38.926  31.483  33.489  1.00  0.00     0.074 A 
ATOM     57  C   UNL A   1      37.707  32.240  33.293  1.00  0.00     0.031 C 
ATOM     58  C   UNL A   1      39.596  31.399  34.663  1.00  0.00     0.037 A 
BRANCH  45  59
ATOM     59  C   UNL A   1      44.665  27.888  34.441  1.00  0.00     0.064 A 
ATOM     60  C   UNL A   1      44.550  26.669  35.130  1.00  0.00     0.173 A 
ATOM     61  C   UNL A   1      45.885  28.574  34.521  1.00  0.00     0.173 A 
ATOM     62  F   UNL A   1      43.402  25.976  35.091  1.00  0.00    -0.203 F 
ATOM     63  C   UNL A   1      45.610  26.164  35.877  1.00  0.00     0.198 A 
ATOM     64  C   UNL A   1      46.952  28.052  35.248  1.00  0.00     0.198 A 
ATOM     65  F   UNL A   1      46.049  29.736  33.871  1.00  0.00    -0.203 F 
ATOM     66  F   UNL A   1      45.469  25.012  36.548  1.00  0.00    -0.200 F 
ATOM     67  C   UNL A   1      46.812  26.854  35.932  1.00  0.00     0.200 A 
ATOM     68  F   UNL A   1      48.121  28.708  35.282  1.00  0.00    -0.200 F 
ATOM     69  F   UNL A   1      47.838  26.361  36.641  1.00  0.00    -0.200 F 
ENDBRANCH  45  59
BRANCH  46  70
ATOM     70  C   UNL A   1      36.920  31.373  29.231  1.00  0.00     0.064 A 
ATOM     71  C   UNL A   1      36.857  32.713  28.820  1.00  0.00     0.173 A 
ATOM     72  C   UNL A   1      35.830  30.546  28.931  1.00  0.00     0.173 A 
ATOM     73  F   UNL A   1      37.877  33.544  29.082  1.00  0.00    -0.203 F 
ATOM     74  C   UNL A   1      35.731  33.215  28.172  1.00  0.00     0.198 A 
ATOM     75  C   UNL A   1      34.716  31.042  28.259  1.00  0.00     0.198 A 
ATOM     76  F   UNL A   1      35.856  29.251  29.280  1.00  0.00    -0.203 F 
ATOM     77  F   UNL A   1      35.677  34.511  27.834  1.00  0.00    -0.200 F 
ATOM     78  C   UNL A   1      34.661  32.379  27.891  1.00  0.00     0.200 A 
ATOM     79  F   UNL A   1      33.692  30.227  27.968  1.00  0.00    -0.200 F 
ATOM     80  F   UNL A   1      33.578  32.862  27.268  1.00  0.00    -0.200 F 
ENDBRANCH  46  70
BRANCH  58  81
ATOM     81  C   UNL A   1      39.034  32.145  35.835  1.00  0.00     0.064 A 
ATOM     82  C   UNL A   1      39.372  33.489  36.056  1.00  0.00     0.173 A 
ATOM     83  C   UNL A   1      38.211  31.510  36.776  1.00  0.00     0.173 A 
ATOM     84  F   UNL A   1      40.161  34.138  35.187  1.00  0.00    -0.203 F 
ATOM     85  C   UNL A   1      38.917  34.165  37.184  1.00  0.00     0.198 A 
ATOM     86  C   UNL A   1      37.739  32.196  37.891  1.00  0.00     0.198 A 
ATOM     87  F   UNL A   1      37.849  30.230  36.600  1.00  0.00    -0.203 F 
ATOM     88  F   UNL A   1      39.275  35.440  37.389  1.00  0.00    -0.200 F 
ATOM     89  C   UNL A   1      38.099  33.519  38.099  1.00  0.00     0.200 A 
ATOM     90  F   UNL A   1      36.931  31.578  38.765  1.00  0.00    -0.200 F 
ATOM     91  F   UNL A   1      37.654  34.175  39.180  1.00  0.00    -0.200 F 
ENDBRANCH  58  81
ENDBRANCH  32  33
ENDBRANCH  25  27
ENDBRANCH  24  25
ENDBRANCH  23  24
ENDBRANCH   1  23
TORSDOF 14
ENDMDL
MODEL 2
REMARK VINA RESULT:     -11.8      3.702      8.593
REMARK SMILES Cc1cc(CNc2ccc(C(=O)OCCOC(=O)c3ccc(-c4c5nc(c(-c6c(F)c(F)c(F)c(F)c6F)c6ccc([nH]6)c(-c6c(F)c(F)c(F)c(F)c6F)c6nc(c(-c7c(F)c(F)c(F)c(F)c7F)c7ccc4[nH]7)C=C6)C=C5)cc3)c(F)c2F)sc1C
REMARK SMILES IDX 14 1 13 2 11 3 12 4 10 5 7 6 8 7 84 8 9 9 82 10 85 11 83 12
REMARK SMILES IDX 6 13 5 15 4 16 1 17 2 18 3 19 87 20 86 21 88 22 15 23 16 24
REMARK SMILES IDX 17 25 18 26 19 27 20 28 81 29 21 30 80 31 22 32 23 33 24 34
REMARK SMILES IDX 74 35 25 36 79 37 73 38 75 39 26 40 78 41 72 42 71 43 27 45
REMARK SMILES IDX 59 46 39 47 58 48 40 49 43 50 57 51 76 52 41 53 42 54 56 56
REMARK SMILES IDX 77 57 44 58 28 59 29 60 37 61 30 62 31 63 35 64 38 65 32 66
REMARK SMILES IDX 33 67 36 68 34 69 60 70 61 71 69 72 62 73 63 74 67 75 70 76
REMARK SMILES IDX 64 77 65 78 68 79 66 80 45 81 46 82 54 83 47 84 48 85 52 86
REMARK SMILES IDX 55 87 49 88 50 89 53 90 51 91
REMARK H PARENT 6 14 75 44 43 55
REMARK Flexibility Score: inf
ROOT
ATOM      1  C   UNL A   1      31.521  29.682  24.605  1.00  0.00     0.275 C 
ENDROOT
BRANCH   1   2
ATOM      2  O   UNL A   1      30.234  29.525  23.974  1.00  0.00    -0.458 OA
BRANCH   2   3
ATOM      3  C   UNL A   1      30.231  28.937  22.756  1.00  0.00     0.341 C 
ATOM      4  O   UNL A   1      30.112  29.495  21.675  1.00  0.00    -0.246 OA
BRANCH   3   5
ATOM      5  C   UNL A   1      30.537  27.498  22.860  1.00  0.00     0.099 A 
ATOM      6  C   UNL A   1      31.031  24.732  23.123  1.00  0.00     0.074 A 
ATOM      7  C   UNL A   1      29.883  25.299  23.673  1.00  0.00     0.030 A 
ATOM      8  C   UNL A   1      31.931  25.583  22.455  1.00  0.00     0.182 A 
ATOM      9  C   UNL A   1      29.654  26.674  23.574  1.00  0.00     0.021 A 
ATOM     10  C   UNL A   1      31.686  26.946  22.310  1.00  0.00     0.175 A 
ATOM     11  F   UNL A   1      33.052  25.061  21.930  1.00  0.00    -0.201 F 
ATOM     12  F   UNL A   1      32.587  27.709  21.673  1.00  0.00    -0.203 F 
BRANCH   6  13
ATOM     13  N   UNL A   1      31.295  23.375  23.208  1.00  0.00    -0.378 N 
ATOM     14  H   UNL A   1      31.162  22.820  22.405  1.00  0.00     0.161 HD
BRANCH  13  15
ATOM     15  C   UNL A   1      31.763  22.731  24.430  1.00  0.00     0.160 C 
BRANCH  15  16
ATOM     16  C   UNL A   1      33.254  22.845  24.560  1.00  0.00     0.024 A 
ATOM     17  C   UNL A   1      36.708  22.826  23.085  1.00  0.00     0.045 C 
ATOM     18  C   UNL A   1      35.529  22.930  23.995  1.00  0.00    -0.037 A 
ATOM     19  C   UNL A   1      34.197  22.610  23.581  1.00  0.00     0.021 A 
ATOM     20  C   UNL A   1      35.545  23.361  25.313  1.00  0.00     0.005 A 
ATOM     21  S   UNL A   1      33.981  23.369  26.009  1.00  0.00    -0.144 S 
ATOM     22  C   UNL A   1      36.716  23.806  26.127  1.00  0.00     0.056 C 
ENDBRANCH  15  16
ENDBRANCH  13  15
ENDBRANCH   6  13
ENDBRANCH   3   5
ENDBRANCH   2   3
ENDBRANCH   1   2
BRANCH   1  23
ATOM     23  C   UNL A   1      31.438  30.662  25.774  1.00  0.00     0.275 C 
BRANCH  23  24
ATOM     24  O   UNL A   1      32.561  30.467  26.653  1.00  0.00    -0.458 OA
BRANCH  24  25
ATOM     25  C   UNL A   1      33.135  31.592  27.131  1.00  0.00     0.338 C 
ATOM     26  O   UNL A   1      32.668  32.715  27.174  1.00  0.00    -0.246 OA
BRANCH  25  27
ATOM     27  C   UNL A   1      34.467  31.270  27.667  1.00  0.00     0.060 A 
ATOM     28  C   UNL A   1      34.757  29.948  27.990  1.00  0.00     0.016 A 
ATOM     29  C   UNL A   1      35.368  32.284  27.982  1.00  0.00     0.016 A 
ATOM     30  C   UNL A   1      35.909  29.639  28.711  1.00  0.00     0.010 A 
ATOM     31  C   UNL A   1      36.571  31.959  28.621  1.00  0.00     0.010 A 
ATOM     32  C   UNL A   1      36.839  30.639  29.028  1.00  0.00    -0.014 A 
BRANCH  32  33
ATOM     33  C   UNL A   1      38.064  30.315  29.815  1.00  0.00     0.031 A 
ATOM     34  C   UNL A   1      39.144  29.449  29.218  1.00  0.00     0.074 A 
ATOM     35  C   UNL A   1      38.230  30.801  31.061  1.00  0.00     0.049 A 
ATOM     36  N   UNL A   1      40.187  28.904  29.796  1.00  0.00    -0.248 NA
ATOM     37  C   UNL A   1      39.031  29.145  27.783  1.00  0.00     0.031 C 
ATOM     38  C   UNL A   1      37.297  31.690  31.754  1.00  0.00     0.029 A 
ATOM     39  N   UNL A   1      39.249  30.622  31.967  1.00  0.00    -0.354 N 
ATOM     40  C   UNL A   1      40.812  28.145  28.815  1.00  0.00     0.074 A 
ATOM     41  C   UNL A   1      40.039  28.302  27.602  1.00  0.00     0.031 C 
ATOM     42  C   UNL A   1      37.805  32.015  32.951  1.00  0.00     0.029 A 
ATOM     43  C   UNL A   1      39.053  31.286  33.153  1.00  0.00     0.049 A 
ATOM     44  H   UNL A   1      40.043  30.072  31.782  1.00  0.00     0.167 HD
ATOM     45  C   UNL A   1      41.929  27.385  28.921  1.00  0.00     0.037 A 
ATOM     46  C   UNL A   1      39.769  31.280  34.294  1.00  0.00     0.037 A 
ATOM     47  C   UNL A   1      42.738  27.285  30.109  1.00  0.00     0.049 A 
ATOM     48  C   UNL A   1      40.994  30.418  34.395  1.00  0.00     0.074 A 
ATOM     49  C   UNL A   1      43.902  26.560  30.299  1.00  0.00     0.029 A 
ATOM     50  N   UNL A   1      42.478  27.944  31.300  1.00  0.00    -0.354 N 
ATOM     51  N   UNL A   1      41.536  29.646  33.486  1.00  0.00    -0.248 NA
ATOM     52  C   UNL A   1      41.690  30.402  35.690  1.00  0.00     0.031 C 
ATOM     53  C   UNL A   1      44.329  26.755  31.617  1.00  0.00     0.029 A 
ATOM     54  C   UNL A   1      43.453  27.632  32.235  1.00  0.00     0.049 A 
ATOM     55  H   UNL A   1      41.714  28.545  31.459  1.00  0.00     0.167 HD
ATOM     56  C   UNL A   1      42.631  29.050  34.095  1.00  0.00     0.074 A 
ATOM     57  C   UNL A   1      42.694  29.569  35.445  1.00  0.00     0.031 C 
ATOM     58  C   UNL A   1      43.499  28.148  33.579  1.00  0.00     0.037 A 
BRANCH  45  59
ATOM     59  C   UNL A   1      42.335  26.569  27.729  1.00  0.00     0.064 A 
ATOM     60  C   UNL A   1      41.800  25.283  27.545  1.00  0.00     0.173 A 
ATOM     61  C   UNL A   1      43.288  27.021  26.806  1.00  0.00     0.173 A 
ATOM     62  F   UNL A   1      40.890  24.800  28.403  1.00  0.00    -0.203 F 
ATOM     63  C   UNL A   1      42.212  24.480  26.485  1.00  0.00     0.198 A 
ATOM     64  C   UNL A   1      43.678  26.224  25.733  1.00  0.00     0.198 A 
ATOM     65  F   UNL A   1      43.819  28.246  26.932  1.00  0.00    -0.203 F 
ATOM     66  F   UNL A   1      41.708  23.245  26.345  1.00  0.00    -0.200 F 
ATOM     67  C   UNL A   1      43.147  24.952  25.578  1.00  0.00     0.200 A 
ATOM     68  F   UNL A   1      44.565  26.691  24.842  1.00  0.00    -0.200 F 
ATOM     69  F   UNL A   1      43.534  24.184  24.550  1.00  0.00    -0.200 F 
ENDBRANCH  45  59
BRANCH  46  70
ATOM     70  C   UNL A   1      39.310  32.104  35.442  1.00  0.00     0.064 A 
ATOM     71  C   UNL A   1      39.729  33.435  35.595  1.00  0.00     0.173 A 
ATOM     72  C   UNL A   1      38.491  31.559  36.438  1.00  0.00     0.173 A 
ATOM     73  F   UNL A   1      40.513  34.004  34.667  1.00  0.00    -0.203 F 
ATOM     74  C   UNL A   1      39.376  34.176  36.720  1.00  0.00     0.198 A 
ATOM     75  C   UNL A   1      38.116  32.309  37.550  1.00  0.00     0.198 A 
ATOM     76  F   UNL A   1      38.045  30.300  36.321  1.00  0.00    -0.203 F 
ATOM     77  F   UNL A   1      39.830  35.428  36.866  1.00  0.00    -0.200 F 
ATOM     78  C   UNL A   1      38.569  33.612  37.697  1.00  0.00     0.200 A 
ATOM     79  F   UNL A   1      37.317  31.770  38.482  1.00  0.00    -0.200 F 
ATOM     80  F   UNL A   1      38.230  34.324  38.780  1.00  0.00    -0.200 F 
ENDBRANCH  46  70
BRANCH  58  81
ATOM     81  C   UNL A   1      44.598  27.656  34.473  1.00  0.00     0.064 A 
ATOM     82  C   UNL A   1      45.835  28.316  34.511  1.00  0.00     0.173 A 
ATOM     83  C   UNL A   1      44.446  26.495  35.242  1.00  0.00     0.173 A 
ATOM     84  F   UNL A   1      46.030  29.429  33.788  1.00  0.00    -0.203 F 
ATOM     85  C   UNL A   1      46.886  27.821  35.278  1.00  0.00     0.198 A 
ATOM     86  C   UNL A   1      45.492  26.015  36.026  1.00  0.00     0.198 A 
ATOM     87  F   UNL A   1      43.276  25.838  35.248  1.00  0.00    -0.203 F 
ATOM     88  F   UNL A   1      48.069  28.451  35.279  1.00  0.00    -0.200 F 
ATOM     89  C   UNL A   1      46.713  26.673  36.037  1.00  0.00     0.200 A 
ATOM     90  F   UNL A   1      45.317  24.917  36.775  1.00  0.00    -0.200 F 
ATOM     91  F   UNL A   1      47.723  26.203  36.781  1.00  0.00    -0.200 F 
ENDBRANCH  58  81
ENDBRANCH  32  33
ENDBRANCH  25  27
ENDBRANCH  24  25
ENDBRANCH  23  24
ENDBRANCH   1  23
TORSDOF 14
ENDMDL
MODEL 3
REMARK VINA RESULT:     -11.7      3.532      8.418
REMARK SMILES Cc1cc(CNc2ccc(C(=O)OCCOC(=O)c3ccc(-c4c5nc(c(-c6c(F)c(F)c(F)c(F)c6F)c6ccc([nH]6)c(-c6c(F)c(F)c(F)c(F)c6F)c6nc(c(-c7c(F)c(F)c(F)c(F)c7F)c7ccc4[nH]7)C=C6)C=C5)cc3)c(F)c2F)sc1C
REMARK SMILES IDX 14 1 13 2 11 3 12 4 10 5 7 6 8 7 84 8 9 9 82 10 85 11 83 12
REMARK SMILES IDX 6 13 5 15 4 16 1 17 2 18 3 19 87 20 86 21 88 22 15 23 16 24
REMARK SMILES IDX 17 25 18 26 19 27 20 28 81 29 21 30 80 31 22 32 23 33 24 34
REMARK SMILES IDX 74 35 25 36 79 37 73 38 75 39 26 40 78 41 72 42 71 43 27 45
REMARK SMILES IDX 59 46 39 47 58 48 40 49 43 50 57 51 76 52 41 53 42 54 56 56
REMARK SMILES IDX 77 57 44 58 28 59 29 60 37 61 30 62 31 63 35 64 38 65 32 66
REMARK SMILES IDX 33 67 36 68 34 69 60 70 61 71 69 72 62 73 63 74 67 75 70 76
REMARK SMILES IDX 64 77 65 78 68 79 66 80 45 81 46 82 54 83 47 84 48 85 52 86
REMARK SMILES IDX 55 87 49 88 50 89 53 90 51 91
REMARK H PARENT 6 14 75 44 43 55
REMARK Flexibility Score: inf
ROOT
ATOM      1  C   UNL A   1      31.017  30.018  24.919  1.00  0.00     0.275 C 
ENDROOT
BRANCH   1   2
ATOM      2  O   UNL A   1      30.663  28.778  24.274  1.00  0.00    -0.458 OA
BRANCH   2   3
ATOM      3  C   UNL A   1      31.560  28.284  23.392  1.00  0.00     0.341 C 
ATOM      4  O   UNL A   1      31.978  28.837  22.386  1.00  0.00    -0.246 OA
BRANCH   3   5
ATOM      5  C   UNL A   1      32.115  27.001  23.862  1.00  0.00     0.099 A 
ATOM      6  C   UNL A   1      33.278  24.595  24.774  1.00  0.00     0.074 A 
ATOM      7  C   UNL A   1      34.029  25.768  24.725  1.00  0.00     0.030 A 
ATOM      8  C   UNL A   1      31.940  24.652  24.340  1.00  0.00     0.182 A 
ATOM      9  C   UNL A   1      33.466  26.952  24.242  1.00  0.00     0.021 A 
ATOM     10  C   UNL A   1      31.357  25.839  23.902  1.00  0.00     0.175 A 
ATOM     11  F   UNL A   1      31.200  23.530  24.362  1.00  0.00    -0.201 F 
ATOM     12  F   UNL A   1      30.080  25.828  23.490  1.00  0.00    -0.203 F 
BRANCH   6  13
ATOM     13  N   UNL A   1      33.804  23.402  25.239  1.00  0.00    -0.378 N 
ATOM     14  H   UNL A   1      33.554  23.100  26.142  1.00  0.00     0.161 HD
BRANCH  13  15
ATOM     15  C   UNL A   1      34.710  22.572  24.453  1.00  0.00     0.160 C 
BRANCH  15  16
ATOM     16  C   UNL A   1      36.112  22.658  24.982  1.00  0.00     0.024 A 
ATOM     17  C   UNL A   1      38.828  24.447  26.860  1.00  0.00     0.045 C 
ATOM     18  C   UNL A   1      38.017  23.454  26.097  1.00  0.00    -0.037 A 
ATOM     19  C   UNL A   1      36.708  23.741  25.596  1.00  0.00     0.021 A 
ATOM     20  C   UNL A   1      38.385  22.151  25.796  1.00  0.00     0.005 A 
ATOM     21  S   UNL A   1      37.164  21.318  24.930  1.00  0.00    -0.144 S 
ATOM     22  C   UNL A   1      39.653  21.443  26.143  1.00  0.00     0.056 C 
ENDBRANCH  15  16
ENDBRANCH  13  15
ENDBRANCH   6  13
ENDBRANCH   3   5
ENDBRANCH   2   3
ENDBRANCH   1   2
BRANCH   1  23
ATOM     23  C   UNL A   1      31.784  29.758  26.215  1.00  0.00     0.275 C 
BRANCH  23  24
ATOM     24  O   UNL A   1      33.103  30.326  26.121  1.00  0.00    -0.458 OA
BRANCH  24  25
ATOM     25  C   UNL A   1      33.403  31.270  27.040  1.00  0.00     0.338 C 
ATOM     26  O   UNL A   1      32.725  32.215  27.397  1.00  0.00    -0.246 OA
BRANCH  25  27
ATOM     27  C   UNL A   1      34.721  30.978  27.625  1.00  0.00     0.060 A 
ATOM     28  C   UNL A   1      35.035  29.660  27.947  1.00  0.00     0.016 A 
ATOM     29  C   UNL A   1      35.581  32.012  27.987  1.00  0.00     0.016 A 
ATOM     30  C   UNL A   1      36.164  29.376  28.711  1.00  0.00     0.010 A 
ATOM     31  C   UNL A   1      36.765  31.714  28.671  1.00  0.00     0.010 A 
ATOM     32  C   UNL A   1      37.054  30.397  29.075  1.00  0.00    -0.014 A 
BRANCH  32  33
ATOM     33  C   UNL A   1      38.254  30.097  29.908  1.00  0.00     0.031 A 
ATOM     34  C   UNL A   1      39.377  29.261  29.349  1.00  0.00     0.074 A 
ATOM     35  C   UNL A   1      38.359  30.580  31.162  1.00  0.00     0.049 A 
ATOM     36  N   UNL A   1      40.409  28.739  29.966  1.00  0.00    -0.248 NA
ATOM     37  C   UNL A   1      39.328  28.963  27.910  1.00  0.00     0.031 C 
ATOM     38  C   UNL A   1      37.379  31.442  31.822  1.00  0.00     0.029 A 
ATOM     39  N   UNL A   1      39.346  30.421  32.106  1.00  0.00    -0.354 N 
ATOM     40  C   UNL A   1      41.091  28.001  29.006  1.00  0.00     0.074 A 
ATOM     41  C   UNL A   1      40.362  28.145  27.765  1.00  0.00     0.031 C 
ATOM     42  C   UNL A   1      37.832  31.773  33.040  1.00  0.00     0.029 A 
ATOM     43  C   UNL A   1      39.088  31.073  33.286  1.00  0.00     0.049 A 
ATOM     44  H   UNL A   1      40.160  29.890  31.950  1.00  0.00     0.167 HD
ATOM     45  C   UNL A   1      42.220  27.266  29.152  1.00  0.00     0.037 A 
ATOM     46  C   UNL A   1      39.759  31.078  34.455  1.00  0.00     0.037 A 
ATOM     47  C   UNL A   1      42.984  27.179  30.370  1.00  0.00     0.049 A 
ATOM     48  C   UNL A   1      41.000  30.245  34.600  1.00  0.00     0.074 A 
ATOM     49  C   UNL A   1      44.157  26.481  30.602  1.00  0.00     0.029 A 
ATOM     50  N   UNL A   1      42.662  27.825  31.553  1.00  0.00    -0.354 N 
ATOM     51  N   UNL A   1      41.595  29.491  33.709  1.00  0.00    -0.248 NA
ATOM     52  C   UNL A   1      41.645  30.238  35.921  1.00  0.00     0.031 C 
ATOM     53  C   UNL A   1      44.528  26.678  31.936  1.00  0.00     0.029 A 
ATOM     54  C   UNL A   1      43.608  27.531  32.524  1.00  0.00     0.049 A 
ATOM     55  H   UNL A   1      41.879  28.406  31.685  1.00  0.00     0.167 HD
ATOM     56  C   UNL A   1      42.680  28.918  34.357  1.00  0.00     0.074 A 
ATOM     57  C   UNL A   1      42.677  29.430  35.712  1.00  0.00     0.031 C 
ATOM     58  C   UNL A   1      43.589  28.039  33.871  1.00  0.00     0.037 A 
BRANCH  45  59
ATOM     59  C   UNL A   1      42.692  26.467  27.973  1.00  0.00     0.064 A 
ATOM     60  C   UNL A   1      42.324  25.118  27.848  1.00  0.00     0.173 A 
ATOM     61  C   UNL A   1      43.549  27.006  27.003  1.00  0.00     0.173 A 
ATOM     62  F   UNL A   1      41.512  24.552  28.753  1.00  0.00    -0.203 F 
ATOM     63  C   UNL A   1      42.805  24.336  26.801  1.00  0.00     0.198 A 
ATOM     64  C   UNL A   1      44.006  26.228  25.942  1.00  0.00     0.198 A 
ATOM     65  F   UNL A   1      43.920  28.293  27.070  1.00  0.00    -0.203 F 
ATOM     66  F   UNL A   1      42.461  23.043  26.718  1.00  0.00    -0.200 F 
ATOM     67  C   UNL A   1      43.641  24.893  25.846  1.00  0.00     0.200 A 
ATOM     68  F   UNL A   1      44.797  26.773  25.006  1.00  0.00    -0.200 F 
ATOM     69  F   UNL A   1      44.093  24.144  24.830  1.00  0.00    -0.200 F 
ENDBRANCH  45  59
BRANCH  46  70
ATOM     70  C   UNL A   1      39.236  31.884  35.588  1.00  0.00     0.064 A 
ATOM     71  C   UNL A   1      39.658  33.206  35.796  1.00  0.00     0.173 A 
ATOM     72  C   UNL A   1      38.349  31.328  36.517  1.00  0.00     0.173 A 
ATOM     73  F   UNL A   1      40.507  33.784  34.932  1.00  0.00    -0.203 F 
ATOM     74  C   UNL A   1      39.242  33.928  36.911  1.00  0.00     0.198 A 
ATOM     75  C   UNL A   1      37.911  32.060  37.619  1.00  0.00     0.198 A 
ATOM     76  F   UNL A   1      37.897  30.077  36.346  1.00  0.00    -0.203 F 
ATOM     77  F   UNL A   1      39.699  35.171  37.112  1.00  0.00    -0.200 F 
ATOM     78  C   UNL A   1      38.368  33.354  37.822  1.00  0.00     0.200 A 
ATOM     79  F   UNL A   1      37.047  31.512  38.485  1.00  0.00    -0.200 F 
ATOM     80  F   UNL A   1      37.967  34.049  38.896  1.00  0.00    -0.200 F 
ENDBRANCH  46  70
BRANCH  58  81
ATOM     81  C   UNL A   1      44.663  27.570  34.805  1.00  0.00     0.064 A 
ATOM     82  C   UNL A   1      44.469  26.431  35.602  1.00  0.00     0.173 A 
ATOM     83  C   UNL A   1      45.859  28.285  34.958  1.00  0.00     0.173 A 
ATOM     84  F   UNL A   1      43.339  25.717  35.495  1.00  0.00    -0.203 F 
ATOM     85  C   UNL A   1      45.430  26.034  36.528  1.00  0.00     0.198 A 
ATOM     86  C   UNL A   1      46.827  27.872  35.869  1.00  0.00     0.198 A 
ATOM     87  F   UNL A   1      46.095  29.372  34.208  1.00  0.00    -0.203 F 
ATOM     88  F   UNL A   1      45.212  24.959  37.298  1.00  0.00    -0.200 F 
ATOM     89  C   UNL A   1      46.609  26.753  36.658  1.00  0.00     0.200 A 
ATOM     90  F   UNL A   1      47.976  28.555  35.980  1.00  0.00    -0.200 F 
ATOM     91  F   UNL A   1      47.536  26.364  37.544  1.00  0.00    -0.200 F 
ENDBRANCH  58  81
ENDBRANCH  32  33
ENDBRANCH  25  27
ENDBRANCH  24  25
ENDBRANCH  23  24
ENDBRANCH   1  23
TORSDOF 14
ENDMDL
