MODEL 1
REMARK VINA RESULT:     -12.3      0.000      0.000
REMARK SMILES COCC[C@]1(C(=O)OCCOC(=O)c2ccc(-c3c4nc(c(-c5c(F)c(F)c(F)c(F)c5F)c5ccc([nH]5)c(-c5c(F)c(F)c(F)c(F)c5F)c5nc(c(-c6c(F)c(F)c(F)c(F)c6F)c6ccc3[nH]6)C=C5)C=C4)cc2)CCCN(C(=O)Cc2c(C)nc(C)[nH]c2=O)C1
REMARK SMILES IDX 9 1 8 2 6 3 7 4 5 5 77 6 93 7 78 8 80 9 79 10 4 11 3 12 2 13
REMARK SMILES IDX 1 14 81 15 82 16 83 17 84 18 85 19 91 20 86 21 87 22 90 23
REMARK SMILES IDX 92 24 88 25 89 27 10 28 11 29 12 30 13 31 14 32 15 33 76 34
REMARK SMILES IDX 16 35 75 36 17 37 18 38 19 39 69 40 20 41 74 42 68 43 70 44
REMARK SMILES IDX 21 45 73 46 67 47 66 48 22 50 54 51 34 52 53 53 35 54 38 55
REMARK SMILES IDX 52 56 71 57 36 58 37 59 51 61 72 62 39 63 23 64 24 65 32 66
REMARK SMILES IDX 25 67 26 68 30 69 33 70 27 71 28 72 31 73 29 74 55 75 56 76
REMARK SMILES IDX 64 77 57 78 58 79 62 80 65 81 59 82 60 83 63 84 61 85 40 86
REMARK SMILES IDX 41 87 49 88 42 89 43 90 47 91 50 92 44 93 45 94 48 95 46 96
REMARK H PARENT 90 26 70 49 38 60
REMARK Flexibility Score: inf
ROOT
ATOM      1  C   UNL A   1      31.397  29.662  24.997  1.00  0.00     0.274 C 
ENDROOT
BRANCH   1   2
ATOM      2  O   UNL A   1      31.934  28.480  25.631  1.00  0.00    -0.462 OA
BRANCH   2   3
ATOM      3  C   UNL A   1      33.041  27.932  25.053  1.00  0.00     0.314 C 
ATOM      4  O   UNL A   1      34.058  28.579  24.859  1.00  0.00    -0.252 OA
BRANCH   3   5
ATOM      5  C   UNL A   1      32.827  26.466  24.613  1.00  0.00     0.088 C 
ATOM      6  C   UNL A   1      31.543  26.355  23.719  1.00  0.00     0.022 C 
ATOM      7  C   UNL A   1      34.041  26.069  23.758  1.00  0.00     0.138 C 
ATOM      8  C   UNL A   1      31.412  25.011  22.991  1.00  0.00     0.023 C 
ATOM      9  N   UNL A   1      33.847  24.736  23.172  1.00  0.00    -0.341 N 
ATOM     10  C   UNL A   1      32.708  24.656  22.267  1.00  0.00     0.119 C 
BRANCH   5  11
ATOM     11  C   UNL A   1      32.636  25.495  25.826  1.00  0.00     0.049 C 
BRANCH  11  12
ATOM     12  C   UNL A   1      31.233  25.050  26.265  1.00  0.00     0.161 C 
BRANCH  12  13
ATOM     13  O   UNL A   1      31.228  23.984  27.200  1.00  0.00    -0.385 OA
ATOM     14  C   UNL A   1      30.292  22.962  26.863  1.00  0.00     0.194 C 
ENDBRANCH  12  13
ENDBRANCH  11  12
ENDBRANCH   5  11
BRANCH   9  15
ATOM     15  C   UNL A   1      34.717  23.711  23.522  1.00  0.00     0.227 C 
ATOM     16  O   UNL A   1      35.604  23.344  22.743  1.00  0.00    -0.275 OA
BRANCH  15  17
ATOM     17  C   UNL A   1      34.537  22.940  24.834  1.00  0.00     0.143 C 
BRANCH  17  18
ATOM     18  C   UNL A   1      34.428  21.441  24.746  1.00  0.00     0.048 A 
ATOM     19  C   UNL A   1      33.364  20.729  24.316  1.00  0.00     0.049 A 
ATOM     20  C   UNL A   1      35.648  20.662  25.087  1.00  0.00     0.254 A 
ATOM     21  C   UNL A   1      32.063  21.338  23.847  1.00  0.00     0.067 C 
ATOM     22  N   UNL A   1      33.327  19.354  24.266  1.00  0.00    -0.240 NA
ATOM     23  N   UNL A   1      35.554  19.310  24.945  1.00  0.00    -0.311 N 
ATOM     24  O   UNL A   1      36.683  21.193  25.473  1.00  0.00    -0.269 OA
ATOM     25  C   UNL A   1      34.401  18.702  24.560  1.00  0.00     0.105 A 
ATOM     26  H   UNL A   1      36.347  18.755  25.126  1.00  0.00     0.171 HD
ATOM     27  C   UNL A   1      34.409  17.202  24.531  1.00  0.00     0.087 C 
ENDBRANCH  17  18
ENDBRANCH  15  17
ENDBRANCH   9  15
ENDBRANCH   3   5
ENDBRANCH   2   3
ENDBRANCH   1   2
BRANCH   1  28
ATOM     28  C   UNL A   1      31.381  30.829  25.980  1.00  0.00     0.275 C 
BRANCH  28  29
ATOM     29  O   UNL A   1      32.402  30.642  26.978  1.00  0.00    -0.458 OA
BRANCH  29  30
ATOM     30  C   UNL A   1      33.135  31.737  27.278  1.00  0.00     0.338 C 
ATOM     31  O   UNL A   1      32.766  32.899  27.275  1.00  0.00    -0.246 OA
BRANCH  30  32
ATOM     32  C   UNL A   1      34.502  31.353  27.675  1.00  0.00     0.060 A 
ATOM     33  C   UNL A   1      34.780  30.028  27.984  1.00  0.00     0.016 A 
ATOM     34  C   UNL A   1      35.453  32.337  27.936  1.00  0.00     0.016 A 
ATOM     35  C   UNL A   1      35.925  29.709  28.715  1.00  0.00     0.010 A 
ATOM     36  C   UNL A   1      36.673  31.985  28.531  1.00  0.00     0.010 A 
ATOM     37  C   UNL A   1      36.903  30.675  28.991  1.00  0.00    -0.014 A 
BRANCH  37  38
ATOM     38  C   UNL A   1      38.127  30.337  29.786  1.00  0.00     0.031 A 
ATOM     39  C   UNL A   1      39.207  29.457  29.196  1.00  0.00     0.074 A 
ATOM     40  C   UNL A   1      38.303  30.817  31.036  1.00  0.00     0.049 A 
ATOM     41  N   UNL A   1      40.220  28.869  29.786  1.00  0.00    -0.248 NA
ATOM     42  C   UNL A   1      39.131  29.191  27.750  1.00  0.00     0.031 C 
ATOM     43  C   UNL A   1      37.394  31.724  31.737  1.00  0.00     0.029 A 
ATOM     44  N   UNL A   1      39.322  30.616  31.940  1.00  0.00    -0.354 N 
ATOM     45  C   UNL A   1      40.843  28.101  28.808  1.00  0.00     0.074 A 
ATOM     46  C   UNL A   1      40.104  28.306  27.581  1.00  0.00     0.031 C 
ATOM     47  C   UNL A   1      37.918  32.047  32.927  1.00  0.00     0.029 A 
ATOM     48  C   UNL A   1      39.142  31.282  33.128  1.00  0.00     0.049 A 
ATOM     49  H   UNL A   1      40.105  30.049  31.753  1.00  0.00     0.167 HD
ATOM     50  C   UNL A   1      41.928  27.296  28.924  1.00  0.00     0.037 A 
ATOM     51  C   UNL A   1      39.843  31.247  34.277  1.00  0.00     0.037 A 
ATOM     52  C   UNL A   1      42.718  27.156  30.122  1.00  0.00     0.049 A 
ATOM     53  C   UNL A   1      41.031  30.336  34.388  1.00  0.00     0.074 A 
ATOM     54  C   UNL A   1      43.849  26.384  30.327  1.00  0.00     0.029 A 
ATOM     55  N   UNL A   1      42.473  27.825  31.312  1.00  0.00    -0.354 N 
ATOM     56  N   UNL A   1      41.560  29.551  33.482  1.00  0.00    -0.248 NA
ATOM     57  C   UNL A   1      41.703  30.285  35.694  1.00  0.00     0.031 C 
ATOM     58  C   UNL A   1      44.268  26.560  31.650  1.00  0.00     0.029 A 
ATOM     59  C   UNL A   1      43.426  27.476  32.257  1.00  0.00     0.049 A 
ATOM     60  H   UNL A   1      41.731  28.455  31.463  1.00  0.00     0.167 HD
ATOM     61  C   UNL A   1      42.630  28.921  34.103  1.00  0.00     0.074 A 
ATOM     62  C   UNL A   1      42.691  29.433  35.456  1.00  0.00     0.031 C 
ATOM     63  C   UNL A   1      43.479  27.994  33.598  1.00  0.00     0.037 A 
BRANCH  50  64
ATOM     64  C   UNL A   1      42.310  26.461  27.734  1.00  0.00     0.064 A 
ATOM     65  C   UNL A   1      43.290  26.867  26.817  1.00  0.00     0.173 A 
ATOM     66  C   UNL A   1      41.711  25.205  27.537  1.00  0.00     0.173 A 
ATOM     67  F   UNL A   1      43.886  28.061  26.952  1.00  0.00    -0.203 F 
ATOM     68  C   UNL A   1      43.635  26.062  25.734  1.00  0.00     0.198 A 
ATOM     69  C   UNL A   1      42.079  24.390  26.470  1.00  0.00     0.198 A 
ATOM     70  F   UNL A   1      40.775  24.763  28.391  1.00  0.00    -0.203 F 
ATOM     71  F   UNL A   1      44.542  26.490  24.845  1.00  0.00    -0.200 F 
ATOM     72  C   UNL A   1      43.036  24.822  25.566  1.00  0.00     0.200 A 
ATOM     73  F   UNL A   1      41.509  23.187  26.320  1.00  0.00    -0.200 F 
ATOM     74  F   UNL A   1      43.376  24.046  24.527  1.00  0.00    -0.200 F 
ENDBRANCH  50  64
BRANCH  51  75
ATOM     75  C   UNL A   1      39.404  32.069  35.436  1.00  0.00     0.064 A 
ATOM     76  C   UNL A   1      39.834  33.394  35.585  1.00  0.00     0.173 A 
ATOM     77  C   UNL A   1      38.544  31.548  36.417  1.00  0.00     0.173 A 
ATOM     78  F   UNL A   1      40.684  33.926  34.693  1.00  0.00    -0.203 F 
ATOM     79  C   UNL A   1      39.425  34.165  36.671  1.00  0.00     0.198 A 
ATOM     80  C   UNL A   1      38.110  32.330  37.483  1.00  0.00     0.198 A 
ATOM     81  F   UNL A   1      38.111  30.282  36.326  1.00  0.00    -0.203 F 
ATOM     82  F   UNL A   1      39.888  35.415  36.813  1.00  0.00    -0.200 F 
ATOM     83  C   UNL A   1      38.556  33.637  37.613  1.00  0.00     0.200 A 
ATOM     84  F   UNL A   1      37.261  31.818  38.384  1.00  0.00    -0.200 F 
ATOM     85  F   UNL A   1      38.156  34.381  38.652  1.00  0.00    -0.200 F 
ENDBRANCH  51  75
BRANCH  63  86
ATOM     86  C   UNL A   1      44.568  27.504  34.504  1.00  0.00     0.064 A 
ATOM     87  C   UNL A   1      45.799  28.169  34.602  1.00  0.00     0.173 A 
ATOM     88  C   UNL A   1      44.375  26.358  35.291  1.00  0.00     0.173 A 
ATOM     89  F   UNL A   1      46.038  29.259  33.857  1.00  0.00    -0.203 F 
ATOM     90  C   UNL A   1      46.807  27.691  35.435  1.00  0.00     0.198 A 
ATOM     91  C   UNL A   1      45.376  25.897  36.142  1.00  0.00     0.198 A 
ATOM     92  F   UNL A   1      43.214  25.689  35.237  1.00  0.00    -0.203 F 
ATOM     93  F   UNL A   1      47.993  28.312  35.475  1.00  0.00    -0.200 F 
ATOM     94  C   UNL A   1      46.593  26.558  36.207  1.00  0.00     0.200 A 
ATOM     95  F   UNL A   1      45.164  24.809  36.895  1.00  0.00    -0.200 F 
ATOM     96  F   UNL A   1      47.564  26.097  37.006  1.00  0.00    -0.200 F 
ENDBRANCH  63  86
ENDBRANCH  37  38
ENDBRANCH  30  32
ENDBRANCH  29  30
ENDBRANCH  28  29
ENDBRANCH   1  28
TORSDOF 17
ENDMDL
MODEL 2
REMARK VINA RESULT:     -12.3      4.171      9.790
REMARK SMILES COCC[C@]1(C(=O)OCCOC(=O)c2ccc(-c3c4nc(c(-c5c(F)c(F)c(F)c(F)c5F)c5ccc([nH]5)c(-c5c(F)c(F)c(F)c(F)c5F)c5nc(c(-c6c(F)c(F)c(F)c(F)c6F)c6ccc3[nH]6)C=C5)C=C4)cc2)CCCN(C(=O)Cc2c(C)nc(C)[nH]c2=O)C1
REMARK SMILES IDX 9 1 8 2 6 3 7 4 5 5 77 6 93 7 78 8 80 9 79 10 4 11 3 12 2 13
REMARK SMILES IDX 1 14 81 15 82 16 83 17 84 18 85 19 91 20 86 21 87 22 90 23
REMARK SMILES IDX 92 24 88 25 89 27 10 28 11 29 12 30 13 31 14 32 15 33 76 34
REMARK SMILES IDX 16 35 75 36 17 37 18 38 19 39 69 40 20 41 74 42 68 43 70 44
REMARK SMILES IDX 21 45 73 46 67 47 66 48 22 50 54 51 34 52 53 53 35 54 38 55
REMARK SMILES IDX 52 56 71 57 36 58 37 59 51 61 72 62 39 63 23 64 24 65 32 66
REMARK SMILES IDX 25 67 26 68 30 69 33 70 27 71 28 72 31 73 29 74 55 75 56 76
REMARK SMILES IDX 64 77 57 78 58 79 62 80 65 81 59 82 60 83 63 84 61 85 40 86
REMARK SMILES IDX 41 87 49 88 42 89 43 90 47 91 50 92 44 93 45 94 48 95 46 96
REMARK H PARENT 90 26 70 49 38 60
REMARK Flexibility Score: inf
ROOT
ATOM      1  C   UNL A   1      35.892  20.397  25.122  1.00  0.00     0.274 C 
ENDROOT
BRANCH   1   2
ATOM      2  O   UNL A   1      35.049  21.468  24.643  1.00  0.00    -0.462 OA
BRANCH   2   3
ATOM      3  C   UNL A   1      33.730  21.167  24.466  1.00  0.00     0.314 C 
ATOM      4  O   UNL A   1      33.363  20.073  24.067  1.00  0.00    -0.252 OA
BRANCH   3   5
ATOM      5  C   UNL A   1      32.797  22.368  24.742  1.00  0.00     0.088 C 
ATOM      6  C   UNL A   1      31.547  21.899  25.563  1.00  0.00     0.022 C 
ATOM      7  C   UNL A   1      33.588  23.366  25.603  1.00  0.00     0.138 C 
ATOM      8  C   UNL A   1      30.719  23.054  26.142  1.00  0.00     0.023 C 
ATOM      9  N   UNL A   1      32.725  24.471  26.038  1.00  0.00    -0.341 N 
ATOM     10  C   UNL A   1      31.614  24.047  26.880  1.00  0.00     0.119 C 
BRANCH   5  11
ATOM     11  C   UNL A   1      32.270  23.035  23.428  1.00  0.00     0.049 C 
BRANCH  11  12
ATOM     12  C   UNL A   1      33.197  23.235  22.220  1.00  0.00     0.161 C 
BRANCH  12  13
ATOM     13  O   UNL A   1      33.714  24.549  22.096  1.00  0.00    -0.385 OA
ATOM     14  C   UNL A   1      32.722  25.496  21.703  1.00  0.00     0.194 C 
ENDBRANCH  12  13
ENDBRANCH  11  12
ENDBRANCH   5  11
BRANCH   9  15
ATOM     15  C   UNL A   1      33.018  25.764  25.622  1.00  0.00     0.227 C 
ATOM     16  O   UNL A   1      34.063  26.005  25.006  1.00  0.00    -0.275 OA
BRANCH  15  17
ATOM     17  C   UNL A   1      32.111  26.938  26.001  1.00  0.00     0.143 C 
BRANCH  17  18
ATOM     18  C   UNL A   1      31.448  27.691  24.879  1.00  0.00     0.048 A 
ATOM     19  C   UNL A   1      30.363  27.306  24.173  1.00  0.00     0.049 A 
ATOM     20  C   UNL A   1      31.992  29.040  24.569  1.00  0.00     0.254 A 
ATOM     21  C   UNL A   1      29.617  26.011  24.395  1.00  0.00     0.067 C 
ATOM     22  N   UNL A   1      29.808  28.042  23.152  1.00  0.00    -0.240 NA
ATOM     23  N   UNL A   1      31.345  29.736  23.591  1.00  0.00    -0.311 N 
ATOM     24  O   UNL A   1      32.964  29.510  25.150  1.00  0.00    -0.269 OA
ATOM     25  C   UNL A   1      30.294  29.212  22.907  1.00  0.00     0.105 A 
ATOM     26  H   UNL A   1      31.647  30.648  23.375  1.00  0.00     0.171 HD
ATOM     27  C   UNL A   1      29.731  30.049  21.796  1.00  0.00     0.087 C 
ENDBRANCH  17  18
ENDBRANCH  15  17
ENDBRANCH   9  15
ENDBRANCH   3   5
ENDBRANCH   2   3
ENDBRANCH   1   2
BRANCH   1  28
ATOM     28  C   UNL A   1      37.328  20.601  24.650  1.00  0.00     0.275 C 
BRANCH  28  29
ATOM     29  O   UNL A   1      37.918  21.715  25.347  1.00  0.00    -0.458 OA
BRANCH  29  30
ATOM     30  C   UNL A   1      39.048  21.441  26.036  1.00  0.00     0.338 C 
ATOM     31  O   UNL A   1      39.640  20.377  26.098  1.00  0.00    -0.246 OA
BRANCH  30  32
ATOM     32  C   UNL A   1      39.546  22.652  26.715  1.00  0.00     0.060 A 
ATOM     33  C   UNL A   1      39.010  23.891  26.391  1.00  0.00     0.016 A 
ATOM     34  C   UNL A   1      40.681  22.581  27.520  1.00  0.00     0.016 A 
ATOM     35  C   UNL A   1      39.703  25.057  26.716  1.00  0.00     0.010 A 
ATOM     36  C   UNL A   1      41.285  23.760  27.976  1.00  0.00     0.010 A 
ATOM     37  C   UNL A   1      40.846  25.020  27.528  1.00  0.00    -0.014 A 
BRANCH  37  38
ATOM     38  C   UNL A   1      41.598  26.270  27.869  1.00  0.00     0.031 A 
ATOM     39  C   UNL A   1      40.961  27.340  28.728  1.00  0.00     0.074 A 
ATOM     40  C   UNL A   1      42.861  26.465  27.432  1.00  0.00     0.049 A 
ATOM     41  N   UNL A   1      41.347  28.574  28.948  1.00  0.00    -0.248 NA
ATOM     42  C   UNL A   1      39.714  26.979  29.422  1.00  0.00     0.031 C 
ATOM     43  C   UNL A   1      43.648  25.516  26.645  1.00  0.00     0.029 A 
ATOM     44  N   UNL A   1      43.714  27.533  27.601  1.00  0.00    -0.354 N 
ATOM     45  C   UNL A   1      40.354  29.156  29.728  1.00  0.00     0.074 A 
ATOM     46  C   UNL A   1      39.351  28.138  29.955  1.00  0.00     0.031 C 
ATOM     47  C   UNL A   1      44.878  26.011  26.452  1.00  0.00     0.029 A 
ATOM     48  C   UNL A   1      44.936  27.361  26.996  1.00  0.00     0.049 A 
ATOM     49  H   UNL A   1      43.472  28.342  28.108  1.00  0.00     0.167 HD
ATOM     50  C   UNL A   1      40.282  30.423  30.205  1.00  0.00     0.037 A 
ATOM     51  C   UNL A   1      45.973  28.207  26.841  1.00  0.00     0.037 A 
ATOM     52  C   UNL A   1      41.318  31.413  30.053  1.00  0.00     0.049 A 
ATOM     53  C   UNL A   1      45.865  29.609  27.364  1.00  0.00     0.074 A 
ATOM     54  C   UNL A   1      41.346  32.715  30.524  1.00  0.00     0.029 A 
ATOM     55  N   UNL A   1      42.523  31.202  29.399  1.00  0.00    -0.354 N 
ATOM     56  N   UNL A   1      44.885  30.174  28.026  1.00  0.00    -0.248 NA
ATOM     57  C   UNL A   1      46.998  30.504  27.090  1.00  0.00     0.031 C 
ATOM     58  C   UNL A   1      42.553  33.302  30.127  1.00  0.00     0.029 A 
ATOM     59  C   UNL A   1      43.296  32.352  29.447  1.00  0.00     0.049 A 
ATOM     60  H   UNL A   1      42.790  30.359  28.965  1.00  0.00     0.167 HD
ATOM     61  C   UNL A   1      45.286  31.482  28.257  1.00  0.00     0.074 A 
ATOM     62  C   UNL A   1      46.609  31.623  27.685  1.00  0.00     0.031 C 
ATOM     63  C   UNL A   1      44.613  32.480  28.879  1.00  0.00     0.037 A 
BRANCH  50  64
ATOM     64  C   UNL A   1      39.019  30.836  30.906  1.00  0.00     0.064 A 
ATOM     65  C   UNL A   1      37.894  31.303  30.212  1.00  0.00     0.173 A 
ATOM     66  C   UNL A   1      38.922  30.717  32.303  1.00  0.00     0.173 A 
ATOM     67  F   UNL A   1      37.935  31.446  28.879  1.00  0.00    -0.203 F 
ATOM     68  C   UNL A   1      36.730  31.660  30.891  1.00  0.00     0.198 A 
ATOM     69  C   UNL A   1      37.748  31.047  32.976  1.00  0.00     0.198 A 
ATOM     70  F   UNL A   1      39.966  30.265  33.016  1.00  0.00    -0.203 F 
ATOM     71  F   UNL A   1      35.682  32.146  30.211  1.00  0.00    -0.200 F 
ATOM     72  C   UNL A   1      36.656  31.525  32.269  1.00  0.00     0.200 A 
ATOM     73  F   UNL A   1      37.675  30.901  34.306  1.00  0.00    -0.200 F 
ATOM     74  F   UNL A   1      35.533  31.862  32.918  1.00  0.00    -0.200 F 
ENDBRANCH  50  64
BRANCH  51  75
ATOM     75  C   UNL A   1      47.189  27.759  26.111  1.00  0.00     0.064 A 
ATOM     76  C   UNL A   1      48.324  27.318  26.803  1.00  0.00     0.173 A 
ATOM     77  C   UNL A   1      47.239  27.758  24.708  1.00  0.00     0.173 A 
ATOM     78  F   UNL A   1      48.338  27.333  28.145  1.00  0.00    -0.203 F 
ATOM     79  C   UNL A   1      49.465  26.900  26.122  1.00  0.00     0.198 A 
ATOM     80  C   UNL A   1      48.367  27.308  24.028  1.00  0.00     0.198 A 
ATOM     81  F   UNL A   1      46.181  28.178  23.998  1.00  0.00    -0.203 F 
ATOM     82  F   UNL A   1      50.554  26.527  26.808  1.00  0.00    -0.200 F 
ATOM     83  C   UNL A   1      49.482  26.885  24.735  1.00  0.00     0.200 A 
ATOM     84  F   UNL A   1      48.373  27.284  22.688  1.00  0.00    -0.200 F 
ATOM     85  F   UNL A   1      50.575  26.474  24.079  1.00  0.00    -0.200 F 
ENDBRANCH  51  75
BRANCH  63  86
ATOM     86  C   UNL A   1      45.313  33.799  29.004  1.00  0.00     0.064 A 
ATOM     87  C   UNL A   1      45.164  34.805  28.039  1.00  0.00     0.173 A 
ATOM     88  C   UNL A   1      46.138  34.064  30.109  1.00  0.00     0.173 A 
ATOM     89  F   UNL A   1      44.401  34.594  26.956  1.00  0.00    -0.203 F 
ATOM     90  C   UNL A   1      45.836  36.018  28.160  1.00  0.00     0.198 A 
ATOM     91  C   UNL A   1      46.787  35.288  30.240  1.00  0.00     0.198 A 
ATOM     92  F   UNL A   1      46.309  33.135  31.062  1.00  0.00    -0.203 F 
ATOM     93  F   UNL A   1      45.720  36.946  27.201  1.00  0.00    -0.200 F 
ATOM     94  C   UNL A   1      46.643  36.260  29.262  1.00  0.00     0.200 A 
ATOM     95  F   UNL A   1      47.559  35.524  31.311  1.00  0.00    -0.200 F 
ATOM     96  F   UNL A   1      47.291  37.427  29.377  1.00  0.00    -0.200 F 
ENDBRANCH  63  86
ENDBRANCH  37  38
ENDBRANCH  30  32
ENDBRANCH  29  30
ENDBRANCH  28  29
ENDBRANCH   1  28
TORSDOF 17
ENDMDL
MODEL 3
REMARK VINA RESULT:     -12.2      4.219      9.856
REMARK SMILES COCC[C@]1(C(=O)OCCOC(=O)c2ccc(-c3c4nc(c(-c5c(F)c(F)c(F)c(F)c5F)c5ccc([nH]5)c(-c5c(F)c(F)c(F)c(F)c5F)c5nc(c(-c6c(F)c(F)c(F)c(F)c6F)c6ccc3[nH]6)C=C5)C=C4)cc2)CCCN(C(=O)Cc2c(C)nc(C)[nH]c2=O)C1
REMARK SMILES IDX 9 1 8 2 6 3 7 4 5 5 77 6 93 7 78 8 80 9 79 10 4 11 3 12 2 13
REMARK SMILES IDX 1 14 81 15 82 16 83 17 84 18 85 19 91 20 86 21 87 22 90 23
REMARK SMILES IDX 92 24 88 25 89 27 10 28 11 29 12 30 13 31 14 32 15 33 76 34
REMARK SMILES IDX 16 35 75 36 17 37 18 38 19 39 69 40 20 41 74 42 68 43 70 44
REMARK SMILES IDX 21 45 73 46 67 47 66 48 22 50 54 51 34 52 53 53 35 54 38 55
REMARK SMILES IDX 52 56 71 57 36 58 37 59 51 61 72 62 39 63 23 64 24 65 32 66
REMARK SMILES IDX 25 67 26 68 30 69 33 70 27 71 28 72 31 73 29 74 55 75 56 76
REMARK SMILES IDX 64 77 57 78 58 79 62 80 65 81 59 82 60 83 63 84 61 85 40 86
REMARK SMILES IDX 41 87 49 88 42 89 43 90 47 91 50 92 44 93 45 94 48 95 46 96
REMARK H PARENT 90 26 70 49 38 60
REMARK Flexibility Score: inf
ROOT
ATOM      1  C   UNL A   1      35.187  20.680  25.098  1.00  0.00     0.274 C 
ENDROOT
BRANCH   1   2
ATOM      2  O   UNL A   1      34.893  21.846  24.297  1.00  0.00    -0.462 OA
BRANCH   2   3
ATOM      3  C   UNL A   1      33.577  22.074  24.019  1.00  0.00     0.314 C 
ATOM      4  O   UNL A   1      32.868  21.224  23.502  1.00  0.00    -0.252 OA
BRANCH   3   5
ATOM      5  C   UNL A   1      33.132  23.516  24.353  1.00  0.00     0.088 C 
ATOM      6  C   UNL A   1      34.229  24.230  25.215  1.00  0.00     0.022 C 
ATOM      7  C   UNL A   1      33.006  24.269  23.020  1.00  0.00     0.138 C 
ATOM      8  C   UNL A   1      34.024  25.745  25.344  1.00  0.00     0.023 C 
ATOM      9  N   UNL A   1      32.732  25.693  23.254  1.00  0.00    -0.341 N 
ATOM     10  C   UNL A   1      33.796  26.381  23.975  1.00  0.00     0.119 C 
BRANCH   5  11
ATOM     11  C   UNL A   1      31.797  23.561  25.167  1.00  0.00     0.049 C 
BRANCH  11  12
ATOM     12  C   UNL A   1      31.719  22.974  26.585  1.00  0.00     0.161 C 
BRANCH  12  13
ATOM     13  O   UNL A   1      30.661  23.497  27.372  1.00  0.00    -0.385 OA
ATOM     14  C   UNL A   1      29.459  22.739  27.249  1.00  0.00     0.194 C 
ENDBRANCH  12  13
ENDBRANCH  11  12
ENDBRANCH   5  11
BRANCH   9  15
ATOM     15  C   UNL A   1      31.536  26.235  22.802  1.00  0.00     0.227 C 
ATOM     16  O   UNL A   1      31.129  25.998  21.659  1.00  0.00    -0.275 OA
BRANCH  15  17
ATOM     17  C   UNL A   1      30.743  27.222  23.665  1.00  0.00     0.143 C 
BRANCH  17  18
ATOM     18  C   UNL A   1      30.049  28.356  22.960  1.00  0.00     0.048 A 
ATOM     19  C   UNL A   1      28.718  28.570  22.882  1.00  0.00     0.049 A 
ATOM     20  C   UNL A   1      30.920  29.399  22.356  1.00  0.00     0.254 A 
ATOM     21  C   UNL A   1      27.672  27.672  23.501  1.00  0.00     0.067 C 
ATOM     22  N   UNL A   1      28.146  29.628  22.213  1.00  0.00    -0.240 NA
ATOM     23  N   UNL A   1      30.279  30.451  21.773  1.00  0.00    -0.311 N 
ATOM     24  O   UNL A   1      32.144  29.329  22.375  1.00  0.00    -0.269 OA
ATOM     25  C   UNL A   1      28.924  30.523  21.705  1.00  0.00     0.105 A 
ATOM     26  H   UNL A   1      30.814  31.184  21.391  1.00  0.00     0.171 HD
ATOM     27  C   UNL A   1      28.349  31.689  20.957  1.00  0.00     0.087 C 
ENDBRANCH  17  18
ENDBRANCH  15  17
ENDBRANCH   9  15
ENDBRANCH   3   5
ENDBRANCH   2   3
ENDBRANCH   1   2
BRANCH   1  28
ATOM     28  C   UNL A   1      36.669  20.331  25.001  1.00  0.00     0.275 C 
BRANCH  28  29
ATOM     29  O   UNL A   1      37.466  21.493  25.298  1.00  0.00    -0.458 OA
BRANCH  29  30
ATOM     30  C   UNL A   1      38.687  21.245  25.822  1.00  0.00     0.338 C 
ATOM     31  O   UNL A   1      39.333  20.215  25.743  1.00  0.00    -0.246 OA
BRANCH  30  32
ATOM     32  C   UNL A   1      39.209  22.443  26.506  1.00  0.00     0.060 A 
ATOM     33  C   UNL A   1      38.669  23.689  26.218  1.00  0.00     0.016 A 
ATOM     34  C   UNL A   1      40.366  22.354  27.279  1.00  0.00     0.016 A 
ATOM     35  C   UNL A   1      39.376  24.847  26.543  1.00  0.00     0.010 A 
ATOM     36  C   UNL A   1      40.987  23.524  27.737  1.00  0.00     0.010 A 
ATOM     37  C   UNL A   1      40.540  24.792  27.322  1.00  0.00    -0.014 A 
BRANCH  37  38
ATOM     38  C   UNL A   1      41.307  26.034  27.662  1.00  0.00     0.031 A 
ATOM     39  C   UNL A   1      40.676  27.120  28.505  1.00  0.00     0.074 A 
ATOM     40  C   UNL A   1      42.578  26.208  27.239  1.00  0.00     0.049 A 
ATOM     41  N   UNL A   1      41.077  28.350  28.721  1.00  0.00    -0.248 NA
ATOM     42  C   UNL A   1      39.415  26.782  29.188  1.00  0.00     0.031 C 
ATOM     43  C   UNL A   1      43.360  25.241  26.468  1.00  0.00     0.029 A 
ATOM     44  N   UNL A   1      43.444  27.264  27.410  1.00  0.00    -0.354 N 
ATOM     45  C   UNL A   1      40.083  28.952  29.484  1.00  0.00     0.074 A 
ATOM     46  C   UNL A   1      39.063  27.950  29.708  1.00  0.00     0.031 C 
ATOM     47  C   UNL A   1      44.599  25.717  26.286  1.00  0.00     0.029 A 
ATOM     48  C   UNL A   1      44.670  27.070  26.821  1.00  0.00     0.049 A 
ATOM     49  H   UNL A   1      43.208  28.080  27.907  1.00  0.00     0.167 HD
ATOM     50  C   UNL A   1      40.024  30.224  29.951  1.00  0.00     0.037 A 
ATOM     51  C   UNL A   1      45.721  27.899  26.671  1.00  0.00     0.037 A 
ATOM     52  C   UNL A   1      41.076  31.197  29.804  1.00  0.00     0.049 A 
ATOM     53  C   UNL A   1      45.627  29.307  27.182  1.00  0.00     0.074 A 
ATOM     54  C   UNL A   1      41.118  32.502  30.265  1.00  0.00     0.029 A 
ATOM     55  N   UNL A   1      42.286  30.963  29.166  1.00  0.00    -0.354 N 
ATOM     56  N   UNL A   1      44.648  29.891  27.828  1.00  0.00    -0.248 NA
ATOM     57  C   UNL A   1      46.777  30.183  26.915  1.00  0.00     0.031 C 
ATOM     58  C   UNL A   1      42.337  33.068  29.878  1.00  0.00     0.029 A 
ATOM     59  C   UNL A   1      43.075  32.102  29.214  1.00  0.00     0.049 A 
ATOM     60  H   UNL A   1      42.545  30.113  28.742  1.00  0.00     0.167 HD
ATOM     61  C   UNL A   1      45.066  31.195  28.054  1.00  0.00     0.074 A 
ATOM     62  C   UNL A   1      46.397  31.312  27.497  1.00  0.00     0.031 C 
ATOM     63  C   UNL A   1      44.400  32.207  28.661  1.00  0.00     0.037 A 
BRANCH  50  64
ATOM     64  C   UNL A   1      38.759  30.660  30.635  1.00  0.00     0.064 A 
ATOM     65  C   UNL A   1      37.637  31.106  29.922  1.00  0.00     0.173 A 
ATOM     66  C   UNL A   1      38.657  30.585  32.034  1.00  0.00     0.173 A 
ATOM     67  F   UNL A   1      37.683  31.207  28.585  1.00  0.00    -0.203 F 
ATOM     68  C   UNL A   1      36.472  31.486  30.585  1.00  0.00     0.198 A 
ATOM     69  C   UNL A   1      37.481  30.939  32.692  1.00  0.00     0.198 A 
ATOM     70  F   UNL A   1      39.698  30.155  32.765  1.00  0.00    -0.203 F 
ATOM     71  F   UNL A   1      35.427  31.952  29.886  1.00  0.00    -0.200 F 
ATOM     72  C   UNL A   1      36.393  31.396  31.967  1.00  0.00     0.200 A 
ATOM     73  F   UNL A   1      37.403  30.835  34.025  1.00  0.00    -0.200 F 
ATOM     74  F   UNL A   1      35.267  31.754  32.600  1.00  0.00    -0.200 F 
ENDBRANCH  50  64
BRANCH  51  75
ATOM     75  C   UNL A   1      46.938  27.428  25.959  1.00  0.00     0.064 A 
ATOM     76  C   UNL A   1      47.086  27.619  24.579  1.00  0.00     0.173 A 
ATOM     77  C   UNL A   1      47.980  26.780  26.643  1.00  0.00     0.173 A 
ATOM     78  F   UNL A   1      46.103  28.202  23.875  1.00  0.00    -0.203 F 
ATOM     79  C   UNL A   1      48.225  27.177  23.909  1.00  0.00     0.198 A 
ATOM     80  C   UNL A   1      49.131  26.368  25.978  1.00  0.00     0.198 A 
ATOM     81  F   UNL A   1      47.884  26.564  27.963  1.00  0.00    -0.203 F 
ATOM     82  F   UNL A   1      48.320  27.331  22.582  1.00  0.00    -0.200 F 
ATOM     83  C   UNL A   1      49.251  26.561  24.610  1.00  0.00     0.200 A 
ATOM     84  F   UNL A   1      50.125  25.785  26.663  1.00  0.00    -0.200 F 
ATOM     85  F   UNL A   1      50.349  26.144  23.968  1.00  0.00    -0.200 F 
ENDBRANCH  51  75
BRANCH  63  86
ATOM     86  C   UNL A   1      45.118  33.517  28.784  1.00  0.00     0.064 A 
ATOM     87  C   UNL A   1      44.992  34.519  27.812  1.00  0.00     0.173 A 
ATOM     88  C   UNL A   1      45.937  33.776  29.894  1.00  0.00     0.173 A 
ATOM     89  F   UNL A   1      44.235  34.312  26.724  1.00  0.00    -0.203 F 
ATOM     90  C   UNL A   1      45.679  35.723  27.932  1.00  0.00     0.198 A 
ATOM     91  C   UNL A   1      46.602  34.992  30.024  1.00  0.00     0.198 A 
ATOM     92  F   UNL A   1      46.087  32.851  30.854  1.00  0.00    -0.203 F 
ATOM     93  F   UNL A   1      45.585  36.647  26.966  1.00  0.00    -0.200 F 
ATOM     94  C   UNL A   1      46.481  35.960  29.039  1.00  0.00     0.200 A 
ATOM     95  F   UNL A   1      47.368  35.223  31.099  1.00  0.00    -0.200 F 
ATOM     96  F   UNL A   1      47.144  37.119  29.153  1.00  0.00    -0.200 F 
ENDBRANCH  63  86
ENDBRANCH  37  38
ENDBRANCH  30  32
ENDBRANCH  29  30
ENDBRANCH  28  29
ENDBRANCH   1  28
TORSDOF 17
ENDMDL
