MODEL 1
REMARK VINA RESULT:     -12.6      0.000      0.000
REMARK SMILES CCOc1ccc(-c2cnc(N)cc2C(=O)OCCOC(=O)c2ccc(-c3c4nc(c(-c5c(F)c(F)c(F)c(F)c5F)c5ccc([nH]5)c(-c5c(F)c(F)c(F)c(F)c5F)c5nc(c(-c6c(F)c(F)c(F)c(F)c6F)c6ccc3[nH]6)C=C5)C=C4)cc2)c(Cl)c1
REMARK SMILES IDX 18 1 17 2 15 3 16 4 14 5 8 6 9 7 10 8 13 9 11 10 7 11 4 12
REMARK SMILES IDX 5 13 88 14 6 15 86 16 87 17 3 18 2 19 1 20 12 21 19 24 20 25
REMARK SMILES IDX 21 26 22 27 23 28 24 29 85 30 25 31 84 32 26 33 27 34 28 35
REMARK SMILES IDX 78 36 29 37 83 38 77 39 79 40 30 41 82 42 76 43 75 44 31 46
REMARK SMILES IDX 63 47 43 48 62 49 44 50 47 51 61 52 80 53 45 54 46 55 60 57
REMARK SMILES IDX 81 58 48 59 32 60 33 61 41 62 34 63 35 64 39 65 42 66 36 67
REMARK SMILES IDX 37 68 40 69 38 70 64 71 65 72 73 73 66 74 67 75 71 76 74 77
REMARK SMILES IDX 68 78 69 79 72 80 70 81 49 82 50 83 58 84 51 85 52 86 56 87
REMARK SMILES IDX 59 88 53 89 54 90 57 91 55 92
REMARK H PARENT 12 22 12 23 79 45 47 56
REMARK Flexibility Score: inf
ROOT
ATOM      1  C   UNL A   1      32.777  28.078  25.228  1.00  0.00     0.275 C 
ENDROOT
BRANCH   1   2
ATOM      2  O   UNL A   1      32.681  27.051  26.238  1.00  0.00    -0.458 OA
BRANCH   2   3
ATOM      3  C   UNL A   1      31.512  26.367  26.265  1.00  0.00     0.339 C 
ATOM      4  O   UNL A   1      30.500  26.670  26.875  1.00  0.00    -0.246 OA
BRANCH   3   5
ATOM      5  C   UNL A   1      31.643  25.107  25.512  1.00  0.00     0.073 A 
ATOM      6  C   UNL A   1      31.149  24.943  24.204  1.00  0.00     0.016 A 
ATOM      7  C   UNL A   1      31.168  23.641  23.729  1.00  0.00     0.123 A 
ATOM      8  N   UNL A   1      31.580  22.562  24.448  1.00  0.00    -0.239 NA
ATOM      9  C   UNL A   1      32.098  24.019  26.260  1.00  0.00     0.062 A 
ATOM     10  C   UNL A   1      32.030  22.764  25.698  1.00  0.00     0.124 A 
BRANCH   6  11
ATOM     11  C   UNL A   1      30.486  26.026  23.463  1.00  0.00     0.003 A 
ATOM     12  C   UNL A   1      28.598  29.093  22.526  1.00  0.00     0.120 A 
ATOM     13  C   UNL A   1      27.913  27.813  23.476  1.00  0.00     0.047 A 
ATOM     14  C   UNL A   1      30.288  28.939  21.972  1.00  0.00     0.067 A 
ATOM     15  C   UNL A   1      28.802  26.350  23.932  1.00  0.00     0.014 A 
ATOM     16  C   UNL A   1      31.337  27.258  22.416  1.00  0.00     0.052 A 
ATOM     17  Cl  UNL A   1      32.975  26.552  22.042  1.00  0.00    -0.084 Cl
BRANCH  12  18
ATOM     18  O   UNL A   1      27.912  30.072  21.870  1.00  0.00    -0.494 OA
BRANCH  18  19
ATOM     19  C   UNL A   1      27.988  31.396  22.369  1.00  0.00     0.226 C 
ATOM     20  C   UNL A   1      27.607  31.498  23.835  1.00  0.00     0.049 C 
ENDBRANCH  18  19
ENDBRANCH  12  18
ENDBRANCH   6  11
BRANCH  10  21
ATOM     21  N   UNL A   1      32.300  21.647  26.462  1.00  0.00    -0.384 N 
ATOM     22  H   UNL A   1      31.696  20.871  26.430  1.00  0.00     0.158 HD
ATOM     23  H   UNL A   1      33.098  21.627  27.039  1.00  0.00     0.158 HD
ENDBRANCH  10  21
ENDBRANCH   3   5
ENDBRANCH   2   3
ENDBRANCH   1   2
BRANCH   1  24
ATOM     24  C   UNL A   1      31.931  29.283  25.625  1.00  0.00     0.275 C 
BRANCH  24  25
ATOM     25  O   UNL A   1      32.785  30.440  25.691  1.00  0.00    -0.458 OA
BRANCH  25  26
ATOM     26  C   UNL A   1      32.604  31.206  26.784  1.00  0.00     0.338 C 
ATOM     27  O   UNL A   1      31.585  31.783  27.128  1.00  0.00    -0.246 OA
BRANCH  26  28
ATOM     28  C   UNL A   1      33.789  31.170  27.648  1.00  0.00     0.060 A 
ATOM     29  C   UNL A   1      34.786  32.640  27.889  1.00  0.00     0.016 A 
ATOM     30  C   UNL A   1      34.557  29.606  27.871  1.00  0.00     0.016 A 
ATOM     31  C   UNL A   1      36.756  32.405  28.306  1.00  0.00     0.010 A 
ATOM     32  C   UNL A   1      36.275  29.407  28.320  1.00  0.00     0.010 A 
ATOM     33  C   UNL A   1      37.424  30.750  28.557  1.00  0.00    -0.014 A 
BRANCH  33  34
ATOM     34  C   UNL A   1      38.708  30.514  29.369  1.00  0.00     0.031 A 
ATOM     35  C   UNL A   1      39.690  29.428  28.947  1.00  0.00     0.074 A 
ATOM     36  C   UNL A   1      38.944  31.083  30.585  1.00  0.00     0.049 A 
ATOM     37  N   UNL A   1      40.604  28.796  29.651  1.00  0.00    -0.248 NA
ATOM     38  C   UNL A   1      39.629  28.986  27.547  1.00  0.00     0.031 C 
ATOM     39  C   UNL A   1      38.262  32.214  31.197  1.00  0.00     0.029 A 
ATOM     40  N   UNL A   1      39.829  30.713  31.592  1.00  0.00    -0.354 N 
ATOM     41  C   UNL A   1      41.184  27.871  28.790  1.00  0.00     0.074 A 
ATOM     42  C   UNL A   1      40.431  27.932  27.555  1.00  0.00     0.031 C 
ATOM     43  C   UNL A   1      38.627  32.370  32.470  1.00  0.00     0.029 A 
ATOM     44  C   UNL A   1      39.598  31.357  32.793  1.00  0.00     0.049 A 
ATOM     45  H   UNL A   1      40.552  30.057  31.462  1.00  0.00     0.167 HD
ATOM     46  C   UNL A   1      42.293  27.104  28.961  1.00  0.00     0.037 A 
ATOM     47  C   UNL A   1      40.075  31.205  34.041  1.00  0.00     0.037 A 
ATOM     48  C   UNL A   1      43.126  27.117  30.139  1.00  0.00     0.049 A 
ATOM     49  C   UNL A   1      41.227  30.295  34.261  1.00  0.00     0.074 A 
ATOM     50  C   UNL A   1      44.342  26.486  30.346  1.00  0.00     0.029 A 
ATOM     51  N   UNL A   1      42.838  27.808  31.306  1.00  0.00    -0.354 N 
ATOM     52  N   UNL A   1      41.792  29.479  33.413  1.00  0.00    -0.248 NA
ATOM     53  C   UNL A   1      41.872  30.361  35.578  1.00  0.00     0.031 C 
ATOM     54  C   UNL A   1      44.768  26.760  31.651  1.00  0.00     0.029 A 
ATOM     55  C   UNL A   1      43.841  27.597  32.244  1.00  0.00     0.049 A 
ATOM     56  H   UNL A   1      42.039  28.366  31.450  1.00  0.00     0.167 HD
ATOM     57  C   UNL A   1      42.912  28.994  34.060  1.00  0.00     0.074 A 
ATOM     58  C   UNL A   1      42.925  29.582  35.384  1.00  0.00     0.031 C 
ATOM     59  C   UNL A   1      43.863  28.168  33.566  1.00  0.00     0.037 A 
BRANCH  46  60
ATOM     60  C   UNL A   1      42.715  26.225  27.809  1.00  0.00     0.064 A 
ATOM     61  C   UNL A   1      43.645  26.662  26.850  1.00  0.00     0.173 A 
ATOM     62  C   UNL A   1      42.202  24.925  27.669  1.00  0.00     0.173 A 
ATOM     63  F   UNL A   1      44.178  27.890  26.937  1.00  0.00    -0.203 F 
ATOM     64  C   UNL A   1      43.992  25.862  25.764  1.00  0.00     0.198 A 
ATOM     65  C   UNL A   1      42.583  24.112  26.603  1.00  0.00     0.198 A 
ATOM     66  F   UNL A   1      41.333  24.439  28.567  1.00  0.00    -0.203 F 
ATOM     67  F   UNL A   1      44.820  26.337  24.824  1.00  0.00    -0.200 F 
ATOM     68  C   UNL A   1      43.464  24.588  25.643  1.00  0.00     0.200 A 
ATOM     69  F   UNL A   1      42.091  22.870  26.499  1.00  0.00    -0.200 F 
ATOM     70  F   UNL A   1      43.797  23.820  24.596  1.00  0.00    -0.200 F 
ENDBRANCH  46  60
BRANCH  47  71
ATOM     71  C   UNL A   1      39.519  32.026  35.152  1.00  0.00     0.064 A 
ATOM     72  C   UNL A   1      38.586  31.492  36.050  1.00  0.00     0.173 A 
ATOM     73  C   UNL A   1      39.959  33.340  35.368  1.00  0.00     0.173 A 
ATOM     74  F   UNL A   1      38.133  30.241  35.877  1.00  0.00    -0.203 F 
ATOM     75  C   UNL A   1      38.106  32.243  37.120  1.00  0.00     0.198 A 
ATOM     76  C   UNL A   1      39.493  34.084  36.452  1.00  0.00     0.198 A 
ATOM     77  F   UNL A   1      40.854  33.895  34.540  1.00  0.00    -0.203 F 
ATOM     78  F   UNL A   1      37.199  31.716  37.953  1.00  0.00    -0.200 F 
ATOM     79  C   UNL A   1      38.565  33.536  37.325  1.00  0.00     0.200 A 
ATOM     80  F   UNL A   1      39.952  35.327  36.657  1.00  0.00    -0.200 F 
ATOM     81  F   UNL A   1      38.113  34.254  38.362  1.00  0.00    -0.200 F 
ENDBRANCH  47  71
BRANCH  59  82
ATOM     82  C   UNL A   1      45.039  27.898  34.450  1.00  0.00     0.064 A 
ATOM     83  C   UNL A   1      46.176  28.719  34.439  1.00  0.00     0.173 A 
ATOM     84  C   UNL A   1      45.034  26.788  35.308  1.00  0.00     0.173 A 
ATOM     85  F   UNL A   1      46.240  29.772  33.610  1.00  0.00    -0.203 F 
ATOM     86  C   UNL A   1      47.277  28.422  35.235  1.00  0.00     0.198 A 
ATOM     87  C   UNL A   1      46.124  26.513  36.127  1.00  0.00     0.198 A 
ATOM     88  F   UNL A   1      43.975  25.965  35.346  1.00  0.00    -0.203 F 
ATOM     89  F   UNL A   1      48.378  29.182  35.161  1.00  0.00    -0.200 F 
ATOM     90  C   UNL A   1      47.248  27.325  36.084  1.00  0.00     0.200 A 
ATOM     91  F   UNL A   1      46.092  25.457  36.951  1.00  0.00    -0.200 F 
ATOM     92  F   UNL A   1      48.309  27.042  36.850  1.00  0.00    -0.200 F 
ENDBRANCH  59  82
ENDBRANCH  33  34
ENDBRANCH  26  28
ENDBRANCH  25  26
ENDBRANCH  24  25
ENDBRANCH   1  24
TORSDOF 15
ENDMDL
MODEL 2
REMARK VINA RESULT:     -12.2      1.595      3.686
REMARK SMILES CCOc1ccc(-c2cnc(N)cc2C(=O)OCCOC(=O)c2ccc(-c3c4nc(c(-c5c(F)c(F)c(F)c(F)c5F)c5ccc([nH]5)c(-c5c(F)c(F)c(F)c(F)c5F)c5nc(c(-c6c(F)c(F)c(F)c(F)c6F)c6ccc3[nH]6)C=C5)C=C4)cc2)c(Cl)c1
REMARK SMILES IDX 18 1 17 2 15 3 16 4 14 5 8 6 9 7 10 8 13 9 11 10 7 11 4 12
REMARK SMILES IDX 5 13 88 14 6 15 86 16 87 17 3 18 2 19 1 20 12 21 19 24 20 25
REMARK SMILES IDX 21 26 22 27 23 28 24 29 85 30 25 31 84 32 26 33 27 34 28 35
REMARK SMILES IDX 78 36 29 37 83 38 77 39 79 40 30 41 82 42 76 43 75 44 31 46
REMARK SMILES IDX 63 47 43 48 62 49 44 50 47 51 61 52 80 53 45 54 46 55 60 57
REMARK SMILES IDX 81 58 48 59 32 60 33 61 41 62 34 63 35 64 39 65 42 66 36 67
REMARK SMILES IDX 37 68 40 69 38 70 64 71 65 72 73 73 66 74 67 75 71 76 74 77
REMARK SMILES IDX 68 78 69 79 72 80 70 81 49 82 50 83 58 84 51 85 52 86 56 87
REMARK SMILES IDX 59 88 53 89 54 90 57 91 55 92
REMARK H PARENT 12 22 12 23 79 45 47 56
REMARK Flexibility Score: inf
ROOT
ATOM      1  C   UNL A   1      31.768  29.035  25.943  1.00  0.00     0.275 C 
ENDROOT
BRANCH   1   2
ATOM      2  O   UNL A   1      32.681  28.887  24.834  1.00  0.00    -0.458 OA
BRANCH   2   3
ATOM      3  C   UNL A   1      32.104  28.655  23.630  1.00  0.00     0.339 C 
ATOM      4  O   UNL A   1      32.443  29.115  22.553  1.00  0.00    -0.246 OA
BRANCH   3   5
ATOM      5  C   UNL A   1      30.901  27.819  23.798  1.00  0.00     0.073 A 
ATOM      6  C   UNL A   1      30.960  26.426  23.991  1.00  0.00     0.016 A 
ATOM      7  C   UNL A   1      29.739  25.772  23.917  1.00  0.00     0.123 A 
ATOM      8  N   UNL A   1      28.554  26.378  23.638  1.00  0.00    -0.239 NA
ATOM      9  C   UNL A   1      29.692  28.468  23.539  1.00  0.00     0.062 A 
ATOM     10  C   UNL A   1      28.547  27.708  23.447  1.00  0.00     0.124 A 
BRANCH   6  11
ATOM     11  C   UNL A   1      32.228  25.687  24.072  1.00  0.00     0.003 A 
ATOM     12  C   UNL A   1      34.873  23.181  24.831  1.00  0.00     0.120 A 
ATOM     13  C   UNL A   1      34.009  24.048  26.062  1.00  0.00     0.047 A 
ATOM     14  C   UNL A   1      34.477  23.500  23.119  1.00  0.00     0.067 A 
ATOM     15  C   UNL A   1      32.745  25.240  25.714  1.00  0.00     0.014 A 
ATOM     16  C   UNL A   1      33.078  24.898  22.661  1.00  0.00     0.052 A 
ATOM     17  Cl  UNL A   1      32.383  25.670  21.163  1.00  0.00    -0.084 Cl
BRANCH  12  18
ATOM     18  O   UNL A   1      36.049  22.510  24.987  1.00  0.00    -0.494 OA
BRANCH  18  19
ATOM     19  C   UNL A   1      36.001  21.110  25.198  1.00  0.00     0.226 C 
ATOM     20  C   UNL A   1      34.605  20.537  25.042  1.00  0.00     0.049 C 
ENDBRANCH  18  19
ENDBRANCH  12  18
ENDBRANCH   6  11
BRANCH  10  21
ATOM     21  N   UNL A   1      27.368  28.280  23.018  1.00  0.00    -0.384 N 
ATOM     22  H   UNL A   1      26.805  27.814  22.360  1.00  0.00     0.158 HD
ATOM     23  H   UNL A   1      27.090  29.157  23.371  1.00  0.00     0.158 HD
ENDBRANCH  10  21
ENDBRANCH   3   5
ENDBRANCH   2   3
ENDBRANCH   1   2
BRANCH   1  24
ATOM     24  C   UNL A   1      31.494  30.512  26.203  1.00  0.00     0.275 C 
BRANCH  24  25
ATOM     25  O   UNL A   1      32.749  31.217  26.206  1.00  0.00    -0.458 OA
BRANCH  25  26
ATOM     26  C   UNL A   1      32.838  32.193  27.130  1.00  0.00     0.338 C 
ATOM     27  O   UNL A   1      32.014  33.058  27.380  1.00  0.00    -0.246 OA
BRANCH  26  28
ATOM     28  C   UNL A   1      34.042  32.027  27.951  1.00  0.00     0.060 A 
ATOM     29  C   UNL A   1      35.274  33.327  28.035  1.00  0.00     0.016 A 
ATOM     30  C   UNL A   1      34.558  30.379  28.272  1.00  0.00     0.016 A 
ATOM     31  C   UNL A   1      37.198  32.802  28.399  1.00  0.00     0.010 A 
ATOM     32  C   UNL A   1      36.242  29.933  28.673  1.00  0.00     0.010 A 
ATOM     33  C   UNL A   1      37.602  31.083  28.759  1.00  0.00    -0.014 A 
BRANCH  33  34
ATOM     34  C   UNL A   1      38.869  30.700  29.541  1.00  0.00     0.031 A 
ATOM     35  C   UNL A   1      39.741  29.546  29.063  1.00  0.00     0.074 A 
ATOM     36  C   UNL A   1      39.172  31.199  30.772  1.00  0.00     0.049 A 
ATOM     37  N   UNL A   1      40.602  28.806  29.729  1.00  0.00    -0.248 NA
ATOM     38  C   UNL A   1      39.622  29.164  27.650  1.00  0.00     0.031 C 
ATOM     39  C   UNL A   1      38.606  32.364  31.436  1.00  0.00     0.029 A 
ATOM     40  N   UNL A   1      40.033  30.712  31.751  1.00  0.00    -0.354 N 
ATOM     41  C   UNL A   1      41.084  27.865  28.825  1.00  0.00     0.074 A 
ATOM     42  C   UNL A   1      40.323  28.041  27.606  1.00  0.00     0.031 C 
ATOM     43  C   UNL A   1      39.000  32.438  32.708  1.00  0.00     0.029 A 
ATOM     44  C   UNL A   1      39.878  31.329  32.977  1.00  0.00     0.049 A 
ATOM     45  H   UNL A   1      40.690  29.998  31.585  1.00  0.00     0.167 HD
ATOM     46  C   UNL A   1      42.119  26.994  28.951  1.00  0.00     0.037 A 
ATOM     47  C   UNL A   1      40.355  31.087  34.212  1.00  0.00     0.037 A 
ATOM     48  C   UNL A   1      42.965  26.886  30.114  1.00  0.00     0.049 A 
ATOM     49  C   UNL A   1      41.421  30.068  34.379  1.00  0.00     0.074 A 
ATOM     50  C   UNL A   1      44.120  26.139  30.278  1.00  0.00     0.029 A 
ATOM     51  N   UNL A   1      42.757  27.556  31.311  1.00  0.00    -0.354 N 
ATOM     52  N   UNL A   1      41.896  29.236  33.493  1.00  0.00    -0.248 NA
ATOM     53  C   UNL A   1      42.086  30.024  35.687  1.00  0.00     0.031 C 
ATOM     54  C   UNL A   1      44.586  26.323  31.585  1.00  0.00     0.029 A 
ATOM     55  C   UNL A   1      43.748  27.219  32.223  1.00  0.00     0.049 A 
ATOM     56  H   UNL A   1      42.015  28.179  31.487  1.00  0.00     0.167 HD
ATOM     57  C   UNL A   1      42.976  28.626  34.104  1.00  0.00     0.074 A 
ATOM     58  C   UNL A   1      43.060  29.160  35.448  1.00  0.00     0.031 C 
ATOM     59  C   UNL A   1      43.840  27.735  33.565  1.00  0.00     0.037 A 
BRANCH  46  60
ATOM     60  C   UNL A   1      42.443  26.124  27.761  1.00  0.00     0.064 A 
ATOM     61  C   UNL A   1      41.780  24.905  27.537  1.00  0.00     0.173 A 
ATOM     62  C   UNL A   1      43.409  26.518  26.821  1.00  0.00     0.173 A 
ATOM     63  F   UNL A   1      40.840  24.480  28.394  1.00  0.00    -0.203 F 
ATOM     64  C   UNL A   1      42.118  24.086  26.462  1.00  0.00     0.198 A 
ATOM     65  C   UNL A   1      43.716  25.715  25.724  1.00  0.00     0.198 A 
ATOM     66  F   UNL A   1      44.056  27.684  26.963  1.00  0.00    -0.203 F 
ATOM     67  F   UNL A   1      41.525  22.892  26.320  1.00  0.00    -0.200 F 
ATOM     68  C   UNL A   1      43.083  24.492  25.556  1.00  0.00     0.200 A 
ATOM     69  F   UNL A   1      44.632  26.120  24.834  1.00  0.00    -0.200 F 
ATOM     70  F   UNL A   1      43.409  23.702  24.523  1.00  0.00    -0.200 F 
ENDBRANCH  46  60
BRANCH  47  71
ATOM     71  C   UNL A   1      39.891  31.913  35.360  1.00  0.00     0.064 A 
ATOM     72  C   UNL A   1      40.459  33.165  35.628  1.00  0.00     0.173 A 
ATOM     73  C   UNL A   1      38.830  31.487  36.173  1.00  0.00     0.173 A 
ATOM     74  F   UNL A   1      41.481  33.608  34.881  1.00  0.00    -0.203 F 
ATOM     75  C   UNL A   1      39.989  33.959  36.672  1.00  0.00     0.198 A 
ATOM     76  C   UNL A   1      38.346  32.293  37.203  1.00  0.00     0.198 A 
ATOM     77  F   UNL A   1      38.250  30.299  35.954  1.00  0.00    -0.203 F 
ATOM     78  F   UNL A   1      40.562  35.144  36.919  1.00  0.00    -0.200 F 
ATOM     79  C   UNL A   1      38.928  33.527  37.453  1.00  0.00     0.200 A 
ATOM     80  F   UNL A   1      37.310  31.879  37.946  1.00  0.00    -0.200 F 
ATOM     81  F   UNL A   1      38.467  34.298  38.448  1.00  0.00    -0.200 F 
ENDBRANCH  47  71
BRANCH  59  82
ATOM     82  C   UNL A   1      44.998  27.326  34.419  1.00  0.00     0.064 A 
ATOM     83  C   UNL A   1      46.205  28.039  34.419  1.00  0.00     0.173 A 
ATOM     84  C   UNL A   1      44.902  26.189  35.235  1.00  0.00     0.173 A 
ATOM     85  F   UNL A   1      46.355  29.113  33.628  1.00  0.00    -0.203 F 
ATOM     86  C   UNL A   1      47.284  27.613  35.186  1.00  0.00     0.198 A 
ATOM     87  C   UNL A   1      45.973  25.785  36.026  1.00  0.00     0.198 A 
ATOM     88  F   UNL A   1      43.772  25.466  35.260  1.00  0.00    -0.203 F 
ATOM     89  F   UNL A   1      48.449  28.272  35.122  1.00  0.00    -0.200 F 
ATOM     90  C   UNL A   1      47.165  26.491  35.994  1.00  0.00     0.200 A 
ATOM     91  F   UNL A   1      45.854  24.705  36.811  1.00  0.00    -0.200 F 
ATOM     92  F   UNL A   1      48.206  26.084  36.732  1.00  0.00    -0.200 F 
ENDBRANCH  59  82
ENDBRANCH  33  34
ENDBRANCH  26  28
ENDBRANCH  25  26
ENDBRANCH  24  25
ENDBRANCH   1  24
TORSDOF 15
ENDMDL
MODEL 3
REMARK VINA RESULT:     -12.2      4.387      9.317
REMARK SMILES CCOc1ccc(-c2cnc(N)cc2C(=O)OCCOC(=O)c2ccc(-c3c4nc(c(-c5c(F)c(F)c(F)c(F)c5F)c5ccc([nH]5)c(-c5c(F)c(F)c(F)c(F)c5F)c5nc(c(-c6c(F)c(F)c(F)c(F)c6F)c6ccc3[nH]6)C=C5)C=C4)cc2)c(Cl)c1
REMARK SMILES IDX 18 1 17 2 15 3 16 4 14 5 8 6 9 7 10 8 13 9 11 10 7 11 4 12
REMARK SMILES IDX 5 13 88 14 6 15 86 16 87 17 3 18 2 19 1 20 12 21 19 24 20 25
REMARK SMILES IDX 21 26 22 27 23 28 24 29 85 30 25 31 84 32 26 33 27 34 28 35
REMARK SMILES IDX 78 36 29 37 83 38 77 39 79 40 30 41 82 42 76 43 75 44 31 46
REMARK SMILES IDX 63 47 43 48 62 49 44 50 47 51 61 52 80 53 45 54 46 55 60 57
REMARK SMILES IDX 81 58 48 59 32 60 33 61 41 62 34 63 35 64 39 65 42 66 36 67
REMARK SMILES IDX 37 68 40 69 38 70 64 71 65 72 73 73 66 74 67 75 71 76 74 77
REMARK SMILES IDX 68 78 69 79 72 80 70 81 49 82 50 83 58 84 51 85 52 86 56 87
REMARK SMILES IDX 59 88 53 89 54 90 57 91 55 92
REMARK H PARENT 12 22 12 23 79 45 47 56
REMARK Flexibility Score: inf
ROOT
ATOM      1  C   UNL A   1      35.442  21.849  26.053  1.00  0.00     0.275 C 
ENDROOT
BRANCH   1   2
ATOM      2  O   UNL A   1      34.213  21.369  26.639  1.00  0.00    -0.458 OA
BRANCH   2   3
ATOM      3  C   UNL A   1      33.078  21.734  25.994  1.00  0.00     0.339 C 
ATOM      4  O   UNL A   1      32.263  22.564  26.358  1.00  0.00    -0.246 OA
BRANCH   3   5
ATOM      5  C   UNL A   1      32.888  20.901  24.793  1.00  0.00     0.073 A 
ATOM      6  C   UNL A   1      32.587  21.441  23.529  1.00  0.00     0.016 A 
ATOM      7  C   UNL A   1      32.233  20.511  22.563  1.00  0.00     0.123 A 
ATOM      8  N   UNL A   1      32.127  19.172  22.782  1.00  0.00    -0.239 NA
ATOM      9  C   UNL A   1      32.815  19.527  25.035  1.00  0.00     0.062 A 
ATOM     10  C   UNL A   1      32.411  18.703  24.009  1.00  0.00     0.124 A 
BRANCH   6  11
ATOM     11  C   UNL A   1      32.465  22.887  23.290  1.00  0.00     0.003 A 
ATOM     12  C   UNL A   1      31.712  26.518  23.599  1.00  0.00     0.120 A 
ATOM     13  C   UNL A   1      30.487  25.291  23.643  1.00  0.00     0.047 A 
ATOM     14  C   UNL A   1      33.416  26.022  23.400  1.00  0.00     0.067 A 
ATOM     15  C   UNL A   1      30.832  23.559  23.501  1.00  0.00     0.014 A 
ATOM     16  C   UNL A   1      33.864  24.054  23.174  1.00  0.00     0.052 A 
ATOM     17  Cl  UNL A   1      35.341  23.037  22.848  1.00  0.00    -0.084 Cl
BRANCH  12  18
ATOM     18  O   UNL A   1      31.518  27.849  23.377  1.00  0.00    -0.494 OA
BRANCH  18  19
ATOM     19  C   UNL A   1      31.076  28.653  24.457  1.00  0.00     0.226 C 
ATOM     20  C   UNL A   1      31.733  28.286  25.775  1.00  0.00     0.049 C 
ENDBRANCH  18  19
ENDBRANCH  12  18
ENDBRANCH   6  11
BRANCH  10  21
ATOM     21  N   UNL A   1      32.154  17.370  24.251  1.00  0.00    -0.384 N 
ATOM     22  H   UNL A   1      32.123  16.730  23.505  1.00  0.00     0.158 HD
ATOM     23  H   UNL A   1      32.001  17.057  25.173  1.00  0.00     0.158 HD
ENDBRANCH  10  21
ENDBRANCH   3   5
ENDBRANCH   2   3
ENDBRANCH   1   2
BRANCH   1  24
ATOM     24  C   UNL A   1      36.182  20.702  25.375  1.00  0.00     0.275 C 
BRANCH  24  25
ATOM     25  O   UNL A   1      37.446  21.193  24.892  1.00  0.00    -0.458 OA
BRANCH  25  26
ATOM     26  C   UNL A   1      38.519  20.709  25.548  1.00  0.00     0.338 C 
ATOM     27  O   UNL A   1      38.815  19.539  25.728  1.00  0.00    -0.246 OA
BRANCH  26  28
ATOM     28  C   UNL A   1      39.427  21.794  25.935  1.00  0.00     0.060 A 
ATOM     29  C   UNL A   1      40.737  21.505  27.124  1.00  0.00     0.016 A 
ATOM     30  C   UNL A   1      38.821  23.433  25.756  1.00  0.00     0.016 A 
ATOM     31  C   UNL A   1      41.367  23.065  28.254  1.00  0.00     0.010 A 
ATOM     32  C   UNL A   1      39.439  24.820  26.698  1.00  0.00     0.010 A 
ATOM     33  C   UNL A   1      40.704  24.713  27.951  1.00  0.00    -0.014 A 
BRANCH  33  34
ATOM     34  C   UNL A   1      41.474  25.980  28.359  1.00  0.00     0.031 A 
ATOM     35  C   UNL A   1      40.722  27.187  28.903  1.00  0.00     0.074 A 
ATOM     36  C   UNL A   1      42.792  26.181  28.079  1.00  0.00     0.049 A 
ATOM     37  N   UNL A   1      41.078  28.454  28.947  1.00  0.00    -0.248 NA
ATOM     38  C   UNL A   1      39.387  26.941  29.464  1.00  0.00     0.031 C 
ATOM     39  C   UNL A   1      43.786  25.200  27.669  1.00  0.00     0.029 A 
ATOM     40  N   UNL A   1      43.530  27.360  28.034  1.00  0.00    -0.354 N 
ATOM     41  C   UNL A   1      40.000  29.139  29.499  1.00  0.00     0.074 A 
ATOM     42  C   UNL A   1      38.934  28.173  29.649  1.00  0.00     0.031 C 
ATOM     43  C   UNL A   1      44.923  25.788  27.293  1.00  0.00     0.029 A 
ATOM     44  C   UNL A   1      44.771  27.211  27.444  1.00  0.00     0.049 A 
ATOM     45  H   UNL A   1      43.200  28.217  28.388  1.00  0.00     0.167 HD
ATOM     46  C   UNL A   1      39.921  30.425  29.930  1.00  0.00     0.037 A 
ATOM     47  C   UNL A   1      45.725  28.072  27.047  1.00  0.00     0.037 A 
ATOM     48  C   UNL A   1      41.010  31.370  29.898  1.00  0.00     0.049 A 
ATOM     49  C   UNL A   1      45.604  29.501  27.428  1.00  0.00     0.074 A 
ATOM     50  C   UNL A   1      41.066  32.644  30.441  1.00  0.00     0.029 A 
ATOM     51  N   UNL A   1      42.241  31.142  29.303  1.00  0.00    -0.354 N 
ATOM     52  N   UNL A   1      44.600  30.106  28.003  1.00  0.00    -0.248 NA
ATOM     53  C   UNL A   1      46.784  30.343  27.200  1.00  0.00     0.031 C 
ATOM     54  C   UNL A   1      42.314  33.201  30.137  1.00  0.00     0.029 A 
ATOM     55  C   UNL A   1      43.053  32.260  29.444  1.00  0.00     0.049 A 
ATOM     56  H   UNL A   1      42.502  30.309  28.847  1.00  0.00     0.167 HD
ATOM     57  C   UNL A   1      45.053  31.381  28.286  1.00  0.00     0.074 A 
ATOM     58  C   UNL A   1      46.411  31.469  27.788  1.00  0.00     0.031 C 
ATOM     59  C   UNL A   1      44.401  32.366  28.947  1.00  0.00     0.037 A 
BRANCH  46  60
ATOM     60  C   UNL A   1      38.617  30.873  30.542  1.00  0.00     0.064 A 
ATOM     61  C   UNL A   1      38.423  30.889  31.935  1.00  0.00     0.173 A 
ATOM     62  C   UNL A   1      37.553  31.310  29.736  1.00  0.00     0.173 A 
ATOM     63  F   UNL A   1      39.406  30.492  32.758  1.00  0.00    -0.203 F 
ATOM     64  C   UNL A   1      37.200  31.258  32.490  1.00  0.00     0.198 A 
ATOM     65  C   UNL A   1      36.344  31.718  30.297  1.00  0.00     0.198 A 
ATOM     66  F   UNL A   1      37.685  31.346  28.402  1.00  0.00    -0.203 F 
ATOM     67  F   UNL A   1      37.020  31.186  33.816  1.00  0.00    -0.200 F 
ATOM     68  C   UNL A   1      36.163  31.675  31.671  1.00  0.00     0.200 A 
ATOM     69  F   UNL A   1      35.350  32.145  29.507  1.00  0.00    -0.200 F 
ATOM     70  F   UNL A   1      34.986  32.027  32.207  1.00  0.00    -0.200 F 
ENDBRANCH  46  60
BRANCH  47  71
ATOM     71  C   UNL A   1      46.930  27.565  26.335  1.00  0.00     0.064 A 
ATOM     72  C   UNL A   1      46.975  27.508  24.936  1.00  0.00     0.173 A 
ATOM     73  C   UNL A   1      48.080  27.184  27.043  1.00  0.00     0.173 A 
ATOM     74  F   UNL A   1      45.895  27.856  24.220  1.00  0.00    -0.203 F 
ATOM     75  C   UNL A   1      48.121  27.083  24.269  1.00  0.00     0.198 A 
ATOM     76  C   UNL A   1      49.235  26.779  26.373  1.00  0.00     0.198 A 
ATOM     77  F   UNL A   1      48.089  27.225  28.382  1.00  0.00    -0.203 F 
ATOM     78  F   UNL A   1      48.131  27.020  22.932  1.00  0.00    -0.200 F 
ATOM     79  C   UNL A   1      49.253  26.726  24.988  1.00  0.00     0.200 A 
ATOM     80  F   UNL A   1      50.332  26.451  27.070  1.00  0.00    -0.200 F 
ATOM     81  F   UNL A   1      50.361  26.330  24.345  1.00  0.00    -0.200 F 
ENDBRANCH  47  71
BRANCH  59  82
ATOM     82  C   UNL A   1      45.178  33.613  29.224  1.00  0.00     0.064 A 
ATOM     83  C   UNL A   1      45.942  33.765  30.389  1.00  0.00     0.173 A 
ATOM     84  C   UNL A   1      45.140  34.681  28.315  1.00  0.00     0.173 A 
ATOM     85  F   UNL A   1      45.981  32.784  31.303  1.00  0.00    -0.203 F 
ATOM     86  C   UNL A   1      46.619  34.952  30.648  1.00  0.00     0.198 A 
ATOM     87  C   UNL A   1      45.844  35.855  28.561  1.00  0.00     0.198 A 
ATOM     88  F   UNL A   1      44.412  34.589  27.191  1.00  0.00    -0.203 F 
ATOM     89  F   UNL A   1      47.290  35.100  31.798  1.00  0.00    -0.200 F 
ATOM     90  C   UNL A   1      46.576  35.993  29.731  1.00  0.00     0.200 A 
ATOM     91  F   UNL A   1      45.807  36.856  27.672  1.00  0.00    -0.200 F 
ATOM     92  F   UNL A   1      47.229  37.135  29.983  1.00  0.00    -0.200 F 
ENDBRANCH  59  82
ENDBRANCH  33  34
ENDBRANCH  26  28
ENDBRANCH  25  26
ENDBRANCH  24  25
ENDBRANCH   1  24
TORSDOF 15
ENDMDL
