MODEL 1
REMARK VINA RESULT:     -12.7      0.000      0.000
REMARK SMILES NC(=O)[C@@H]1CCC[N@@H+]1[C@@H](C(=O)OCCOC(=O)c1ccc(-c2c3nc(c(-c4c(F)c(F)c(F)c(F)c4F)c4ccc([nH]4)c(-c4c(F)c(F)c(F)c(F)c4F)c4nc(c(-c5c(F)c(F)c(F)c(F)c5F)c5ccc2[nH]5)C=C4)C=C3)cc1)c1c[nH]c2cc(OCc3ccccc3)ccc12
REMARK SMILES IDX 13 1 12 2 10 3 11 4 9 5 8 6 4 7 5 8 6 9 7 10 2 12 1 13 3 16
REMARK SMILES IDX 81 17 82 18 97 19 83 20 84 21 96 22 85 24 95 25 86 26 87 27
REMARK SMILES IDX 88 28 89 29 90 30 94 31 91 32 93 33 92 34 14 35 15 36 16 37
REMARK SMILES IDX 17 38 18 39 19 40 80 41 20 42 79 43 21 44 22 45 23 46 73 47
REMARK SMILES IDX 24 48 78 49 72 50 74 51 25 52 77 53 71 54 70 55 26 57 58 58
REMARK SMILES IDX 38 59 57 60 39 61 42 62 56 63 75 64 40 65 41 66 55 68 76 69
REMARK SMILES IDX 43 70 27 71 28 72 36 73 29 74 30 75 34 76 37 77 31 78 32 79
REMARK SMILES IDX 35 80 33 81 59 82 60 83 68 84 61 85 62 86 66 87 69 88 63 89
REMARK SMILES IDX 64 90 67 91 65 92 44 93 45 94 53 95 46 96 47 97 51 98 54 99
REMARK SMILES IDX 48 100 49 101 52 102 50 103
REMARK H PARENT 8 11 1 14 1 15 83 23 74 56 42 67
REMARK Flexibility Score: inf
ROOT
ATOM      1  C   UNL A   1      31.824  28.561  27.159  1.00  0.00     0.274 C 
ENDROOT
BRANCH   1   2
ATOM      2  O   UNL A   1      32.186  27.649  26.085  1.00  0.00    -0.457 OA
BRANCH   2   3
ATOM      3  C   UNL A   1      31.278  26.670  25.833  1.00  0.00     0.370 C 
ATOM      4  O   UNL A   1      30.412  26.333  26.644  1.00  0.00    -0.245 OA
BRANCH   3   5
ATOM      5  C   UNL A   1      31.437  25.933  24.507  1.00  0.00     0.329 C 
BRANCH   5   6
ATOM      6  N   UNL A   1      30.648  26.414  23.288  1.00  0.00    -0.309 N 
ATOM      7  C   UNL A   1      31.321  26.994  22.091  1.00  0.00     0.275 C 
ATOM      8  C   UNL A   1      31.507  28.485  22.369  1.00  0.00     0.081 C 
ATOM      9  C   UNL A   1      30.539  28.767  23.513  1.00  0.00     0.068 C 
ATOM     10  C   UNL A   1      29.696  27.511  23.565  1.00  0.00     0.264 C 
ATOM     11  H   UNL A   1      30.281  25.485  23.082  1.00  0.00     0.349 HD
BRANCH   7  12
ATOM     12  C   UNL A   1      32.481  26.279  21.410  1.00  0.00     0.275 C 
ATOM     13  N   UNL A   1      32.147  25.583  20.277  1.00  0.00    -0.365 N 
ATOM     14  H   UNL A   1      32.840  25.094  19.778  1.00  0.00     0.159 HD
ATOM     15  H   UNL A   1      31.214  25.573  19.963  1.00  0.00     0.159 HD
ATOM     16  O   UNL A   1      33.663  26.352  21.728  1.00  0.00    -0.268 OA
ENDBRANCH   7  12
ENDBRANCH   5   6
BRANCH   5  17
ATOM     17  C   UNL A   1      31.633  24.391  24.466  1.00  0.00     0.046 A 
ATOM     18  C   UNL A   1      30.686  23.537  25.035  1.00  0.00     0.094 A 
ATOM     19  C   UNL A   1      32.753  23.507  24.225  1.00  0.00     0.009 A 
ATOM     20  N   UNL A   1      31.389  22.544  25.670  1.00  0.00    -0.361 N 
ATOM     21  C   UNL A   1      32.695  22.570  25.257  1.00  0.00     0.050 A 
ATOM     22  C   UNL A   1      33.861  23.374  23.373  1.00  0.00     0.015 A 
ATOM     23  H   UNL A   1      31.012  21.911  26.324  1.00  0.00     0.166 HD
ATOM     24  C   UNL A   1      33.819  21.859  25.698  1.00  0.00     0.073 A 
ATOM     25  C   UNL A   1      34.896  22.457  23.636  1.00  0.00     0.047 A 
ATOM     26  C   UNL A   1      34.933  21.803  24.855  1.00  0.00     0.121 A 
BRANCH  26  27
ATOM     27  O   UNL A   1      35.987  21.082  25.345  1.00  0.00    -0.489 OA
BRANCH  27  28
ATOM     28  C   UNL A   1      37.288  21.307  24.794  1.00  0.00     0.265 C 
BRANCH  28  29
ATOM     29  C   UNL A   1      38.131  22.251  25.626  1.00  0.00    -0.011 A 
ATOM     30  C   UNL A   1      37.708  23.576  25.807  1.00  0.00     0.007 A 
ATOM     31  C   UNL A   1      39.302  21.829  26.271  1.00  0.00     0.007 A 
ATOM     32  C   UNL A   1      38.446  24.451  26.604  1.00  0.00     0.000 A 
ATOM     33  C   UNL A   1      40.036  22.701  27.067  1.00  0.00     0.000 A 
ATOM     34  C   UNL A   1      39.605  24.012  27.234  1.00  0.00     0.000 A 
ENDBRANCH  28  29
ENDBRANCH  27  28
ENDBRANCH  26  27
ENDBRANCH   5  17
ENDBRANCH   3   5
ENDBRANCH   2   3
ENDBRANCH   1   2
BRANCH   1  35
ATOM     35  C   UNL A   1      31.904  30.006  26.696  1.00  0.00     0.275 C 
BRANCH  35  36
ATOM     36  O   UNL A   1      33.281  30.312  26.403  1.00  0.00    -0.458 OA
BRANCH  36  37
ATOM     37  C   UNL A   1      33.846  31.194  27.252  1.00  0.00     0.338 C 
ATOM     38  O   UNL A   1      33.296  32.166  27.753  1.00  0.00    -0.246 OA
BRANCH  37  39
ATOM     39  C   UNL A   1      35.218  30.805  27.666  1.00  0.00     0.060 A 
ATOM     40  C   UNL A   1      35.505  29.509  28.097  1.00  0.00     0.016 A 
ATOM     41  C   UNL A   1      36.113  31.835  27.961  1.00  0.00     0.016 A 
ATOM     42  C   UNL A   1      36.595  29.268  28.934  1.00  0.00     0.010 A 
ATOM     43  C   UNL A   1      37.263  31.576  28.715  1.00  0.00     0.010 A 
ATOM     44  C   UNL A   1      37.499  30.296  29.237  1.00  0.00    -0.014 A 
BRANCH  44  45
ATOM     45  C   UNL A   1      38.758  30.000  29.963  1.00  0.00     0.031 A 
ATOM     46  C   UNL A   1      39.814  29.086  29.410  1.00  0.00     0.074 A 
ATOM     47  C   UNL A   1      38.930  30.565  31.173  1.00  0.00     0.049 A 
ATOM     48  N   UNL A   1      40.829  28.535  30.030  1.00  0.00    -0.248 NA
ATOM     49  C   UNL A   1      39.737  28.765  27.979  1.00  0.00     0.031 C 
ATOM     50  C   UNL A   1      38.025  31.542  31.782  1.00  0.00     0.029 A 
ATOM     51  N   UNL A   1      39.915  30.391  32.110  1.00  0.00    -0.354 N 
ATOM     52  C   UNL A   1      41.498  27.775  29.076  1.00  0.00     0.074 A 
ATOM     53  C   UNL A   1      40.778  27.950  27.830  1.00  0.00     0.031 C 
ATOM     54  C   UNL A   1      38.499  31.888  32.984  1.00  0.00     0.029 A 
ATOM     55  C   UNL A   1      39.672  31.074  33.275  1.00  0.00     0.049 A 
ATOM     56  H   UNL A   1      40.715  29.835  31.963  1.00  0.00     0.167 HD
ATOM     57  C   UNL A   1      42.603  27.004  29.245  1.00  0.00     0.037 A 
ATOM     58  C   UNL A   1      40.273  31.006  34.475  1.00  0.00     0.037 A 
ATOM     59  C   UNL A   1      43.328  26.881  30.491  1.00  0.00     0.049 A 
ATOM     60  C   UNL A   1      41.429  30.076  34.661  1.00  0.00     0.074 A 
ATOM     61  C   UNL A   1      44.459  26.125  30.761  1.00  0.00     0.029 A 
ATOM     62  N   UNL A   1      43.005  27.537  31.669  1.00  0.00    -0.354 N 
ATOM     63  N   UNL A   1      41.987  29.270  33.792  1.00  0.00    -0.248 NA
ATOM     64  C   UNL A   1      42.037  30.042  35.996  1.00  0.00     0.031 C 
ATOM     65  C   UNL A   1      44.790  26.284  32.109  1.00  0.00     0.029 A 
ATOM     66  C   UNL A   1      43.909  27.196  32.665  1.00  0.00     0.049 A 
ATOM     67  H   UNL A   1      42.246  28.155  31.782  1.00  0.00     0.167 HD
ATOM     68  C   UNL A   1      43.026  28.648  34.467  1.00  0.00     0.074 A 
ATOM     69  C   UNL A   1      43.028  29.181  35.813  1.00  0.00     0.031 C 
ATOM     70  C   UNL A   1      43.899  27.721  34.006  1.00  0.00     0.037 A 
BRANCH  57  71
ATOM     71  C   UNL A   1      43.124  26.196  28.087  1.00  0.00     0.064 A 
ATOM     72  C   UNL A   1      43.914  26.762  27.078  1.00  0.00     0.173 A 
ATOM     73  C   UNL A   1      42.971  24.797  28.088  1.00  0.00     0.173 A 
ATOM     74  F   UNL A   1      44.087  28.090  27.018  1.00  0.00    -0.203 F 
ATOM     75  C   UNL A   1      44.529  25.961  26.115  1.00  0.00     0.198 A 
ATOM     76  C   UNL A   1      43.616  23.999  27.147  1.00  0.00     0.198 A 
ATOM     77  F   UNL A   1      42.230  24.198  29.033  1.00  0.00    -0.203 F 
ATOM     78  F   UNL A   1      45.242  26.528  25.132  1.00  0.00    -0.200 F 
ATOM     79  C   UNL A   1      44.391  24.581  26.158  1.00  0.00     0.200 A 
ATOM     80  F   UNL A   1      43.477  22.667  27.191  1.00  0.00    -0.200 F 
ATOM     81  F   UNL A   1      44.983  23.816  25.231  1.00  0.00    -0.200 F 
ENDBRANCH  57  71
BRANCH  58  82
ATOM     82  C   UNL A   1      39.731  31.816  35.592  1.00  0.00     0.064 A 
ATOM     83  C   UNL A   1      40.202  33.110  35.837  1.00  0.00     0.173 A 
ATOM     84  C   UNL A   1      38.679  31.337  36.387  1.00  0.00     0.173 A 
ATOM     85  F   UNL A   1      41.222  33.600  35.116  1.00  0.00    -0.203 F 
ATOM     86  C   UNL A   1      39.636  33.900  36.833  1.00  0.00     0.198 A 
ATOM     87  C   UNL A   1      38.090  32.140  37.359  1.00  0.00     0.198 A 
ATOM     88  F   UNL A   1      38.190  30.104  36.186  1.00  0.00    -0.203 F 
ATOM     89  F   UNL A   1      40.119  35.128  37.067  1.00  0.00    -0.200 F 
ATOM     90  C   UNL A   1      38.571  33.420  37.584  1.00  0.00     0.200 A 
ATOM     91  F   UNL A   1      37.046  31.680  38.063  1.00  0.00    -0.200 F 
ATOM     92  F   UNL A   1      38.008  34.193  38.521  1.00  0.00    -0.200 F 
ENDBRANCH  58  82
BRANCH  70  93
ATOM     93  C   UNL A   1      44.963  27.263  34.959  1.00  0.00     0.064 A 
ATOM     94  C   UNL A   1      44.728  26.245  35.896  1.00  0.00     0.173 A 
ATOM     95  C   UNL A   1      46.233  27.861  34.943  1.00  0.00     0.173 A 
ATOM     96  F   UNL A   1      43.525  25.654  35.961  1.00  0.00    -0.203 F 
ATOM     97  C   UNL A   1      45.709  25.876  36.811  1.00  0.00     0.198 A 
ATOM     98  C   UNL A   1      47.222  27.465  35.838  1.00  0.00     0.198 A 
ATOM     99  F   UNL A   1      46.513  28.831  34.061  1.00  0.00    -0.203 F 
ATOM    100  F   UNL A   1      45.438  24.951  37.743  1.00  0.00    -0.200 F 
ATOM    101  C   UNL A   1      46.955  26.484  36.781  1.00  0.00     0.200 A 
ATOM    102  F   UNL A   1      48.430  28.044  35.798  1.00  0.00    -0.200 F 
ATOM    103  F   UNL A   1      47.895  26.133  37.669  1.00  0.00    -0.200 F 
ENDBRANCH  70  93
ENDBRANCH  44  45
ENDBRANCH  37  39
ENDBRANCH  36  37
ENDBRANCH  35  36
ENDBRANCH   1  35
TORSDOF 17
ENDMDL
MODEL 2
REMARK VINA RESULT:     -12.3      1.673      3.074
REMARK SMILES NC(=O)[C@@H]1CCC[N@@H+]1[C@@H](C(=O)OCCOC(=O)c1ccc(-c2c3nc(c(-c4c(F)c(F)c(F)c(F)c4F)c4ccc([nH]4)c(-c4c(F)c(F)c(F)c(F)c4F)c4nc(c(-c5c(F)c(F)c(F)c(F)c5F)c5ccc2[nH]5)C=C4)C=C3)cc1)c1c[nH]c2cc(OCc3ccccc3)ccc12
REMARK SMILES IDX 13 1 12 2 10 3 11 4 9 5 8 6 4 7 5 8 6 9 7 10 2 12 1 13 3 16
REMARK SMILES IDX 81 17 82 18 97 19 83 20 84 21 96 22 85 24 95 25 86 26 87 27
REMARK SMILES IDX 88 28 89 29 90 30 94 31 91 32 93 33 92 34 14 35 15 36 16 37
REMARK SMILES IDX 17 38 18 39 19 40 80 41 20 42 79 43 21 44 22 45 23 46 73 47
REMARK SMILES IDX 24 48 78 49 72 50 74 51 25 52 77 53 71 54 70 55 26 57 58 58
REMARK SMILES IDX 38 59 57 60 39 61 42 62 56 63 75 64 40 65 41 66 55 68 76 69
REMARK SMILES IDX 43 70 27 71 28 72 36 73 29 74 30 75 34 76 37 77 31 78 32 79
REMARK SMILES IDX 35 80 33 81 59 82 60 83 68 84 61 85 62 86 66 87 69 88 63 89
REMARK SMILES IDX 64 90 67 91 65 92 44 93 45 94 53 95 46 96 47 97 51 98 54 99
REMARK SMILES IDX 48 100 49 101 52 102 50 103
REMARK H PARENT 8 11 1 14 1 15 83 23 74 56 42 67
REMARK Flexibility Score: inf
ROOT
ATOM      1  C   UNL A   1      32.473  29.689  25.050  1.00  0.00     0.274 C 
ENDROOT
BRANCH   1   2
ATOM      2  O   UNL A   1      31.333  29.002  25.635  1.00  0.00    -0.457 OA
BRANCH   2   3
ATOM      3  C   UNL A   1      31.337  27.650  25.481  1.00  0.00     0.370 C 
ATOM      4  O   UNL A   1      31.044  26.871  26.391  1.00  0.00    -0.245 OA
BRANCH   3   5
ATOM      5  C   UNL A   1      31.813  27.131  24.128  1.00  0.00     0.329 C 
BRANCH   5   6
ATOM      6  N   UNL A   1      30.796  26.943  23.002  1.00  0.00    -0.309 N 
ATOM      7  C   UNL A   1      29.734  27.950  22.722  1.00  0.00     0.275 C 
ATOM      8  C   UNL A   1      28.556  27.614  23.636  1.00  0.00     0.081 C 
ATOM      9  C   UNL A   1      28.829  26.177  24.069  1.00  0.00     0.068 C 
ATOM     10  C   UNL A   1      29.941  25.745  23.139  1.00  0.00     0.264 C 
ATOM     11  H   UNL A   1      31.509  26.957  22.273  1.00  0.00     0.349 HD
BRANCH   7  12
ATOM     12  C   UNL A   1      30.065  29.427  22.556  1.00  0.00     0.275 C 
ATOM     13  N   UNL A   1      31.034  29.703  21.627  1.00  0.00    -0.365 N 
ATOM     14  H   UNL A   1      31.306  30.634  21.460  1.00  0.00     0.159 HD
ATOM     15  H   UNL A   1      31.458  28.968  21.126  1.00  0.00     0.159 HD
ATOM     16  O   UNL A   1      29.489  30.364  23.099  1.00  0.00    -0.268 OA
ENDBRANCH   7  12
ENDBRANCH   5   6
BRANCH   5  17
ATOM     17  C   UNL A   1      32.948  26.072  24.032  1.00  0.00     0.046 A 
ATOM     18  C   UNL A   1      33.688  25.926  22.858  1.00  0.00     0.094 A 
ATOM     19  C   UNL A   1      33.317  24.895  24.788  1.00  0.00     0.009 A 
ATOM     20  N   UNL A   1      33.862  24.577  22.672  1.00  0.00    -0.361 N 
ATOM     21  C   UNL A   1      33.544  23.910  23.826  1.00  0.00     0.050 A 
ATOM     22  C   UNL A   1      33.419  24.451  26.116  1.00  0.00     0.015 A 
ATOM     23  H   UNL A   1      34.168  24.154  21.837  1.00  0.00     0.166 HD
ATOM     24  C   UNL A   1      33.435  22.541  24.103  1.00  0.00     0.073 A 
ATOM     25  C   UNL A   1      33.593  23.092  26.435  1.00  0.00     0.047 A 
ATOM     26  C   UNL A   1      33.470  22.138  25.441  1.00  0.00     0.121 A 
BRANCH  26  27
ATOM     27  O   UNL A   1      33.371  20.787  25.634  1.00  0.00    -0.489 OA
BRANCH  27  28
ATOM     28  C   UNL A   1      32.527  20.029  24.762  1.00  0.00     0.265 C 
BRANCH  28  29
ATOM     29  C   UNL A   1      32.885  18.557  24.720  1.00  0.00    -0.011 A 
ATOM     30  C   UNL A   1      33.639  18.060  23.647  1.00  0.00     0.007 A 
ATOM     31  C   UNL A   1      32.530  17.677  25.751  1.00  0.00     0.007 A 
ATOM     32  C   UNL A   1      34.016  16.718  23.608  1.00  0.00     0.000 A 
ATOM     33  C   UNL A   1      32.907  16.339  25.714  1.00  0.00     0.000 A 
ATOM     34  C   UNL A   1      33.653  15.862  24.642  1.00  0.00     0.000 A 
ENDBRANCH  28  29
ENDBRANCH  27  28
ENDBRANCH  26  27
ENDBRANCH   5  17
ENDBRANCH   3   5
ENDBRANCH   2   3
ENDBRANCH   1   2
BRANCH   1  35
ATOM     35  C   UNL A   1      33.508  30.027  26.111  1.00  0.00     0.275 C 
BRANCH  35  36
ATOM     36  O   UNL A   1      32.885  30.871  27.098  1.00  0.00    -0.458 OA
BRANCH  36  37
ATOM     37  C   UNL A   1      33.688  31.834  27.591  1.00  0.00     0.338 C 
ATOM     38  O   UNL A   1      33.372  32.996  27.811  1.00  0.00    -0.246 OA
BRANCH  37  39
ATOM     39  C   UNL A   1      35.022  31.324  28.000  1.00  0.00     0.060 A 
ATOM     40  C   UNL A   1      35.164  30.084  28.623  1.00  0.00     0.016 A 
ATOM     41  C   UNL A   1      36.063  32.251  28.081  1.00  0.00     0.016 A 
ATOM     42  C   UNL A   1      36.267  29.824  29.437  1.00  0.00     0.010 A 
ATOM     43  C   UNL A   1      37.218  31.952  28.813  1.00  0.00     0.010 A 
ATOM     44  C   UNL A   1      37.317  30.749  29.526  1.00  0.00    -0.014 A 
BRANCH  44  45
ATOM     45  C   UNL A   1      38.573  30.394  30.233  1.00  0.00     0.031 A 
ATOM     46  C   UNL A   1      39.594  29.461  29.646  1.00  0.00     0.074 A 
ATOM     47  C   UNL A   1      38.773  30.922  31.455  1.00  0.00     0.049 A 
ATOM     48  N   UNL A   1      40.597  28.863  30.242  1.00  0.00    -0.248 NA
ATOM     49  C   UNL A   1      39.494  29.180  28.209  1.00  0.00     0.031 C 
ATOM     50  C   UNL A   1      37.906  31.911  32.096  1.00  0.00     0.029 A 
ATOM     51  N   UNL A   1      39.761  30.694  32.377  1.00  0.00    -0.354 N 
ATOM     52  C   UNL A   1      41.232  28.106  29.263  1.00  0.00     0.074 A 
ATOM     53  C   UNL A   1      40.507  28.337  28.029  1.00  0.00     0.031 C 
ATOM     54  C   UNL A   1      38.400  32.211  33.302  1.00  0.00     0.029 A 
ATOM     55  C   UNL A   1      39.550  31.354  33.561  1.00  0.00     0.049 A 
ATOM     56  H   UNL A   1      40.541  30.116  32.209  1.00  0.00     0.167 HD
ATOM     57  C   UNL A   1      42.313  27.297  29.402  1.00  0.00     0.037 A 
ATOM     58  C   UNL A   1      40.158  31.236  34.754  1.00  0.00     0.037 A 
ATOM     59  C   UNL A   1      43.045  27.119  30.637  1.00  0.00     0.049 A 
ATOM     60  C   UNL A   1      41.286  30.265  34.905  1.00  0.00     0.074 A 
ATOM     61  C   UNL A   1      44.154  26.321  30.877  1.00  0.00     0.029 A 
ATOM     62  N   UNL A   1      42.754  27.755  31.835  1.00  0.00    -0.354 N 
ATOM     63  N   UNL A   1      41.810  29.464  34.011  1.00  0.00    -0.248 NA
ATOM     64  C   UNL A   1      41.904  30.178  36.233  1.00  0.00     0.031 C 
ATOM     65  C   UNL A   1      44.501  26.435  32.225  1.00  0.00     0.029 A 
ATOM     66  C   UNL A   1      43.655  27.359  32.813  1.00  0.00     0.049 A 
ATOM     67  H   UNL A   1      42.016  28.393  31.971  1.00  0.00     0.167 HD
ATOM     68  C   UNL A   1      42.834  28.792  34.659  1.00  0.00     0.074 A 
ATOM     69  C   UNL A   1      42.865  29.290  36.019  1.00  0.00     0.031 C 
ATOM     70  C   UNL A   1      43.674  27.850  34.167  1.00  0.00     0.037 A 
BRANCH  57  71
ATOM     71  C   UNL A   1      42.798  26.503  28.219  1.00  0.00     0.064 A 
ATOM     72  C   UNL A   1      42.275  25.242  27.902  1.00  0.00     0.173 A 
ATOM     73  C   UNL A   1      43.676  27.096  27.293  1.00  0.00     0.173 A 
ATOM     74  F   UNL A   1      41.442  24.622  28.750  1.00  0.00    -0.203 F 
ATOM     75  C   UNL A   1      42.612  24.606  26.707  1.00  0.00     0.198 A 
ATOM     76  C   UNL A   1      43.981  26.474  26.086  1.00  0.00     0.198 A 
ATOM     77  F   UNL A   1      44.204  28.305  27.540  1.00  0.00    -0.203 F 
ATOM     78  F   UNL A   1      42.137  23.380  26.446  1.00  0.00    -0.200 F 
ATOM     79  C   UNL A   1      43.453  25.227  25.794  1.00  0.00     0.200 A 
ATOM     80  F   UNL A   1      44.797  27.076  25.209  1.00  0.00    -0.200 F 
ATOM     81  F   UNL A   1      43.776  24.612  24.649  1.00  0.00    -0.200 F 
ENDBRANCH  57  71
BRANCH  58  82
ATOM     82  C   UNL A   1      39.653  32.034  35.896  1.00  0.00     0.064 A 
ATOM     83  C   UNL A   1      38.584  31.579  36.675  1.00  0.00     0.173 A 
ATOM     84  C   UNL A   1      40.282  33.231  36.274  1.00  0.00     0.173 A 
ATOM     85  F   UNL A   1      37.940  30.452  36.337  1.00  0.00    -0.203 F 
ATOM     86  C   UNL A   1      38.165  32.289  37.797  1.00  0.00     0.198 A 
ATOM     87  C   UNL A   1      39.885  33.920  37.416  1.00  0.00     0.198 A 
ATOM     88  F   UNL A   1      41.315  33.703  35.561  1.00  0.00    -0.203 F 
ATOM     89  F   UNL A   1      37.123  31.848  38.515  1.00  0.00    -0.200 F 
ATOM     90  C   UNL A   1      38.824  33.451  38.174  1.00  0.00     0.200 A 
ATOM     91  F   UNL A   1      40.541  35.027  37.789  1.00  0.00    -0.200 F 
ATOM     92  F   UNL A   1      38.439  34.115  39.271  1.00  0.00    -0.200 F 
ENDBRANCH  58  82
BRANCH  70  93
ATOM     93  C   UNL A   1      44.731  27.334  35.098  1.00  0.00     0.064 A 
ATOM     94  C   UNL A   1      44.525  26.195  35.890  1.00  0.00     0.173 A 
ATOM     95  C   UNL A   1      45.963  27.998  35.208  1.00  0.00     0.173 A 
ATOM     96  F   UNL A   1      43.359  25.535  35.832  1.00  0.00    -0.203 F 
ATOM     97  C   UNL A   1      45.496  25.767  36.791  1.00  0.00     0.198 A 
ATOM     98  C   UNL A   1      46.943  27.548  36.086  1.00  0.00     0.198 A 
ATOM     99  F   UNL A   1      46.213  29.087  34.465  1.00  0.00    -0.203 F 
ATOM    100  F   UNL A   1      45.250  24.718  37.589  1.00  0.00    -0.200 F 
ATOM    101  C   UNL A   1      46.704  26.442  36.888  1.00  0.00     0.200 A 
ATOM    102  F   UNL A   1      48.116  28.192  36.167  1.00  0.00    -0.200 F 
ATOM    103  F   UNL A   1      47.634  26.033  37.762  1.00  0.00    -0.200 F 
ENDBRANCH  70  93
ENDBRANCH  44  45
ENDBRANCH  37  39
ENDBRANCH  36  37
ENDBRANCH  35  36
ENDBRANCH   1  35
TORSDOF 17
ENDMDL
MODEL 3
REMARK VINA RESULT:     -12.2      1.823      3.096
REMARK SMILES NC(=O)[C@@H]1CCC[N@@H+]1[C@@H](C(=O)OCCOC(=O)c1ccc(-c2c3nc(c(-c4c(F)c(F)c(F)c(F)c4F)c4ccc([nH]4)c(-c4c(F)c(F)c(F)c(F)c4F)c4nc(c(-c5c(F)c(F)c(F)c(F)c5F)c5ccc2[nH]5)C=C4)C=C3)cc1)c1c[nH]c2cc(OCc3ccccc3)ccc12
REMARK SMILES IDX 13 1 12 2 10 3 11 4 9 5 8 6 4 7 5 8 6 9 7 10 2 12 1 13 3 16
REMARK SMILES IDX 81 17 82 18 97 19 83 20 84 21 96 22 85 24 95 25 86 26 87 27
REMARK SMILES IDX 88 28 89 29 90 30 94 31 91 32 93 33 92 34 14 35 15 36 16 37
REMARK SMILES IDX 17 38 18 39 19 40 80 41 20 42 79 43 21 44 22 45 23 46 73 47
REMARK SMILES IDX 24 48 78 49 72 50 74 51 25 52 77 53 71 54 70 55 26 57 58 58
REMARK SMILES IDX 38 59 57 60 39 61 42 62 56 63 75 64 40 65 41 66 55 68 76 69
REMARK SMILES IDX 43 70 27 71 28 72 36 73 29 74 30 75 34 76 37 77 31 78 32 79
REMARK SMILES IDX 35 80 33 81 59 82 60 83 68 84 61 85 62 86 66 87 69 88 63 89
REMARK SMILES IDX 64 90 67 91 65 92 44 93 45 94 53 95 46 96 47 97 51 98 54 99
REMARK SMILES IDX 48 100 49 101 52 102 50 103
REMARK H PARENT 8 11 1 14 1 15 83 23 74 56 42 67
REMARK Flexibility Score: inf
ROOT
ATOM      1  C   UNL A   1      32.190  30.063  26.619  1.00  0.00     0.274 C 
ENDROOT
BRANCH   1   2
ATOM      2  O   UNL A   1      31.697  29.604  25.330  1.00  0.00    -0.457 OA
BRANCH   2   3
ATOM      3  C   UNL A   1      31.564  28.255  25.213  1.00  0.00     0.370 C 
ATOM      4  O   UNL A   1      31.223  27.531  26.151  1.00  0.00    -0.245 OA
BRANCH   3   5
ATOM      5  C   UNL A   1      31.949  27.658  23.863  1.00  0.00     0.329 C 
BRANCH   5   6
ATOM      6  N   UNL A   1      30.849  27.336  22.850  1.00  0.00    -0.309 N 
ATOM      7  C   UNL A   1      29.650  28.206  22.684  1.00  0.00     0.275 C 
ATOM      8  C   UNL A   1      28.624  27.743  23.717  1.00  0.00     0.081 C 
ATOM      9  C   UNL A   1      29.110  26.355  24.119  1.00  0.00     0.068 C 
ATOM     10  C   UNL A   1      30.163  26.047  23.077  1.00  0.00     0.264 C 
ATOM     11  H   UNL A   1      31.475  27.426  22.050  1.00  0.00     0.349 HD
BRANCH   7  12
ATOM     12  C   UNL A   1      29.783  29.710  22.484  1.00  0.00     0.275 C 
ATOM     13  N   UNL A   1      30.748  30.092  21.588  1.00  0.00    -0.365 N 
ATOM     14  H   UNL A   1      30.897  31.047  21.402  1.00  0.00     0.159 HD
ATOM     15  H   UNL A   1      31.292  29.410  21.131  1.00  0.00     0.159 HD
ATOM     16  O   UNL A   1      29.059  30.572  22.970  1.00  0.00    -0.268 OA
ENDBRANCH   7  12
ENDBRANCH   5   6
BRANCH   5  17
ATOM     17  C   UNL A   1      33.128  26.652  23.740  1.00  0.00     0.046 A 
ATOM     18  C   UNL A   1      33.802  26.489  22.528  1.00  0.00     0.094 A 
ATOM     19  C   UNL A   1      33.601  25.529  24.519  1.00  0.00     0.009 A 
ATOM     20  N   UNL A   1      34.032  25.143  22.388  1.00  0.00    -0.361 N 
ATOM     21  C   UNL A   1      33.819  24.514  23.586  1.00  0.00     0.050 A 
ATOM     22  C   UNL A   1      33.806  25.150  25.856  1.00  0.00     0.015 A 
ATOM     23  H   UNL A   1      34.308  24.699  21.554  1.00  0.00     0.166 HD
ATOM     24  C   UNL A   1      33.796  23.155  23.926  1.00  0.00     0.073 A 
ATOM     25  C   UNL A   1      34.068  23.816  26.219  1.00  0.00     0.047 A 
ATOM     26  C   UNL A   1      33.933  22.814  25.275  1.00  0.00     0.121 A 
BRANCH  26  27
ATOM     27  O   UNL A   1      33.915  21.470  25.530  1.00  0.00    -0.489 OA
BRANCH  27  28
ATOM     28  C   UNL A   1      32.741  20.724  25.193  1.00  0.00     0.265 C 
BRANCH  28  29
ATOM     29  C   UNL A   1      33.036  19.506  24.342  1.00  0.00    -0.011 A 
ATOM     30  C   UNL A   1      34.060  18.626  24.726  1.00  0.00     0.007 A 
ATOM     31  C   UNL A   1      32.280  19.195  23.203  1.00  0.00     0.007 A 
ATOM     32  C   UNL A   1      34.320  17.476  23.981  1.00  0.00     0.000 A 
ATOM     33  C   UNL A   1      32.539  18.047  22.462  1.00  0.00     0.000 A 
ATOM     34  C   UNL A   1      33.559  17.188  22.854  1.00  0.00     0.000 A 
ENDBRANCH  28  29
ENDBRANCH  27  28
ENDBRANCH  26  27
ENDBRANCH   5  17
ENDBRANCH   3   5
ENDBRANCH   2   3
ENDBRANCH   1   2
BRANCH   1  35
ATOM     35  C   UNL A   1      31.903  31.542  26.816  1.00  0.00     0.275 C 
BRANCH  35  36
ATOM     36  O   UNL A   1      33.149  32.260  26.732  1.00  0.00    -0.458 OA
BRANCH  36  37
ATOM     37  C   UNL A   1      33.325  33.180  27.701  1.00  0.00     0.338 C 
ATOM     38  O   UNL A   1      32.564  34.101  27.969  1.00  0.00    -0.246 OA
BRANCH  37  39
ATOM     39  C   UNL A   1      34.506  32.903  28.558  1.00  0.00     0.060 A 
ATOM     40  C   UNL A   1      35.725  33.547  28.343  1.00  0.00     0.016 A 
ATOM     41  C   UNL A   1      34.477  31.740  29.330  1.00  0.00     0.016 A 
ATOM     42  C   UNL A   1      36.918  32.963  28.769  1.00  0.00     0.010 A 
ATOM     43  C   UNL A   1      35.663  31.206  29.847  1.00  0.00     0.010 A 
ATOM     44  C   UNL A   1      36.899  31.794  29.543  1.00  0.00    -0.014 A 
BRANCH  44  45
ATOM     45  C   UNL A   1      38.148  31.280  30.159  1.00  0.00     0.031 A 
ATOM     46  C   UNL A   1      39.035  30.281  29.473  1.00  0.00     0.074 A 
ATOM     47  C   UNL A   1      38.467  31.724  31.390  1.00  0.00     0.049 A 
ATOM     48  N   UNL A   1      40.001  29.555  29.982  1.00  0.00    -0.248 NA
ATOM     49  C   UNL A   1      38.830  30.083  28.032  1.00  0.00     0.031 C 
ATOM     50  C   UNL A   1      37.741  32.761  32.124  1.00  0.00     0.029 A 
ATOM     51  N   UNL A   1      39.474  31.351  32.242  1.00  0.00    -0.354 N 
ATOM     52  C   UNL A   1      40.502  28.789  28.935  1.00  0.00     0.074 A 
ATOM     53  C   UNL A   1      39.740  29.153  27.757  1.00  0.00     0.031 C 
ATOM     54  C   UNL A   1      38.328  32.949  33.311  1.00  0.00     0.029 A 
ATOM     55  C   UNL A   1      39.395  31.969  33.464  1.00  0.00     0.049 A 
ATOM     56  H   UNL A   1      40.180  30.708  32.003  1.00  0.00     0.167 HD
ATOM     57  C   UNL A   1      41.500  27.870  28.973  1.00  0.00     0.037 A 
ATOM     58  C   UNL A   1      40.051  31.731  34.612  1.00  0.00     0.037 A 
ATOM     59  C   UNL A   1      42.275  27.557  30.155  1.00  0.00     0.049 A 
ATOM     60  C   UNL A   1      41.080  30.646  34.654  1.00  0.00     0.074 A 
ATOM     61  C   UNL A   1      43.307  26.641  30.294  1.00  0.00     0.029 A 
ATOM     62  N   UNL A   1      42.116  28.159  31.395  1.00  0.00    -0.354 N 
ATOM     63  N   UNL A   1      41.470  29.843  33.696  1.00  0.00    -0.248 NA
ATOM     64  C   UNL A   1      41.756  30.430  35.938  1.00  0.00     0.031 C 
ATOM     65  C   UNL A   1      43.736  26.653  31.623  1.00  0.00     0.029 A 
ATOM     66  C   UNL A   1      43.022  27.626  32.300  1.00  0.00     0.049 A 
ATOM     67  H   UNL A   1      41.456  28.860  31.602  1.00  0.00     0.167 HD
ATOM     68  C   UNL A   1      42.453  29.039  34.253  1.00  0.00     0.074 A 
ATOM     69  C   UNL A   1      42.608  29.463  35.630  1.00  0.00     0.031 C 
ATOM     70  C   UNL A   1      43.164  28.044  33.671  1.00  0.00     0.037 A 
BRANCH  57  71
ATOM     71  C   UNL A   1      41.836  27.092  27.730  1.00  0.00     0.064 A 
ATOM     72  C   UNL A   1      42.852  27.492  26.852  1.00  0.00     0.173 A 
ATOM     73  C   UNL A   1      41.246  25.833  27.514  1.00  0.00     0.173 A 
ATOM     74  F   UNL A   1      43.444  28.686  27.000  1.00  0.00    -0.203 F 
ATOM     75  C   UNL A   1      43.262  26.664  25.806  1.00  0.00     0.198 A 
ATOM     76  C   UNL A   1      41.683  24.995  26.492  1.00  0.00     0.198 A 
ATOM     77  F   UNL A   1      40.272  25.394  28.327  1.00  0.00    -0.203 F 
ATOM     78  F   UNL A   1      44.203  27.087  24.950  1.00  0.00    -0.200 F 
ATOM     79  C   UNL A   1      42.688  25.412  25.635  1.00  0.00     0.200 A 
ATOM     80  F   UNL A   1      41.123  23.789  26.329  1.00  0.00    -0.200 F 
ATOM     81  F   UNL A   1      43.084  24.622  24.629  1.00  0.00    -0.200 F 
ENDBRANCH  57  71
BRANCH  58  82
ATOM     82  C   UNL A   1      39.693  32.517  35.817  1.00  0.00     0.064 A 
ATOM     83  C   UNL A   1      38.690  32.081  36.689  1.00  0.00     0.173 A 
ATOM     84  C   UNL A   1      40.401  33.681  36.156  1.00  0.00     0.173 A 
ATOM     85  F   UNL A   1      37.973  30.987  36.393  1.00  0.00    -0.203 F 
ATOM     86  C   UNL A   1      38.411  32.776  37.862  1.00  0.00     0.198 A 
ATOM     87  C   UNL A   1      40.146  34.354  37.347  1.00  0.00     0.198 A 
ATOM     88  F   UNL A   1      41.375  34.134  35.353  1.00  0.00    -0.203 F 
ATOM     89  F   UNL A   1      37.430  32.354  38.671  1.00  0.00    -0.200 F 
ATOM     90  C   UNL A   1      39.149  33.904  38.197  1.00  0.00     0.200 A 
ATOM     91  F   UNL A   1      40.878  35.427  37.677  1.00  0.00    -0.200 F 
ATOM     92  F   UNL A   1      38.899  34.553  39.341  1.00  0.00    -0.200 F 
ENDBRANCH  58  82
BRANCH  70  93
ATOM     93  C   UNL A   1      44.211  27.379  34.515  1.00  0.00     0.064 A 
ATOM     94  C   UNL A   1      43.936  26.218  35.254  1.00  0.00     0.173 A 
ATOM     95  C   UNL A   1      45.504  27.918  34.594  1.00  0.00     0.173 A 
ATOM     96  F   UNL A   1      42.711  25.673  35.223  1.00  0.00    -0.203 F 
ATOM     97  C   UNL A   1      44.904  25.650  36.077  1.00  0.00     0.198 A 
ATOM     98  C   UNL A   1      46.478  27.328  35.393  1.00  0.00     0.198 A 
ATOM     99  F   UNL A   1      45.821  29.021  33.900  1.00  0.00    -0.203 F 
ATOM    100  F   UNL A   1      44.598  24.583  36.829  1.00  0.00    -0.200 F 
ATOM    101  C   UNL A   1      46.174  26.204  36.145  1.00  0.00     0.200 A 
ATOM    102  F   UNL A   1      47.709  27.856  35.447  1.00  0.00    -0.200 F 
ATOM    103  F   UNL A   1      47.101  25.660  36.946  1.00  0.00    -0.200 F 
ENDBRANCH  70  93
ENDBRANCH  44  45
ENDBRANCH  37  39
ENDBRANCH  36  37
ENDBRANCH  35  36
ENDBRANCH   1  35
TORSDOF 17
ENDMDL
