MODEL 1
REMARK VINA RESULT:     -10.8      0.000      0.000
REMARK SMILES CCN1CC(=O)N(C[C@@H]([NH3+])C(=O)OCCOC(=O)c2ccc(-c3c4nc(c(-c5c(F)c(F)c(F)c(F)c5F)c5ccc([nH]5)c(-c5c(F)c(F)c(F)c(F)c5F)c5nc(c(-c6c(F)c(F)c(F)c(F)c6F)c6ccc3[nH]6)C=C5)C=C4)cc2)CC1=O
REMARK SMILES IDX 14 1 13 2 11 3 12 4 9 5 8 6 7 7 3 8 4 9 83 10 5 11 82 12
REMARK SMILES IDX 84 13 6 14 2 15 1 16 10 17 15 21 16 22 17 23 18 24 19 25
REMARK SMILES IDX 20 26 81 27 21 28 80 29 22 30 23 31 24 32 74 33 25 34 79 35
REMARK SMILES IDX 73 36 75 37 26 38 78 39 72 40 71 41 27 43 59 44 39 45 58 46
REMARK SMILES IDX 40 47 43 48 57 49 76 50 41 51 42 52 56 54 77 55 44 56 28 57
REMARK SMILES IDX 29 58 37 59 30 60 31 61 35 62 38 63 32 64 33 65 36 66 34 67
REMARK SMILES IDX 60 68 61 69 69 70 62 71 63 72 67 73 70 74 64 75 65 76 68 77
REMARK SMILES IDX 66 78 45 79 46 80 54 81 47 82 48 83 52 84 55 85 49 86 50 87
REMARK SMILES IDX 53 88 51 89
REMARK H PARENT 10 18 10 19 10 20 75 42 43 53
REMARK Flexibility Score: inf
ROOT
ATOM      1  C   UNL A   1      31.029  30.588  25.098  1.00  0.00     0.274 C 
ENDROOT
BRANCH   1   2
ATOM      2  O   UNL A   1      29.808  31.133  24.561  1.00  0.00    -0.458 OA
BRANCH   2   3
ATOM      3  C   UNL A   1      29.269  30.464  23.509  1.00  0.00     0.366 C 
ATOM      4  O   UNL A   1      28.097  30.555  23.150  1.00  0.00    -0.245 OA
BRANCH   3   5
ATOM      5  C   UNL A   1      30.242  29.491  22.822  1.00  0.00     0.311 C 
BRANCH   5   6
ATOM      6  C   UNL A   1      29.700  28.053  22.710  1.00  0.00     0.197 C 
BRANCH   6   7
ATOM      7  N   UNL A   1      30.503  27.040  23.410  1.00  0.00    -0.325 N 
ATOM      8  N   UNL A   1      32.402  25.853  25.072  1.00  0.00    -0.332 N 
ATOM      9  C   UNL A   1      32.338  25.422  23.668  1.00  0.00     0.219 C 
ATOM     10  C   UNL A   1      31.263  26.383  25.672  1.00  0.00     0.242 C 
ATOM     11  C   UNL A   1      31.520  26.354  22.761  1.00  0.00     0.242 C 
ATOM     12  C   UNL A   1      30.081  26.574  24.725  1.00  0.00     0.220 C 
ATOM     13  O   UNL A   1      31.129  26.570  26.878  1.00  0.00    -0.273 OA
ATOM     14  O   UNL A   1      31.675  26.383  21.542  1.00  0.00    -0.273 OA
BRANCH   8  15
ATOM     15  C   UNL A   1      33.662  25.648  25.791  1.00  0.00     0.116 C 
ATOM     16  C   UNL A   1      34.515  24.460  25.370  1.00  0.00     0.027 C 
ENDBRANCH   8  15
ENDBRANCH   6   7
ENDBRANCH   5   6
BRANCH   5  17
ATOM     17  N   UNL A   1      30.643  30.078  21.514  1.00  0.00    -0.344 N 
ATOM     18  H   UNL A   1      31.579  29.756  21.269  1.00  0.00     0.345 HD
ATOM     19  H   UNL A   1      30.639  31.096  21.582  1.00  0.00     0.345 HD
ATOM     20  H   UNL A   1      29.983  29.783  20.794  1.00  0.00     0.345 HD
ENDBRANCH   5  17
ENDBRANCH   3   5
ENDBRANCH   2   3
ENDBRANCH   1   2
BRANCH   1  21
ATOM     21  C   UNL A   1      31.419  31.252  26.424  1.00  0.00     0.275 C 
BRANCH  21  22
ATOM     22  O   UNL A   1      32.804  31.031  26.750  1.00  0.00    -0.458 OA
BRANCH  22  23
ATOM     23  C   UNL A   1      33.412  32.076  27.361  1.00  0.00     0.338 C 
ATOM     24  O   UNL A   1      32.953  33.190  27.539  1.00  0.00    -0.246 OA
BRANCH  23  25
ATOM     25  C   UNL A   1      34.686  31.635  27.952  1.00  0.00     0.060 A 
ATOM     26  C   UNL A   1      34.771  30.308  28.381  1.00  0.00     0.016 A 
ATOM     27  C   UNL A   1      35.752  32.513  28.152  1.00  0.00     0.016 A 
ATOM     28  C   UNL A   1      35.931  29.843  28.992  1.00  0.00     0.010 A 
ATOM     29  C   UNL A   1      36.912  32.051  28.787  1.00  0.00     0.010 A 
ATOM     30  C   UNL A   1      37.005  30.713  29.212  1.00  0.00    -0.014 A 
BRANCH  30  31
ATOM     31  C   UNL A   1      38.192  30.216  29.947  1.00  0.00     0.031 A 
ATOM     32  C   UNL A   1      38.427  30.642  31.367  1.00  0.00     0.074 A 
ATOM     33  C   UNL A   1      39.020  29.333  29.360  1.00  0.00     0.049 A 
ATOM     34  N   UNL A   1      39.406  30.326  32.176  1.00  0.00    -0.248 NA
ATOM     35  C   UNL A   1      37.424  31.542  31.955  1.00  0.00     0.031 C 
ATOM     36  C   UNL A   1      38.866  28.809  28.004  1.00  0.00     0.029 A 
ATOM     37  N   UNL A   1      40.150  28.715  29.834  1.00  0.00    -0.354 N 
ATOM     38  C   UNL A   1      39.145  30.994  33.364  1.00  0.00     0.074 A 
ATOM     39  C   UNL A   1      37.924  31.748  33.166  1.00  0.00     0.031 C 
ATOM     40  C   UNL A   1      39.861  27.940  27.757  1.00  0.00     0.029 A 
ATOM     41  C   UNL A   1      40.739  27.876  28.923  1.00  0.00     0.049 A 
ATOM     42  H   UNL A   1      40.502  28.859  30.743  1.00  0.00     0.167 HD
ATOM     43  C   UNL A   1      39.858  30.974  34.516  1.00  0.00     0.037 A 
ATOM     44  C   UNL A   1      41.870  27.150  29.013  1.00  0.00     0.037 A 
ATOM     45  C   UNL A   1      41.063  30.212  34.715  1.00  0.00     0.049 A 
ATOM     46  C   UNL A   1      42.670  27.189  30.287  1.00  0.00     0.074 A 
ATOM     47  C   UNL A   1      41.850  30.121  35.850  1.00  0.00     0.029 A 
ATOM     48  N   UNL A   1      41.659  29.411  33.753  1.00  0.00    -0.354 N 
ATOM     49  N   UNL A   1      42.418  27.827  31.403  1.00  0.00    -0.248 NA
ATOM     50  C   UNL A   1      43.916  26.409  30.309  1.00  0.00     0.031 C 
ATOM     51  C   UNL A   1      42.941  29.293  35.562  1.00  0.00     0.029 A 
ATOM     52  C   UNL A   1      42.813  28.837  34.262  1.00  0.00     0.049 A 
ATOM     53  H   UNL A   1      41.312  29.270  32.842  1.00  0.00     0.167 HD
ATOM     54  C   UNL A   1      43.463  27.517  32.264  1.00  0.00     0.074 A 
ATOM     55  C   UNL A   1      44.342  26.616  31.547  1.00  0.00     0.031 C 
ATOM     56  C   UNL A   1      43.678  27.946  33.532  1.00  0.00     0.037 A 
BRANCH  43  57
ATOM     57  C   UNL A   1      39.365  31.827  35.646  1.00  0.00     0.064 A 
ATOM     58  C   UNL A   1      38.444  31.343  36.587  1.00  0.00     0.173 A 
ATOM     59  C   UNL A   1      39.848  33.133  35.810  1.00  0.00     0.173 A 
ATOM     60  F   UNL A   1      37.942  30.104  36.466  1.00  0.00    -0.203 F 
ATOM     61  C   UNL A   1      38.009  32.145  37.639  1.00  0.00     0.198 A 
ATOM     62  C   UNL A   1      39.429  33.924  36.876  1.00  0.00     0.198 A 
ATOM     63  F   UNL A   1      40.734  33.641  34.940  1.00  0.00    -0.203 F 
ATOM     64  F   UNL A   1      37.100  31.676  38.506  1.00  0.00    -0.200 F 
ATOM     65  C   UNL A   1      38.506  33.432  37.787  1.00  0.00     0.200 A 
ATOM     66  F   UNL A   1      39.918  35.163  37.023  1.00  0.00    -0.200 F 
ATOM     67  F   UNL A   1      38.091  34.200  38.804  1.00  0.00    -0.200 F 
ENDBRANCH  43  57
BRANCH  44  68
ATOM     68  C   UNL A   1      42.320  26.335  27.856  1.00  0.00     0.064 A 
ATOM     69  C   UNL A   1      41.824  25.043  27.645  1.00  0.00     0.173 A 
ATOM     70  C   UNL A   1      43.262  26.833  26.943  1.00  0.00     0.173 A 
ATOM     71  F   UNL A   1      40.942  24.514  28.507  1.00  0.00    -0.203 F 
ATOM     72  C   UNL A   1      42.260  24.273  26.569  1.00  0.00     0.198 A 
ATOM     73  C   UNL A   1      43.678  26.073  25.853  1.00  0.00     0.198 A 
ATOM     74  F   UNL A   1      43.770  28.063  27.105  1.00  0.00    -0.203 F 
ATOM     75  F   UNL A   1      41.801  23.024  26.411  1.00  0.00    -0.200 F 
ATOM     76  C   UNL A   1      43.181  24.791  25.670  1.00  0.00     0.200 A 
ATOM     77  F   UNL A   1      44.561  26.580  24.982  1.00  0.00    -0.200 F 
ATOM     78  F   UNL A   1      43.597  24.051  24.633  1.00  0.00    -0.200 F 
ENDBRANCH  44  68
BRANCH  56  79
ATOM     79  C   UNL A   1      44.905  27.432  34.227  1.00  0.00     0.064 A 
ATOM     80  C   UNL A   1      46.120  28.131  34.179  1.00  0.00     0.173 A 
ATOM     81  C   UNL A   1      44.860  26.241  34.966  1.00  0.00     0.173 A 
ATOM     82  F   UNL A   1      46.217  29.266  33.471  1.00  0.00    -0.203 F 
ATOM     83  C   UNL A   1      47.252  27.643  34.826  1.00  0.00     0.198 A 
ATOM     84  C   UNL A   1      45.987  25.769  35.633  1.00  0.00     0.198 A 
ATOM     85  F   UNL A   1      43.720  25.538  35.046  1.00  0.00    -0.203 F 
ATOM     86  F   UNL A   1      48.414  28.302  34.727  1.00  0.00    -0.200 F 
ATOM     87  C   UNL A   1      47.184  26.465  35.556  1.00  0.00     0.200 A 
ATOM     88  F   UNL A   1      45.917  24.636  36.346  1.00  0.00    -0.200 F 
ATOM     89  F   UNL A   1      48.274  25.997  36.177  1.00  0.00    -0.200 F 
ENDBRANCH  56  79
ENDBRANCH  30  31
ENDBRANCH  23  25
ENDBRANCH  22  23
ENDBRANCH  21  22
ENDBRANCH   1  21
TORSDOF 15
ENDMDL
MODEL 2
REMARK VINA RESULT:     -10.7      5.798     11.211
REMARK SMILES CCN1CC(=O)N(C[C@@H]([NH3+])C(=O)OCCOC(=O)c2ccc(-c3c4nc(c(-c5c(F)c(F)c(F)c(F)c5F)c5ccc([nH]5)c(-c5c(F)c(F)c(F)c(F)c5F)c5nc(c(-c6c(F)c(F)c(F)c(F)c6F)c6ccc3[nH]6)C=C5)C=C4)cc2)CC1=O
REMARK SMILES IDX 14 1 13 2 11 3 12 4 9 5 8 6 7 7 3 8 4 9 83 10 5 11 82 12
REMARK SMILES IDX 84 13 6 14 2 15 1 16 10 17 15 21 16 22 17 23 18 24 19 25
REMARK SMILES IDX 20 26 81 27 21 28 80 29 22 30 23 31 24 32 74 33 25 34 79 35
REMARK SMILES IDX 73 36 75 37 26 38 78 39 72 40 71 41 27 43 59 44 39 45 58 46
REMARK SMILES IDX 40 47 43 48 57 49 76 50 41 51 42 52 56 54 77 55 44 56 28 57
REMARK SMILES IDX 29 58 37 59 30 60 31 61 35 62 38 63 32 64 33 65 36 66 34 67
REMARK SMILES IDX 60 68 61 69 69 70 62 71 63 72 67 73 70 74 64 75 65 76 68 77
REMARK SMILES IDX 66 78 45 79 46 80 54 81 47 82 48 83 52 84 55 85 49 86 50 87
REMARK SMILES IDX 53 88 51 89
REMARK H PARENT 10 18 10 19 10 20 75 42 43 53
REMARK Flexibility Score: inf
ROOT
ATOM      1  C   UNL A   1      41.261  19.692  26.287  1.00  0.00     0.274 C 
ENDROOT
BRANCH   1   2
ATOM      2  O   UNL A   1      42.315  20.093  25.390  1.00  0.00    -0.458 OA
BRANCH   2   3
ATOM      3  C   UNL A   1      43.407  19.287  25.355  1.00  0.00     0.366 C 
ATOM      4  O   UNL A   1      43.474  18.177  25.879  1.00  0.00    -0.245 OA
BRANCH   3   5
ATOM      5  C   UNL A   1      44.624  19.916  24.654  1.00  0.00     0.311 C 
BRANCH   5   6
ATOM      6  C   UNL A   1      45.510  20.756  25.595  1.00  0.00     0.197 C 
BRANCH   6   7
ATOM      7  N   UNL A   1      45.350  22.210  25.450  1.00  0.00    -0.325 N 
ATOM      8  N   UNL A   1      45.848  24.951  25.552  1.00  0.00    -0.332 N 
ATOM      9  C   UNL A   1      44.578  24.454  26.098  1.00  0.00     0.219 C 
ATOM     10  C   UNL A   1      46.498  24.215  24.564  1.00  0.00     0.242 C 
ATOM     11  C   UNL A   1      44.538  22.933  26.314  1.00  0.00     0.242 C 
ATOM     12  C   UNL A   1      45.849  22.870  24.250  1.00  0.00     0.220 C 
ATOM     13  O   UNL A   1      47.433  24.627  23.884  1.00  0.00    -0.273 OA
ATOM     14  O   UNL A   1      43.753  22.403  27.097  1.00  0.00    -0.273 OA
BRANCH   8  15
ATOM     15  C   UNL A   1      46.343  26.240  26.043  1.00  0.00     0.116 C 
ATOM     16  C   UNL A   1      45.849  27.489  25.327  1.00  0.00     0.027 C 
ENDBRANCH   8  15
ENDBRANCH   6   7
ENDBRANCH   5   6
BRANCH   5  17
ATOM     17  N   UNL A   1      45.365  18.836  23.947  1.00  0.00    -0.344 N 
ATOM     18  H   UNL A   1      44.866  17.953  24.056  1.00  0.00     0.345 HD
ATOM     19  H   UNL A   1      46.301  18.749  24.344  1.00  0.00     0.345 HD
ATOM     20  H   UNL A   1      45.437  19.066  22.956  1.00  0.00     0.345 HD
ENDBRANCH   5  17
ENDBRANCH   3   5
ENDBRANCH   2   3
ENDBRANCH   1   2
BRANCH   1  21
ATOM     21  C   UNL A   1      40.004  20.552  26.117  1.00  0.00     0.275 C 
BRANCH  21  22
ATOM     22  O   UNL A   1      40.260  21.941  26.398  1.00  0.00    -0.458 OA
BRANCH  22  23
ATOM     23  C   UNL A   1      39.188  22.754  26.242  1.00  0.00     0.338 C 
ATOM     24  O   UNL A   1      38.096  22.451  25.793  1.00  0.00    -0.246 OA
BRANCH  23  25
ATOM     25  C   UNL A   1      39.460  24.062  26.858  1.00  0.00     0.060 A 
ATOM     26  C   UNL A   1      40.101  25.023  26.072  1.00  0.00     0.016 A 
ATOM     27  C   UNL A   1      39.164  24.326  28.196  1.00  0.00     0.016 A 
ATOM     28  C   UNL A   1      40.430  26.262  26.610  1.00  0.00     0.010 A 
ATOM     29  C   UNL A   1      39.514  25.566  28.745  1.00  0.00     0.010 A 
ATOM     30  C   UNL A   1      40.152  26.539  27.954  1.00  0.00    -0.014 A 
BRANCH  30  31
ATOM     31  C   UNL A   1      40.595  27.833  28.527  1.00  0.00     0.031 A 
ATOM     32  C   UNL A   1      42.050  28.069  28.805  1.00  0.00     0.074 A 
ATOM     33  C   UNL A   1      39.698  28.814  28.735  1.00  0.00     0.049 A 
ATOM     34  N   UNL A   1      42.637  29.125  29.309  1.00  0.00    -0.248 NA
ATOM     35  C   UNL A   1      42.969  26.972  28.466  1.00  0.00     0.031 C 
ATOM     36  C   UNL A   1      38.266  28.717  28.456  1.00  0.00     0.029 A 
ATOM     37  N   UNL A   1      39.862  30.087  29.219  1.00  0.00    -0.354 N 
ATOM     38  C   UNL A   1      43.989  28.818  29.360  1.00  0.00     0.074 A 
ATOM     39  C   UNL A   1      44.137  27.470  28.851  1.00  0.00     0.031 C 
ATOM     40  C   UNL A   1      37.682  29.886  28.767  1.00  0.00     0.029 A 
ATOM     41  C   UNL A   1      38.692  30.798  29.299  1.00  0.00     0.049 A 
ATOM     42  H   UNL A   1      40.737  30.455  29.483  1.00  0.00     0.167 HD
ATOM     43  C   UNL A   1      45.014  29.595  29.787  1.00  0.00     0.037 A 
ATOM     44  C   UNL A   1      38.459  32.041  29.765  1.00  0.00     0.037 A 
ATOM     45  C   UNL A   1      44.867  30.939  30.280  1.00  0.00     0.049 A 
ATOM     46  C   UNL A   1      39.610  32.861  30.283  1.00  0.00     0.074 A 
ATOM     47  C   UNL A   1      45.848  31.808  30.725  1.00  0.00     0.029 A 
ATOM     48  N   UNL A   1      43.659  31.611  30.392  1.00  0.00    -0.354 N 
ATOM     49  N   UNL A   1      40.884  32.560  30.331  1.00  0.00    -0.248 NA
ATOM     50  C   UNL A   1      39.285  34.191  30.817  1.00  0.00     0.031 C 
ATOM     51  C   UNL A   1      45.229  32.992  31.142  1.00  0.00     0.029 A 
ATOM     52  C   UNL A   1      43.867  32.876  30.918  1.00  0.00     0.049 A 
ATOM     53  H   UNL A   1      42.783  31.244  30.135  1.00  0.00     0.167 HD
ATOM     54  C   UNL A   1      41.515  33.665  30.886  1.00  0.00     0.074 A 
ATOM     55  C   UNL A   1      40.486  34.652  31.138  1.00  0.00     0.031 C 
ATOM     56  C   UNL A   1      42.830  33.843  31.167  1.00  0.00     0.037 A 
BRANCH  43  57
ATOM     57  C   UNL A   1      46.388  28.994  29.768  1.00  0.00     0.064 A 
ATOM     58  C   UNL A   1      46.886  28.259  30.854  1.00  0.00     0.173 A 
ATOM     59  C   UNL A   1      47.202  29.126  28.634  1.00  0.00     0.173 A 
ATOM     60  F   UNL A   1      46.150  28.115  31.967  1.00  0.00    -0.203 F 
ATOM     61  C   UNL A   1      48.158  27.695  30.812  1.00  0.00     0.198 A 
ATOM     62  C   UNL A   1      48.464  28.541  28.586  1.00  0.00     0.198 A 
ATOM     63  F   UNL A   1      46.770  29.815  27.567  1.00  0.00    -0.203 F 
ATOM     64  F   UNL A   1      48.630  27.028  31.874  1.00  0.00    -0.200 F 
ATOM     65  C   UNL A   1      48.944  27.831  29.676  1.00  0.00     0.200 A 
ATOM     66  F   UNL A   1      49.218  28.665  27.484  1.00  0.00    -0.200 F 
ATOM     67  F   UNL A   1      50.166  27.283  29.635  1.00  0.00    -0.200 F 
ENDBRANCH  43  57
BRANCH  44  68
ATOM     68  C   UNL A   1      37.075  32.579  29.776  1.00  0.00     0.064 A 
ATOM     69  C   UNL A   1      36.565  33.282  28.678  1.00  0.00     0.173 A 
ATOM     70  C   UNL A   1      36.239  32.405  30.889  1.00  0.00     0.173 A 
ATOM     71  F   UNL A   1      37.336  33.497  27.602  1.00  0.00    -0.203 F 
ATOM     72  C   UNL A   1      35.272  33.802  28.696  1.00  0.00     0.198 A 
ATOM     73  C   UNL A   1      34.939  32.903  30.896  1.00  0.00     0.198 A 
ATOM     74  F   UNL A   1      36.684  31.743  31.967  1.00  0.00    -0.203 F 
ATOM     75  F   UNL A   1      34.820  34.507  27.649  1.00  0.00    -0.200 F 
ATOM     76  C   UNL A   1      34.458  33.606  29.802  1.00  0.00     0.200 A 
ATOM     77  F   UNL A   1      34.153  32.703  31.963  1.00  0.00    -0.200 F 
ATOM     78  F   UNL A   1      33.213  34.102  29.817  1.00  0.00    -0.200 F 
ENDBRANCH  44  68
BRANCH  56  79
ATOM     79  C   UNL A   1      43.226  35.161  31.766  1.00  0.00     0.064 A 
ATOM     80  C   UNL A   1      43.702  36.213  30.968  1.00  0.00     0.173 A 
ATOM     81  C   UNL A   1      43.109  35.383  33.146  1.00  0.00     0.173 A 
ATOM     82  F   UNL A   1      43.847  36.044  29.646  1.00  0.00    -0.203 F 
ATOM     83  C   UNL A   1      44.069  37.431  31.535  1.00  0.00     0.198 A 
ATOM     84  C   UNL A   1      43.454  36.610  33.706  1.00  0.00     0.198 A 
ATOM     85  F   UNL A   1      42.655  34.410  33.951  1.00  0.00    -0.203 F 
ATOM     86  F   UNL A   1      44.566  38.405  30.761  1.00  0.00    -0.200 F 
ATOM     87  C   UNL A   1      43.940  37.630  32.902  1.00  0.00     0.200 A 
ATOM     88  F   UNL A   1      43.319  36.804  35.025  1.00  0.00    -0.200 F 
ATOM     89  F   UNL A   1      44.295  38.802  33.446  1.00  0.00    -0.200 F 
ENDBRANCH  56  79
ENDBRANCH  30  31
ENDBRANCH  23  25
ENDBRANCH  22  23
ENDBRANCH  21  22
ENDBRANCH   1  21
TORSDOF 15
ENDMDL
MODEL 3
REMARK VINA RESULT:     -10.6      0.689      2.307
REMARK SMILES CCN1CC(=O)N(C[C@@H]([NH3+])C(=O)OCCOC(=O)c2ccc(-c3c4nc(c(-c5c(F)c(F)c(F)c(F)c5F)c5ccc([nH]5)c(-c5c(F)c(F)c(F)c(F)c5F)c5nc(c(-c6c(F)c(F)c(F)c(F)c6F)c6ccc3[nH]6)C=C5)C=C4)cc2)CC1=O
REMARK SMILES IDX 14 1 13 2 11 3 12 4 9 5 8 6 7 7 3 8 4 9 83 10 5 11 82 12
REMARK SMILES IDX 84 13 6 14 2 15 1 16 10 17 15 21 16 22 17 23 18 24 19 25
REMARK SMILES IDX 20 26 81 27 21 28 80 29 22 30 23 31 24 32 74 33 25 34 79 35
REMARK SMILES IDX 73 36 75 37 26 38 78 39 72 40 71 41 27 43 59 44 39 45 58 46
REMARK SMILES IDX 40 47 43 48 57 49 76 50 41 51 42 52 56 54 77 55 44 56 28 57
REMARK SMILES IDX 29 58 37 59 30 60 31 61 35 62 38 63 32 64 33 65 36 66 34 67
REMARK SMILES IDX 60 68 61 69 69 70 62 71 63 72 67 73 70 74 64 75 65 76 68 77
REMARK SMILES IDX 66 78 45 79 46 80 54 81 47 82 48 83 52 84 55 85 49 86 50 87
REMARK SMILES IDX 53 88 51 89
REMARK H PARENT 10 18 10 19 10 20 75 42 43 53
REMARK Flexibility Score: inf
ROOT
ATOM      1  C   UNL A   1      31.053  30.592  25.157  1.00  0.00     0.274 C 
ENDROOT
BRANCH   1   2
ATOM      2  O   UNL A   1      29.937  31.205  24.482  1.00  0.00    -0.458 OA
BRANCH   2   3
ATOM      3  C   UNL A   1      29.324  30.451  23.534  1.00  0.00     0.366 C 
ATOM      4  O   UNL A   1      28.116  30.455  23.311  1.00  0.00    -0.245 OA
BRANCH   3   5
ATOM      5  C   UNL A   1      30.273  29.499  22.786  1.00  0.00     0.311 C 
BRANCH   5   6
ATOM      6  C   UNL A   1      29.760  28.047  22.715  1.00  0.00     0.197 C 
BRANCH   6   7
ATOM      7  N   UNL A   1      30.758  27.027  23.067  1.00  0.00    -0.325 N 
ATOM      8  N   UNL A   1      32.417  24.790  22.935  1.00  0.00    -0.332 N 
ATOM      9  C   UNL A   1      31.574  24.963  24.127  1.00  0.00     0.219 C 
ATOM     10  C   UNL A   1      32.788  25.911  22.197  1.00  0.00     0.242 C 
ATOM     11  C   UNL A   1      30.462  26.010  23.964  1.00  0.00     0.242 C 
ATOM     12  C   UNL A   1      32.146  27.215  22.663  1.00  0.00     0.220 C 
ATOM     13  O   UNL A   1      33.655  25.922  21.327  1.00  0.00    -0.273 OA
ATOM     14  O   UNL A   1      29.455  26.011  24.669  1.00  0.00    -0.273 OA
BRANCH   8  15
ATOM     15  C   UNL A   1      32.873  23.435  22.613  1.00  0.00     0.116 C 
ATOM     16  C   UNL A   1      33.626  22.681  23.700  1.00  0.00     0.027 C 
ENDBRANCH   8  15
ENDBRANCH   6   7
ENDBRANCH   5   6
BRANCH   5  17
ATOM     17  N   UNL A   1      30.570  30.089  21.452  1.00  0.00    -0.344 N 
ATOM     18  H   UNL A   1      30.966  31.022  21.573  1.00  0.00     0.345 HD
ATOM     19  H   UNL A   1      29.710  30.153  20.909  1.00  0.00     0.345 HD
ATOM     20  H   UNL A   1      31.240  29.497  20.960  1.00  0.00     0.345 HD
ENDBRANCH   5  17
ENDBRANCH   3   5
ENDBRANCH   2   3
ENDBRANCH   1   2
BRANCH   1  21
ATOM     21  C   UNL A   1      31.369  31.283  26.488  1.00  0.00     0.275 C 
BRANCH  21  22
ATOM     22  O   UNL A   1      32.698  30.978  26.951  1.00  0.00    -0.458 OA
BRANCH  22  23
ATOM     23  C   UNL A   1      33.415  32.054  27.354  1.00  0.00     0.338 C 
ATOM     24  O   UNL A   1      33.048  33.216  27.370  1.00  0.00    -0.246 OA
BRANCH  23  25
ATOM     25  C   UNL A   1      34.687  31.611  27.948  1.00  0.00     0.060 A 
ATOM     26  C   UNL A   1      34.777  30.279  28.357  1.00  0.00     0.016 A 
ATOM     27  C   UNL A   1      35.747  32.493  28.169  1.00  0.00     0.016 A 
ATOM     28  C   UNL A   1      35.935  29.811  28.969  1.00  0.00     0.010 A 
ATOM     29  C   UNL A   1      36.905  32.028  28.805  1.00  0.00     0.010 A 
ATOM     30  C   UNL A   1      37.002  30.685  29.211  1.00  0.00    -0.014 A 
BRANCH  30  31
ATOM     31  C   UNL A   1      38.188  30.183  29.947  1.00  0.00     0.031 A 
ATOM     32  C   UNL A   1      38.426  30.615  31.364  1.00  0.00     0.074 A 
ATOM     33  C   UNL A   1      39.008  29.291  29.363  1.00  0.00     0.049 A 
ATOM     34  N   UNL A   1      39.405  30.296  32.173  1.00  0.00    -0.248 NA
ATOM     35  C   UNL A   1      37.430  31.524  31.949  1.00  0.00     0.031 C 
ATOM     36  C   UNL A   1      38.849  28.762  28.010  1.00  0.00     0.029 A 
ATOM     37  N   UNL A   1      40.134  28.668  29.839  1.00  0.00    -0.354 N 
ATOM     38  C   UNL A   1      39.150  30.972  33.358  1.00  0.00     0.074 A 
ATOM     39  C   UNL A   1      37.934  31.734  33.158  1.00  0.00     0.031 C 
ATOM     40  C   UNL A   1      39.837  27.885  27.766  1.00  0.00     0.029 A 
ATOM     41  C   UNL A   1      40.717  27.820  28.932  1.00  0.00     0.049 A 
ATOM     42  H   UNL A   1      40.489  28.814  30.746  1.00  0.00     0.167 HD
ATOM     43  C   UNL A   1      39.864  30.953  34.509  1.00  0.00     0.037 A 
ATOM     44  C   UNL A   1      41.843  27.087  29.024  1.00  0.00     0.037 A 
ATOM     45  C   UNL A   1      41.065  30.185  34.711  1.00  0.00     0.049 A 
ATOM     46  C   UNL A   1      42.645  27.127  30.297  1.00  0.00     0.074 A 
ATOM     47  C   UNL A   1      41.852  30.094  35.845  1.00  0.00     0.029 A 
ATOM     48  N   UNL A   1      41.653  29.375  33.752  1.00  0.00    -0.354 N 
ATOM     49  N   UNL A   1      42.399  27.773  31.410  1.00  0.00    -0.248 NA
ATOM     50  C   UNL A   1      43.886  26.339  30.321  1.00  0.00     0.031 C 
ATOM     51  C   UNL A   1      42.937  29.257  35.560  1.00  0.00     0.029 A 
ATOM     52  C   UNL A   1      42.804  28.795  34.262  1.00  0.00     0.049 A 
ATOM     53  H   UNL A   1      41.304  29.231  32.842  1.00  0.00     0.167 HD
ATOM     54  C   UNL A   1      43.443  27.461  32.270  1.00  0.00     0.074 A 
ATOM     55  C   UNL A   1      44.314  26.549  31.558  1.00  0.00     0.031 C 
ATOM     56  C   UNL A   1      43.662  27.895  33.536  1.00  0.00     0.037 A 
BRANCH  43  57
ATOM     57  C   UNL A   1      39.379  31.815  35.635  1.00  0.00     0.064 A 
ATOM     58  C   UNL A   1      39.820  33.137  35.795  1.00  0.00     0.173 A 
ATOM     59  C   UNL A   1      38.431  31.324  36.546  1.00  0.00     0.173 A 
ATOM     60  F   UNL A   1      40.735  33.649  34.958  1.00  0.00    -0.203 F 
ATOM     61  C   UNL A   1      39.346  33.929  36.838  1.00  0.00     0.198 A 
ATOM     62  C   UNL A   1      37.942  32.125  37.573  1.00  0.00     0.198 A 
ATOM     63  F   UNL A   1      37.974  30.068  36.433  1.00  0.00    -0.203 F 
ATOM     64  F   UNL A   1      39.809  35.177  36.995  1.00  0.00    -0.200 F 
ATOM     65  C   UNL A   1      38.403  33.425  37.723  1.00  0.00     0.200 A 
ATOM     66  F   UNL A   1      37.023  31.640  38.421  1.00  0.00    -0.200 F 
ATOM     67  F   UNL A   1      37.943  34.190  38.722  1.00  0.00    -0.200 F 
ENDBRANCH  43  57
BRANCH  44  68
ATOM     68  C   UNL A   1      42.286  26.264  27.871  1.00  0.00     0.064 A 
ATOM     69  C   UNL A   1      43.245  26.741  26.968  1.00  0.00     0.173 A 
ATOM     70  C   UNL A   1      41.755  24.985  27.646  1.00  0.00     0.173 A 
ATOM     71  F   UNL A   1      43.762  27.969  27.127  1.00  0.00    -0.203 F 
ATOM     72  C   UNL A   1      43.648  25.975  25.876  1.00  0.00     0.198 A 
ATOM     73  C   UNL A   1      42.177  24.210  26.569  1.00  0.00     0.198 A 
ATOM     74  F   UNL A   1      40.830  24.486  28.480  1.00  0.00    -0.203 F 
ATOM     75  F   UNL A   1      44.536  26.470  25.004  1.00  0.00    -0.200 F 
ATOM     76  C   UNL A   1      43.119  24.707  25.682  1.00  0.00     0.200 A 
ATOM     77  F   UNL A   1      41.669  22.982  26.390  1.00  0.00    -0.200 F 
ATOM     78  F   UNL A   1      43.510  23.969  24.634  1.00  0.00    -0.200 F 
ENDBRANCH  44  68
BRANCH  56  79
ATOM     79  C   UNL A   1      44.886  27.376  34.232  1.00  0.00     0.064 A 
ATOM     80  C   UNL A   1      44.852  26.193  34.987  1.00  0.00     0.173 A 
ATOM     81  C   UNL A   1      46.110  28.054  34.125  1.00  0.00     0.173 A 
ATOM     82  F   UNL A   1      43.702  25.519  35.132  1.00  0.00    -0.203 F 
ATOM     83  C   UNL A   1      45.994  25.723  35.631  1.00  0.00     0.198 A 
ATOM     84  C   UNL A   1      47.255  27.567  34.749  1.00  0.00     0.198 A 
ATOM     85  F   UNL A   1      46.195  29.186  33.411  1.00  0.00    -0.203 F 
ATOM     86  F   UNL A   1      45.928  24.618  36.386  1.00  0.00    -0.200 F 
ATOM     87  C   UNL A   1      47.195  26.407  35.507  1.00  0.00     0.200 A 
ATOM     88  F   UNL A   1      48.417  28.223  34.621  1.00  0.00    -0.200 F 
ATOM     89  F   UNL A   1      48.292  25.952  36.128  1.00  0.00    -0.200 F 
ENDBRANCH  56  79
ENDBRANCH  30  31
ENDBRANCH  23  25
ENDBRANCH  22  23
ENDBRANCH  21  22
ENDBRANCH   1  21
TORSDOF 15
ENDMDL
