MODEL 1
REMARK VINA RESULT:     -10.8      0.000      0.000
REMARK SMILES CN1C(=O)Cc2cc([C@@H](O)CCCCC(=O)OCCOC(=O)c3ccc(-c4c5nc(c(-c6c(F)c(F)c(F)c(F)c6F)c6ccc([nH]6)c(-c6c(F)c(F)c(F)c(F)c6F)c6nc(c(-c7c(F)c(F)c(F)c(F)c7F)c7ccc4[nH]7)C=C6)C=C5)cc3)ccc21
REMARK SMILES IDX 17 1 15 2 16 3 14 4 13 5 12 6 11 7 9 8 8 9 1 10 2 11 3 12
REMARK SMILES IDX 88 13 4 14 5 15 6 16 87 17 7 18 86 19 10 20 18 22 19 23
REMARK SMILES IDX 20 24 21 25 22 26 23 27 24 28 85 29 25 30 84 31 26 32 27 33
REMARK SMILES IDX 28 34 78 35 29 36 83 37 77 38 79 39 30 40 82 41 76 42 75 43
REMARK SMILES IDX 31 45 63 46 43 47 62 48 44 49 47 50 61 51 80 52 45 53 46 54
REMARK SMILES IDX 60 56 81 57 48 58 32 59 33 60 41 61 34 62 35 63 39 64 42 65
REMARK SMILES IDX 36 66 37 67 40 68 38 69 64 70 65 71 73 72 66 73 67 74 71 75
REMARK SMILES IDX 74 76 68 77 69 78 72 79 70 80 49 81 50 82 58 83 51 84 52 85
REMARK SMILES IDX 56 86 59 87 53 88 54 89 57 90 55 91
REMARK H PARENT 10 21 79 44 47 55
REMARK Flexibility Score: inf
ROOT
ATOM      1  O   UNL A   1      34.047  34.186  28.437  1.00  0.00    -0.462 OA
ENDROOT
BRANCH   1   2
ATOM      2  C   UNL A   1      35.227  33.545  28.619  1.00  0.00     0.305 C 
ATOM      3  O   UNL A   1      36.204  34.016  29.188  1.00  0.00    -0.252 OA
BRANCH   2   4
ATOM      4  C   UNL A   1      35.232  32.164  28.002  1.00  0.00     0.123 C 
BRANCH   4   5
ATOM      5  C   UNL A   1      33.882  31.439  27.995  1.00  0.00     0.012 C 
BRANCH   5   6
ATOM      6  C   UNL A   1      33.708  30.362  26.918  1.00  0.00     0.004 C 
BRANCH   6   7
ATOM      7  C   UNL A   1      33.540  28.939  27.459  1.00  0.00     0.037 C 
BRANCH   7   8
ATOM      8  C   UNL A   1      32.227  28.265  27.035  1.00  0.00     0.144 C 
BRANCH   8   9
ATOM      9  C   UNL A   1      32.475  26.915  26.394  1.00  0.00    -0.019 A 
ATOM     10  C   UNL A   1      34.237  22.390  24.479  1.00  0.00     0.153 C 
ATOM     11  N   UNL A   1      33.111  23.016  25.115  1.00  0.00    -0.315 N 
ATOM     12  C   UNL A   1      31.952  22.341  25.515  1.00  0.00     0.231 C 
ATOM     13  C   UNL A   1      33.046  24.371  25.446  1.00  0.00     0.047 A 
ATOM     14  O   UNL A   1      31.706  21.152  25.383  1.00  0.00    -0.274 OA
ATOM     15  C   UNL A   1      31.028  23.371  26.169  1.00  0.00     0.138 C 
ATOM     16  C   UNL A   1      31.829  24.630  26.069  1.00  0.00    -0.014 A 
ATOM     17  C   UNL A   1      33.988  25.363  25.254  1.00  0.00     0.027 A 
ATOM     18  C   UNL A   1      31.519  25.893  26.533  1.00  0.00     0.012 A 
ATOM     19  C   UNL A   1      33.697  26.644  25.737  1.00  0.00     0.008 A 
ENDBRANCH   8   9
BRANCH   8  20
ATOM     20  O   UNL A   1      31.407  28.103  28.191  1.00  0.00    -0.388 OA
ATOM     21  H   UNL A   1      31.566  28.837  28.804  1.00  0.00     0.211 HD
ENDBRANCH   8  20
ENDBRANCH   7   8
ENDBRANCH   6   7
ENDBRANCH   5   6
ENDBRANCH   4   5
ENDBRANCH   2   4
ENDBRANCH   1   2
BRANCH   1  22
ATOM     22  C   UNL A   1      34.082  35.624  28.392  1.00  0.00     0.274 C 
BRANCH  22  23
ATOM     23  C   UNL A   1      32.885  36.214  29.140  1.00  0.00     0.275 C 
BRANCH  23  24
ATOM     24  O   UNL A   1      32.478  35.344  30.212  1.00  0.00    -0.458 OA
BRANCH  24  25
ATOM     25  C   UNL A   1      32.764  35.778  31.461  1.00  0.00     0.338 C 
ATOM     26  O   UNL A   1      32.164  36.604  32.123  1.00  0.00    -0.246 OA
BRANCH  25  27
ATOM     27  C   UNL A   1      33.886  34.991  31.990  1.00  0.00     0.060 A 
ATOM     28  C   UNL A   1      35.122  35.622  32.154  1.00  0.00     0.016 A 
ATOM     29  C   UNL A   1      33.741  33.630  32.260  1.00  0.00     0.016 A 
ATOM     30  C   UNL A   1      36.224  34.896  32.595  1.00  0.00     0.010 A 
ATOM     31  C   UNL A   1      34.848  32.901  32.704  1.00  0.00     0.010 A 
ATOM     32  C   UNL A   1      36.096  33.529  32.867  1.00  0.00    -0.014 A 
BRANCH  32  33
ATOM     33  C   UNL A   1      37.286  32.745  33.273  1.00  0.00     0.031 A 
ATOM     34  C   UNL A   1      37.949  33.029  34.587  1.00  0.00     0.074 A 
ATOM     35  C   UNL A   1      37.759  31.779  32.468  1.00  0.00     0.049 A 
ATOM     36  N   UNL A   1      39.054  32.533  35.084  1.00  0.00    -0.248 NA
ATOM     37  C   UNL A   1      37.280  34.007  35.460  1.00  0.00     0.031 C 
ATOM     38  C   UNL A   1      37.172  31.383  31.189  1.00  0.00     0.029 A 
ATOM     39  N   UNL A   1      38.853  30.960  32.604  1.00  0.00    -0.354 N 
ATOM     40  C   UNL A   1      39.227  33.155  36.312  1.00  0.00     0.074 A 
ATOM     41  C   UNL A   1      38.119  34.071  36.485  1.00  0.00     0.031 C 
ATOM     42  C   UNL A   1      37.915  30.402  30.652  1.00  0.00     0.029 A 
ATOM     43  C   UNL A   1      39.053  30.133  31.528  1.00  0.00     0.049 A 
ATOM     44  H   UNL A   1      39.435  30.965  33.398  1.00  0.00     0.167 HD
ATOM     45  C   UNL A   1      40.223  32.975  37.212  1.00  0.00     0.037 A 
ATOM     46  C   UNL A   1      40.060  29.279  31.264  1.00  0.00     0.037 A 
ATOM     47  C   UNL A   1      41.312  32.048  37.043  1.00  0.00     0.049 A 
ATOM     48  C   UNL A   1      41.178  29.129  32.260  1.00  0.00     0.074 A 
ATOM     49  C   UNL A   1      42.359  31.779  37.907  1.00  0.00     0.029 A 
ATOM     50  N   UNL A   1      41.492  31.240  35.931  1.00  0.00    -0.354 N 
ATOM     51  N   UNL A   1      41.338  29.723  33.418  1.00  0.00    -0.248 NA
ATOM     52  C   UNL A   1      42.257  28.194  31.911  1.00  0.00     0.031 C 
ATOM     53  C   UNL A   1      43.193  30.833  37.301  1.00  0.00     0.029 A 
ATOM     54  C   UNL A   1      42.644  30.484  36.077  1.00  0.00     0.049 A 
ATOM     55  H   UNL A   1      40.890  31.207  35.152  1.00  0.00     0.167 HD
ATOM     56  C   UNL A   1      42.523  29.224  33.942  1.00  0.00     0.074 A 
ATOM     57  C   UNL A   1      43.034  28.268  32.983  1.00  0.00     0.031 C 
ATOM     58  C   UNL A   1      43.134  29.533  35.113  1.00  0.00     0.037 A 
BRANCH  45  59
ATOM     59  C   UNL A   1      40.198  33.823  38.447  1.00  0.00     0.064 A 
ATOM     60  C   UNL A   1      40.943  35.007  38.546  1.00  0.00     0.173 A 
ATOM     61  C   UNL A   1      39.395  33.458  39.539  1.00  0.00     0.173 A 
ATOM     62  F   UNL A   1      41.739  35.390  37.537  1.00  0.00    -0.203 F 
ATOM     63  C   UNL A   1      40.901  35.784  39.702  1.00  0.00     0.198 A 
ATOM     64  C   UNL A   1      39.337  34.249  40.683  1.00  0.00     0.198 A 
ATOM     65  F   UNL A   1      38.662  32.335  39.492  1.00  0.00    -0.203 F 
ATOM     66  F   UNL A   1      41.653  36.890  39.792  1.00  0.00    -0.200 F 
ATOM     67  C   UNL A   1      40.094  35.407  40.766  1.00  0.00     0.200 A 
ATOM     68  F   UNL A   1      38.551  33.888  41.706  1.00  0.00    -0.200 F 
ATOM     69  F   UNL A   1      40.053  36.158  41.875  1.00  0.00    -0.200 F 
ENDBRANCH  45  59
BRANCH  46  70
ATOM     70  C   UNL A   1      40.067  28.519  29.988  1.00  0.00     0.064 A 
ATOM     71  C   UNL A   1      39.449  27.266  29.891  1.00  0.00     0.173 A 
ATOM     72  C   UNL A   1      40.688  29.034  28.841  1.00  0.00     0.173 A 
ATOM     73  F   UNL A   1      38.866  26.721  30.969  1.00  0.00    -0.203 F 
ATOM     74  C   UNL A   1      39.460  26.551  28.695  1.00  0.00     0.198 A 
ATOM     75  C   UNL A   1      40.675  28.330  27.640  1.00  0.00     0.198 A 
ATOM     76  F   UNL A   1      41.296  30.228  28.885  1.00  0.00    -0.203 F 
ATOM     77  F   UNL A   1      38.893  25.338  28.638  1.00  0.00    -0.200 F 
ATOM     78  C   UNL A   1      40.066  27.087  27.569  1.00  0.00     0.200 A 
ATOM     79  F   UNL A   1      41.254  28.855  26.551  1.00  0.00    -0.200 F 
ATOM     80  F   UNL A   1      40.070  26.401  26.417  1.00  0.00    -0.200 F 
ENDBRANCH  46  70
BRANCH  58  81
ATOM     81  C   UNL A   1      44.409  28.811  35.431  1.00  0.00     0.064 A 
ATOM     82  C   UNL A   1      44.406  27.586  36.112  1.00  0.00     0.173 A 
ATOM     83  C   UNL A   1      45.642  29.332  35.013  1.00  0.00     0.173 A 
ATOM     84  F   UNL A   1      43.252  27.057  36.546  1.00  0.00    -0.203 F 
ATOM     85  C   UNL A   1      45.597  26.917  36.383  1.00  0.00     0.198 A 
ATOM     86  C   UNL A   1      46.828  28.648  35.264  1.00  0.00     0.198 A 
ATOM     87  F   UNL A   1      45.695  30.498  34.353  1.00  0.00    -0.203 F 
ATOM     88  F   UNL A   1      45.576  25.766  37.070  1.00  0.00    -0.200 F 
ATOM     89  C   UNL A   1      46.806  27.445  35.952  1.00  0.00     0.200 A 
ATOM     90  F   UNL A   1      47.995  29.154  34.838  1.00  0.00    -0.200 F 
ATOM     91  F   UNL A   1      47.950  26.795  36.208  1.00  0.00    -0.200 F 
ENDBRANCH  58  81
ENDBRANCH  32  33
ENDBRANCH  25  27
ENDBRANCH  24  25
ENDBRANCH  23  24
ENDBRANCH  22  23
ENDBRANCH   1  22
TORSDOF 17
ENDMDL
MODEL 2
REMARK VINA RESULT:     -10.7      2.663      8.518
REMARK SMILES CN1C(=O)Cc2cc([C@@H](O)CCCCC(=O)OCCOC(=O)c3ccc(-c4c5nc(c(-c6c(F)c(F)c(F)c(F)c6F)c6ccc([nH]6)c(-c6c(F)c(F)c(F)c(F)c6F)c6nc(c(-c7c(F)c(F)c(F)c(F)c7F)c7ccc4[nH]7)C=C6)C=C5)cc3)ccc21
REMARK SMILES IDX 17 1 15 2 16 3 14 4 13 5 12 6 11 7 9 8 8 9 1 10 2 11 3 12
REMARK SMILES IDX 88 13 4 14 5 15 6 16 87 17 7 18 86 19 10 20 18 22 19 23
REMARK SMILES IDX 20 24 21 25 22 26 23 27 24 28 85 29 25 30 84 31 26 32 27 33
REMARK SMILES IDX 28 34 78 35 29 36 83 37 77 38 79 39 30 40 82 41 76 42 75 43
REMARK SMILES IDX 31 45 63 46 43 47 62 48 44 49 47 50 61 51 80 52 45 53 46 54
REMARK SMILES IDX 60 56 81 57 48 58 32 59 33 60 41 61 34 62 35 63 39 64 42 65
REMARK SMILES IDX 36 66 37 67 40 68 38 69 64 70 65 71 73 72 66 73 67 74 71 75
REMARK SMILES IDX 74 76 68 77 69 78 72 79 70 80 49 81 50 82 58 83 51 84 52 85
REMARK SMILES IDX 56 86 59 87 53 88 54 89 57 90 55 91
REMARK H PARENT 10 21 79 44 47 55
REMARK Flexibility Score: inf
ROOT
ATOM      1  O   UNL A   1      33.060  28.538  23.719  1.00  0.00    -0.462 OA
ENDROOT
BRANCH   1   2
ATOM      2  C   UNL A   1      33.222  27.436  22.948  1.00  0.00     0.305 C 
ATOM      3  O   UNL A   1      33.665  27.433  21.806  1.00  0.00    -0.252 OA
BRANCH   2   4
ATOM      4  C   UNL A   1      32.757  26.175  23.643  1.00  0.00     0.123 C 
BRANCH   4   5
ATOM      5  C   UNL A   1      31.822  25.278  22.825  1.00  0.00     0.012 C 
BRANCH   5   6
ATOM      6  C   UNL A   1      30.716  24.570  23.616  1.00  0.00     0.004 C 
BRANCH   6   7
ATOM      7  C   UNL A   1      30.814  24.730  25.136  1.00  0.00     0.037 C 
BRANCH   7   8
ATOM      8  C   UNL A   1      30.847  23.398  25.900  1.00  0.00     0.144 C 
BRANCH   8   9
ATOM      9  C   UNL A   1      32.227  22.773  25.871  1.00  0.00    -0.019 A 
ATOM     10  C   UNL A   1      36.655  20.152  24.998  1.00  0.00     0.153 C 
ATOM     11  N   UNL A   1      36.126  21.416  25.430  1.00  0.00    -0.315 N 
ATOM     12  C   UNL A   1      36.906  22.536  25.737  1.00  0.00     0.231 C 
ATOM     13  C   UNL A   1      34.764  21.696  25.562  1.00  0.00     0.047 A 
ATOM     14  O   UNL A   1      38.123  22.621  25.706  1.00  0.00    -0.274 OA
ATOM     15  C   UNL A   1      35.947  23.666  26.122  1.00  0.00     0.138 C 
ATOM     16  C   UNL A   1      34.608  23.017  25.974  1.00  0.00    -0.014 A 
ATOM     17  C   UNL A   1      33.677  20.877  25.324  1.00  0.00     0.027 A 
ATOM     18  C   UNL A   1      33.354  23.566  26.150  1.00  0.00     0.012 A 
ATOM     19  C   UNL A   1      32.399  21.427  25.478  1.00  0.00     0.008 A 
ENDBRANCH   8   9
BRANCH   8  20
ATOM     20  O   UNL A   1      30.459  23.640  27.251  1.00  0.00    -0.388 OA
ATOM     21  H   UNL A   1      30.130  24.549  27.334  1.00  0.00     0.211 HD
ENDBRANCH   8  20
ENDBRANCH   7   8
ENDBRANCH   6   7
ENDBRANCH   5   6
ENDBRANCH   4   5
ENDBRANCH   2   4
ENDBRANCH   1   2
BRANCH   1  22
ATOM     22  C   UNL A   1      31.723  28.847  24.149  1.00  0.00     0.274 C 
BRANCH  22  23
ATOM     23  C   UNL A   1      31.743  29.905  25.254  1.00  0.00     0.275 C 
BRANCH  23  24
ATOM     24  O   UNL A   1      32.993  29.867  25.967  1.00  0.00    -0.458 OA
BRANCH  24  25
ATOM     25  C   UNL A   1      33.195  30.872  26.850  1.00  0.00     0.338 C 
ATOM     26  O   UNL A   1      32.431  31.770  27.151  1.00  0.00    -0.246 OA
BRANCH  25  27
ATOM     27  C   UNL A   1      34.480  30.655  27.528  1.00  0.00     0.060 A 
ATOM     28  C   UNL A   1      34.848  29.346  27.852  1.00  0.00     0.016 A 
ATOM     29  C   UNL A   1      35.283  31.733  27.902  1.00  0.00     0.016 A 
ATOM     30  C   UNL A   1      36.028  29.104  28.548  1.00  0.00     0.010 A 
ATOM     31  C   UNL A   1      36.469  31.489  28.601  1.00  0.00     0.010 A 
ATOM     32  C   UNL A   1      36.844  30.175  28.933  1.00  0.00    -0.014 A 
BRANCH  32  33
ATOM     33  C   UNL A   1      38.066  29.919  29.731  1.00  0.00     0.031 A 
ATOM     34  C   UNL A   1      39.136  29.022  29.184  1.00  0.00     0.074 A 
ATOM     35  C   UNL A   1      38.213  30.497  30.936  1.00  0.00     0.049 A 
ATOM     36  N   UNL A   1      40.228  28.589  29.759  1.00  0.00    -0.248 NA
ATOM     37  C   UNL A   1      38.949  28.547  27.804  1.00  0.00     0.031 C 
ATOM     38  C   UNL A   1      37.262  31.422  31.550  1.00  0.00     0.029 A 
ATOM     39  N   UNL A   1      39.219  30.383  31.862  1.00  0.00    -0.354 N 
ATOM     40  C   UNL A   1      40.846  27.770  28.823  1.00  0.00     0.074 A 
ATOM     41  C   UNL A   1      40.004  27.760  27.645  1.00  0.00     0.031 C 
ATOM     42  C   UNL A   1      37.724  31.785  32.757  1.00  0.00     0.029 A 
ATOM     43  C   UNL A   1      38.980  31.085  33.017  1.00  0.00     0.049 A 
ATOM     44  H   UNL A   1      40.033  29.849  31.713  1.00  0.00     0.167 HD
ATOM     45  C   UNL A   1      42.011  27.090  28.942  1.00  0.00     0.037 A 
ATOM     46  C   UNL A   1      39.680  31.132  34.166  1.00  0.00     0.037 A 
ATOM     47  C   UNL A   1      42.854  27.120  30.108  1.00  0.00     0.049 A 
ATOM     48  C   UNL A   1      40.949  30.333  34.288  1.00  0.00     0.074 A 
ATOM     49  C   UNL A   1      44.063  26.481  30.317  1.00  0.00     0.029 A 
ATOM     50  N   UNL A   1      42.571  27.829  31.266  1.00  0.00    -0.354 N 
ATOM     51  N   UNL A   1      41.525  29.557  33.402  1.00  0.00    -0.248 NA
ATOM     52  C   UNL A   1      41.662  30.411  35.570  1.00  0.00     0.031 C 
ATOM     53  C   UNL A   1      44.494  26.775  31.616  1.00  0.00     0.029 A 
ATOM     54  C   UNL A   1      43.573  27.629  32.201  1.00  0.00     0.049 A 
ATOM     55  H   UNL A   1      41.774  28.392  31.403  1.00  0.00     0.167 HD
ATOM     56  C   UNL A   1      42.673  29.069  34.011  1.00  0.00     0.074 A 
ATOM     57  C   UNL A   1      42.720  29.647  35.338  1.00  0.00     0.031 C 
ATOM     58  C   UNL A   1      43.604  28.216  33.516  1.00  0.00     0.037 A 
BRANCH  45  59
ATOM     59  C   UNL A   1      42.427  26.228  27.788  1.00  0.00     0.064 A 
ATOM     60  C   UNL A   1      43.360  26.666  26.837  1.00  0.00     0.173 A 
ATOM     61  C   UNL A   1      41.903  24.934  27.649  1.00  0.00     0.173 A 
ATOM     62  F   UNL A   1      43.876  27.901  26.917  1.00  0.00    -0.203 F 
ATOM     63  C   UNL A   1      43.736  25.846  25.776  1.00  0.00     0.198 A 
ATOM     64  C   UNL A   1      42.300  24.109  26.601  1.00  0.00     0.198 A 
ATOM     65  F   UNL A   1      41.009  24.468  28.535  1.00  0.00    -0.203 F 
ATOM     66  F   UNL A   1      44.598  26.299  24.854  1.00  0.00    -0.200 F 
ATOM     67  C   UNL A   1      43.211  24.567  25.662  1.00  0.00     0.200 A 
ATOM     68  F   UNL A   1      41.798  22.870  26.497  1.00  0.00    -0.200 F 
ATOM     69  F   UNL A   1      43.578  23.779  24.642  1.00  0.00    -0.200 F 
ENDBRANCH  45  59
BRANCH  46  70
ATOM     70  C   UNL A   1      39.180  31.948  35.301  1.00  0.00     0.064 A 
ATOM     71  C   UNL A   1      38.400  31.374  36.314  1.00  0.00     0.173 A 
ATOM     72  C   UNL A   1      39.477  33.315  35.398  1.00  0.00     0.173 A 
ATOM     73  F   UNL A   1      38.069  30.076  36.250  1.00  0.00    -0.203 F 
ATOM     74  C   UNL A   1      37.927  32.141  37.377  1.00  0.00     0.198 A 
ATOM     75  C   UNL A   1      39.024  34.074  36.475  1.00  0.00     0.198 A 
ATOM     76  F   UNL A   1      40.216  33.911  34.452  1.00  0.00    -0.203 F 
ATOM     77  F   UNL A   1      37.153  31.576  38.314  1.00  0.00    -0.200 F 
ATOM     78  C   UNL A   1      38.246  33.488  37.461  1.00  0.00     0.200 A 
ATOM     79  F   UNL A   1      39.342  35.374  36.557  1.00  0.00    -0.200 F 
ATOM     80  F   UNL A   1      37.796  34.223  38.487  1.00  0.00    -0.200 F 
ENDBRANCH  46  70
BRANCH  58  81
ATOM     81  C   UNL A   1      44.764  27.878  34.404  1.00  0.00     0.064 A 
ATOM     82  C   UNL A   1      45.921  28.669  34.430  1.00  0.00     0.173 A 
ATOM     83  C   UNL A   1      44.698  26.774  35.267  1.00  0.00     0.173 A 
ATOM     84  F   UNL A   1      46.036  29.725  33.612  1.00  0.00    -0.203 F 
ATOM     85  C   UNL A   1      46.982  28.353  35.276  1.00  0.00     0.198 A 
ATOM     86  C   UNL A   1      45.751  26.476  36.127  1.00  0.00     0.198 A 
ATOM     87  F   UNL A   1      43.610  25.990  35.281  1.00  0.00    -0.203 F 
ATOM     88  F   UNL A   1      48.095  29.100  35.258  1.00  0.00    -0.200 F 
ATOM     89  C   UNL A   1      46.893  27.262  36.128  1.00  0.00     0.200 A 
ATOM     90  F   UNL A   1      45.659  25.427  36.958  1.00  0.00    -0.200 F 
ATOM     91  F   UNL A   1      47.912  26.965  36.946  1.00  0.00    -0.200 F 
ENDBRANCH  58  81
ENDBRANCH  32  33
ENDBRANCH  25  27
ENDBRANCH  24  25
ENDBRANCH  23  24
ENDBRANCH  22  23
ENDBRANCH   1  22
TORSDOF 17
ENDMDL
MODEL 3
REMARK VINA RESULT:     -10.7      5.586      9.622
REMARK SMILES CN1C(=O)Cc2cc([C@@H](O)CCCCC(=O)OCCOC(=O)c3ccc(-c4c5nc(c(-c6c(F)c(F)c(F)c(F)c6F)c6ccc([nH]6)c(-c6c(F)c(F)c(F)c(F)c6F)c6nc(c(-c7c(F)c(F)c(F)c(F)c7F)c7ccc4[nH]7)C=C6)C=C5)cc3)ccc21
REMARK SMILES IDX 17 1 15 2 16 3 14 4 13 5 12 6 11 7 9 8 8 9 1 10 2 11 3 12
REMARK SMILES IDX 88 13 4 14 5 15 6 16 87 17 7 18 86 19 10 20 18 22 19 23
REMARK SMILES IDX 20 24 21 25 22 26 23 27 24 28 85 29 25 30 84 31 26 32 27 33
REMARK SMILES IDX 28 34 78 35 29 36 83 37 77 38 79 39 30 40 82 41 76 42 75 43
REMARK SMILES IDX 31 45 63 46 43 47 62 48 44 49 47 50 61 51 80 52 45 53 46 54
REMARK SMILES IDX 60 56 81 57 48 58 32 59 33 60 41 61 34 62 35 63 39 64 42 65
REMARK SMILES IDX 36 66 37 67 40 68 38 69 64 70 65 71 73 72 66 73 67 74 71 75
REMARK SMILES IDX 74 76 68 77 69 78 72 79 70 80 49 81 50 82 58 83 51 84 52 85
REMARK SMILES IDX 56 86 59 87 53 88 54 89 57 90 55 91
REMARK H PARENT 10 21 79 44 47 55
REMARK Flexibility Score: inf
ROOT
ATOM      1  O   UNL A   1      35.869  22.368  24.846  1.00  0.00    -0.462 OA
ENDROOT
BRANCH   1   2
ATOM      2  C   UNL A   1      35.843  23.151  23.741  1.00  0.00     0.305 C 
ATOM      3  O   UNL A   1      36.465  22.936  22.708  1.00  0.00    -0.252 OA
BRANCH   2   4
ATOM      4  C   UNL A   1      34.971  24.374  23.924  1.00  0.00     0.123 C 
BRANCH   4   5
ATOM      5  C   UNL A   1      34.927  24.947  25.344  1.00  0.00     0.012 C 
BRANCH   5   6
ATOM      6  C   UNL A   1      33.680  25.765  25.696  1.00  0.00     0.004 C 
BRANCH   6   7
ATOM      7  C   UNL A   1      32.450  25.460  24.835  1.00  0.00     0.037 C 
BRANCH   7   8
ATOM      8  C   UNL A   1      31.493  24.435  25.460  1.00  0.00     0.144 C 
BRANCH   8   9
ATOM      9  C   UNL A   1      31.920  23.014  25.153  1.00  0.00    -0.019 A 
ATOM     10  C   UNL A   1      32.948  17.902  24.923  1.00  0.00     0.153 C 
ATOM     11  N   UNL A   1      32.610  19.050  24.128  1.00  0.00    -0.315 N 
ATOM     12  C   UNL A   1      32.363  19.014  22.751  1.00  0.00     0.231 C 
ATOM     13  C   UNL A   1      32.452  20.341  24.637  1.00  0.00     0.047 A 
ATOM     14  O   UNL A   1      32.405  18.039  22.018  1.00  0.00    -0.274 OA
ATOM     15  C   UNL A   1      32.015  20.439  22.314  1.00  0.00     0.138 C 
ATOM     16  C   UNL A   1      32.103  21.200  23.598  1.00  0.00    -0.014 A 
ATOM     17  C   UNL A   1      32.573  20.788  25.938  1.00  0.00     0.027 A 
ATOM     18  C   UNL A   1      31.851  22.537  23.833  1.00  0.00     0.012 A 
ATOM     19  C   UNL A   1      32.300  22.137  26.194  1.00  0.00     0.008 A 
ENDBRANCH   8   9
BRANCH   8  20
ATOM     20  O   UNL A   1      31.473  24.635  26.872  1.00  0.00    -0.388 OA
ATOM     21  H   UNL A   1      31.742  23.816  27.318  1.00  0.00     0.211 HD
ENDBRANCH   8  20
ENDBRANCH   7   8
ENDBRANCH   6   7
ENDBRANCH   5   6
ENDBRANCH   4   5
ENDBRANCH   2   4
ENDBRANCH   1   2
BRANCH   1  22
ATOM     22  C   UNL A   1      36.022  20.952  24.643  1.00  0.00     0.274 C 
BRANCH  22  23
ATOM     23  C   UNL A   1      37.422  20.497  25.058  1.00  0.00     0.275 C 
BRANCH  23  24
ATOM     24  O   UNL A   1      38.033  21.467  25.928  1.00  0.00    -0.458 OA
BRANCH  24  25
ATOM     25  C   UNL A   1      39.306  21.203  26.299  1.00  0.00     0.338 C 
ATOM     26  O   UNL A   1      39.910  20.149  26.212  1.00  0.00    -0.246 OA
BRANCH  25  27
ATOM     27  C   UNL A   1      39.943  22.454  26.733  1.00  0.00     0.060 A 
ATOM     28  C   UNL A   1      39.493  23.655  26.177  1.00  0.00     0.016 A 
ATOM     29  C   UNL A   1      41.015  22.441  27.625  1.00  0.00     0.016 A 
ATOM     30  C   UNL A   1      40.109  24.856  26.515  1.00  0.00     0.010 A 
ATOM     31  C   UNL A   1      41.634  23.648  27.965  1.00  0.00     0.010 A 
ATOM     32  C   UNL A   1      41.188  24.859  27.406  1.00  0.00    -0.014 A 
BRANCH  32  33
ATOM     33  C   UNL A   1      41.885  26.130  27.714  1.00  0.00     0.031 A 
ATOM     34  C   UNL A   1      41.186  27.185  28.518  1.00  0.00     0.074 A 
ATOM     35  C   UNL A   1      43.141  26.329  27.278  1.00  0.00     0.049 A 
ATOM     36  N   UNL A   1      41.574  28.400  28.810  1.00  0.00    -0.248 NA
ATOM     37  C   UNL A   1      39.869  26.823  29.067  1.00  0.00     0.031 C 
ATOM     38  C   UNL A   1      43.937  25.360  26.526  1.00  0.00     0.029 A 
ATOM     39  N   UNL A   1      43.964  27.421  27.398  1.00  0.00    -0.354 N 
ATOM     40  C   UNL A   1      40.542  28.957  29.552  1.00  0.00     0.074 A 
ATOM     41  C   UNL A   1      39.506  27.952  29.661  1.00  0.00     0.031 C 
ATOM     42  C   UNL A   1      45.133  25.903  26.244  1.00  0.00     0.029 A 
ATOM     43  C   UNL A   1      45.168  27.271  26.756  1.00  0.00     0.049 A 
ATOM     44  H   UNL A   1      43.716  28.233  27.897  1.00  0.00     0.167 HD
ATOM     45  C   UNL A   1      40.470  30.197  30.091  1.00  0.00     0.037 A 
ATOM     46  C   UNL A   1      46.172  28.150  26.575  1.00  0.00     0.037 A 
ATOM     47  C   UNL A   1      41.512  31.186  29.996  1.00  0.00     0.049 A 
ATOM     48  C   UNL A   1      46.049  29.536  27.147  1.00  0.00     0.074 A 
ATOM     49  C   UNL A   1      41.542  32.464  30.526  1.00  0.00     0.029 A 
ATOM     50  N   UNL A   1      42.711  31.004  29.322  1.00  0.00    -0.354 N 
ATOM     51  N   UNL A   1      45.069  30.058  27.843  1.00  0.00    -0.248 NA
ATOM     52  C   UNL A   1      47.168  30.456  26.903  1.00  0.00     0.031 C 
ATOM     53  C   UNL A   1      42.744  33.068  30.142  1.00  0.00     0.029 A 
ATOM     54  C   UNL A   1      43.480  32.153  29.407  1.00  0.00     0.049 A 
ATOM     55  H   UNL A   1      42.976  30.180  28.853  1.00  0.00     0.167 HD
ATOM     56  C   UNL A   1      45.458  31.358  28.135  1.00  0.00     0.074 A 
ATOM     57  C   UNL A   1      46.771  31.541  27.552  1.00  0.00     0.031 C 
ATOM     58  C   UNL A   1      44.787  32.315  28.823  1.00  0.00     0.037 A 
BRANCH  45  59
ATOM     59  C   UNL A   1      39.206  30.566  30.807  1.00  0.00     0.064 A 
ATOM     60  C   UNL A   1      39.059  30.384  32.189  1.00  0.00     0.173 A 
ATOM     61  C   UNL A   1      38.135  31.135  30.101  1.00  0.00     0.173 A 
ATOM     62  F   UNL A   1      40.047  29.828  32.905  1.00  0.00    -0.203 F 
ATOM     63  C   UNL A   1      37.877  30.739  32.835  1.00  0.00     0.198 A 
ATOM     64  C   UNL A   1      36.965  31.511  30.754  1.00  0.00     0.198 A 
ATOM     65  F   UNL A   1      38.228  31.332  28.777  1.00  0.00    -0.203 F 
ATOM     66  F   UNL A   1      37.741  30.517  34.150  1.00  0.00    -0.200 F 
ATOM     67  C   UNL A   1      36.834  31.307  32.119  1.00  0.00     0.200 A 
ATOM     68  F   UNL A   1      35.961  32.068  30.061  1.00  0.00    -0.200 F 
ATOM     69  F   UNL A   1      35.700  31.651  32.743  1.00  0.00    -0.200 F 
ENDBRANCH  45  59
BRANCH  46  70
ATOM     70  C   UNL A   1      47.370  27.750  25.794  1.00  0.00     0.064 A 
ATOM     71  C   UNL A   1      48.540  27.326  26.435  1.00  0.00     0.173 A 
ATOM     72  C   UNL A   1      47.364  27.778  24.392  1.00  0.00     0.173 A 
ATOM     73  F   UNL A   1      48.601  27.307  27.775  1.00  0.00    -0.203 F 
ATOM     74  C   UNL A   1      49.666  26.954  25.702  1.00  0.00     0.198 A 
ATOM     75  C   UNL A   1      48.481  27.382  23.660  1.00  0.00     0.198 A 
ATOM     76  F   UNL A   1      46.268  28.180  23.733  1.00  0.00    -0.203 F 
ATOM     77  F   UNL A   1      50.786  26.588  26.340  1.00  0.00    -0.200 F 
ATOM     78  C   UNL A   1      49.633  26.976  24.316  1.00  0.00     0.200 A 
ATOM     79  F   UNL A   1      48.442  27.396  22.321  1.00  0.00    -0.200 F 
ATOM     80  F   UNL A   1      50.714  26.612  23.612  1.00  0.00    -0.200 F 
ENDBRANCH  46  70
BRANCH  58  81
ATOM     81  C   UNL A   1      45.472  33.636  29.003  1.00  0.00     0.064 A 
ATOM     82  C   UNL A   1      45.287  34.687  28.093  1.00  0.00     0.173 A 
ATOM     83  C   UNL A   1      46.290  33.865  30.119  1.00  0.00     0.173 A 
ATOM     84  F   UNL A   1      44.528  34.510  27.002  1.00  0.00    -0.203 F 
ATOM     85  C   UNL A   1      45.915  35.916  28.285  1.00  0.00     0.198 A 
ATOM     86  C   UNL A   1      46.895  35.102  30.320  1.00  0.00     0.198 A 
ATOM     87  F   UNL A   1      46.493  32.892  31.020  1.00  0.00    -0.203 F 
ATOM     88  F   UNL A   1      45.756  36.895  27.383  1.00  0.00    -0.200 F 
ATOM     89  C   UNL A   1      46.712  36.124  29.402  1.00  0.00     0.200 A 
ATOM     90  F   UNL A   1      47.657  35.306  31.405  1.00  0.00    -0.200 F 
ATOM     91  F   UNL A   1      47.309  37.310  29.587  1.00  0.00    -0.200 F 
ENDBRANCH  58  81
ENDBRANCH  32  33
ENDBRANCH  25  27
ENDBRANCH  24  25
ENDBRANCH  23  24
ENDBRANCH  22  23
ENDBRANCH   1  22
TORSDOF 17
ENDMDL
