MODEL 1
REMARK VINA RESULT:     -10.8      0.000      0.000
REMARK SMILES CC[NH2+]C(C)(C)C(=O)NC[C@@H]1CC[C@H](C(=O)OCCOC(=O)c2ccc(-c3c4nc(c(-c5c(F)c(F)c(F)c(F)c5F)c5ccc([nH]5)c(-c5c(F)c(F)c(F)c(F)c5F)c5nc(c(-c6c(F)c(F)c(F)c(F)c6F)c6ccc3[nH]6)C=C5)C=C4)cc2)O1
REMARK SMILES IDX 17 1 15 2 16 3 14 4 11 5 12 6 86 7 13 8 10 9 9 10 7 11 8 12
REMARK SMILES IDX 4 14 5 15 6 16 3 17 2 20 1 21 18 22 19 23 20 24 21 25 22 26
REMARK SMILES IDX 23 27 24 28 85 29 25 30 84 31 26 32 27 33 28 34 78 35 29 36
REMARK SMILES IDX 83 37 77 38 79 39 30 40 82 41 76 42 75 43 31 45 63 46 43 47
REMARK SMILES IDX 62 48 44 49 47 50 61 51 80 52 45 53 46 54 60 56 81 57 48 58
REMARK SMILES IDX 32 59 33 60 41 61 34 62 35 63 39 64 42 65 36 66 37 67 40 68
REMARK SMILES IDX 38 69 64 70 65 71 73 72 66 73 67 74 71 75 74 76 68 77 69 78
REMARK SMILES IDX 72 79 70 80 49 81 50 82 58 83 51 84 52 85 56 86 59 87 53 88
REMARK SMILES IDX 54 89 57 90 55 91
REMARK H PARENT 9 13 3 18 3 19 79 44 47 55
REMARK Flexibility Score: inf
ROOT
ATOM      1  O   UNL A   1      32.465  27.700  27.137  1.00  0.00    -0.460 OA
ENDROOT
BRANCH   1   2
ATOM      2  C   UNL A   1      32.475  26.835  26.085  1.00  0.00     0.335 C 
ATOM      3  O   UNL A   1      33.429  26.673  25.332  1.00  0.00    -0.249 OA
BRANCH   2   4
ATOM      4  C   UNL A   1      31.148  26.072  25.925  1.00  0.00     0.228 C 
ATOM      5  C   UNL A   1      31.341  23.767  26.193  1.00  0.00     0.138 C 
ATOM      6  C   UNL A   1      31.529  24.093  24.715  1.00  0.00     0.037 C 
ATOM      7  O   UNL A   1      31.073  25.006  26.873  1.00  0.00    -0.361 OA
ATOM      8  C   UNL A   1      30.881  25.445  24.571  1.00  0.00     0.047 C 
BRANCH   5   9
ATOM      9  C   UNL A   1      32.565  23.117  26.855  1.00  0.00     0.148 C 
BRANCH   9  10
ATOM     10  N   UNL A   1      32.674  21.713  26.522  1.00  0.00    -0.348 N 
ATOM     11  C   UNL A   1      33.600  20.977  25.852  1.00  0.00     0.280 C 
ATOM     12  O   UNL A   1      33.277  19.796  25.681  1.00  0.00    -0.268 OA
ATOM     13  H   UNL A   1      31.918  21.176  26.850  1.00  0.00     0.163 HD
BRANCH  11  14
ATOM     14  C   UNL A   1      34.951  21.582  25.318  1.00  0.00     0.169 C 
ATOM     15  C   UNL A   1      34.775  22.444  24.056  1.00  0.00     0.090 C 
ATOM     16  C   UNL A   1      35.939  20.437  25.049  1.00  0.00     0.090 C 
BRANCH  14  17
ATOM     17  N   UNL A   1      35.599  22.398  26.388  1.00  0.00    -0.334 N 
ATOM     18  H   UNL A   1      34.904  22.575  27.113  1.00  0.00     0.347 HD
ATOM     19  H   UNL A   1      36.398  21.853  26.712  1.00  0.00     0.347 HD
BRANCH  17  20
ATOM     20  C   UNL A   1      36.138  23.686  25.952  1.00  0.00     0.257 C 
ATOM     21  C   UNL A   1      37.652  23.659  26.098  1.00  0.00     0.071 C 
ENDBRANCH  17  20
ENDBRANCH  14  17
ENDBRANCH  11  14
ENDBRANCH   9  10
ENDBRANCH   5   9
ENDBRANCH   2   4
ENDBRANCH   1   2
BRANCH   1  22
ATOM     22  C   UNL A   1      31.443  28.716  27.126  1.00  0.00     0.274 C 
BRANCH  22  23
ATOM     23  C   UNL A   1      31.734  29.765  26.052  1.00  0.00     0.275 C 
BRANCH  23  24
ATOM     24  O   UNL A   1      33.113  30.177  26.108  1.00  0.00    -0.458 OA
BRANCH  24  25
ATOM     25  C   UNL A   1      33.379  31.198  26.955  1.00  0.00     0.338 C 
ATOM     26  O   UNL A   1      32.667  32.146  27.234  1.00  0.00    -0.246 OA
BRANCH  25  27
ATOM     27  C   UNL A   1      34.654  30.935  27.631  1.00  0.00     0.060 A 
ATOM     28  C   UNL A   1      34.912  29.633  28.054  1.00  0.00     0.016 A 
ATOM     29  C   UNL A   1      35.542  31.964  27.933  1.00  0.00     0.016 A 
ATOM     30  C   UNL A   1      36.044  29.343  28.801  1.00  0.00     0.010 A 
ATOM     31  C   UNL A   1      36.708  31.668  28.649  1.00  0.00     0.010 A 
ATOM     32  C   UNL A   1      36.961  30.357  29.095  1.00  0.00    -0.014 A 
BRANCH  32  33
ATOM     33  C   UNL A   1      38.175  30.034  29.881  1.00  0.00     0.031 A 
ATOM     34  C   UNL A   1      39.227  29.137  29.302  1.00  0.00     0.074 A 
ATOM     35  C   UNL A   1      38.342  30.578  31.101  1.00  0.00     0.049 A 
ATOM     36  N   UNL A   1      40.290  28.634  29.875  1.00  0.00    -0.248 NA
ATOM     37  C   UNL A   1      39.064  28.755  27.891  1.00  0.00     0.031 C 
ATOM     38  C   UNL A   1      37.417  31.516  31.741  1.00  0.00     0.029 A 
ATOM     39  N   UNL A   1      39.349  30.423  32.020  1.00  0.00    -0.354 N 
ATOM     40  C   UNL A   1      40.901  27.846  28.909  1.00  0.00     0.074 A 
ATOM     41  C   UNL A   1      40.093  27.938  27.712  1.00  0.00     0.031 C 
ATOM     42  C   UNL A   1      37.907  31.864  32.941  1.00  0.00     0.029 A 
ATOM     43  C   UNL A   1      39.140  31.122  33.182  1.00  0.00     0.049 A 
ATOM     44  H   UNL A   1      40.143  29.865  31.860  1.00  0.00     0.167 HD
ATOM     45  C   UNL A   1      42.034  27.113  29.020  1.00  0.00     0.037 A 
ATOM     46  C   UNL A   1      39.842  31.131  34.330  1.00  0.00     0.037 A 
ATOM     47  C   UNL A   1      42.849  27.054  30.205  1.00  0.00     0.049 A 
ATOM     48  C   UNL A   1      41.063  30.263  34.446  1.00  0.00     0.074 A 
ATOM     49  C   UNL A   1      44.021  26.347  30.414  1.00  0.00     0.029 A 
ATOM     50  N   UNL A   1      42.579  27.737  31.381  1.00  0.00    -0.354 N 
ATOM     51  N   UNL A   1      41.608  29.482  33.545  1.00  0.00    -0.248 NA
ATOM     52  C   UNL A   1      41.754  30.261  35.741  1.00  0.00     0.031 C 
ATOM     53  C   UNL A   1      44.442  26.578  31.729  1.00  0.00     0.029 A 
ATOM     54  C   UNL A   1      43.551  27.455  32.326  1.00  0.00     0.049 A 
ATOM     55  H   UNL A   1      41.810  28.335  31.523  1.00  0.00     0.167 HD
ATOM     56  C   UNL A   1      42.704  28.897  34.161  1.00  0.00     0.074 A 
ATOM     57  C   UNL A   1      42.760  29.431  35.508  1.00  0.00     0.031 C 
ATOM     58  C   UNL A   1      43.580  27.992  33.662  1.00  0.00     0.037 A 
BRANCH  45  59
ATOM     59  C   UNL A   1      42.440  26.284  27.839  1.00  0.00     0.064 A 
ATOM     60  C   UNL A   1      43.377  26.740  26.903  1.00  0.00     0.173 A 
ATOM     61  C   UNL A   1      41.904  24.999  27.664  1.00  0.00     0.173 A 
ATOM     62  F   UNL A   1      43.903  27.969  27.019  1.00  0.00    -0.203 F 
ATOM     63  C   UNL A   1      43.753  25.945  25.823  1.00  0.00     0.198 A 
ATOM     64  C   UNL A   1      42.298  24.198  26.596  1.00  0.00     0.198 A 
ATOM     65  F   UNL A   1      41.003  24.517  28.533  1.00  0.00    -0.203 F 
ATOM     66  F   UNL A   1      44.625  26.413  24.920  1.00  0.00    -0.200 F 
ATOM     67  C   UNL A   1      43.219  24.674  25.674  1.00  0.00     0.200 A 
ATOM     68  F   UNL A   1      41.785  22.968  26.456  1.00  0.00    -0.200 F 
ATOM     69  F   UNL A   1      43.586  23.908  24.637  1.00  0.00    -0.200 F 
ENDBRANCH  45  59
BRANCH  46  70
ATOM     70  C   UNL A   1      39.376  31.954  35.474  1.00  0.00     0.064 A 
ATOM     71  C   UNL A   1      38.538  31.416  36.458  1.00  0.00     0.173 A 
ATOM     72  C   UNL A   1      39.767  33.295  35.609  1.00  0.00     0.173 A 
ATOM     73  F   UNL A   1      38.117  30.146  36.356  1.00  0.00    -0.203 F 
ATOM     74  C   UNL A   1      38.105  32.188  37.534  1.00  0.00     0.198 A 
ATOM     75  C   UNL A   1      39.354  34.059  36.697  1.00  0.00     0.198 A 
ATOM     76  F   UNL A   1      40.565  33.858  34.690  1.00  0.00    -0.203 F 
ATOM     77  F   UNL A   1      37.276  31.660  38.444  1.00  0.00    -0.200 F 
ATOM     78  C   UNL A   1      38.520  33.506  37.657  1.00  0.00     0.200 A 
ATOM     79  F   UNL A   1      39.766  35.328  36.818  1.00  0.00    -0.200 F 
ATOM     80  F   UNL A   1      38.108  34.246  38.695  1.00  0.00    -0.200 F 
ENDBRANCH  46  70
BRANCH  58  81
ATOM     81  C   UNL A   1      44.673  27.531  34.576  1.00  0.00     0.064 A 
ATOM     82  C   UNL A   1      45.884  28.233  34.673  1.00  0.00     0.173 A 
ATOM     83  C   UNL A   1      44.500  26.397  35.382  1.00  0.00     0.173 A 
ATOM     84  F   UNL A   1      46.100  29.313  33.906  1.00  0.00    -0.203 F 
ATOM     85  C   UNL A   1      46.890  27.804  35.533  1.00  0.00     0.198 A 
ATOM     86  C   UNL A   1      45.500  25.984  36.257  1.00  0.00     0.198 A 
ATOM     87  F   UNL A   1      43.358  25.696  35.325  1.00  0.00    -0.203 F 
ATOM     88  F   UNL A   1      48.053  28.466  35.583  1.00  0.00    -0.200 F 
ATOM     89  C   UNL A   1      46.696  26.684  36.328  1.00  0.00     0.200 A 
ATOM     90  F   UNL A   1      45.309  24.906  37.030  1.00  0.00    -0.200 F 
ATOM     91  F   UNL A   1      47.665  26.275  37.158  1.00  0.00    -0.200 F 
ENDBRANCH  58  81
ENDBRANCH  32  33
ENDBRANCH  25  27
ENDBRANCH  24  25
ENDBRANCH  23  24
ENDBRANCH  22  23
ENDBRANCH   1  22
TORSDOF 16
ENDMDL
MODEL 2
REMARK VINA RESULT:     -10.7      1.010      2.466
REMARK SMILES CC[NH2+]C(C)(C)C(=O)NC[C@@H]1CC[C@H](C(=O)OCCOC(=O)c2ccc(-c3c4nc(c(-c5c(F)c(F)c(F)c(F)c5F)c5ccc([nH]5)c(-c5c(F)c(F)c(F)c(F)c5F)c5nc(c(-c6c(F)c(F)c(F)c(F)c6F)c6ccc3[nH]6)C=C5)C=C4)cc2)O1
REMARK SMILES IDX 17 1 15 2 16 3 14 4 11 5 12 6 86 7 13 8 10 9 9 10 7 11 8 12
REMARK SMILES IDX 4 14 5 15 6 16 3 17 2 20 1 21 18 22 19 23 20 24 21 25 22 26
REMARK SMILES IDX 23 27 24 28 85 29 25 30 84 31 26 32 27 33 28 34 78 35 29 36
REMARK SMILES IDX 83 37 77 38 79 39 30 40 82 41 76 42 75 43 31 45 63 46 43 47
REMARK SMILES IDX 62 48 44 49 47 50 61 51 80 52 45 53 46 54 60 56 81 57 48 58
REMARK SMILES IDX 32 59 33 60 41 61 34 62 35 63 39 64 42 65 36 66 37 67 40 68
REMARK SMILES IDX 38 69 64 70 65 71 73 72 66 73 67 74 71 75 74 76 68 77 69 78
REMARK SMILES IDX 72 79 70 80 49 81 50 82 58 83 51 84 52 85 56 86 59 87 53 88
REMARK SMILES IDX 54 89 57 90 55 91
REMARK H PARENT 9 13 3 18 3 19 79 44 47 55
REMARK Flexibility Score: inf
ROOT
ATOM      1  O   UNL A   1      31.976  28.655  24.710  1.00  0.00    -0.460 OA
ENDROOT
BRANCH   1   2
ATOM      2  C   UNL A   1      31.214  27.556  24.962  1.00  0.00     0.335 C 
ATOM      3  O   UNL A   1      31.270  26.897  25.995  1.00  0.00    -0.249 OA
BRANCH   2   4
ATOM      4  C   UNL A   1      30.263  27.207  23.803  1.00  0.00     0.228 C 
ATOM      5  C   UNL A   1      30.459  25.015  23.042  1.00  0.00     0.138 C 
ATOM      6  C   UNL A   1      31.405  25.890  22.227  1.00  0.00     0.037 C 
ATOM      7  O   UNL A   1      29.762  25.878  23.958  1.00  0.00    -0.361 OA
ATOM      8  C   UNL A   1      30.839  27.275  22.404  1.00  0.00     0.047 C 
BRANCH   5   9
ATOM      9  C   UNL A   1      31.161  23.921  23.860  1.00  0.00     0.148 C 
BRANCH   9  10
ATOM     10  N   UNL A   1      30.665  23.863  25.219  1.00  0.00    -0.348 N 
ATOM     11  C   UNL A   1      31.161  23.357  26.378  1.00  0.00     0.280 C 
ATOM     12  O   UNL A   1      30.373  23.411  27.330  1.00  0.00    -0.268 OA
ATOM     13  H   UNL A   1      29.780  24.280  25.327  1.00  0.00     0.163 HD
BRANCH  11  14
ATOM     14  C   UNL A   1      32.600  22.731  26.492  1.00  0.00     0.169 C 
ATOM     15  C   UNL A   1      32.765  21.432  25.686  1.00  0.00     0.090 C 
ATOM     16  C   UNL A   1      32.921  22.485  27.974  1.00  0.00     0.090 C 
BRANCH  14  17
ATOM     17  N   UNL A   1      33.621  23.725  26.043  1.00  0.00    -0.334 N 
ATOM     18  H   UNL A   1      33.144  24.443  25.499  1.00  0.00     0.347 HD
ATOM     19  H   UNL A   1      34.060  24.081  26.893  1.00  0.00     0.347 HD
BRANCH  17  20
ATOM     20  C   UNL A   1      34.705  23.181  25.225  1.00  0.00     0.257 C 
ATOM     21  C   UNL A   1      35.934  22.994  26.101  1.00  0.00     0.071 C 
ENDBRANCH  17  20
ENDBRANCH  14  17
ENDBRANCH  11  14
ENDBRANCH   9  10
ENDBRANCH   5   9
ENDBRANCH   2   4
ENDBRANCH   1   2
BRANCH   1  22
ATOM     22  C   UNL A   1      31.373  29.935  24.988  1.00  0.00     0.274 C 
BRANCH  22  23
ATOM     23  C   UNL A   1      31.754  30.420  26.387  1.00  0.00     0.275 C 
BRANCH  23  24
ATOM     24  O   UNL A   1      33.179  30.593  26.492  1.00  0.00    -0.458 OA
BRANCH  24  25
ATOM     25  C   UNL A   1      33.581  31.660  27.219  1.00  0.00     0.338 C 
ATOM     26  O   UNL A   1      32.982  32.701  27.419  1.00  0.00    -0.246 OA
BRANCH  25  27
ATOM     27  C   UNL A   1      34.850  31.334  27.880  1.00  0.00     0.060 A 
ATOM     28  C   UNL A   1      35.007  30.048  28.392  1.00  0.00     0.016 A 
ATOM     29  C   UNL A   1      35.833  32.300  28.082  1.00  0.00     0.016 A 
ATOM     30  C   UNL A   1      36.134  29.713  29.129  1.00  0.00     0.010 A 
ATOM     31  C   UNL A   1      36.991  31.953  28.788  1.00  0.00     0.010 A 
ATOM     32  C   UNL A   1      37.144  30.660  29.324  1.00  0.00    -0.014 A 
BRANCH  32  33
ATOM     33  C   UNL A   1      38.349  30.288  30.100  1.00  0.00     0.031 A 
ATOM     34  C   UNL A   1      39.386  29.391  29.493  1.00  0.00     0.074 A 
ATOM     35  C   UNL A   1      38.524  30.787  31.338  1.00  0.00     0.049 A 
ATOM     36  N   UNL A   1      40.438  28.848  30.051  1.00  0.00    -0.248 NA
ATOM     37  C   UNL A   1      39.218  29.059  28.070  1.00  0.00     0.031 C 
ATOM     38  C   UNL A   1      37.616  31.721  32.008  1.00  0.00     0.029 A 
ATOM     39  N   UNL A   1      39.526  30.582  32.252  1.00  0.00    -0.354 N 
ATOM     40  C   UNL A   1      41.036  28.082  29.060  1.00  0.00     0.074 A 
ATOM     41  C   UNL A   1      40.232  28.229  27.865  1.00  0.00     0.031 C 
ATOM     42  C   UNL A   1      38.110  32.019  33.220  1.00  0.00     0.029 A 
ATOM     43  C   UNL A   1      39.327  31.245  33.438  1.00  0.00     0.049 A 
ATOM     44  H   UNL A   1      40.310  30.015  32.076  1.00  0.00     0.167 HD
ATOM     45  C   UNL A   1      42.154  27.324  29.148  1.00  0.00     0.037 A 
ATOM     46  C   UNL A   1      40.027  31.202  34.587  1.00  0.00     0.037 A 
ATOM     47  C   UNL A   1      42.965  27.209  30.331  1.00  0.00     0.049 A 
ATOM     48  C   UNL A   1      41.231  30.308  34.675  1.00  0.00     0.074 A 
ATOM     49  C   UNL A   1      44.123  26.473  30.519  1.00  0.00     0.029 A 
ATOM     50  N   UNL A   1      42.705  27.858  31.529  1.00  0.00    -0.354 N 
ATOM     51  N   UNL A   1      41.763  29.547  33.749  1.00  0.00    -0.248 NA
ATOM     52  C   UNL A   1      41.918  30.249  35.971  1.00  0.00     0.031 C 
ATOM     53  C   UNL A   1      44.545  26.652  31.841  1.00  0.00     0.029 A 
ATOM     54  C   UNL A   1      43.670  27.526  32.466  1.00  0.00     0.049 A 
ATOM     55  H   UNL A   1      41.948  28.466  31.690  1.00  0.00     0.167 HD
ATOM     56  C   UNL A   1      42.846  28.921  34.347  1.00  0.00     0.074 A 
ATOM     57  C   UNL A   1      42.909  29.408  35.711  1.00  0.00     0.031 C 
ATOM     58  C   UNL A   1      43.706  28.017  33.819  1.00  0.00     0.037 A 
BRANCH  45  59
ATOM     59  C   UNL A   1      42.546  26.528  27.940  1.00  0.00     0.064 A 
ATOM     60  C   UNL A   1      42.057  25.234  27.716  1.00  0.00     0.173 A 
ATOM     61  C   UNL A   1      43.401  27.086  26.977  1.00  0.00     0.173 A 
ATOM     62  F   UNL A   1      41.251  24.652  28.617  1.00  0.00    -0.203 F 
ATOM     63  C   UNL A   1      42.421  24.520  26.577  1.00  0.00     0.198 A 
ATOM     64  C   UNL A   1      43.746  26.378  25.830  1.00  0.00     0.198 A 
ATOM     65  F   UNL A   1      43.896  28.321  27.147  1.00  0.00    -0.203 F 
ATOM     66  F   UNL A   1      41.969  23.271  26.397  1.00  0.00    -0.200 F 
ATOM     67  C   UNL A   1      43.259  25.095  25.632  1.00  0.00     0.200 A 
ATOM     68  F   UNL A   1      44.552  26.936  24.916  1.00  0.00    -0.200 F 
ATOM     69  F   UNL A   1      43.604  24.408  24.534  1.00  0.00    -0.200 F 
ENDBRANCH  45  59
BRANCH  46  70
ATOM     70  C   UNL A   1      39.574  31.996  35.756  1.00  0.00     0.064 A 
ATOM     71  C   UNL A   1      40.113  33.259  36.024  1.00  0.00     0.173 A 
ATOM     72  C   UNL A   1      38.585  31.508  36.624  1.00  0.00     0.173 A 
ATOM     73  F   UNL A   1      41.080  33.755  35.238  1.00  0.00    -0.203 F 
ATOM     74  C   UNL A   1      39.684  34.006  37.120  1.00  0.00     0.198 A 
ATOM     75  C   UNL A   1      38.138  32.265  37.704  1.00  0.00     0.198 A 
ATOM     76  F   UNL A   1      38.041  30.301  36.412  1.00  0.00    -0.203 F 
ATOM     77  F   UNL A   1      40.239  35.198  37.375  1.00  0.00    -0.200 F 
ATOM     78  C   UNL A   1      38.691  33.512  37.954  1.00  0.00     0.200 A 
ATOM     79  F   UNL A   1      37.172  31.788  38.500  1.00  0.00    -0.200 F 
ATOM     80  F   UNL A   1      38.273  34.233  39.003  1.00  0.00    -0.200 F 
ENDBRANCH  46  70
BRANCH  58  81
ATOM     81  C   UNL A   1      44.788  27.504  34.719  1.00  0.00     0.064 A 
ATOM     82  C   UNL A   1      44.619  26.327  35.462  1.00  0.00     0.173 A 
ATOM     83  C   UNL A   1      46.013  28.179  34.817  1.00  0.00     0.173 A 
ATOM     84  F   UNL A   1      43.456  25.660  35.412  1.00  0.00    -0.203 F 
ATOM     85  C   UNL A   1      45.634  25.852  36.286  1.00  0.00     0.198 A 
ATOM     86  C   UNL A   1      47.034  27.689  35.627  1.00  0.00     0.198 A 
ATOM     87  F   UNL A   1      46.221  29.307  34.124  1.00  0.00    -0.203 F 
ATOM     88  F   UNL A   1      45.439  24.746  37.017  1.00  0.00    -0.200 F 
ATOM     89  C   UNL A   1      46.842  26.529  36.364  1.00  0.00     0.200 A 
ATOM     90  F   UNL A   1      48.204  28.339  35.695  1.00  0.00    -0.200 F 
ATOM     91  F   UNL A   1      47.819  26.069  37.157  1.00  0.00    -0.200 F 
ENDBRANCH  58  81
ENDBRANCH  32  33
ENDBRANCH  25  27
ENDBRANCH  24  25
ENDBRANCH  23  24
ENDBRANCH  22  23
ENDBRANCH   1  22
TORSDOF 16
ENDMDL
MODEL 3
REMARK VINA RESULT:     -10.5      1.825      2.731
REMARK SMILES CC[NH2+]C(C)(C)C(=O)NC[C@@H]1CC[C@H](C(=O)OCCOC(=O)c2ccc(-c3c4nc(c(-c5c(F)c(F)c(F)c(F)c5F)c5ccc([nH]5)c(-c5c(F)c(F)c(F)c(F)c5F)c5nc(c(-c6c(F)c(F)c(F)c(F)c6F)c6ccc3[nH]6)C=C5)C=C4)cc2)O1
REMARK SMILES IDX 17 1 15 2 16 3 14 4 11 5 12 6 86 7 13 8 10 9 9 10 7 11 8 12
REMARK SMILES IDX 4 14 5 15 6 16 3 17 2 20 1 21 18 22 19 23 20 24 21 25 22 26
REMARK SMILES IDX 23 27 24 28 85 29 25 30 84 31 26 32 27 33 28 34 78 35 29 36
REMARK SMILES IDX 83 37 77 38 79 39 30 40 82 41 76 42 75 43 31 45 63 46 43 47
REMARK SMILES IDX 62 48 44 49 47 50 61 51 80 52 45 53 46 54 60 56 81 57 48 58
REMARK SMILES IDX 32 59 33 60 41 61 34 62 35 63 39 64 42 65 36 66 37 67 40 68
REMARK SMILES IDX 38 69 64 70 65 71 73 72 66 73 67 74 71 75 74 76 68 77 69 78
REMARK SMILES IDX 72 79 70 80 49 81 50 82 58 83 51 84 52 85 56 86 59 87 53 88
REMARK SMILES IDX 54 89 57 90 55 91
REMARK H PARENT 9 13 3 18 3 19 79 44 47 55
REMARK Flexibility Score: inf
ROOT
ATOM      1  O   UNL A   1      32.757  30.773  27.312  1.00  0.00    -0.460 OA
ENDROOT
BRANCH   1   2
ATOM      2  C   UNL A   1      33.251  29.864  26.428  1.00  0.00     0.335 C 
ATOM      3  O   UNL A   1      34.406  29.454  26.431  1.00  0.00    -0.249 OA
BRANCH   2   4
ATOM      4  C   UNL A   1      32.204  29.396  25.401  1.00  0.00     0.228 C 
ATOM      5  C   UNL A   1      31.979  27.083  25.262  1.00  0.00     0.138 C 
ATOM      6  C   UNL A   1      33.028  27.522  24.246  1.00  0.00     0.037 C 
ATOM      7  O   UNL A   1      31.485  28.270  25.906  1.00  0.00    -0.361 OA
ATOM      8  C   UNL A   1      32.722  28.983  24.038  1.00  0.00     0.047 C 
BRANCH   5   9
ATOM      9  C   UNL A   1      32.513  26.139  26.350  1.00  0.00     0.148 C 
BRANCH   9  10
ATOM     10  N   UNL A   1      31.491  25.228  26.819  1.00  0.00    -0.348 N 
ATOM     11  C   UNL A   1      31.325  23.882  26.737  1.00  0.00     0.280 C 
ATOM     12  O   UNL A   1      30.244  23.478  27.182  1.00  0.00    -0.268 OA
ATOM     13  H   UNL A   1      30.761  25.678  27.302  1.00  0.00     0.163 HD
BRANCH  11  14
ATOM     14  C   UNL A   1      32.402  22.924  26.106  1.00  0.00     0.169 C 
ATOM     15  C   UNL A   1      33.753  22.959  26.841  1.00  0.00     0.090 C 
ATOM     16  C   UNL A   1      32.590  23.289  24.625  1.00  0.00     0.090 C 
BRANCH  14  17
ATOM     17  N   UNL A   1      31.886  21.522  26.088  1.00  0.00    -0.334 N 
ATOM     18  H   UNL A   1      32.351  21.006  26.835  1.00  0.00     0.347 HD
ATOM     19  H   UNL A   1      30.875  21.593  26.209  1.00  0.00     0.347 HD
BRANCH  17  20
ATOM     20  C   UNL A   1      32.093  20.795  24.836  1.00  0.00     0.257 C 
ATOM     21  C   UNL A   1      32.951  19.570  25.117  1.00  0.00     0.071 C 
ENDBRANCH  17  20
ENDBRANCH  14  17
ENDBRANCH  11  14
ENDBRANCH   9  10
ENDBRANCH   5   9
ENDBRANCH   2   4
ENDBRANCH   1   2
BRANCH   1  22
ATOM     22  C   UNL A   1      31.698  31.627  26.835  1.00  0.00     0.274 C 
BRANCH  22  23
ATOM     23  C   UNL A   1      32.120  33.096  26.895  1.00  0.00     0.275 C 
BRANCH  23  24
ATOM     24  O   UNL A   1      32.082  33.578  28.252  1.00  0.00    -0.458 OA
BRANCH  24  25
ATOM     25  C   UNL A   1      32.959  34.567  28.540  1.00  0.00     0.338 C 
ATOM     26  O   UNL A   1      32.776  35.769  28.489  1.00  0.00    -0.246 OA
BRANCH  25  27
ATOM     27  C   UNL A   1      34.188  33.971  29.076  1.00  0.00     0.060 A 
ATOM     28  C   UNL A   1      34.062  32.904  29.963  1.00  0.00     0.016 A 
ATOM     29  C   UNL A   1      35.440  34.509  28.791  1.00  0.00     0.016 A 
ATOM     30  C   UNL A   1      35.178  32.374  30.594  1.00  0.00     0.010 A 
ATOM     31  C   UNL A   1      36.573  33.949  29.393  1.00  0.00     0.010 A 
ATOM     32  C   UNL A   1      36.448  32.884  30.305  1.00  0.00    -0.014 A 
BRANCH  32  33
ATOM     33  C   UNL A   1      37.634  32.301  30.973  1.00  0.00     0.031 A 
ATOM     34  C   UNL A   1      38.448  31.251  30.278  1.00  0.00     0.074 A 
ATOM     35  C   UNL A   1      37.997  32.745  32.192  1.00  0.00     0.049 A 
ATOM     36  N   UNL A   1      39.436  30.530  30.741  1.00  0.00    -0.248 NA
ATOM     37  C   UNL A   1      38.105  30.975  28.874  1.00  0.00     0.031 C 
ATOM     38  C   UNL A   1      37.321  33.807  32.939  1.00  0.00     0.029 A 
ATOM     39  N   UNL A   1      39.024  32.358  33.015  1.00  0.00    -0.354 N 
ATOM     40  C   UNL A   1      39.809  29.689  29.701  1.00  0.00     0.074 A 
ATOM     41  C   UNL A   1      38.942  29.989  28.581  1.00  0.00     0.031 C 
ATOM     42  C   UNL A   1      37.960  33.999  34.103  1.00  0.00     0.029 A 
ATOM     43  C   UNL A   1      39.043  33.027  34.214  1.00  0.00     0.049 A 
ATOM     44  H   UNL A   1      39.682  31.670  32.771  1.00  0.00     0.167 HD
ATOM     45  C   UNL A   1      40.785  28.752  29.691  1.00  0.00     0.037 A 
ATOM     46  C   UNL A   1      39.821  32.849  35.297  1.00  0.00     0.037 A 
ATOM     47  C   UNL A   1      41.664  28.484  30.799  1.00  0.00     0.049 A 
ATOM     48  C   UNL A   1      40.859  31.762  35.280  1.00  0.00     0.074 A 
ATOM     49  C   UNL A   1      42.691  27.560  30.885  1.00  0.00     0.029 A 
ATOM     50  N   UNL A   1      41.621  29.148  32.016  1.00  0.00    -0.354 N 
ATOM     51  N   UNL A   1      41.172  30.937  34.311  1.00  0.00    -0.248 NA
ATOM     52  C   UNL A   1      41.634  31.568  36.511  1.00  0.00     0.031 C 
ATOM     53  C   UNL A   1      43.249  27.644  32.166  1.00  0.00     0.029 A 
ATOM     54  C   UNL A   1      42.592  28.643  32.865  1.00  0.00     0.049 A 
ATOM     55  H   UNL A   1      40.994  29.872  32.242  1.00  0.00     0.167 HD
ATOM     56  C   UNL A   1      42.181  30.127  34.812  1.00  0.00     0.074 A 
ATOM     57  C   UNL A   1      42.442  30.576  36.165  1.00  0.00     0.031 C 
ATOM     58  C   UNL A   1      42.826  29.099  34.210  1.00  0.00     0.037 A 
BRANCH  45  59
ATOM     59  C   UNL A   1      40.932  27.920  28.453  1.00  0.00     0.064 A 
ATOM     60  C   UNL A   1      41.752  28.317  27.389  1.00  0.00     0.173 A 
ATOM     61  C   UNL A   1      40.265  26.689  28.349  1.00  0.00     0.173 A 
ATOM     62  F   UNL A   1      42.396  29.492  27.435  1.00  0.00    -0.203 F 
ATOM     63  C   UNL A   1      41.889  27.518  26.256  1.00  0.00     0.198 A 
ATOM     64  C   UNL A   1      40.420  25.884  27.225  1.00  0.00     0.198 A 
ATOM     65  F   UNL A   1      39.468  26.266  29.342  1.00  0.00    -0.203 F 
ATOM     66  F   UNL A   1      42.651  27.931  25.234  1.00  0.00    -0.200 F 
ATOM     67  C   UNL A   1      41.228  26.300  26.178  1.00  0.00     0.200 A 
ATOM     68  F   UNL A   1      39.786  24.705  27.153  1.00  0.00    -0.200 F 
ATOM     69  F   UNL A   1      41.365  25.531  25.089  1.00  0.00    -0.200 F 
ENDBRANCH  45  59
BRANCH  46  70
ATOM     70  C   UNL A   1      39.611  33.689  36.503  1.00  0.00     0.064 A 
ATOM     71  C   UNL A   1      38.768  33.268  37.538  1.00  0.00     0.173 A 
ATOM     72  C   UNL A   1      40.257  34.926  36.647  1.00  0.00     0.173 A 
ATOM     73  F   UNL A   1      38.107  32.106  37.434  1.00  0.00    -0.203 F 
ATOM     74  C   UNL A   1      38.574  34.056  38.672  1.00  0.00     0.198 A 
ATOM     75  C   UNL A   1      40.084  35.700  37.790  1.00  0.00     0.198 A 
ATOM     76  F   UNL A   1      41.072  35.374  35.680  1.00  0.00    -0.203 F 
ATOM     77  F   UNL A   1      37.736  33.648  39.634  1.00  0.00    -0.200 F 
ATOM     78  C   UNL A   1      39.239  35.267  38.801  1.00  0.00     0.200 A 
ATOM     79  F   UNL A   1      40.736  36.864  37.915  1.00  0.00    -0.200 F 
ATOM     80  F   UNL A   1      39.059  36.020  39.894  1.00  0.00    -0.200 F 
ENDBRANCH  46  70
BRANCH  58  81
ATOM     81  C   UNL A   1      43.879  28.398  35.012  1.00  0.00     0.064 A 
ATOM     82  C   UNL A   1      45.210  28.840  35.009  1.00  0.00     0.173 A 
ATOM     83  C   UNL A   1      43.550  27.294  35.811  1.00  0.00     0.173 A 
ATOM     84  F   UNL A   1      45.573  29.881  34.244  1.00  0.00    -0.203 F 
ATOM     85  C   UNL A   1      46.179  28.189  35.766  1.00  0.00     0.198 A 
ATOM     86  C   UNL A   1      44.519  26.658  36.583  1.00  0.00     0.198 A 
ATOM     87  F   UNL A   1      42.290  26.837  35.847  1.00  0.00    -0.203 F 
ATOM     88  F   UNL A   1      47.452  28.603  35.721  1.00  0.00    -0.200 F 
ATOM     89  C   UNL A   1      45.832  27.103  36.556  1.00  0.00     0.200 A 
ATOM     90  F   UNL A   1      44.181  25.614  37.352  1.00  0.00    -0.200 F 
ATOM     91  F   UNL A   1      46.767  26.479  37.286  1.00  0.00    -0.200 F 
ENDBRANCH  58  81
ENDBRANCH  32  33
ENDBRANCH  25  27
ENDBRANCH  24  25
ENDBRANCH  23  24
ENDBRANCH  22  23
ENDBRANCH   1  22
TORSDOF 16
ENDMDL
