MODEL 1
REMARK VINA RESULT:     -12.9      0.000      0.000
REMARK SMILES CC(=O)Nc1cccc(-c2cc(F)ccc2C(=O)OCCOC(=O)c2ccc(-c3c4nc(c(-c5c(F)c(F)c(F)c(F)c5F)c5ccc([nH]5)c(-c5c(F)c(F)c(F)c(F)c5F)c5nc(c(-c6c(F)c(F)c(F)c(F)c6F)c6ccc3[nH]6)C=C5)C=C4)cc2)c1
REMARK SMILES IDX 20 1 19 2 17 3 18 4 16 5 10 6 11 7 12 8 15 9 13 10 14 11
REMARK SMILES IDX 9 12 5 13 6 14 88 15 7 16 8 17 4 18 1 19 2 20 3 21 21 23
REMARK SMILES IDX 22 24 23 25 24 26 25 27 26 28 87 29 27 30 86 31 28 32 29 33
REMARK SMILES IDX 30 34 80 35 31 36 85 37 79 38 81 39 32 40 84 41 78 42 77 43
REMARK SMILES IDX 33 45 65 46 45 47 64 48 46 49 49 50 63 51 82 52 47 53 48 54
REMARK SMILES IDX 62 56 83 57 50 58 34 59 35 60 43 61 36 62 37 63 41 64 44 65
REMARK SMILES IDX 38 66 39 67 42 68 40 69 66 70 67 71 75 72 68 73 69 74 73 75
REMARK SMILES IDX 76 76 70 77 71 78 74 79 72 80 51 81 52 82 60 83 53 84 54 85
REMARK SMILES IDX 58 86 61 87 55 88 56 89 59 90 57 91
REMARK H PARENT 4 22 81 44 49 55
REMARK Flexibility Score: inf
ROOT
ATOM      1  C   UNL A   1      31.130  30.439  25.203  1.00  0.00     0.275 C 
ENDROOT
BRANCH   1   2
ATOM      2  O   UNL A   1      32.099  29.390  24.986  1.00  0.00    -0.458 OA
BRANCH   2   3
ATOM      3  C   UNL A   1      31.670  28.116  25.156  1.00  0.00     0.338 C 
ATOM      4  O   UNL A   1      31.057  27.678  26.113  1.00  0.00    -0.246 OA
BRANCH   3   5
ATOM      5  C   UNL A   1      31.987  27.275  23.969  1.00  0.00     0.068 A 
ATOM      6  C   UNL A   1      31.119  27.140  22.857  1.00  0.00    -0.001 A 
ATOM      7  C   UNL A   1      31.549  26.336  21.784  1.00  0.00     0.048 A 
ATOM      8  C   UNL A   1      32.788  25.698  21.818  1.00  0.00     0.123 A 
ATOM      9  C   UNL A   1      33.250  26.651  23.966  1.00  0.00     0.019 A 
ATOM     10  F   UNL A   1      33.169  24.944  20.779  1.00  0.00    -0.207 F 
ATOM     11  C   UNL A   1      33.642  25.848  22.899  1.00  0.00     0.040 A 
BRANCH   6  12
ATOM     12  C   UNL A   1      29.814  27.823  22.778  1.00  0.00    -0.015 A 
ATOM     13  C   UNL A   1      28.512  29.782  22.108  1.00  0.00     0.041 A 
ATOM     14  C   UNL A   1      27.455  29.326  22.902  1.00  0.00     0.026 A 
ATOM     15  C   UNL A   1      29.668  29.007  22.027  1.00  0.00     0.034 A 
ATOM     16  C   UNL A   1      27.548  28.115  23.590  1.00  0.00     0.003 A 
ATOM     17  C   UNL A   1      28.724  27.372  23.534  1.00  0.00     0.009 A 
BRANCH  13  18
ATOM     18  N   UNL A   1      28.378  31.061  21.540  1.00  0.00    -0.326 N 
ATOM     19  C   UNL A   1      28.741  32.582  23.489  1.00  0.00     0.114 C 
ATOM     20  C   UNL A   1      28.311  32.313  22.075  1.00  0.00     0.221 C 
ATOM     21  O   UNL A   1      27.930  33.238  21.352  1.00  0.00    -0.275 OA
ATOM     22  H   UNL A   1      28.321  31.049  20.558  1.00  0.00     0.169 HD
ENDBRANCH  13  18
ENDBRANCH   6  12
ENDBRANCH   3   5
ENDBRANCH   2   3
ENDBRANCH   1   2
BRANCH   1  23
ATOM     23  C   UNL A   1      31.470  31.231  26.459  1.00  0.00     0.275 C 
BRANCH  23  24
ATOM     24  O   UNL A   1      32.872  31.086  26.740  1.00  0.00    -0.458 OA
BRANCH  24  25
ATOM     25  C   UNL A   1      33.443  32.134  27.367  1.00  0.00     0.338 C 
ATOM     26  O   UNL A   1      32.967  33.238  27.587  1.00  0.00    -0.246 OA
BRANCH  25  27
ATOM     27  C   UNL A   1      34.751  31.718  27.874  1.00  0.00     0.060 A 
ATOM     28  C   UNL A   1      34.903  30.396  28.285  1.00  0.00     0.016 A 
ATOM     29  C   UNL A   1      35.770  32.644  28.072  1.00  0.00     0.016 A 
ATOM     30  C   UNL A   1      36.044  30.004  28.972  1.00  0.00     0.010 A 
ATOM     31  C   UNL A   1      36.953  32.230  28.692  1.00  0.00     0.010 A 
ATOM     32  C   UNL A   1      37.086  30.916  29.182  1.00  0.00    -0.014 A 
BRANCH  32  33
ATOM     33  C   UNL A   1      38.282  30.522  29.974  1.00  0.00     0.031 A 
ATOM     34  C   UNL A   1      39.310  29.607  29.365  1.00  0.00     0.074 A 
ATOM     35  C   UNL A   1      38.463  30.989  31.225  1.00  0.00     0.049 A 
ATOM     36  N   UNL A   1      40.306  28.978  29.935  1.00  0.00    -0.248 NA
ATOM     37  C   UNL A   1      39.189  29.353  27.920  1.00  0.00     0.031 C 
ATOM     38  C   UNL A   1      37.580  31.931  31.914  1.00  0.00     0.029 A 
ATOM     39  N   UNL A   1      39.453  30.732  32.141  1.00  0.00    -0.354 N 
ATOM     40  C   UNL A   1      40.887  28.205  28.937  1.00  0.00     0.074 A 
ATOM     41  C   UNL A   1      40.136  28.446  27.724  1.00  0.00     0.031 C 
ATOM     42  C   UNL A   1      38.082  32.193  33.131  1.00  0.00     0.029 A 
ATOM     43  C   UNL A   1      39.269  31.372  33.342  1.00  0.00     0.049 A 
ATOM     44  H   UNL A   1      40.222  30.146  31.953  1.00  0.00     0.167 HD
ATOM     45  C   UNL A   1      41.949  27.371  29.030  1.00  0.00     0.037 A 
ATOM     46  C   UNL A   1      39.948  31.271  34.500  1.00  0.00     0.037 A 
ATOM     47  C   UNL A   1      42.729  27.185  30.227  1.00  0.00     0.049 A 
ATOM     48  C   UNL A   1      41.107  30.318  34.587  1.00  0.00     0.074 A 
ATOM     49  C   UNL A   1      43.833  26.374  30.423  1.00  0.00     0.029 A 
ATOM     50  N   UNL A   1      42.494  27.839  31.428  1.00  0.00    -0.354 N 
ATOM     51  N   UNL A   1      41.612  29.542  33.658  1.00  0.00    -0.248 NA
ATOM     52  C   UNL A   1      41.780  30.212  35.889  1.00  0.00     0.031 C 
ATOM     53  C   UNL A   1      44.246  26.512  31.753  1.00  0.00     0.029 A 
ATOM     54  C   UNL A   1      43.427  27.442  32.373  1.00  0.00     0.049 A 
ATOM     55  H   UNL A   1      41.771  28.488  31.586  1.00  0.00     0.167 HD
ATOM     56  C   UNL A   1      42.664  28.865  34.257  1.00  0.00     0.074 A 
ATOM     57  C   UNL A   1      42.741  29.339  35.624  1.00  0.00     0.031 C 
ATOM     58  C   UNL A   1      43.490  27.930  33.725  1.00  0.00     0.037 A 
BRANCH  45  59
ATOM     59  C   UNL A   1      42.310  26.562  27.817  1.00  0.00     0.064 A 
ATOM     60  C   UNL A   1      43.262  27.000  26.885  1.00  0.00     0.173 A 
ATOM     61  C   UNL A   1      41.711  25.310  27.605  1.00  0.00     0.173 A 
ATOM     62  F   UNL A   1      43.851  28.196  27.032  1.00  0.00    -0.203 F 
ATOM     63  C   UNL A   1      43.583  26.225  25.773  1.00  0.00     0.198 A 
ATOM     64  C   UNL A   1      42.057  24.525  26.508  1.00  0.00     0.198 A 
ATOM     65  F   UNL A   1      40.798  24.842  28.468  1.00  0.00    -0.203 F 
ATOM     66  F   UNL A   1      44.462  26.683  24.870  1.00  0.00    -0.200 F 
ATOM     67  C   UNL A   1      42.987  24.986  25.588  1.00  0.00     0.200 A 
ATOM     68  F   UNL A   1      41.488  23.323  26.340  1.00  0.00    -0.200 F 
ATOM     69  F   UNL A   1      43.303  24.239  24.523  1.00  0.00    -0.200 F 
ENDBRANCH  45  59
BRANCH  46  70
ATOM     70  C   UNL A   1      39.517  32.063  35.683  1.00  0.00     0.064 A 
ATOM     71  C   UNL A   1      40.074  33.321  35.950  1.00  0.00     0.173 A 
ATOM     72  C   UNL A   1      38.537  31.583  36.563  1.00  0.00     0.173 A 
ATOM     73  F   UNL A   1      41.035  33.811  35.153  1.00  0.00    -0.203 F 
ATOM     74  C   UNL A   1      39.673  34.064  37.059  1.00  0.00     0.198 A 
ATOM     75  C   UNL A   1      38.112  32.340  37.653  1.00  0.00     0.198 A 
ATOM     76  F   UNL A   1      37.974  30.383  36.354  1.00  0.00    -0.203 F 
ATOM     77  F   UNL A   1      40.250  35.246  37.314  1.00  0.00    -0.200 F 
ATOM     78  C   UNL A   1      38.686  33.578  37.903  1.00  0.00     0.200 A 
ATOM     79  F   UNL A   1      37.148  31.873  38.457  1.00  0.00    -0.200 F 
ATOM     80  F   UNL A   1      38.292  34.298  38.962  1.00  0.00    -0.200 F 
ENDBRANCH  46  70
BRANCH  58  81
ATOM     81  C   UNL A   1      44.566  27.386  34.616  1.00  0.00     0.064 A 
ATOM     82  C   UNL A   1      44.385  26.205  35.351  1.00  0.00     0.173 A 
ATOM     83  C   UNL A   1      45.804  28.040  34.712  1.00  0.00     0.173 A 
ATOM     84  F   UNL A   1      43.213  25.556  35.305  1.00  0.00    -0.203 F 
ATOM     85  C   UNL A   1      45.397  25.712  36.169  1.00  0.00     0.198 A 
ATOM     86  C   UNL A   1      46.823  27.529  35.509  1.00  0.00     0.198 A 
ATOM     87  F   UNL A   1      46.028  29.169  34.024  1.00  0.00    -0.203 F 
ATOM     88  F   UNL A   1      45.187  24.607  36.899  1.00  0.00    -0.200 F 
ATOM     89  C   UNL A   1      46.617  26.369  36.243  1.00  0.00     0.200 A 
ATOM     90  F   UNL A   1      48.004  28.158  35.571  1.00  0.00    -0.200 F 
ATOM     91  F   UNL A   1      47.591  25.891  37.029  1.00  0.00    -0.200 F 
ENDBRANCH  58  81
ENDBRANCH  32  33
ENDBRANCH  25  27
ENDBRANCH  24  25
ENDBRANCH  23  24
ENDBRANCH   1  23
TORSDOF 13
ENDMDL
MODEL 2
REMARK VINA RESULT:     -12.7      5.783     10.752
REMARK SMILES CC(=O)Nc1cccc(-c2cc(F)ccc2C(=O)OCCOC(=O)c2ccc(-c3c4nc(c(-c5c(F)c(F)c(F)c(F)c5F)c5ccc([nH]5)c(-c5c(F)c(F)c(F)c(F)c5F)c5nc(c(-c6c(F)c(F)c(F)c(F)c6F)c6ccc3[nH]6)C=C5)C=C4)cc2)c1
REMARK SMILES IDX 20 1 19 2 17 3 18 4 16 5 10 6 11 7 12 8 15 9 13 10 14 11
REMARK SMILES IDX 9 12 5 13 6 14 88 15 7 16 8 17 4 18 1 19 2 20 3 21 21 23
REMARK SMILES IDX 22 24 23 25 24 26 25 27 26 28 87 29 27 30 86 31 28 32 29 33
REMARK SMILES IDX 30 34 80 35 31 36 85 37 79 38 81 39 32 40 84 41 78 42 77 43
REMARK SMILES IDX 33 45 65 46 45 47 64 48 46 49 49 50 63 51 82 52 47 53 48 54
REMARK SMILES IDX 62 56 83 57 50 58 34 59 35 60 43 61 36 62 37 63 41 64 44 65
REMARK SMILES IDX 38 66 39 67 42 68 40 69 66 70 67 71 75 72 68 73 69 74 73 75
REMARK SMILES IDX 76 76 70 77 71 78 74 79 72 80 51 81 52 82 60 83 53 84 54 85
REMARK SMILES IDX 58 86 61 87 55 88 56 89 59 90 57 91
REMARK H PARENT 4 22 81 44 49 55
REMARK Flexibility Score: inf
ROOT
ATOM      1  C   UNL A   1      36.069  20.257  25.022  1.00  0.00     0.275 C 
ENDROOT
BRANCH   1   2
ATOM      2  O   UNL A   1      35.403  21.412  25.577  1.00  0.00    -0.458 OA
BRANCH   2   3
ATOM      3  C   UNL A   1      34.644  22.147  24.728  1.00  0.00     0.338 C 
ATOM      4  O   UNL A   1      34.935  22.473  23.591  1.00  0.00    -0.246 OA
BRANCH   3   5
ATOM      5  C   UNL A   1      33.326  22.485  25.333  1.00  0.00     0.068 A 
ATOM      6  C   UNL A   1      32.169  21.684  25.173  1.00  0.00    -0.001 A 
ATOM      7  C   UNL A   1      30.990  22.100  25.821  1.00  0.00     0.048 A 
ATOM      8  C   UNL A   1      30.968  23.258  26.596  1.00  0.00     0.123 A 
ATOM      9  C   UNL A   1      33.292  23.632  26.150  1.00  0.00     0.019 A 
ATOM     10  F   UNL A   1      29.832  23.624  27.203  1.00  0.00    -0.207 F 
ATOM     11  C   UNL A   1      32.108  24.029  26.766  1.00  0.00     0.040 A 
BRANCH   6  12
ATOM     12  C   UNL A   1      32.165  20.438  24.383  1.00  0.00    -0.015 A 
ATOM     13  C   UNL A   1      32.439  18.009  24.300  1.00  0.00     0.041 A 
ATOM     14  C   UNL A   1      32.520  18.087  22.906  1.00  0.00     0.026 A 
ATOM     15  C   UNL A   1      32.228  19.183  25.022  1.00  0.00     0.034 A 
ATOM     16  C   UNL A   1      32.378  19.309  22.247  1.00  0.00     0.003 A 
ATOM     17  C   UNL A   1      32.210  20.480  22.983  1.00  0.00     0.009 A 
BRANCH  13  18
ATOM     18  N   UNL A   1      32.703  16.760  24.886  1.00  0.00    -0.326 N 
ATOM     19  C   UNL A   1      35.199  16.659  24.900  1.00  0.00     0.114 C 
ATOM     20  C   UNL A   1      33.842  16.030  25.048  1.00  0.00     0.221 C 
ATOM     21  O   UNL A   1      33.736  14.843  25.370  1.00  0.00    -0.275 OA
ATOM     22  H   UNL A   1      31.900  16.323  25.253  1.00  0.00     0.169 HD
ENDBRANCH  13  18
ENDBRANCH   6  12
ENDBRANCH   3   5
ENDBRANCH   2   3
ENDBRANCH   1   2
BRANCH   1  23
ATOM     23  C   UNL A   1      37.525  20.580  24.706  1.00  0.00     0.275 C 
BRANCH  23  24
ATOM     24  O   UNL A   1      38.008  21.545  25.653  1.00  0.00    -0.458 OA
BRANCH  24  25
ATOM     25  C   UNL A   1      39.212  21.266  26.194  1.00  0.00     0.338 C 
ATOM     26  O   UNL A   1      39.827  20.211  26.173  1.00  0.00    -0.246 OA
BRANCH  25  27
ATOM     27  C   UNL A   1      39.769  22.498  26.754  1.00  0.00     0.060 A 
ATOM     28  C   UNL A   1      39.308  23.713  26.250  1.00  0.00     0.016 A 
ATOM     29  C   UNL A   1      40.823  22.461  27.659  1.00  0.00     0.016 A 
ATOM     30  C   UNL A   1      39.951  24.898  26.584  1.00  0.00     0.010 A 
ATOM     31  C   UNL A   1      41.419  23.661  28.058  1.00  0.00     0.010 A 
ATOM     32  C   UNL A   1      41.014  24.887  27.495  1.00  0.00    -0.014 A 
BRANCH  32  33
ATOM     33  C   UNL A   1      41.749  26.142  27.807  1.00  0.00     0.031 A 
ATOM     34  C   UNL A   1      41.088  27.204  28.643  1.00  0.00     0.074 A 
ATOM     35  C   UNL A   1      43.007  26.331  27.361  1.00  0.00     0.049 A 
ATOM     36  N   UNL A   1      41.455  28.441  28.860  1.00  0.00    -0.248 NA
ATOM     37  C   UNL A   1      39.833  26.826  29.314  1.00  0.00     0.031 C 
ATOM     38  C   UNL A   1      43.790  25.361  26.596  1.00  0.00     0.029 A 
ATOM     39  N   UNL A   1      43.849  27.408  27.490  1.00  0.00    -0.354 N 
ATOM     40  C   UNL A   1      40.449  29.006  29.633  1.00  0.00     0.074 A 
ATOM     41  C   UNL A   1      39.456  27.977  29.852  1.00  0.00     0.031 C 
ATOM     42  C   UNL A   1      45.004  25.875  26.346  1.00  0.00     0.029 A 
ATOM     43  C   UNL A   1      45.054  27.241  26.854  1.00  0.00     0.049 A 
ATOM     44  H   UNL A   1      43.611  28.222  27.991  1.00  0.00     0.167 HD
ATOM     45  C   UNL A   1      40.364  30.270  30.113  1.00  0.00     0.037 A 
ATOM     46  C   UNL A   1      46.067  28.106  26.657  1.00  0.00     0.037 A 
ATOM     47  C   UNL A   1      41.387  31.268  29.942  1.00  0.00     0.049 A 
ATOM     48  C   UNL A   1      45.939  29.511  27.176  1.00  0.00     0.074 A 
ATOM     49  C   UNL A   1      41.407  32.574  30.400  1.00  0.00     0.029 A 
ATOM     50  N   UNL A   1      42.585  31.062  29.273  1.00  0.00    -0.354 N 
ATOM     51  N   UNL A   1      44.956  30.058  27.850  1.00  0.00    -0.248 NA
ATOM     52  C   UNL A   1      47.052  30.426  26.889  1.00  0.00     0.031 C 
ATOM     53  C   UNL A   1      42.601  33.168  29.979  1.00  0.00     0.029 A 
ATOM     54  C   UNL A   1      43.346  32.220  29.297  1.00  0.00     0.049 A 
ATOM     55  H   UNL A   1      42.855  30.218  28.844  1.00  0.00     0.167 HD
ATOM     56  C   UNL A   1      45.334  31.373  28.078  1.00  0.00     0.074 A 
ATOM     57  C   UNL A   1      46.648  31.537  27.489  1.00  0.00     0.031 C 
ATOM     58  C   UNL A   1      44.654  32.359  28.711  1.00  0.00     0.037 A 
BRANCH  45  59
ATOM     59  C   UNL A   1      39.106  30.660  30.834  1.00  0.00     0.064 A 
ATOM     60  C   UNL A   1      37.982  31.155  30.159  1.00  0.00     0.173 A 
ATOM     61  C   UNL A   1      39.019  30.503  32.227  1.00  0.00     0.173 A 
ATOM     62  F   UNL A   1      38.019  31.340  28.831  1.00  0.00    -0.203 F 
ATOM     63  C   UNL A   1      36.825  31.502  30.853  1.00  0.00     0.198 A 
ATOM     64  C   UNL A   1      37.850  30.822  32.914  1.00  0.00     0.198 A 
ATOM     65  F   UNL A   1      40.063  30.029  32.921  1.00  0.00    -0.203 F 
ATOM     66  F   UNL A   1      35.778  32.017  30.193  1.00  0.00    -0.200 F 
ATOM     67  C   UNL A   1      36.757  31.329  32.228  1.00  0.00     0.200 A 
ATOM     68  F   UNL A   1      37.784  30.641  34.240  1.00  0.00    -0.200 F 
ATOM     69  F   UNL A   1      35.641  31.655  32.893  1.00  0.00    -0.200 F 
ENDBRANCH  45  59
BRANCH  46  70
ATOM     70  C   UNL A   1      47.270  27.677  25.896  1.00  0.00     0.064 A 
ATOM     71  C   UNL A   1      47.292  27.725  24.495  1.00  0.00     0.173 A 
ATOM     72  C   UNL A   1      48.422  27.219  26.551  1.00  0.00     0.173 A 
ATOM     73  F   UNL A   1      46.205  28.129  23.822  1.00  0.00    -0.203 F 
ATOM     74  C   UNL A   1      48.418  27.322  23.779  1.00  0.00     0.198 A 
ATOM     75  C   UNL A   1      49.559  26.847  25.837  1.00  0.00     0.198 A 
ATOM     76  F   UNL A   1      48.452  27.151  27.891  1.00  0.00    -0.203 F 
ATOM     77  F   UNL A   1      48.398  27.339  22.440  1.00  0.00    -0.200 F 
ATOM     78  C   UNL A   1      49.553  26.893  24.451  1.00  0.00     0.200 A 
ATOM     79  F   UNL A   1      50.658  26.447  26.490  1.00  0.00    -0.200 F 
ATOM     80  F   UNL A   1      50.639  26.516  23.763  1.00  0.00    -0.200 F 
ENDBRANCH  46  70
BRANCH  58  81
ATOM     81  C   UNL A   1      45.334  33.690  28.829  1.00  0.00     0.064 A 
ATOM     82  C   UNL A   1      46.192  33.985  29.898  1.00  0.00     0.173 A 
ATOM     83  C   UNL A   1      45.147  34.671  27.844  1.00  0.00     0.173 A 
ATOM     84  F   UNL A   1      46.388  33.086  30.874  1.00  0.00    -0.203 F 
ATOM     85  C   UNL A   1      46.819  35.225  29.990  1.00  0.00     0.198 A 
ATOM     86  C   UNL A   1      45.797  35.899  27.923  1.00  0.00     0.198 A 
ATOM     87  F   UNL A   1      44.341  34.435  26.799  1.00  0.00    -0.203 F 
ATOM     88  F   UNL A   1      47.599  35.503  31.044  1.00  0.00    -0.200 F 
ATOM     89  C   UNL A   1      46.627  36.177  29.000  1.00  0.00     0.200 A 
ATOM     90  F   UNL A   1      45.619  36.814  26.961  1.00  0.00    -0.200 F 
ATOM     91  F   UNL A   1      47.234  37.369  29.088  1.00  0.00    -0.200 F 
ENDBRANCH  58  81
ENDBRANCH  32  33
ENDBRANCH  25  27
ENDBRANCH  24  25
ENDBRANCH  23  24
ENDBRANCH   1  23
TORSDOF 13
ENDMDL
MODEL 3
REMARK VINA RESULT:     -12.6      0.508      1.699
REMARK SMILES CC(=O)Nc1cccc(-c2cc(F)ccc2C(=O)OCCOC(=O)c2ccc(-c3c4nc(c(-c5c(F)c(F)c(F)c(F)c5F)c5ccc([nH]5)c(-c5c(F)c(F)c(F)c(F)c5F)c5nc(c(-c6c(F)c(F)c(F)c(F)c6F)c6ccc3[nH]6)C=C5)C=C4)cc2)c1
REMARK SMILES IDX 20 1 19 2 17 3 18 4 16 5 10 6 11 7 12 8 15 9 13 10 14 11
REMARK SMILES IDX 9 12 5 13 6 14 88 15 7 16 8 17 4 18 1 19 2 20 3 21 21 23
REMARK SMILES IDX 22 24 23 25 24 26 25 27 26 28 87 29 27 30 86 31 28 32 29 33
REMARK SMILES IDX 30 34 80 35 31 36 85 37 79 38 81 39 32 40 84 41 78 42 77 43
REMARK SMILES IDX 33 45 65 46 45 47 64 48 46 49 49 50 63 51 82 52 47 53 48 54
REMARK SMILES IDX 62 56 83 57 50 58 34 59 35 60 43 61 36 62 37 63 41 64 44 65
REMARK SMILES IDX 38 66 39 67 42 68 40 69 66 70 67 71 75 72 68 73 69 74 73 75
REMARK SMILES IDX 76 76 70 77 71 78 74 79 72 80 51 81 52 82 60 83 53 84 54 85
REMARK SMILES IDX 58 86 61 87 55 88 56 89 59 90 57 91
REMARK H PARENT 4 22 81 44 49 55
REMARK Flexibility Score: inf
ROOT
ATOM      1  C   UNL A   1      31.764  29.299  26.889  1.00  0.00     0.275 C 
ENDROOT
BRANCH   1   2
ATOM      2  O   UNL A   1      31.388  28.787  25.592  1.00  0.00    -0.458 OA
BRANCH   2   3
ATOM      3  C   UNL A   1      31.237  27.445  25.484  1.00  0.00     0.338 C 
ATOM      4  O   UNL A   1      30.822  26.689  26.345  1.00  0.00    -0.246 OA
BRANCH   3   5
ATOM      5  C   UNL A   1      31.592  26.968  24.119  1.00  0.00     0.068 A 
ATOM      6  C   UNL A   1      30.814  27.252  22.969  1.00  0.00    -0.001 A 
ATOM      7  C   UNL A   1      31.274  26.766  21.731  1.00  0.00     0.048 A 
ATOM      8  C   UNL A   1      32.456  26.032  21.643  1.00  0.00     0.123 A 
ATOM      9  C   UNL A   1      32.802  26.256  24.003  1.00  0.00     0.019 A 
ATOM     10  F   UNL A   1      32.869  25.588  20.450  1.00  0.00    -0.207 F 
ATOM     11  C   UNL A   1      33.224  25.772  22.768  1.00  0.00     0.040 A 
BRANCH   6  12
ATOM     12  C   UNL A   1      29.573  28.048  23.024  1.00  0.00    -0.015 A 
ATOM     13  C   UNL A   1      28.494  30.237  23.189  1.00  0.00     0.041 A 
ATOM     14  C   UNL A   1      27.286  29.596  23.482  1.00  0.00     0.026 A 
ATOM     15  C   UNL A   1      29.618  29.454  22.929  1.00  0.00     0.034 A 
ATOM     16  C   UNL A   1      27.201  28.203  23.500  1.00  0.00     0.003 A 
ATOM     17  C   UNL A   1      28.341  27.433  23.280  1.00  0.00     0.009 A 
BRANCH  13  18
ATOM     18  N   UNL A   1      28.517  31.638  23.301  1.00  0.00    -0.326 N 
ATOM     19  C   UNL A   1      28.028  32.396  20.971  1.00  0.00     0.114 C 
ATOM     20  C   UNL A   1      28.478  32.644  22.383  1.00  0.00     0.221 C 
ATOM     21  O   UNL A   1      28.777  33.783  22.752  1.00  0.00    -0.275 OA
ATOM     22  H   UNL A   1      28.573  31.955  24.231  1.00  0.00     0.169 HD
ENDBRANCH  13  18
ENDBRANCH   6  12
ENDBRANCH   3   5
ENDBRANCH   2   3
ENDBRANCH   1   2
BRANCH   1  23
ATOM     23  C   UNL A   1      31.780  30.823  26.879  1.00  0.00     0.275 C 
BRANCH  23  24
ATOM     24  O   UNL A   1      33.097  31.276  26.528  1.00  0.00    -0.458 OA
BRANCH  24  25
ATOM     25  C   UNL A   1      33.591  32.261  27.306  1.00  0.00     0.338 C 
ATOM     26  O   UNL A   1      33.060  33.314  27.625  1.00  0.00    -0.246 OA
BRANCH  25  27
ATOM     27  C   UNL A   1      34.885  31.831  27.838  1.00  0.00     0.060 A 
ATOM     28  C   UNL A   1      35.026  30.498  28.216  1.00  0.00     0.016 A 
ATOM     29  C   UNL A   1      35.897  32.751  28.089  1.00  0.00     0.016 A 
ATOM     30  C   UNL A   1      36.149  30.087  28.924  1.00  0.00     0.010 A 
ATOM     31  C   UNL A   1      37.062  32.320  28.730  1.00  0.00     0.010 A 
ATOM     32  C   UNL A   1      37.183  30.994  29.187  1.00  0.00    -0.014 A 
BRANCH  32  33
ATOM     33  C   UNL A   1      38.358  30.578  30.001  1.00  0.00     0.031 A 
ATOM     34  C   UNL A   1      39.382  29.648  29.409  1.00  0.00     0.074 A 
ATOM     35  C   UNL A   1      38.521  31.038  31.256  1.00  0.00     0.049 A 
ATOM     36  N   UNL A   1      40.356  29.001  29.996  1.00  0.00    -0.248 NA
ATOM     37  C   UNL A   1      39.285  29.400  27.961  1.00  0.00     0.031 C 
ATOM     38  C   UNL A   1      37.641  31.993  31.932  1.00  0.00     0.029 A 
ATOM     39  N   UNL A   1      39.490  30.763  32.190  1.00  0.00    -0.354 N 
ATOM     40  C   UNL A   1      40.944  28.222  29.007  1.00  0.00     0.074 A 
ATOM     41  C   UNL A   1      40.220  28.479  27.780  1.00  0.00     0.031 C 
ATOM     42  C   UNL A   1      38.123  32.243  33.159  1.00  0.00     0.029 A 
ATOM     43  C   UNL A   1      39.293  31.402  33.390  1.00  0.00     0.049 A 
ATOM     44  H   UNL A   1      40.253  30.165  32.016  1.00  0.00     0.167 HD
ATOM     45  C   UNL A   1      41.991  27.370  29.118  1.00  0.00     0.037 A 
ATOM     46  C   UNL A   1      39.948  31.287  34.561  1.00  0.00     0.037 A 
ATOM     47  C   UNL A   1      42.744  27.169  30.328  1.00  0.00     0.049 A 
ATOM     48  C   UNL A   1      41.090  30.316  34.666  1.00  0.00     0.074 A 
ATOM     49  C   UNL A   1      43.831  26.340  30.543  1.00  0.00     0.029 A 
ATOM     50  N   UNL A   1      42.497  27.823  31.527  1.00  0.00    -0.354 N 
ATOM     51  N   UNL A   1      41.599  29.534  33.745  1.00  0.00    -0.248 NA
ATOM     52  C   UNL A   1      41.735  30.194  35.981  1.00  0.00     0.031 C 
ATOM     53  C   UNL A   1      44.220  26.467  31.881  1.00  0.00     0.029 A 
ATOM     54  C   UNL A   1      43.405  27.408  32.488  1.00  0.00     0.049 A 
ATOM     55  H   UNL A   1      41.782  28.483  31.674  1.00  0.00     0.167 HD
ATOM     56  C   UNL A   1      42.629  28.838  34.362  1.00  0.00     0.074 A 
ATOM     57  C   UNL A   1      42.687  29.307  35.731  1.00  0.00     0.031 C 
ATOM     58  C   UNL A   1      43.449  27.892  33.843  1.00  0.00     0.037 A 
BRANCH  45  59
ATOM     59  C   UNL A   1      42.362  26.559  27.909  1.00  0.00     0.064 A 
ATOM     60  C   UNL A   1      43.342  26.982  27.000  1.00  0.00     0.173 A 
ATOM     61  C   UNL A   1      41.743  25.320  27.679  1.00  0.00     0.173 A 
ATOM     62  F   UNL A   1      43.951  28.165  27.165  1.00  0.00    -0.203 F 
ATOM     63  C   UNL A   1      43.672  26.205  25.892  1.00  0.00     0.198 A 
ATOM     64  C   UNL A   1      42.097  24.533  26.587  1.00  0.00     0.198 A 
ATOM     65  F   UNL A   1      40.802  24.867  28.520  1.00  0.00    -0.203 F 
ATOM     66  F   UNL A   1      44.578  26.649  25.010  1.00  0.00    -0.200 F 
ATOM     67  C   UNL A   1      43.055  24.979  25.689  1.00  0.00     0.200 A 
ATOM     68  F   UNL A   1      41.509  23.343  26.401  1.00  0.00    -0.200 F 
ATOM     69  F   UNL A   1      43.380  24.229  24.627  1.00  0.00    -0.200 F 
ENDBRANCH  45  59
BRANCH  46  70
ATOM     70  C   UNL A   1      39.507  32.083  35.737  1.00  0.00     0.064 A 
ATOM     71  C   UNL A   1      38.552  31.580  36.631  1.00  0.00     0.173 A 
ATOM     72  C   UNL A   1      40.035  33.356  35.995  1.00  0.00     0.173 A 
ATOM     73  F   UNL A   1      37.997  30.379  36.412  1.00  0.00    -0.203 F 
ATOM     74  C   UNL A   1      38.136  32.325  37.733  1.00  0.00     0.198 A 
ATOM     75  C   UNL A   1      39.643  34.087  37.114  1.00  0.00     0.198 A 
ATOM     76  F   UNL A   1      40.950  33.885  35.167  1.00  0.00    -0.203 F 
ATOM     77  F   UNL A   1      37.193  31.838  38.550  1.00  0.00    -0.200 F 
ATOM     78  C   UNL A   1      38.689  33.573  37.979  1.00  0.00     0.200 A 
ATOM     79  F   UNL A   1      40.191  35.286  37.355  1.00  0.00    -0.200 F 
ATOM     80  F   UNL A   1      38.298  34.284  39.045  1.00  0.00    -0.200 F 
ENDBRANCH  46  70
BRANCH  58  81
ATOM     81  C   UNL A   1      44.500  27.328  34.752  1.00  0.00     0.064 A 
ATOM     82  C   UNL A   1      45.715  27.993  34.974  1.00  0.00     0.173 A 
ATOM     83  C   UNL A   1      44.275  26.122  35.432  1.00  0.00     0.173 A 
ATOM     84  F   UNL A   1      45.982  29.140  34.333  1.00  0.00    -0.203 F 
ATOM     85  C   UNL A   1      46.677  27.458  35.825  1.00  0.00     0.198 A 
ATOM     86  C   UNL A   1      45.227  25.603  36.304  1.00  0.00     0.198 A 
ATOM     87  F   UNL A   1      43.127  25.451  35.258  1.00  0.00    -0.203 F 
ATOM     88  F   UNL A   1      47.850  28.086  35.987  1.00  0.00    -0.200 F 
ATOM     89  C   UNL A   1      46.431  26.267  36.494  1.00  0.00     0.200 A 
ATOM     90  F   UNL A   1      44.984  24.459  36.957  1.00  0.00    -0.200 F 
ATOM     91  F   UNL A   1      47.357  25.755  37.315  1.00  0.00    -0.200 F 
ENDBRANCH  58  81
ENDBRANCH  32  33
ENDBRANCH  25  27
ENDBRANCH  24  25
ENDBRANCH  23  24
ENDBRANCH   1  23
TORSDOF 13
ENDMDL
