MODEL 1
REMARK VINA RESULT:     -12.7      0.000      0.000
REMARK SMILES Cc1c(Cl)cc2c(c1C)O[C@H](C(F)(F)F)C(C(=O)OCCOC(=O)c1ccc(-c3c4nc(c(-c5c(F)c(F)c(F)c(F)c5F)c5ccc([nH]5)c(-c5c(F)c(F)c(F)c(F)c5F)c5nc(c(-c6c(F)c(F)c(F)c(F)c6F)c6ccc3[nH]6)C=C5)C=C4)cc1)=C2
REMARK SMILES IDX 21 1 20 2 19 3 17 4 18 5 16 6 1 7 2 8 3 9 8 10 4 11 5 12
REMARK SMILES IDX 7 13 9 14 6 15 10 16 88 17 11 18 12 19 13 20 14 21 15 22
REMARK SMILES IDX 22 23 23 24 24 25 25 26 26 27 87 28 27 29 86 30 28 31 29 32
REMARK SMILES IDX 30 33 80 34 31 35 85 36 79 37 81 38 32 39 84 40 78 41 77 42
REMARK SMILES IDX 33 44 65 45 45 46 64 47 46 48 49 49 63 50 82 51 47 52 48 53
REMARK SMILES IDX 62 55 83 56 50 57 34 58 35 59 43 60 36 61 37 62 41 63 44 64
REMARK SMILES IDX 38 65 39 66 42 67 40 68 66 69 67 70 75 71 68 72 69 73 73 74
REMARK SMILES IDX 76 75 70 76 71 77 74 78 72 79 51 80 52 81 60 82 53 83 54 84
REMARK SMILES IDX 58 85 61 86 55 87 56 88 59 89 57 90
REMARK H PARENT 81 43 49 54
REMARK Flexibility Score: inf
ROOT
ATOM      1  C   UNL A   1      31.525  29.984  25.416  1.00  0.00     0.275 C 
ENDROOT
BRANCH   1   2
ATOM      2  C   UNL A   1      31.359  28.642  24.703  1.00  0.00     0.275 C 
BRANCH   2   3
ATOM      3  O   UNL A   1      32.278  27.656  25.224  1.00  0.00    -0.459 OA
BRANCH   3   4
ATOM      4  C   UNL A   1      31.735  26.730  26.047  1.00  0.00     0.338 C 
ATOM      5  O   UNL A   1      30.810  26.898  26.826  1.00  0.00    -0.246 OA
BRANCH   4   6
ATOM      6  C   UNL A   1      32.387  25.422  25.849  1.00  0.00     0.087 C 
ATOM      7  C   UNL A   1      36.494  20.470  24.753  1.00  0.00     0.046 C 
ATOM      8  C   UNL A   1      35.762  21.732  25.135  1.00  0.00    -0.026 A 
ATOM      9  C   UNL A   1      36.451  22.850  25.642  1.00  0.00     0.045 A 
ATOM     10  C   UNL A   1      34.351  21.815  24.974  1.00  0.00    -0.004 A 
ATOM     11  Cl  UNL A   1      38.162  22.864  25.898  1.00  0.00    -0.084 Cl
ATOM     12  C   UNL A   1      35.770  24.025  25.956  1.00  0.00     0.032 A 
ATOM     13  C   UNL A   1      33.676  23.008  25.310  1.00  0.00     0.131 A 
ATOM     14  C   UNL A   1      33.532  20.665  24.442  1.00  0.00     0.049 C 
ATOM     15  C   UNL A   1      34.390  24.109  25.776  1.00  0.00     0.019 A 
ATOM     16  O   UNL A   1      32.312  23.021  25.172  1.00  0.00    -0.475 OA
ATOM     17  C   UNL A   1      33.707  25.355  26.049  1.00  0.00     0.027 C 
ATOM     18  C   UNL A   1      31.581  24.271  25.321  1.00  0.00     0.316 C 
BRANCH  18  19
ATOM     19  C   UNL A   1      30.932  24.622  23.972  1.00  0.00     0.430 C 
ATOM     20  F   UNL A   1      29.824  25.383  24.139  1.00  0.00    -0.167 F 
ATOM     21  F   UNL A   1      31.775  25.332  23.184  1.00  0.00    -0.167 F 
ATOM     22  F   UNL A   1      30.566  23.519  23.280  1.00  0.00    -0.167 F 
ENDBRANCH  18  19
ENDBRANCH   4   6
ENDBRANCH   3   4
ENDBRANCH   2   3
ENDBRANCH   1   2
BRANCH   1  23
ATOM     23  O   UNL A   1      32.905  30.189  25.770  1.00  0.00    -0.458 OA
BRANCH  23  24
ATOM     24  C   UNL A   1      33.134  31.073  26.767  1.00  0.00     0.338 C 
ATOM     25  O   UNL A   1      32.381  31.935  27.189  1.00  0.00    -0.246 OA
BRANCH  24  26
ATOM     26  C   UNL A   1      34.455  30.816  27.363  1.00  0.00     0.060 A 
ATOM     27  C   UNL A   1      34.818  29.503  27.638  1.00  0.00     0.016 A 
ATOM     28  C   UNL A   1      35.267  31.865  27.787  1.00  0.00     0.016 A 
ATOM     29  C   UNL A   1      35.914  29.234  28.448  1.00  0.00     0.010 A 
ATOM     30  C   UNL A   1      36.454  31.583  28.480  1.00  0.00     0.010 A 
ATOM     31  C   UNL A   1      36.773  30.266  28.856  1.00  0.00    -0.014 A 
BRANCH  31  32
ATOM     32  C   UNL A   1      37.985  29.948  29.672  1.00  0.00     0.031 A 
ATOM     33  C   UNL A   1      39.117  29.139  29.091  1.00  0.00     0.074 A 
ATOM     34  C   UNL A   1      38.094  30.426  30.930  1.00  0.00     0.049 A 
ATOM     35  N   UNL A   1      40.187  28.669  29.685  1.00  0.00    -0.248 NA
ATOM     36  C   UNL A   1      39.034  28.800  27.662  1.00  0.00     0.031 C 
ATOM     37  C   UNL A   1      37.095  31.253  31.610  1.00  0.00     0.029 A 
ATOM     38  N   UNL A   1      39.106  30.314  31.854  1.00  0.00    -0.354 N 
ATOM     39  C   UNL A   1      40.873  27.943  28.719  1.00  0.00     0.074 A 
ATOM     40  C   UNL A   1      40.096  28.022  27.502  1.00  0.00     0.031 C 
ATOM     41  C   UNL A   1      37.576  31.645  32.798  1.00  0.00     0.029 A 
ATOM     42  C   UNL A   1      38.870  31.010  33.016  1.00  0.00     0.049 A 
ATOM     43  H   UNL A   1      39.922  29.787  31.698  1.00  0.00     0.167 HD
ATOM     44  C   UNL A   1      42.048  27.277  28.838  1.00  0.00     0.037 A 
ATOM     45  C   UNL A   1      39.594  31.107  34.148  1.00  0.00     0.037 A 
ATOM     46  C   UNL A   1      42.850  27.249  30.033  1.00  0.00     0.049 A 
ATOM     47  C   UNL A   1      40.875  30.334  34.265  1.00  0.00     0.074 A 
ATOM     48  C   UNL A   1      44.050  26.594  30.252  1.00  0.00     0.029 A 
ATOM     49  N   UNL A   1      42.546  27.926  31.205  1.00  0.00    -0.354 N 
ATOM     50  N   UNL A   1      41.473  29.590  33.368  1.00  0.00    -0.248 NA
ATOM     51  C   UNL A   1      41.569  30.388  35.560  1.00  0.00     0.031 C 
ATOM     52  C   UNL A   1      44.457  26.850  31.564  1.00  0.00     0.029 A 
ATOM     53  C   UNL A   1      43.533  27.699  32.150  1.00  0.00     0.049 A 
ATOM     54  H   UNL A   1      41.748  28.485  31.344  1.00  0.00     0.167 HD
ATOM     55  C   UNL A   1      42.614  29.095  33.981  1.00  0.00     0.074 A 
ATOM     56  C   UNL A   1      42.637  29.638  35.324  1.00  0.00     0.031 C 
ATOM     57  C   UNL A   1      43.551  28.257  33.477  1.00  0.00     0.037 A 
BRANCH  44  58
ATOM     58  C   UNL A   1      42.541  26.502  27.650  1.00  0.00     0.064 A 
ATOM     59  C   UNL A   1      43.504  27.025  26.774  1.00  0.00     0.173 A 
ATOM     60  C   UNL A   1      42.099  25.188  27.429  1.00  0.00     0.173 A 
ATOM     61  F   UNL A   1      43.952  28.278  26.935  1.00  0.00    -0.203 F 
ATOM     62  C   UNL A   1      43.995  26.265  25.714  1.00  0.00     0.198 A 
ATOM     63  C   UNL A   1      42.612  24.422  26.384  1.00  0.00     0.198 A 
ATOM     64  F   UNL A   1      41.185  24.636  28.242  1.00  0.00    -0.203 F 
ATOM     65  F   UNL A   1      44.891  26.796  24.871  1.00  0.00    -0.200 F 
ATOM     66  C   UNL A   1      43.555  24.963  25.526  1.00  0.00     0.200 A 
ATOM     67  F   UNL A   1      42.197  23.159  26.215  1.00  0.00    -0.200 F 
ATOM     68  F   UNL A   1      44.042  24.229  24.516  1.00  0.00    -0.200 F 
ENDBRANCH  44  58
BRANCH  45  69
ATOM     69  C   UNL A   1      39.108  31.961  35.265  1.00  0.00     0.064 A 
ATOM     70  C   UNL A   1      38.385  31.405  36.329  1.00  0.00     0.173 A 
ATOM     71  C   UNL A   1      39.385  33.335  35.314  1.00  0.00     0.173 A 
ATOM     72  F   UNL A   1      38.072  30.102  36.318  1.00  0.00    -0.203 F 
ATOM     73  C   UNL A   1      37.961  32.191  37.400  1.00  0.00     0.198 A 
ATOM     74  C   UNL A   1      38.989  34.114  36.399  1.00  0.00     0.198 A 
ATOM     75  F   UNL A   1      40.072  33.918  34.320  1.00  0.00    -0.203 F 
ATOM     76  F   UNL A   1      37.246  31.640  38.390  1.00  0.00    -0.200 F 
ATOM     77  C   UNL A   1      38.274  33.542  37.440  1.00  0.00     0.200 A 
ATOM     78  F   UNL A   1      39.308  35.414  36.440  1.00  0.00    -0.200 F 
ATOM     79  F   UNL A   1      37.883  34.292  38.478  1.00  0.00    -0.200 F 
ENDBRANCH  45  69
BRANCH  57  80
ATOM     80  C   UNL A   1      44.700  27.889  34.365  1.00  0.00     0.064 A 
ATOM     81  C   UNL A   1      45.851  28.686  34.437  1.00  0.00     0.173 A 
ATOM     82  C   UNL A   1      44.615  26.772  35.209  1.00  0.00     0.173 A 
ATOM     83  F   UNL A   1      45.982  29.755  33.639  1.00  0.00    -0.203 F 
ATOM     84  C   UNL A   1      46.880  28.374  35.323  1.00  0.00     0.198 A 
ATOM     85  C   UNL A   1      45.634  26.477  36.110  1.00  0.00     0.198 A 
ATOM     86  F   UNL A   1      43.530  25.982  35.179  1.00  0.00    -0.203 F 
ATOM     87  F   UNL A   1      47.981  29.135  35.360  1.00  0.00    -0.200 F 
ATOM     88  C   UNL A   1      46.766  27.277  36.164  1.00  0.00     0.200 A 
ATOM     89  F   UNL A   1      45.518  25.424  36.930  1.00  0.00    -0.200 F 
ATOM     90  F   UNL A   1      47.749  26.990  37.028  1.00  0.00    -0.200 F 
ENDBRANCH  57  80
ENDBRANCH  31  32
ENDBRANCH  24  26
ENDBRANCH  23  24
ENDBRANCH   1  23
TORSDOF 12
ENDMDL
MODEL 2
REMARK VINA RESULT:     -12.7      0.269      1.624
REMARK SMILES Cc1c(Cl)cc2c(c1C)O[C@H](C(F)(F)F)C(C(=O)OCCOC(=O)c1ccc(-c3c4nc(c(-c5c(F)c(F)c(F)c(F)c5F)c5ccc([nH]5)c(-c5c(F)c(F)c(F)c(F)c5F)c5nc(c(-c6c(F)c(F)c(F)c(F)c6F)c6ccc3[nH]6)C=C5)C=C4)cc1)=C2
REMARK SMILES IDX 21 1 20 2 19 3 17 4 18 5 16 6 1 7 2 8 3 9 8 10 4 11 5 12
REMARK SMILES IDX 7 13 9 14 6 15 10 16 88 17 11 18 12 19 13 20 14 21 15 22
REMARK SMILES IDX 22 23 23 24 24 25 25 26 26 27 87 28 27 29 86 30 28 31 29 32
REMARK SMILES IDX 30 33 80 34 31 35 85 36 79 37 81 38 32 39 84 40 78 41 77 42
REMARK SMILES IDX 33 44 65 45 45 46 64 47 46 48 49 49 63 50 82 51 47 52 48 53
REMARK SMILES IDX 62 55 83 56 50 57 34 58 35 59 43 60 36 61 37 62 41 63 44 64
REMARK SMILES IDX 38 65 39 66 42 67 40 68 66 69 67 70 75 71 68 72 69 73 73 74
REMARK SMILES IDX 76 75 70 76 71 77 74 78 72 79 51 80 52 81 60 82 53 83 54 84
REMARK SMILES IDX 58 85 61 86 55 87 56 88 59 89 57 90
REMARK H PARENT 81 43 49 54
REMARK Flexibility Score: inf
ROOT
ATOM      1  C   UNL A   1      31.527  29.814  25.390  1.00  0.00     0.275 C 
ENDROOT
BRANCH   1   2
ATOM      2  C   UNL A   1      31.414  28.520  24.582  1.00  0.00     0.275 C 
BRANCH   2   3
ATOM      3  O   UNL A   1      32.273  27.491  25.121  1.00  0.00    -0.459 OA
BRANCH   3   4
ATOM      4  C   UNL A   1      31.658  26.554  25.878  1.00  0.00     0.338 C 
ATOM      5  O   UNL A   1      30.653  26.707  26.555  1.00  0.00    -0.246 OA
BRANCH   4   6
ATOM      6  C   UNL A   1      32.343  25.255  25.743  1.00  0.00     0.087 C 
ATOM      7  C   UNL A   1      36.588  20.360  24.966  1.00  0.00     0.046 C 
ATOM      8  C   UNL A   1      35.816  21.616  25.281  1.00  0.00    -0.026 A 
ATOM      9  C   UNL A   1      36.460  22.760  25.790  1.00  0.00     0.045 A 
ATOM     10  C   UNL A   1      34.413  21.667  25.054  1.00  0.00    -0.004 A 
ATOM     11  Cl  UNL A   1      38.156  22.814  26.124  1.00  0.00    -0.084 Cl
ATOM     12  C   UNL A   1      35.742  23.929  26.041  1.00  0.00     0.032 A 
ATOM     13  C   UNL A   1      33.700  22.855  25.327  1.00  0.00     0.131 A 
ATOM     14  C   UNL A   1      33.641  20.487  24.515  1.00  0.00     0.049 C 
ATOM     15  C   UNL A   1      34.370  23.981  25.796  1.00  0.00     0.019 A 
ATOM     16  O   UNL A   1      32.344  22.836  25.126  1.00  0.00    -0.475 OA
ATOM     17  C   UNL A   1      33.652  25.219  26.006  1.00  0.00     0.027 C 
ATOM     18  C   UNL A   1      31.583  24.074  25.209  1.00  0.00     0.316 C 
BRANCH  18  19
ATOM     19  C   UNL A   1      30.991  24.379  23.823  1.00  0.00     0.430 C 
ATOM     20  F   UNL A   1      29.877  25.143  23.918  1.00  0.00    -0.167 F 
ATOM     21  F   UNL A   1      31.866  25.064  23.047  1.00  0.00    -0.167 F 
ATOM     22  F   UNL A   1      30.656  23.252  23.154  1.00  0.00    -0.167 F 
ENDBRANCH  18  19
ENDBRANCH   4   6
ENDBRANCH   3   4
ENDBRANCH   2   3
ENDBRANCH   1   2
BRANCH   1  23
ATOM     23  O   UNL A   1      32.899  30.052  25.753  1.00  0.00    -0.458 OA
BRANCH  23  24
ATOM     24  C   UNL A   1      33.097  30.925  26.768  1.00  0.00     0.338 C 
ATOM     25  O   UNL A   1      32.328  31.774  27.184  1.00  0.00    -0.246 OA
BRANCH  24  26
ATOM     26  C   UNL A   1      34.407  30.671  27.388  1.00  0.00     0.060 A 
ATOM     27  C   UNL A   1      34.789  29.356  27.626  1.00  0.00     0.016 A 
ATOM     28  C   UNL A   1      35.187  31.719  27.870  1.00  0.00     0.016 A 
ATOM     29  C   UNL A   1      35.869  29.078  28.455  1.00  0.00     0.010 A 
ATOM     30  C   UNL A   1      36.361  31.434  28.584  1.00  0.00     0.010 A 
ATOM     31  C   UNL A   1      36.697  30.110  28.922  1.00  0.00    -0.014 A 
BRANCH  31  32
ATOM     32  C   UNL A   1      37.893  29.786  29.757  1.00  0.00     0.031 A 
ATOM     33  C   UNL A   1      39.015  28.943  29.206  1.00  0.00     0.074 A 
ATOM     34  C   UNL A   1      37.997  30.287  31.007  1.00  0.00     0.049 A 
ATOM     35  N   UNL A   1      40.070  28.465  29.821  1.00  0.00    -0.248 NA
ATOM     36  C   UNL A   1      38.942  28.577  27.783  1.00  0.00     0.031 C 
ATOM     37  C   UNL A   1      37.008  31.147  31.659  1.00  0.00     0.029 A 
ATOM     38  N   UNL A   1      38.996  30.174  31.945  1.00  0.00    -0.354 N 
ATOM     39  C   UNL A   1      40.752  27.707  28.878  1.00  0.00     0.074 A 
ATOM     40  C   UNL A   1      39.990  27.776  27.650  1.00  0.00     0.031 C 
ATOM     41  C   UNL A   1      37.483  31.553  32.844  1.00  0.00     0.029 A 
ATOM     42  C   UNL A   1      38.762  30.898  33.090  1.00  0.00     0.049 A 
ATOM     43  H   UNL A   1      39.804  29.628  31.808  1.00  0.00     0.167 HD
ATOM     44  C   UNL A   1      41.912  27.021  29.023  1.00  0.00     0.037 A 
ATOM     45  C   UNL A   1      39.475  31.004  34.228  1.00  0.00     0.037 A 
ATOM     46  C   UNL A   1      42.700  27.001  30.228  1.00  0.00     0.049 A 
ATOM     47  C   UNL A   1      40.740  30.209  34.375  1.00  0.00     0.074 A 
ATOM     48  C   UNL A   1      43.885  26.328  30.473  1.00  0.00     0.029 A 
ATOM     49  N   UNL A   1      42.396  27.708  31.382  1.00  0.00    -0.354 N 
ATOM     50  N   UNL A   1      41.332  29.435  33.499  1.00  0.00    -0.248 NA
ATOM     51  C   UNL A   1      41.420  30.275  35.675  1.00  0.00     0.031 C 
ATOM     52  C   UNL A   1      44.283  26.603  31.785  1.00  0.00     0.029 A 
ATOM     53  C   UNL A   1      43.369  27.481  32.343  1.00  0.00     0.049 A 
ATOM     54  H   UNL A   1      41.608  28.285  31.501  1.00  0.00     0.167 HD
ATOM     55  C   UNL A   1      42.457  28.931  34.135  1.00  0.00     0.074 A 
ATOM     56  C   UNL A   1      42.476  29.501  35.467  1.00  0.00     0.031 C 
ATOM     57  C   UNL A   1      43.383  28.065  33.659  1.00  0.00     0.037 A 
BRANCH  44  58
ATOM     58  C   UNL A   1      42.404  26.213  27.856  1.00  0.00     0.064 A 
ATOM     59  C   UNL A   1      41.881  24.945  27.562  1.00  0.00     0.173 A 
ATOM     60  C   UNL A   1      43.358  26.749  26.977  1.00  0.00     0.173 A 
ATOM     61  F   UNL A   1      40.975  24.384  28.375  1.00  0.00    -0.203 F 
ATOM     62  C   UNL A   1      42.306  24.239  26.439  1.00  0.00     0.198 A 
ATOM     63  C   UNL A   1      43.760  26.052  25.840  1.00  0.00     0.198 A 
ATOM     64  F   UNL A   1      43.884  27.962  27.208  1.00  0.00    -0.203 F 
ATOM     65  F   UNL A   1      41.816  23.016  26.194  1.00  0.00    -0.200 F 
ATOM     66  C   UNL A   1      43.238  24.797  25.575  1.00  0.00     0.200 A 
ATOM     67  F   UNL A   1      44.649  26.599  24.999  1.00  0.00    -0.200 F 
ATOM     68  F   UNL A   1      43.632  24.123  24.486  1.00  0.00    -0.200 F 
ENDBRANCH  44  58
BRANCH  45  69
ATOM     69  C   UNL A   1      38.993  31.889  35.322  1.00  0.00     0.064 A 
ATOM     70  C   UNL A   1      38.234  31.372  36.380  1.00  0.00     0.173 A 
ATOM     71  C   UNL A   1      39.310  33.256  35.354  1.00  0.00     0.173 A 
ATOM     72  F   UNL A   1      37.883  30.078  36.383  1.00  0.00    -0.203 F 
ATOM     73  C   UNL A   1      37.814  32.186  37.430  1.00  0.00     0.198 A 
ATOM     74  C   UNL A   1      38.916  34.063  36.419  1.00  0.00     0.198 A 
ATOM     75  F   UNL A   1      40.032  33.802  34.365  1.00  0.00    -0.203 F 
ATOM     76  F   UNL A   1      37.064  31.673  38.415  1.00  0.00    -0.200 F 
ATOM     77  C   UNL A   1      38.165  33.528  37.455  1.00  0.00     0.200 A 
ATOM     78  F   UNL A   1      39.273  35.354  36.447  1.00  0.00    -0.200 F 
ATOM     79  F   UNL A   1      37.778  34.306  38.474  1.00  0.00    -0.200 F 
ENDBRANCH  45  69
BRANCH  57  80
ATOM     80  C   UNL A   1      44.515  27.693  34.567  1.00  0.00     0.064 A 
ATOM     81  C   UNL A   1      44.447  26.563  35.393  1.00  0.00     0.173 A 
ATOM     82  C   UNL A   1      45.709  28.429  34.549  1.00  0.00     0.173 A 
ATOM     83  F   UNL A   1      43.321  25.838  35.453  1.00  0.00    -0.203 F 
ATOM     84  C   UNL A   1      45.536  26.184  36.175  1.00  0.00     0.198 A 
ATOM     85  C   UNL A   1      46.803  28.034  35.313  1.00  0.00     0.198 A 
ATOM     86  F   UNL A   1      45.823  29.515  33.769  1.00  0.00    -0.203 F 
ATOM     87  F   UNL A   1      45.443  25.115  36.975  1.00  0.00    -0.200 F 
ATOM     88  C   UNL A   1      46.715  26.914  36.126  1.00  0.00     0.200 A 
ATOM     89  F   UNL A   1      47.946  28.732  35.256  1.00  0.00    -0.200 F 
ATOM     90  F   UNL A   1      47.767  26.538  36.865  1.00  0.00    -0.200 F 
ENDBRANCH  57  80
ENDBRANCH  31  32
ENDBRANCH  24  26
ENDBRANCH  23  24
ENDBRANCH   1  23
TORSDOF 12
ENDMDL
MODEL 3
REMARK VINA RESULT:     -12.6      4.101      6.818
REMARK SMILES Cc1c(Cl)cc2c(c1C)O[C@H](C(F)(F)F)C(C(=O)OCCOC(=O)c1ccc(-c3c4nc(c(-c5c(F)c(F)c(F)c(F)c5F)c5ccc([nH]5)c(-c5c(F)c(F)c(F)c(F)c5F)c5nc(c(-c6c(F)c(F)c(F)c(F)c6F)c6ccc3[nH]6)C=C5)C=C4)cc1)=C2
REMARK SMILES IDX 21 1 20 2 19 3 17 4 18 5 16 6 1 7 2 8 3 9 8 10 4 11 5 12
REMARK SMILES IDX 7 13 9 14 6 15 10 16 88 17 11 18 12 19 13 20 14 21 15 22
REMARK SMILES IDX 22 23 23 24 24 25 25 26 26 27 87 28 27 29 86 30 28 31 29 32
REMARK SMILES IDX 30 33 80 34 31 35 85 36 79 37 81 38 32 39 84 40 78 41 77 42
REMARK SMILES IDX 33 44 65 45 45 46 64 47 46 48 49 49 63 50 82 51 47 52 48 53
REMARK SMILES IDX 62 55 83 56 50 57 34 58 35 59 43 60 36 61 37 62 41 63 44 64
REMARK SMILES IDX 38 65 39 66 42 67 40 68 66 69 67 70 75 71 68 72 69 73 73 74
REMARK SMILES IDX 76 75 70 76 71 77 74 78 72 79 51 80 52 81 60 82 53 83 54 84
REMARK SMILES IDX 58 85 61 86 55 87 56 88 59 89 57 90
REMARK H PARENT 81 43 49 54
REMARK Flexibility Score: inf
ROOT
ATOM      1  C   UNL A   1      33.306  33.864  28.042  1.00  0.00     0.275 C 
ENDROOT
BRANCH   1   2
ATOM      2  C   UNL A   1      34.164  34.929  28.726  1.00  0.00     0.275 C 
BRANCH   2   3
ATOM      3  O   UNL A   1      33.981  34.907  30.159  1.00  0.00    -0.459 OA
BRANCH   3   4
ATOM      4  C   UNL A   1      34.491  33.828  30.795  1.00  0.00     0.338 C 
ATOM      5  O   UNL A   1      34.028  32.698  30.803  1.00  0.00    -0.246 OA
BRANCH   4   6
ATOM      6  C   UNL A   1      35.757  34.179  31.467  1.00  0.00     0.087 C 
ATOM      7  C   UNL A   1      41.937  34.736  33.485  1.00  0.00     0.046 C 
ATOM      8  C   UNL A   1      40.622  34.578  32.765  1.00  0.00    -0.026 A 
ATOM      9  C   UNL A   1      40.570  34.162  31.422  1.00  0.00     0.045 A 
ATOM     10  C   UNL A   1      39.400  34.839  33.447  1.00  0.00    -0.004 A 
ATOM     11  Cl  UNL A   1      41.986  33.832  30.485  1.00  0.00    -0.084 Cl
ATOM     12  C   UNL A   1      39.347  33.982  30.778  1.00  0.00     0.032 A 
ATOM     13  C   UNL A   1      38.171  34.665  32.775  1.00  0.00     0.131 A 
ATOM     14  C   UNL A   1      39.361  35.294  34.886  1.00  0.00     0.049 C 
ATOM     15  C   UNL A   1      38.152  34.218  31.457  1.00  0.00     0.019 A 
ATOM     16  O   UNL A   1      37.027  34.967  33.466  1.00  0.00    -0.475 OA
ATOM     17  C   UNL A   1      36.891  33.969  30.793  1.00  0.00     0.027 C 
ATOM     18  C   UNL A   1      35.729  34.633  32.898  1.00  0.00     0.316 C 
BRANCH  18  19
ATOM     19  C   UNL A   1      35.055  33.584  33.799  1.00  0.00     0.430 C 
ATOM     20  F   UNL A   1      35.313  33.816  35.107  1.00  0.00    -0.167 F 
ATOM     21  F   UNL A   1      33.707  33.601  33.660  1.00  0.00    -0.167 F 
ATOM     22  F   UNL A   1      35.474  32.329  33.518  1.00  0.00    -0.167 F 
ENDBRANCH  18  19
ENDBRANCH   4   6
ENDBRANCH   3   4
ENDBRANCH   2   3
ENDBRANCH   1   2
BRANCH   1  23
ATOM     23  O   UNL A   1      34.134  32.998  27.245  1.00  0.00    -0.458 OA
BRANCH  23  24
ATOM     24  C   UNL A   1      33.998  31.673  27.479  1.00  0.00     0.338 C 
ATOM     25  O   UNL A   1      33.026  30.971  27.256  1.00  0.00    -0.246 OA
BRANCH  24  26
ATOM     26  C   UNL A   1      35.260  31.132  28.008  1.00  0.00     0.060 A 
ATOM     27  C   UNL A   1      35.249  29.881  28.611  1.00  0.00     0.016 A 
ATOM     28  C   UNL A   1      36.414  31.912  28.046  1.00  0.00     0.016 A 
ATOM     29  C   UNL A   1      36.335  29.457  29.368  1.00  0.00     0.010 A 
ATOM     30  C   UNL A   1      37.561  31.418  28.686  1.00  0.00     0.010 A 
ATOM     31  C   UNL A   1      37.524  30.201  29.392  1.00  0.00    -0.014 A 
BRANCH  31  32
ATOM     32  C   UNL A   1      38.704  29.695  30.158  1.00  0.00     0.031 A 
ATOM     33  C   UNL A   1      39.716  28.787  29.507  1.00  0.00     0.074 A 
ATOM     34  C   UNL A   1      38.896  30.088  31.436  1.00  0.00     0.049 A 
ATOM     35  N   UNL A   1      40.733  28.160  30.047  1.00  0.00    -0.248 NA
ATOM     36  C   UNL A   1      39.564  28.538  28.065  1.00  0.00     0.031 C 
ATOM     37  C   UNL A   1      38.020  30.992  32.183  1.00  0.00     0.029 A 
ATOM     38  N   UNL A   1      39.905  29.805  32.325  1.00  0.00    -0.354 N 
ATOM     39  C   UNL A   1      41.306  27.410  29.027  1.00  0.00     0.074 A 
ATOM     40  C   UNL A   1      40.519  27.647  27.837  1.00  0.00     0.031 C 
ATOM     41  C   UNL A   1      38.570  31.258  33.376  1.00  0.00     0.029 A 
ATOM     42  C   UNL A   1      39.780  30.461  33.527  1.00  0.00     0.049 A 
ATOM     43  H   UNL A   1      40.647  29.192  32.121  1.00  0.00     0.167 HD
ATOM     44  C   UNL A   1      42.392  26.601  29.081  1.00  0.00     0.037 A 
ATOM     45  C   UNL A   1      40.533  30.408  34.643  1.00  0.00     0.037 A 
ATOM     46  C   UNL A   1      43.208  26.411  30.251  1.00  0.00     0.049 A 
ATOM     47  C   UNL A   1      41.713  29.480  34.686  1.00  0.00     0.074 A 
ATOM     48  C   UNL A   1      44.324  25.605  30.404  1.00  0.00     0.029 A 
ATOM     49  N   UNL A   1      43.013  27.056  31.463  1.00  0.00    -0.354 N 
ATOM     50  N   UNL A   1      42.196  28.719  33.736  1.00  0.00    -0.248 NA
ATOM     51  C   UNL A   1      42.434  29.380  35.963  1.00  0.00     0.031 C 
ATOM     52  C   UNL A   1      44.786  25.739  31.716  1.00  0.00     0.029 A 
ATOM     53  C   UNL A   1      43.985  26.660  32.370  1.00  0.00     0.049 A 
ATOM     54  H   UNL A   1      42.293  27.700  31.652  1.00  0.00     0.167 HD
ATOM     55  C   UNL A   1      43.280  28.057  34.293  1.00  0.00     0.074 A 
ATOM     56  C   UNL A   1      43.397  28.520  35.660  1.00  0.00     0.031 C 
ATOM     57  C   UNL A   1      44.097  27.140  33.722  1.00  0.00     0.037 A 
BRANCH  44  58
ATOM     58  C   UNL A   1      42.763  25.837  27.842  1.00  0.00     0.064 A 
ATOM     59  C   UNL A   1      43.720  26.316  26.936  1.00  0.00     0.173 A 
ATOM     60  C   UNL A   1      42.206  24.571  27.598  1.00  0.00     0.173 A 
ATOM     61  F   UNL A   1      44.275  27.523  27.118  1.00  0.00    -0.203 F 
ATOM     62  C   UNL A   1      44.096  25.563  25.826  1.00  0.00     0.198 A 
ATOM     63  C   UNL A   1      42.603  23.810  26.501  1.00  0.00     0.198 A 
ATOM     64  F   UNL A   1      41.291  24.062  28.437  1.00  0.00    -0.203 F 
ATOM     65  F   UNL A   1      44.990  26.054  24.957  1.00  0.00    -0.200 F 
ATOM     66  C   UNL A   1      43.544  24.308  25.615  1.00  0.00     0.200 A 
ATOM     67  F   UNL A   1      42.080  22.591  26.309  1.00  0.00    -0.200 F 
ATOM     68  F   UNL A   1      43.920  23.578  24.556  1.00  0.00    -0.200 F 
ENDBRANCH  44  58
BRANCH  45  69
ATOM     69  C   UNL A   1      40.178  31.253  35.815  1.00  0.00     0.064 A 
ATOM     70  C   UNL A   1      41.017  32.297  36.227  1.00  0.00     0.173 A 
ATOM     71  C   UNL A   1      38.981  31.062  36.522  1.00  0.00     0.173 A 
ATOM     72  F   UNL A   1      42.184  32.504  35.601  1.00  0.00    -0.203 F 
ATOM     73  C   UNL A   1      40.671  33.119  37.298  1.00  0.00     0.198 A 
ATOM     74  C   UNL A   1      38.621  31.903  37.572  1.00  0.00     0.198 A 
ATOM     75  F   UNL A   1      38.142  30.075  36.170  1.00  0.00    -0.203 F 
ATOM     76  F   UNL A   1      41.506  34.091  37.690  1.00  0.00    -0.200 F 
ATOM     77  C   UNL A   1      39.468  32.929  37.962  1.00  0.00     0.200 A 
ATOM     78  F   UNL A   1      37.450  31.726  38.199  1.00  0.00    -0.200 F 
ATOM     79  F   UNL A   1      39.127  33.731  38.979  1.00  0.00    -0.200 F 
ENDBRANCH  45  69
BRANCH  57  80
ATOM     80  C   UNL A   1      45.211  26.588  34.559  1.00  0.00     0.064 A 
ATOM     81  C   UNL A   1      45.054  25.406  35.295  1.00  0.00     0.173 A 
ATOM     82  C   UNL A   1      46.471  27.205  34.558  1.00  0.00     0.173 A 
ATOM     83  F   UNL A   1      43.863  24.790  35.336  1.00  0.00    -0.203 F 
ATOM     84  C   UNL A   1      46.120  24.862  36.007  1.00  0.00     0.198 A 
ATOM     85  C   UNL A   1      47.540  26.645  35.251  1.00  0.00     0.198 A 
ATOM     86  F   UNL A   1      46.670  28.335  33.863  1.00  0.00    -0.203 F 
ATOM     87  F   UNL A   1      45.943  23.745  36.724  1.00  0.00    -0.200 F 
ATOM     88  C   UNL A   1      47.363  25.477  35.977  1.00  0.00     0.200 A 
ATOM     89  F   UNL A   1      48.744  27.234  35.211  1.00  0.00    -0.200 F 
ATOM     90  F   UNL A   1      48.392  24.942  36.648  1.00  0.00    -0.200 F 
ENDBRANCH  57  80
ENDBRANCH  31  32
ENDBRANCH  24  26
ENDBRANCH  23  24
ENDBRANCH   1  23
TORSDOF 12
ENDMDL
