MODEL 1
REMARK VINA RESULT:     -12.5      0.000      0.000
REMARK SMILES O=C(Cn1nc(-c2ccc(Br)cc2)ccc1=O)N[C@H](C(=O)OCCOC(=O)c1ccc(-c2c3nc(c(-c4c(F)c(F)c(F)c(F)c4F)c4ccc([nH]4)c(-c4c(F)c(F)c(F)c(F)c4F)c4nc(c(-c5c(F)c(F)c(F)c(F)c5F)c5ccc2[nH]5)C=C4)C=C3)cc1)c1ccccc1
REMARK SMILES IDX 23 1 22 2 20 3 21 4 19 5 18 6 1 7 2 8 3 10 4 11 5 12 16 13
REMARK SMILES IDX 6 14 15 15 17 16 14 17 7 18 8 19 13 20 9 21 12 22 10 23
REMARK SMILES IDX 11 24 91 25 92 26 96 27 93 28 95 29 94 30 24 31 25 32 26 33
REMARK SMILES IDX 27 34 28 35 29 36 90 37 30 38 89 39 31 40 32 41 33 42 83 43
REMARK SMILES IDX 34 44 88 45 82 46 84 47 35 48 87 49 81 50 80 51 36 53 68 54
REMARK SMILES IDX 48 55 67 56 49 57 52 58 66 59 85 60 50 61 51 62 65 64 86 65
REMARK SMILES IDX 53 66 37 67 38 68 46 69 39 70 40 71 44 72 47 73 41 74 42 75
REMARK SMILES IDX 45 76 43 77 69 78 70 79 78 80 71 81 72 82 76 83 79 84 73 85
REMARK SMILES IDX 74 86 77 87 75 88 54 89 55 90 63 91 56 92 57 93 61 94 64 95
REMARK SMILES IDX 58 96 59 97 62 98 60 99
REMARK H PARENT 18 9 84 52 52 63
REMARK Flexibility Score: inf
ROOT
ATOM      1  C   UNL A   1      36.201  20.300  24.958  1.00  0.00     0.274 C 
ENDROOT
BRANCH   1   2
ATOM      2  O   UNL A   1      35.481  21.174  25.844  1.00  0.00    -0.460 OA
BRANCH   2   3
ATOM      3  C   UNL A   1      34.487  21.921  25.255  1.00  0.00     0.333 C 
ATOM      4  O   UNL A   1      34.725  22.809  24.445  1.00  0.00    -0.249 OA
BRANCH   3   5
ATOM      5  C   UNL A   1      33.102  21.278  25.532  1.00  0.00     0.223 C 
BRANCH   5   6
ATOM      6  N   UNL A   1      31.998  22.231  25.499  1.00  0.00    -0.337 N 
ATOM      7  O   UNL A   1      32.220  22.892  27.676  1.00  0.00    -0.273 OA
ATOM      8  C   UNL A   1      31.643  22.986  26.596  1.00  0.00     0.242 C 
ATOM      9  H   UNL A   1      31.488  22.339  24.663  1.00  0.00     0.164 HD
BRANCH   8  10
ATOM     10  C   UNL A   1      30.529  23.996  26.319  1.00  0.00     0.248 C 
BRANCH  10  11
ATOM     11  N   UNL A   1      31.093  25.038  25.477  1.00  0.00    -0.220 N 
ATOM     12  N   UNL A   1      31.716  26.073  26.144  1.00  0.00    -0.169 NA
ATOM     13  C   UNL A   1      30.850  25.021  24.113  1.00  0.00     0.267 A 
ATOM     14  C   UNL A   1      32.026  27.126  25.455  1.00  0.00     0.091 A 
ATOM     15  C   UNL A   1      31.269  26.229  23.370  1.00  0.00     0.075 A 
ATOM     16  O   UNL A   1      30.331  24.095  23.496  1.00  0.00    -0.268 OA
ATOM     17  C   UNL A   1      31.825  27.265  23.999  1.00  0.00     0.036 A 
BRANCH  14  18
ATOM     18  C   UNL A   1      32.607  28.288  26.171  1.00  0.00     0.002 A 
ATOM     19  C   UNL A   1      31.827  29.440  26.331  1.00  0.00     0.011 A 
ATOM     20  C   UNL A   1      33.947  28.287  26.574  1.00  0.00     0.011 A 
ATOM     21  C   UNL A   1      32.384  30.589  26.895  1.00  0.00     0.016 A 
ATOM     22  C   UNL A   1      34.503  29.437  27.138  1.00  0.00     0.016 A 
ATOM     23  C   UNL A   1      33.722  30.584  27.289  1.00  0.00     0.018 A 
ATOM     24  Br  UNL A   1      34.497  32.159  27.987  1.00  0.00    -0.051 Br
ENDBRANCH  14  18
ENDBRANCH  10  11
ENDBRANCH   8  10
ENDBRANCH   5   6
BRANCH   5  25
ATOM     25  C   UNL A   1      32.774  19.901  24.942  1.00  0.00    -0.014 A 
ATOM     26  C   UNL A   1      32.834  18.766  25.775  1.00  0.00     0.006 A 
ATOM     27  C   UNL A   1      32.586  19.667  23.568  1.00  0.00     0.006 A 
ATOM     28  C   UNL A   1      32.740  17.470  25.255  1.00  0.00     0.000 A 
ATOM     29  C   UNL A   1      32.481  18.370  23.050  1.00  0.00     0.000 A 
ATOM     30  C   UNL A   1      32.568  17.270  23.891  1.00  0.00     0.000 A 
ENDBRANCH   5  25
ENDBRANCH   3   5
ENDBRANCH   2   3
ENDBRANCH   1   2
BRANCH   1  31
ATOM     31  C   UNL A   1      37.677  20.704  24.828  1.00  0.00     0.275 C 
BRANCH  31  32
ATOM     32  O   UNL A   1      38.112  21.555  25.907  1.00  0.00    -0.458 OA
BRANCH  32  33
ATOM     33  C   UNL A   1      39.361  21.321  26.382  1.00  0.00     0.338 C 
ATOM     34  O   UNL A   1      39.938  20.243  26.396  1.00  0.00    -0.246 OA
BRANCH  33  35
ATOM     35  C   UNL A   1      40.034  22.594  26.745  1.00  0.00     0.060 A 
ATOM     36  C   UNL A   1      41.059  22.658  27.693  1.00  0.00     0.016 A 
ATOM     37  C   UNL A   1      39.597  23.768  26.115  1.00  0.00     0.016 A 
ATOM     38  C   UNL A   1      41.633  23.893  28.019  1.00  0.00     0.010 A 
ATOM     39  C   UNL A   1      40.151  25.002  26.458  1.00  0.00     0.010 A 
ATOM     40  C   UNL A   1      41.174  25.072  27.412  1.00  0.00    -0.014 A 
BRANCH  40  41
ATOM     41  C   UNL A   1      41.792  26.380  27.729  1.00  0.00     0.031 A 
ATOM     42  C   UNL A   1      43.173  26.713  27.254  1.00  0.00     0.074 A 
ATOM     43  C   UNL A   1      41.107  27.257  28.485  1.00  0.00     0.049 A 
ATOM     44  N   UNL A   1      43.876  27.800  27.452  1.00  0.00    -0.248 NA
ATOM     45  C   UNL A   1      43.859  25.688  26.456  1.00  0.00     0.031 C 
ATOM     46  C   UNL A   1      39.762  27.036  29.013  1.00  0.00     0.029 A 
ATOM     47  N   UNL A   1      41.451  28.503  28.943  1.00  0.00    -0.354 N 
ATOM     48  C   UNL A   1      45.084  27.594  26.800  1.00  0.00     0.074 A 
ATOM     49  C   UNL A   1      45.033  26.265  26.229  1.00  0.00     0.031 C 
ATOM     50  C   UNL A   1      39.392  28.112  29.724  1.00  0.00     0.029 A 
ATOM     51  C   UNL A   1      40.477  29.090  29.709  1.00  0.00     0.049 A 
ATOM     52  H   UNL A   1      42.313  28.934  28.741  1.00  0.00     0.167 HD
ATOM     53  C   UNL A   1      46.130  28.447  26.682  1.00  0.00     0.037 A 
ATOM     54  C   UNL A   1      40.460  30.286  30.328  1.00  0.00     0.037 A 
ATOM     55  C   UNL A   1      46.171  29.773  27.247  1.00  0.00     0.049 A 
ATOM     56  C   UNL A   1      41.640  31.207  30.192  1.00  0.00     0.074 A 
ATOM     57  C   UNL A   1      47.170  30.727  27.139  1.00  0.00     0.029 A 
ATOM     58  N   UNL A   1      45.171  30.334  28.028  1.00  0.00    -0.354 N 
ATOM     59  N   UNL A   1      42.760  31.024  29.537  1.00  0.00    -0.248 NA
ATOM     60  C   UNL A   1      41.548  32.506  30.872  1.00  0.00     0.031 C 
ATOM     61  C   UNL A   1      46.792  31.847  27.886  1.00  0.00     0.029 A 
ATOM     62  C   UNL A   1      45.537  31.612  28.421  1.00  0.00     0.049 A 
ATOM     63  H   UNL A   1      44.327  29.889  28.268  1.00  0.00     0.167 HD
ATOM     64  C   UNL A   1      43.496  32.188  29.706  1.00  0.00     0.074 A 
ATOM     65  C   UNL A   1      42.689  33.079  30.513  1.00  0.00     0.031 C 
ATOM     66  C   UNL A   1      44.730  32.489  29.231  1.00  0.00     0.037 A 
BRANCH  53  67
ATOM     67  C   UNL A   1      47.325  27.988  25.899  1.00  0.00     0.064 A 
ATOM     68  C   UNL A   1      48.488  27.535  26.541  1.00  0.00     0.173 A 
ATOM     69  C   UNL A   1      47.275  27.908  24.499  1.00  0.00     0.173 A 
ATOM     70  F   UNL A   1      48.586  27.594  27.877  1.00  0.00    -0.203 F 
ATOM     71  C   UNL A   1      49.560  27.030  25.810  1.00  0.00     0.198 A 
ATOM     72  C   UNL A   1      48.340  27.380  23.773  1.00  0.00     0.198 A 
ATOM     73  F   UNL A   1      46.184  28.319  23.837  1.00  0.00    -0.203 F 
ATOM     74  F   UNL A   1      50.669  26.625  26.443  1.00  0.00    -0.200 F 
ATOM     75  C   UNL A   1      49.481  26.944  24.428  1.00  0.00     0.200 A 
ATOM     76  F   UNL A   1      48.256  27.282  22.439  1.00  0.00    -0.200 F 
ATOM     77  F   UNL A   1      50.505  26.437  23.727  1.00  0.00    -0.200 F 
ENDBRANCH  53  67
BRANCH  54  78
ATOM     78  C   UNL A   1      39.255  30.692  31.092  1.00  0.00     0.064 A 
ATOM     79  C   UNL A   1      39.105  30.325  32.436  1.00  0.00     0.173 A 
ATOM     80  C   UNL A   1      38.253  31.481  30.510  1.00  0.00     0.173 A 
ATOM     81  F   UNL A   1      40.031  29.555  33.027  1.00  0.00    -0.203 F 
ATOM     82  C   UNL A   1      37.993  30.729  33.169  1.00  0.00     0.198 A 
ATOM     83  C   UNL A   1      37.152  31.902  31.251  1.00  0.00     0.198 A 
ATOM     84  F   UNL A   1      38.356  31.859  29.227  1.00  0.00    -0.203 F 
ATOM     85  F   UNL A   1      37.860  30.343  34.445  1.00  0.00    -0.200 F 
ATOM     86  C   UNL A   1      37.021  31.522  32.579  1.00  0.00     0.200 A 
ATOM     87  F   UNL A   1      36.221  32.679  30.682  1.00  0.00    -0.200 F 
ATOM     88  F   UNL A   1      35.957  31.921  33.290  1.00  0.00    -0.200 F 
ENDBRANCH  54  78
BRANCH  66  89
ATOM     89  C   UNL A   1      45.282  33.845  29.561  1.00  0.00     0.064 A 
ATOM     90  C   UNL A   1      45.068  34.947  28.721  1.00  0.00     0.173 A 
ATOM     91  C   UNL A   1      45.994  34.054  30.752  1.00  0.00     0.173 A 
ATOM     92  F   UNL A   1      44.404  34.796  27.565  1.00  0.00    -0.203 F 
ATOM     93  C   UNL A   1      45.566  36.205  29.051  1.00  0.00     0.198 A 
ATOM     94  C   UNL A   1      46.468  35.319  31.091  1.00  0.00     0.198 A 
ATOM     95  F   UNL A   1      46.220  33.034  31.593  1.00  0.00    -0.203 F 
ATOM     96  F   UNL A   1      45.384  37.236  28.213  1.00  0.00    -0.200 F 
ATOM     97  C   UNL A   1      46.258  36.392  30.238  1.00  0.00     0.200 A 
ATOM     98  F   UNL A   1      47.127  35.499  32.244  1.00  0.00    -0.200 F 
ATOM     99  F   UNL A   1      46.730  37.605  30.556  1.00  0.00    -0.200 F 
ENDBRANCH  66  89
ENDBRANCH  40  41
ENDBRANCH  33  35
ENDBRANCH  32  33
ENDBRANCH  31  32
ENDBRANCH   1  31
TORSDOF 16
ENDMDL
MODEL 2
REMARK VINA RESULT:     -12.5      4.516      9.917
REMARK SMILES O=C(Cn1nc(-c2ccc(Br)cc2)ccc1=O)N[C@H](C(=O)OCCOC(=O)c1ccc(-c2c3nc(c(-c4c(F)c(F)c(F)c(F)c4F)c4ccc([nH]4)c(-c4c(F)c(F)c(F)c(F)c4F)c4nc(c(-c5c(F)c(F)c(F)c(F)c5F)c5ccc2[nH]5)C=C4)C=C3)cc1)c1ccccc1
REMARK SMILES IDX 23 1 22 2 20 3 21 4 19 5 18 6 1 7 2 8 3 10 4 11 5 12 16 13
REMARK SMILES IDX 6 14 15 15 17 16 14 17 7 18 8 19 13 20 9 21 12 22 10 23
REMARK SMILES IDX 11 24 91 25 92 26 96 27 93 28 95 29 94 30 24 31 25 32 26 33
REMARK SMILES IDX 27 34 28 35 29 36 90 37 30 38 89 39 31 40 32 41 33 42 83 43
REMARK SMILES IDX 34 44 88 45 82 46 84 47 35 48 87 49 81 50 80 51 36 53 68 54
REMARK SMILES IDX 48 55 67 56 49 57 52 58 66 59 85 60 50 61 51 62 65 64 86 65
REMARK SMILES IDX 53 66 37 67 38 68 46 69 39 70 40 71 44 72 47 73 41 74 42 75
REMARK SMILES IDX 45 76 43 77 69 78 70 79 78 80 71 81 72 82 76 83 79 84 73 85
REMARK SMILES IDX 74 86 77 87 75 88 54 89 55 90 63 91 56 92 57 93 61 94 64 95
REMARK SMILES IDX 58 96 59 97 62 98 60 99
REMARK H PARENT 18 9 84 52 52 63
REMARK Flexibility Score: inf
ROOT
ATOM      1  C   UNL A   1      31.402  29.690  25.514  1.00  0.00     0.274 C 
ENDROOT
BRANCH   1   2
ATOM      2  O   UNL A   1      31.714  28.365  25.048  1.00  0.00    -0.460 OA
BRANCH   2   3
ATOM      3  C   UNL A   1      32.478  28.309  23.906  1.00  0.00     0.333 C 
ATOM      4  O   UNL A   1      33.703  28.357  23.932  1.00  0.00    -0.249 OA
BRANCH   3   5
ATOM      5  C   UNL A   1      31.602  27.884  22.698  1.00  0.00     0.223 C 
BRANCH   5   6
ATOM      6  N   UNL A   1      31.713  26.467  22.366  1.00  0.00    -0.337 N 
ATOM      7  O   UNL A   1      33.652  26.680  21.174  1.00  0.00    -0.273 OA
ATOM      8  C   UNL A   1      32.759  25.966  21.621  1.00  0.00     0.242 C 
ATOM      9  H   UNL A   1      31.017  25.847  22.684  1.00  0.00     0.164 HD
BRANCH   8  10
ATOM     10  C   UNL A   1      32.741  24.444  21.474  1.00  0.00     0.248 C 
BRANCH  10  11
ATOM     11  N   UNL A   1      32.899  23.882  22.805  1.00  0.00    -0.220 N 
ATOM     12  N   UNL A   1      34.200  23.751  23.247  1.00  0.00    -0.169 NA
ATOM     13  C   UNL A   1      31.793  23.381  23.472  1.00  0.00     0.267 A 
ATOM     14  C   UNL A   1      34.399  23.050  24.319  1.00  0.00     0.091 A 
ATOM     15  C   UNL A   1      32.077  22.632  24.714  1.00  0.00     0.075 A 
ATOM     16  O   UNL A   1      30.627  23.519  23.114  1.00  0.00    -0.268 OA
ATOM     17  C   UNL A   1      33.328  22.446  25.136  1.00  0.00     0.036 A 
BRANCH  14  18
ATOM     18  C   UNL A   1      35.796  22.815  24.756  1.00  0.00     0.002 A 
ATOM     19  C   UNL A   1      36.343  21.534  24.608  1.00  0.00     0.011 A 
ATOM     20  C   UNL A   1      36.521  23.815  25.415  1.00  0.00     0.011 A 
ATOM     21  C   UNL A   1      37.612  21.253  25.117  1.00  0.00     0.016 A 
ATOM     22  C   UNL A   1      37.791  23.532  25.923  1.00  0.00     0.016 A 
ATOM     23  C   UNL A   1      38.327  22.251  25.778  1.00  0.00     0.018 A 
ATOM     24  Br  UNL A   1      40.014  21.852  26.529  1.00  0.00    -0.051 Br
ENDBRANCH  14  18
ENDBRANCH  10  11
ENDBRANCH   8  10
ENDBRANCH   5   6
BRANCH   5  25
ATOM     25  C   UNL A   1      30.191  28.466  22.543  1.00  0.00    -0.014 A 
ATOM     26  C   UNL A   1      30.036  29.741  21.964  1.00  0.00     0.006 A 
ATOM     27  C   UNL A   1      29.042  27.883  23.106  1.00  0.00     0.006 A 
ATOM     28  C   UNL A   1      28.805  30.406  21.975  1.00  0.00     0.000 A 
ATOM     29  C   UNL A   1      27.808  28.545  23.106  1.00  0.00     0.000 A 
ATOM     30  C   UNL A   1      27.690  29.811  22.551  1.00  0.00     0.000 A 
ENDBRANCH   5  25
ENDBRANCH   3   5
ENDBRANCH   2   3
ENDBRANCH   1   2
BRANCH   1  31
ATOM     31  C   UNL A   1      32.139  30.027  26.819  1.00  0.00     0.275 C 
BRANCH  31  32
ATOM     32  O   UNL A   1      33.503  30.434  26.591  1.00  0.00    -0.458 OA
BRANCH  32  33
ATOM     33  C   UNL A   1      33.943  31.481  27.333  1.00  0.00     0.338 C 
ATOM     34  O   UNL A   1      33.366  32.546  27.492  1.00  0.00    -0.246 OA
BRANCH  33  35
ATOM     35  C   UNL A   1      35.167  31.112  28.089  1.00  0.00     0.060 A 
ATOM     36  C   UNL A   1      36.261  31.975  28.212  1.00  0.00     0.016 A 
ATOM     37  C   UNL A   1      35.216  29.841  28.677  1.00  0.00     0.016 A 
ATOM     38  C   UNL A   1      37.402  31.559  28.909  1.00  0.00     0.010 A 
ATOM     39  C   UNL A   1      36.363  29.417  29.350  1.00  0.00     0.010 A 
ATOM     40  C   UNL A   1      37.464  30.274  29.471  1.00  0.00    -0.014 A 
BRANCH  40  41
ATOM     41  C   UNL A   1      38.655  29.835  30.232  1.00  0.00     0.031 A 
ATOM     42  C   UNL A   1      38.907  30.336  31.622  1.00  0.00     0.074 A 
ATOM     43  C   UNL A   1      39.532  29.002  29.644  1.00  0.00     0.049 A 
ATOM     44  N   UNL A   1      39.905  30.071  32.428  1.00  0.00    -0.248 NA
ATOM     45  C   UNL A   1      37.911  31.261  32.177  1.00  0.00     0.031 C 
ATOM     46  C   UNL A   1      39.397  28.461  28.293  1.00  0.00     0.029 A 
ATOM     47  N   UNL A   1      40.712  28.474  30.104  1.00  0.00    -0.354 N 
ATOM     48  C   UNL A   1      39.657  30.792  33.588  1.00  0.00     0.074 A 
ATOM     49  C   UNL A   1      38.432  31.532  33.369  1.00  0.00     0.031 C 
ATOM     50  C   UNL A   1      40.452  27.673  28.032  1.00  0.00     0.029 A 
ATOM     51  C   UNL A   1      41.340  27.666  29.192  1.00  0.00     0.049 A 
ATOM     52  H   UNL A   1      41.071  28.656  31.003  1.00  0.00     0.167 HD
ATOM     53  C   UNL A   1      40.382  30.817  34.732  1.00  0.00     0.037 A 
ATOM     54  C   UNL A   1      42.502  26.992  29.283  1.00  0.00     0.037 A 
ATOM     55  C   UNL A   1      41.597  30.071  34.946  1.00  0.00     0.049 A 
ATOM     56  C   UNL A   1      43.295  27.048  30.559  1.00  0.00     0.074 A 
ATOM     57  C   UNL A   1      42.375  29.998  36.090  1.00  0.00     0.029 A 
ATOM     58  N   UNL A   1      42.213  29.270  33.996  1.00  0.00    -0.354 N 
ATOM     59  N   UNL A   1      43.030  27.696  31.668  1.00  0.00    -0.248 NA
ATOM     60  C   UNL A   1      44.540  26.271  30.601  1.00  0.00     0.031 C 
ATOM     61  C   UNL A   1      43.481  29.186  35.819  1.00  0.00     0.029 A 
ATOM     62  C   UNL A   1      43.368  28.713  34.523  1.00  0.00     0.049 A 
ATOM     63  H   UNL A   1      41.879  29.120  33.082  1.00  0.00     0.167 HD
ATOM     64  C   UNL A   1      44.061  27.390  32.544  1.00  0.00     0.074 A 
ATOM     65  C   UNL A   1      44.949  26.484  31.844  1.00  0.00     0.031 C 
ATOM     66  C   UNL A   1      44.251  27.819  33.816  1.00  0.00     0.037 A 
BRANCH  53  67
ATOM     67  C   UNL A   1      39.882  31.670  35.861  1.00  0.00     0.064 A 
ATOM     68  C   UNL A   1      40.447  32.926  36.132  1.00  0.00     0.173 A 
ATOM     69  C   UNL A   1      38.768  31.274  36.617  1.00  0.00     0.173 A 
ATOM     70  F   UNL A   1      41.514  33.348  35.439  1.00  0.00    -0.203 F 
ATOM     71  C   UNL A   1      39.922  33.748  37.126  1.00  0.00     0.198 A 
ATOM     72  C   UNL A   1      38.231  32.110  37.594  1.00  0.00     0.198 A 
ATOM     73  F   UNL A   1      38.185  30.088  36.392  1.00  0.00    -0.203 F 
ATOM     74  F   UNL A   1      40.492  34.933  37.382  1.00  0.00    -0.200 F 
ATOM     75  C   UNL A   1      38.809  33.344  37.849  1.00  0.00     0.200 A 
ATOM     76  F   UNL A   1      37.146  31.726  38.280  1.00  0.00    -0.200 F 
ATOM     77  F   UNL A   1      38.292  34.146  38.789  1.00  0.00    -0.200 F 
ENDBRANCH  53  67
BRANCH  54  78
ATOM     78  C   UNL A   1      42.954  26.164  28.137  1.00  0.00     0.064 A 
ATOM     79  C   UNL A   1      43.666  26.742  27.077  1.00  0.00     0.173 A 
ATOM     80  C   UNL A   1      42.717  24.783  28.095  1.00  0.00     0.173 A 
ATOM     81  F   UNL A   1      43.898  28.063  27.068  1.00  0.00    -0.203 F 
ATOM     82  C   UNL A   1      44.121  25.967  26.014  1.00  0.00     0.198 A 
ATOM     83  C   UNL A   1      43.191  24.007  27.042  1.00  0.00     0.198 A 
ATOM     84  F   UNL A   1      42.042  24.187  29.089  1.00  0.00    -0.203 F 
ATOM     85  F   UNL A   1      44.777  26.547  25.000  1.00  0.00    -0.200 F 
ATOM     86  C   UNL A   1      43.890  24.600  26.000  1.00  0.00     0.200 A 
ATOM     87  F   UNL A   1      42.978  22.684  27.038  1.00  0.00    -0.200 F 
ATOM     88  F   UNL A   1      44.340  23.854  24.982  1.00  0.00    -0.200 F 
ENDBRANCH  54  78
BRANCH  66  89
ATOM     89  C   UNL A   1      45.460  27.307  34.542  1.00  0.00     0.064 A 
ATOM     90  C   UNL A   1      46.677  28.003  34.519  1.00  0.00     0.173 A 
ATOM     91  C   UNL A   1      45.388  26.132  35.306  1.00  0.00     0.173 A 
ATOM     92  F   UNL A   1      46.800  29.124  33.793  1.00  0.00    -0.203 F 
ATOM     93  C   UNL A   1      47.785  27.529  35.217  1.00  0.00     0.198 A 
ATOM     94  C   UNL A   1      46.491  25.676  36.024  1.00  0.00     0.198 A 
ATOM     95  F   UNL A   1      44.245  25.433  35.367  1.00  0.00    -0.203 F 
ATOM     96  F   UNL A   1      48.950  28.189  35.148  1.00  0.00    -0.200 F 
ATOM     97  C   UNL A   1      47.689  26.372  35.974  1.00  0.00     0.200 A 
ATOM     98  F   UNL A   1      46.393  24.563  36.764  1.00  0.00    -0.200 F 
ATOM     99  F   UNL A   1      48.756  25.922  36.650  1.00  0.00    -0.200 F 
ENDBRANCH  66  89
ENDBRANCH  40  41
ENDBRANCH  33  35
ENDBRANCH  32  33
ENDBRANCH  31  32
ENDBRANCH   1  31
TORSDOF 16
ENDMDL
MODEL 3
REMARK VINA RESULT:     -12.5      3.933      9.084
REMARK SMILES O=C(Cn1nc(-c2ccc(Br)cc2)ccc1=O)N[C@H](C(=O)OCCOC(=O)c1ccc(-c2c3nc(c(-c4c(F)c(F)c(F)c(F)c4F)c4ccc([nH]4)c(-c4c(F)c(F)c(F)c(F)c4F)c4nc(c(-c5c(F)c(F)c(F)c(F)c5F)c5ccc2[nH]5)C=C4)C=C3)cc1)c1ccccc1
REMARK SMILES IDX 23 1 22 2 20 3 21 4 19 5 18 6 1 7 2 8 3 10 4 11 5 12 16 13
REMARK SMILES IDX 6 14 15 15 17 16 14 17 7 18 8 19 13 20 9 21 12 22 10 23
REMARK SMILES IDX 11 24 91 25 92 26 96 27 93 28 95 29 94 30 24 31 25 32 26 33
REMARK SMILES IDX 27 34 28 35 29 36 90 37 30 38 89 39 31 40 32 41 33 42 83 43
REMARK SMILES IDX 34 44 88 45 82 46 84 47 35 48 87 49 81 50 80 51 36 53 68 54
REMARK SMILES IDX 48 55 67 56 49 57 52 58 66 59 85 60 50 61 51 62 65 64 86 65
REMARK SMILES IDX 53 66 37 67 38 68 46 69 39 70 40 71 44 72 47 73 41 74 42 75
REMARK SMILES IDX 45 76 43 77 69 78 70 79 78 80 71 81 72 82 76 83 79 84 73 85
REMARK SMILES IDX 74 86 77 87 75 88 54 89 55 90 63 91 56 92 57 93 61 94 64 95
REMARK SMILES IDX 58 96 59 97 62 98 60 99
REMARK H PARENT 18 9 84 52 52 63
REMARK Flexibility Score: inf
ROOT
ATOM      1  C   UNL A   1      32.236  29.666  25.777  1.00  0.00     0.274 C 
ENDROOT
BRANCH   1   2
ATOM      2  O   UNL A   1      32.305  28.521  24.909  1.00  0.00    -0.460 OA
BRANCH   2   3
ATOM      3  C   UNL A   1      32.229  28.797  23.563  1.00  0.00     0.333 C 
ATOM      4  O   UNL A   1      33.186  29.216  22.924  1.00  0.00    -0.249 OA
BRANCH   3   5
ATOM      5  C   UNL A   1      30.911  28.225  22.977  1.00  0.00     0.223 C 
BRANCH   5   6
ATOM      6  N   UNL A   1      30.697  26.816  23.287  1.00  0.00    -0.337 N 
ATOM      7  O   UNL A   1      32.150  26.027  21.708  1.00  0.00    -0.273 OA
ATOM      8  C   UNL A   1      31.355  25.806  22.618  1.00  0.00     0.242 C 
ATOM      9  H   UNL A   1      30.059  26.576  23.998  1.00  0.00     0.164 HD
BRANCH   8  10
ATOM     10  C   UNL A   1      31.066  24.409  23.166  1.00  0.00     0.248 C 
BRANCH  10  11
ATOM     11  N   UNL A   1      31.748  24.298  24.444  1.00  0.00    -0.220 N 
ATOM     12  N   UNL A   1      33.061  23.877  24.387  1.00  0.00    -0.169 NA
ATOM     13  C   UNL A   1      31.031  24.462  25.619  1.00  0.00     0.267 A 
ATOM     14  C   UNL A   1      33.631  23.545  25.502  1.00  0.00     0.091 A 
ATOM     15  C   UNL A   1      31.748  24.115  26.864  1.00  0.00     0.075 A 
ATOM     16  O   UNL A   1      29.876  24.871  25.693  1.00  0.00    -0.268 OA
ATOM     17  C   UNL A   1      32.999  23.655  26.832  1.00  0.00     0.036 A 
BRANCH  14  18
ATOM     18  C   UNL A   1      35.008  22.997  25.451  1.00  0.00     0.002 A 
ATOM     19  C   UNL A   1      35.179  21.616  25.292  1.00  0.00     0.011 A 
ATOM     20  C   UNL A   1      36.118  23.819  25.680  1.00  0.00     0.011 A 
ATOM     21  C   UNL A   1      36.457  21.057  25.359  1.00  0.00     0.016 A 
ATOM     22  C   UNL A   1      37.396  23.258  25.746  1.00  0.00     0.016 A 
ATOM     23  C   UNL A   1      37.558  21.880  25.592  1.00  0.00     0.018 A 
ATOM     24  Br  UNL A   1      39.278  21.117  25.753  1.00  0.00    -0.051 Br
ENDBRANCH  14  18
ENDBRANCH  10  11
ENDBRANCH   8  10
ENDBRANCH   5   6
BRANCH   5  25
ATOM     25  C   UNL A   1      29.639  29.083  22.994  1.00  0.00    -0.014 A 
ATOM     26  C   UNL A   1      29.744  30.459  23.276  1.00  0.00     0.006 A 
ATOM     27  C   UNL A   1      28.340  28.550  22.918  1.00  0.00     0.006 A 
ATOM     28  C   UNL A   1      28.611  31.249  23.500  1.00  0.00     0.000 A 
ATOM     29  C   UNL A   1      27.206  29.345  23.131  1.00  0.00     0.000 A 
ATOM     30  C   UNL A   1      27.340  30.692  23.432  1.00  0.00     0.000 A 
ENDBRANCH   5  25
ENDBRANCH   3   5
ENDBRANCH   2   3
ENDBRANCH   1   2
BRANCH   1  31
ATOM     31  C   UNL A   1      32.430  29.281  27.251  1.00  0.00     0.275 C 
BRANCH  31  32
ATOM     32  O   UNL A   1      33.818  29.101  27.595  1.00  0.00    -0.458 OA
BRANCH  32  33
ATOM     33  C   UNL A   1      34.511  30.232  27.881  1.00  0.00     0.338 C 
ATOM     34  O   UNL A   1      34.041  31.353  28.013  1.00  0.00    -0.246 OA
BRANCH  33  35
ATOM     35  C   UNL A   1      35.929  29.916  28.189  1.00  0.00     0.060 A 
ATOM     36  C   UNL A   1      36.954  30.074  27.251  1.00  0.00     0.016 A 
ATOM     37  C   UNL A   1      36.228  29.424  29.468  1.00  0.00     0.016 A 
ATOM     38  C   UNL A   1      38.268  29.729  27.588  1.00  0.00     0.010 A 
ATOM     39  C   UNL A   1      37.533  29.055  29.795  1.00  0.00     0.010 A 
ATOM     40  C   UNL A   1      38.563  29.206  28.858  1.00  0.00    -0.014 A 
BRANCH  40  41
ATOM     41  C   UNL A   1      39.953  28.862  29.234  1.00  0.00     0.031 A 
ATOM     42  C   UNL A   1      40.773  29.790  30.077  1.00  0.00     0.074 A 
ATOM     43  C   UNL A   1      40.485  27.715  28.776  1.00  0.00     0.049 A 
ATOM     44  N   UNL A   1      42.010  29.659  30.487  1.00  0.00    -0.248 NA
ATOM     45  C   UNL A   1      40.121  31.032  30.511  1.00  0.00     0.031 C 
ATOM     46  C   UNL A   1      39.786  26.742  27.939  1.00  0.00     0.029 A 
ATOM     47  N   UNL A   1      41.737  27.179  28.945  1.00  0.00    -0.354 N 
ATOM     48  C   UNL A   1      42.285  30.797  31.232  1.00  0.00     0.074 A 
ATOM     49  C   UNL A   1      41.097  31.624  31.190  1.00  0.00     0.031 C 
ATOM     50  C   UNL A   1      40.617  25.724  27.667  1.00  0.00     0.029 A 
ATOM     51  C   UNL A   1      41.909  25.981  28.301  1.00  0.00     0.049 A 
ATOM     52  H   UNL A   1      42.442  27.612  29.477  1.00  0.00     0.167 HD
ATOM     53  C   UNL A   1      43.422  31.109  31.899  1.00  0.00     0.037 A 
ATOM     54  C   UNL A   1      42.986  25.177  28.232  1.00  0.00     0.037 A 
ATOM     55  C   UNL A   1      44.599  30.276  31.943  1.00  0.00     0.049 A 
ATOM     56  C   UNL A   1      44.241  25.554  28.971  1.00  0.00     0.074 A 
ATOM     57  C   UNL A   1      45.781  30.489  32.632  1.00  0.00     0.029 A 
ATOM     58  N   UNL A   1      44.743  29.072  31.270  1.00  0.00    -0.354 N 
ATOM     59  N   UNL A   1      44.478  26.610  29.710  1.00  0.00    -0.248 NA
ATOM     60  C   UNL A   1      45.372  24.623  28.874  1.00  0.00     0.031 C 
ATOM     61  C   UNL A   1      46.654  29.435  32.345  1.00  0.00     0.029 A 
ATOM     62  C   UNL A   1      46.000  28.541  31.515  1.00  0.00     0.049 A 
ATOM     63  H   UNL A   1      44.055  28.657  30.702  1.00  0.00     0.167 HD
ATOM     64  C   UNL A   1      45.773  26.461  30.184  1.00  0.00     0.074 A 
ATOM     65  C   UNL A   1      46.267  25.204  29.661  1.00  0.00     0.031 C 
ATOM     66  C   UNL A   1      46.486  27.292  30.983  1.00  0.00     0.037 A 
BRANCH  53  67
ATOM     67  C   UNL A   1      43.458  32.405  32.655  1.00  0.00     0.064 A 
ATOM     68  C   UNL A   1      43.826  33.606  32.029  1.00  0.00     0.173 A 
ATOM     69  C   UNL A   1      43.032  32.465  33.991  1.00  0.00     0.173 A 
ATOM     70  F   UNL A   1      44.244  33.600  30.755  1.00  0.00    -0.203 F 
ATOM     71  C   UNL A   1      43.775  34.816  32.715  1.00  0.00     0.198 A 
ATOM     72  C   UNL A   1      42.958  33.682  34.666  1.00  0.00     0.198 A 
ATOM     73  F   UNL A   1      42.661  31.348  34.634  1.00  0.00    -0.203 F 
ATOM     74  F   UNL A   1      44.152  35.947  32.102  1.00  0.00    -0.200 F 
ATOM     75  C   UNL A   1      43.332  34.855  34.028  1.00  0.00     0.200 A 
ATOM     76  F   UNL A   1      42.515  33.720  35.930  1.00  0.00    -0.200 F 
ATOM     77  F   UNL A   1      43.263  36.024  34.679  1.00  0.00    -0.200 F 
ENDBRANCH  53  67
BRANCH  54  78
ATOM     78  C   UNL A   1      42.900  23.908  27.469  1.00  0.00     0.064 A 
ATOM     79  C   UNL A   1      43.211  23.875  26.103  1.00  0.00     0.173 A 
ATOM     80  C   UNL A   1      42.543  22.704  28.091  1.00  0.00     0.173 A 
ATOM     81  F   UNL A   1      43.538  25.007  25.463  1.00  0.00    -0.203 F 
ATOM     82  C   UNL A   1      43.162  22.682  25.386  1.00  0.00     0.198 A 
ATOM     83  C   UNL A   1      42.516  21.509  27.378  1.00  0.00     0.198 A 
ATOM     84  F   UNL A   1      42.240  22.688  29.398  1.00  0.00    -0.203 F 
ATOM     85  F   UNL A   1      43.438  22.681  24.075  1.00  0.00    -0.200 F 
ATOM     86  C   UNL A   1      42.823  21.499  26.025  1.00  0.00     0.200 A 
ATOM     87  F   UNL A   1      42.201  20.366  28.002  1.00  0.00    -0.200 F 
ATOM     88  F   UNL A   1      42.789  20.350  25.337  1.00  0.00    -0.200 F 
ENDBRANCH  54  78
BRANCH  66  89
ATOM     89  C   UNL A   1      47.876  26.866  31.354  1.00  0.00     0.064 A 
ATOM     90  C   UNL A   1      48.114  25.998  32.429  1.00  0.00     0.173 A 
ATOM     91  C   UNL A   1      48.978  27.294  30.598  1.00  0.00     0.173 A 
ATOM     92  F   UNL A   1      47.095  25.571  33.190  1.00  0.00    -0.203 F 
ATOM     93  C   UNL A   1      49.407  25.591  32.748  1.00  0.00     0.198 A 
ATOM     94  C   UNL A   1      50.267  26.864  30.903  1.00  0.00     0.198 A 
ATOM     95  F   UNL A   1      48.804  28.119  29.555  1.00  0.00    -0.203 F 
ATOM     96  F   UNL A   1      49.615  24.793  33.805  1.00  0.00    -0.200 F 
ATOM     97  C   UNL A   1      50.481  26.018  31.981  1.00  0.00     0.200 A 
ATOM     98  F   UNL A   1      51.302  27.269  30.155  1.00  0.00    -0.200 F 
ATOM     99  F   UNL A   1      51.724  25.619  32.286  1.00  0.00    -0.200 F 
ENDBRANCH  66  89
ENDBRANCH  40  41
ENDBRANCH  33  35
ENDBRANCH  32  33
ENDBRANCH  31  32
ENDBRANCH   1  31
TORSDOF 16
ENDMDL
