MODEL 1
REMARK VINA RESULT:     -11.7      0.000      0.000
REMARK SMILES O=C(Cc1cccn1-c1ccccc1F)OCCOC(=O)c1ccc(-c2c3nc(c(-c4c(F)c(F)c(F)c(F)c4F)c4ccc([nH]4)c(-c4c(F)c(F)c(F)c(F)c4F)c4nc(c(-c5c(F)c(F)c(F)c(F)c5F)c5ccc2[nH]5)C=C4)C=C3)cc1
REMARK SMILES IDX 17 1 16 2 2 3 1 4 3 5 4 6 5 7 8 8 6 9 7 10 9 11 10 12 14 13
REMARK SMILES IDX 11 14 13 15 15 16 12 17 18 18 19 19 20 20 21 21 22 22 23 23
REMARK SMILES IDX 84 24 24 25 83 26 25 27 26 28 27 29 77 30 28 31 82 32 76 33
REMARK SMILES IDX 78 34 29 35 81 36 75 37 74 38 30 40 62 41 42 42 61 43 43 44
REMARK SMILES IDX 46 45 60 46 79 47 44 48 45 49 59 51 80 52 47 53 31 54 32 55
REMARK SMILES IDX 40 56 33 57 34 58 38 59 41 60 35 61 36 62 39 63 37 64 63 65
REMARK SMILES IDX 64 66 72 67 65 68 66 69 70 70 73 71 67 72 68 73 71 74 69 75
REMARK SMILES IDX 48 76 49 77 57 78 50 79 51 80 55 81 58 82 52 83 53 84 56 85
REMARK SMILES IDX 54 86
REMARK H PARENT 78 39 46 50
REMARK Flexibility Score: inf
ROOT
ATOM      1  C   UNL A   1      33.536  27.934  26.434  1.00  0.00     0.274 C 
ENDROOT
BRANCH   1   2
ATOM      2  O   UNL A   1      33.921  27.631  25.077  1.00  0.00    -0.462 OA
BRANCH   2   3
ATOM      3  C   UNL A   1      33.125  27.619  23.980  1.00  0.00     0.311 C 
ATOM      4  O   UNL A   1      32.285  28.507  23.828  1.00  0.00    -0.252 OA
BRANCH   3   5
ATOM      5  C   UNL A   1      33.263  26.514  22.948  1.00  0.00     0.177 C 
BRANCH   5   6
ATOM      6  C   UNL A   1      32.505  25.274  23.307  1.00  0.00     0.034 A 
ATOM      7  C   UNL A   1      31.146  25.041  23.154  1.00  0.00     0.024 A 
ATOM      8  N   UNL A   1      33.096  24.097  23.760  1.00  0.00    -0.318 N 
ATOM      9  C   UNL A   1      30.908  23.683  23.424  1.00  0.00     0.020 A 
ATOM     10  C   UNL A   1      32.115  23.121  23.760  1.00  0.00     0.091 A 
BRANCH   8  11
ATOM     11  C   UNL A   1      34.452  23.853  24.116  1.00  0.00     0.081 A 
ATOM     12  C   UNL A   1      35.305  23.228  23.191  1.00  0.00     0.030 A 
ATOM     13  C   UNL A   1      34.942  24.165  25.385  1.00  0.00     0.147 A 
ATOM     14  C   UNL A   1      36.629  22.942  23.536  1.00  0.00     0.002 A 
ATOM     15  C   UNL A   1      36.258  23.858  25.735  1.00  0.00     0.041 A 
ATOM     16  F   UNL A   1      34.153  24.691  26.331  1.00  0.00    -0.205 F 
ATOM     17  C   UNL A   1      37.105  23.250  24.810  1.00  0.00     0.003 A 
ENDBRANCH   8  11
ENDBRANCH   5   6
ENDBRANCH   3   5
ENDBRANCH   2   3
ENDBRANCH   1   2
BRANCH   1  18
ATOM     18  C   UNL A   1      34.246  29.155  26.997  1.00  0.00     0.275 C 
BRANCH  18  19
ATOM     19  O   UNL A   1      35.591  28.862  27.374  1.00  0.00    -0.458 OA
BRANCH  19  20
ATOM     20  C   UNL A   1      36.297  29.952  27.751  1.00  0.00     0.338 C 
ATOM     21  O   UNL A   1      35.970  31.117  27.665  1.00  0.00    -0.246 OA
BRANCH  20  22
ATOM     22  C   UNL A   1      37.621  29.541  28.210  1.00  0.00     0.060 A 
ATOM     23  C   UNL A   1      38.680  29.642  27.302  1.00  0.00     0.016 A 
ATOM     24  C   UNL A   1      37.732  28.842  29.419  1.00  0.00     0.016 A 
ATOM     25  C   UNL A   1      39.839  28.943  27.562  1.00  0.00     0.010 A 
ATOM     26  C   UNL A   1      38.868  28.104  29.654  1.00  0.00     0.010 A 
ATOM     27  C   UNL A   1      39.902  28.146  28.712  1.00  0.00    -0.014 A 
BRANCH  27  28
ATOM     28  C   UNL A   1      41.168  27.483  29.026  1.00  0.00     0.031 A 
ATOM     29  C   UNL A   1      41.151  26.045  28.437  1.00  0.00     0.074 A 
ATOM     30  C   UNL A   1      42.046  28.239  29.765  1.00  0.00     0.049 A 
ATOM     31  N   UNL A   1      41.872  25.016  28.745  1.00  0.00    -0.248 NA
ATOM     32  C   UNL A   1      40.169  25.676  27.367  1.00  0.00     0.031 C 
ATOM     33  C   UNL A   1      41.840  29.660  30.158  1.00  0.00     0.029 A 
ATOM     34  N   UNL A   1      43.275  27.998  30.344  1.00  0.00    -0.354 N 
ATOM     35  C   UNL A   1      41.601  23.988  27.813  1.00  0.00     0.074 A 
ATOM     36  C   UNL A   1      40.479  24.418  27.044  1.00  0.00     0.031 C 
ATOM     37  C   UNL A   1      42.824  30.095  30.981  1.00  0.00     0.029 A 
ATOM     38  C   UNL A   1      43.785  29.031  31.191  1.00  0.00     0.049 A 
ATOM     39  H   UNL A   1      43.772  27.162  30.185  1.00  0.00     0.167 HD
ATOM     40  C   UNL A   1      42.420  22.903  27.668  1.00  0.00     0.037 A 
ATOM     41  C   UNL A   1      44.871  28.989  32.033  1.00  0.00     0.037 A 
ATOM     42  C   UNL A   1      43.441  22.959  28.657  1.00  0.00     0.049 A 
ATOM     43  C   UNL A   1      45.527  27.725  31.686  1.00  0.00     0.074 A 
ATOM     44  C   UNL A   1      43.376  22.761  30.010  1.00  0.00     0.029 A 
ATOM     45  N   UNL A   1      44.559  23.693  28.347  1.00  0.00    -0.354 N 
ATOM     46  N   UNL A   1      46.178  27.515  30.581  1.00  0.00    -0.248 NA
ATOM     47  C   UNL A   1      45.320  26.571  32.567  1.00  0.00     0.031 C 
ATOM     48  C   UNL A   1      44.142  23.832  30.505  1.00  0.00     0.029 A 
ATOM     49  C   UNL A   1      44.900  24.397  29.472  1.00  0.00     0.049 A 
ATOM     50  H   UNL A   1      45.027  23.712  27.481  1.00  0.00     0.167 HD
ATOM     51  C   UNL A   1      46.136  26.147  30.490  1.00  0.00     0.074 A 
ATOM     52  C   UNL A   1      45.920  25.642  31.830  1.00  0.00     0.031 C 
ATOM     53  C   UNL A   1      45.724  25.568  29.333  1.00  0.00     0.037 A 
BRANCH  40  54
ATOM     54  C   UNL A   1      42.573  21.858  26.605  1.00  0.00     0.064 A 
ATOM     55  C   UNL A   1      43.493  21.968  25.557  1.00  0.00     0.173 A 
ATOM     56  C   UNL A   1      42.086  20.554  26.883  1.00  0.00     0.173 A 
ATOM     57  F   UNL A   1      44.017  23.154  25.222  1.00  0.00    -0.203 F 
ATOM     58  C   UNL A   1      43.978  20.831  24.901  1.00  0.00     0.198 A 
ATOM     59  C   UNL A   1      42.608  19.424  26.263  1.00  0.00     0.198 A 
ATOM     60  F   UNL A   1      41.162  20.356  27.837  1.00  0.00    -0.203 F 
ATOM     61  F   UNL A   1      44.910  20.964  23.947  1.00  0.00    -0.200 F 
ATOM     62  C   UNL A   1      43.571  19.561  25.284  1.00  0.00     0.200 A 
ATOM     63  F   UNL A   1      42.231  18.203  26.672  1.00  0.00    -0.200 F 
ATOM     64  F   UNL A   1      44.132  18.475  24.737  1.00  0.00    -0.200 F 
ENDBRANCH  40  54
BRANCH  41  65
ATOM     65  C   UNL A   1      45.485  29.748  33.199  1.00  0.00     0.064 A 
ATOM     66  C   UNL A   1      44.762  29.852  34.429  1.00  0.00     0.173 A 
ATOM     67  C   UNL A   1      46.672  30.489  33.185  1.00  0.00     0.173 A 
ATOM     68  F   UNL A   1      43.717  29.058  34.703  1.00  0.00    -0.203 F 
ATOM     69  C   UNL A   1      45.058  30.772  35.434  1.00  0.00     0.198 A 
ATOM     70  C   UNL A   1      47.015  31.368  34.238  1.00  0.00     0.198 A 
ATOM     71  F   UNL A   1      47.535  30.377  32.169  1.00  0.00    -0.203 F 
ATOM     72  F   UNL A   1      44.230  30.903  36.481  1.00  0.00    -0.200 F 
ATOM     73  C   UNL A   1      46.180  31.552  35.329  1.00  0.00     0.200 A 
ATOM     74  F   UNL A   1      48.161  32.062  34.182  1.00  0.00    -0.200 F 
ATOM     75  F   UNL A   1      46.459  32.458  36.276  1.00  0.00    -0.200 F 
ENDBRANCH  41  65
BRANCH  53  76
ATOM     76  C   UNL A   1      45.903  26.413  28.087  1.00  0.00     0.064 A 
ATOM     77  C   UNL A   1      44.853  26.916  27.298  1.00  0.00     0.173 A 
ATOM     78  C   UNL A   1      47.194  26.812  27.709  1.00  0.00     0.173 A 
ATOM     79  F   UNL A   1      43.589  26.582  27.549  1.00  0.00    -0.203 F 
ATOM     80  C   UNL A   1      45.070  27.770  26.211  1.00  0.00     0.198 A 
ATOM     81  C   UNL A   1      47.417  27.662  26.621  1.00  0.00     0.198 A 
ATOM     82  F   UNL A   1      48.256  26.358  28.390  1.00  0.00    -0.203 F 
ATOM     83  F   UNL A   1      44.032  28.215  25.486  1.00  0.00    -0.200 F 
ATOM     84  C   UNL A   1      46.356  28.142  25.873  1.00  0.00     0.200 A 
ATOM     85  F   UNL A   1      48.670  27.999  26.287  1.00  0.00    -0.200 F 
ATOM     86  F   UNL A   1      46.574  28.940  24.817  1.00  0.00    -0.200 F 
ENDBRANCH  53  76
ENDBRANCH  27  28
ENDBRANCH  20  22
ENDBRANCH  19  20
ENDBRANCH  18  19
ENDBRANCH   1  18
TORSDOF 13
ENDMDL
MODEL 2
REMARK VINA RESULT:     -11.4      3.443      8.112
REMARK SMILES O=C(Cc1cccn1-c1ccccc1F)OCCOC(=O)c1ccc(-c2c3nc(c(-c4c(F)c(F)c(F)c(F)c4F)c4ccc([nH]4)c(-c4c(F)c(F)c(F)c(F)c4F)c4nc(c(-c5c(F)c(F)c(F)c(F)c5F)c5ccc2[nH]5)C=C4)C=C3)cc1
REMARK SMILES IDX 17 1 16 2 2 3 1 4 3 5 4 6 5 7 8 8 6 9 7 10 9 11 10 12 14 13
REMARK SMILES IDX 11 14 13 15 15 16 12 17 18 18 19 19 20 20 21 21 22 22 23 23
REMARK SMILES IDX 84 24 24 25 83 26 25 27 26 28 27 29 77 30 28 31 82 32 76 33
REMARK SMILES IDX 78 34 29 35 81 36 75 37 74 38 30 40 62 41 42 42 61 43 43 44
REMARK SMILES IDX 46 45 60 46 79 47 44 48 45 49 59 51 80 52 47 53 31 54 32 55
REMARK SMILES IDX 40 56 33 57 34 58 38 59 41 60 35 61 36 62 39 63 37 64 63 65
REMARK SMILES IDX 64 66 72 67 65 68 66 69 70 70 73 71 67 72 68 73 71 74 69 75
REMARK SMILES IDX 48 76 49 77 57 78 50 79 51 80 55 81 58 82 52 83 53 84 56 85
REMARK SMILES IDX 54 86
REMARK H PARENT 78 39 46 50
REMARK Flexibility Score: inf
ROOT
ATOM      1  C   UNL A   1      38.768  20.148  25.363  1.00  0.00     0.274 C 
ENDROOT
BRANCH   1   2
ATOM      2  O   UNL A   1      38.724  21.587  25.461  1.00  0.00    -0.462 OA
BRANCH   2   3
ATOM      3  C   UNL A   1      37.639  22.387  25.320  1.00  0.00     0.311 C 
ATOM      4  O   UNL A   1      37.415  23.263  26.157  1.00  0.00    -0.252 OA
BRANCH   3   5
ATOM      5  C   UNL A   1      36.699  22.199  24.143  1.00  0.00     0.177 C 
BRANCH   5   6
ATOM      6  C   UNL A   1      35.348  21.692  24.541  1.00  0.00     0.034 A 
ATOM      7  C   UNL A   1      35.000  20.394  24.882  1.00  0.00     0.024 A 
ATOM      8  N   UNL A   1      34.233  22.503  24.737  1.00  0.00    -0.318 N 
ATOM      9  C   UNL A   1      33.687  20.416  25.383  1.00  0.00     0.020 A 
ATOM     10  C   UNL A   1      33.252  21.717  25.315  1.00  0.00     0.091 A 
BRANCH   8  11
ATOM     11  C   UNL A   1      34.076  23.893  24.475  1.00  0.00     0.081 A 
ATOM     12  C   UNL A   1      34.121  24.805  25.542  1.00  0.00     0.030 A 
ATOM     13  C   UNL A   1      33.820  24.370  23.188  1.00  0.00     0.147 A 
ATOM     14  C   UNL A   1      33.928  26.170  25.311  1.00  0.00     0.002 A 
ATOM     15  C   UNL A   1      33.605  25.731  22.962  1.00  0.00     0.041 A 
ATOM     16  F   UNL A   1      33.691  23.539  22.145  1.00  0.00    -0.205 F 
ATOM     17  C   UNL A   1      33.663  26.633  24.023  1.00  0.00     0.003 A 
ENDBRANCH   8  11
ENDBRANCH   5   6
ENDBRANCH   3   5
ENDBRANCH   2   3
ENDBRANCH   1   2
BRANCH   1  18
ATOM     18  C   UNL A   1      39.906  19.531  26.162  1.00  0.00     0.275 C 
BRANCH  18  19
ATOM     19  O   UNL A   1      41.018  19.195  25.333  1.00  0.00    -0.458 OA
BRANCH  19  20
ATOM     20  C   UNL A   1      42.180  19.062  26.014  1.00  0.00     0.338 C 
ATOM     21  O   UNL A   1      42.699  18.037  26.406  1.00  0.00    -0.246 OA
BRANCH  20  22
ATOM     22  C   UNL A   1      42.717  20.383  26.325  1.00  0.00     0.060 A 
ATOM     23  C   UNL A   1      42.577  20.844  27.638  1.00  0.00     0.016 A 
ATOM     24  C   UNL A   1      43.112  21.219  25.273  1.00  0.00     0.016 A 
ATOM     25  C   UNL A   1      42.735  22.192  27.883  1.00  0.00     0.010 A 
ATOM     26  C   UNL A   1      43.220  22.570  25.507  1.00  0.00     0.010 A 
ATOM     27  C   UNL A   1      43.009  23.044  26.807  1.00  0.00    -0.014 A 
BRANCH  27  28
ATOM     28  C   UNL A   1      43.266  24.457  27.091  1.00  0.00     0.031 A 
ATOM     29  C   UNL A   1      41.914  25.186  27.321  1.00  0.00     0.074 A 
ATOM     30  C   UNL A   1      44.592  24.816  27.067  1.00  0.00     0.049 A 
ATOM     31  N   UNL A   1      41.632  26.447  27.261  1.00  0.00    -0.248 NA
ATOM     32  C   UNL A   1      40.674  24.403  27.634  1.00  0.00     0.031 C 
ATOM     33  C   UNL A   1      45.736  23.881  26.881  1.00  0.00     0.029 A 
ATOM     34  N   UNL A   1      45.269  26.013  27.185  1.00  0.00    -0.354 N 
ATOM     35  C   UNL A   1      40.305  26.630  27.716  1.00  0.00     0.074 A 
ATOM     36  C   UNL A   1      39.735  25.328  27.845  1.00  0.00     0.031 C 
ATOM     37  C   UNL A   1      46.911  24.547  26.786  1.00  0.00     0.029 A 
ATOM     38  C   UNL A   1      46.674  25.969  26.927  1.00  0.00     0.049 A 
ATOM     39  H   UNL A   1      44.809  26.849  27.431  1.00  0.00     0.167 HD
ATOM     40  C   UNL A   1      39.823  27.857  28.075  1.00  0.00     0.037 A 
ATOM     41  C   UNL A   1      47.551  27.019  26.786  1.00  0.00     0.037 A 
ATOM     42  C   UNL A   1      40.809  28.843  27.795  1.00  0.00     0.049 A 
ATOM     43  C   UNL A   1      46.762  28.184  27.197  1.00  0.00     0.074 A 
ATOM     44  C   UNL A   1      41.251  29.339  26.597  1.00  0.00     0.029 A 
ATOM     45  N   UNL A   1      41.752  29.064  28.767  1.00  0.00    -0.354 N 
ATOM     46  N   UNL A   1      46.411  28.439  28.422  1.00  0.00    -0.248 NA
ATOM     47  C   UNL A   1      46.205  29.049  26.151  1.00  0.00     0.031 C 
ATOM     48  C   UNL A   1      42.646  29.342  26.773  1.00  0.00     0.029 A 
ATOM     49  C   UNL A   1      42.959  29.198  28.130  1.00  0.00     0.049 A 
ATOM     50  H   UNL A   1      41.593  29.115  29.736  1.00  0.00     0.167 HD
ATOM     51  C   UNL A   1      45.328  29.258  28.235  1.00  0.00     0.074 A 
ATOM     52  C   UNL A   1      45.461  29.840  26.916  1.00  0.00     0.031 C 
ATOM     53  C   UNL A   1      44.166  28.984  28.883  1.00  0.00     0.037 A 
BRANCH  40  54
ATOM     54  C   UNL A   1      38.627  28.308  28.858  1.00  0.00     0.064 A 
ATOM     55  C   UNL A   1      38.442  27.999  30.209  1.00  0.00     0.173 A 
ATOM     56  C   UNL A   1      37.881  29.405  28.353  1.00  0.00     0.173 A 
ATOM     57  F   UNL A   1      39.107  26.987  30.782  1.00  0.00    -0.203 F 
ATOM     58  C   UNL A   1      37.644  28.804  31.030  1.00  0.00     0.198 A 
ATOM     59  C   UNL A   1      37.130  30.231  29.183  1.00  0.00     0.198 A 
ATOM     60  F   UNL A   1      37.953  29.745  27.056  1.00  0.00    -0.203 F 
ATOM     61  F   UNL A   1      37.541  28.520  32.336  1.00  0.00    -0.200 F 
ATOM     62  C   UNL A   1      37.027  29.941  30.528  1.00  0.00     0.200 A 
ATOM     63  F   UNL A   1      36.572  31.346  28.689  1.00  0.00    -0.200 F 
ATOM     64  F   UNL A   1      36.369  30.773  31.346  1.00  0.00    -0.200 F 
ENDBRANCH  40  54
BRANCH  41  65
ATOM     65  C   UNL A   1      48.949  27.322  26.268  1.00  0.00     0.064 A 
ATOM     66  C   UNL A   1      49.188  27.335  24.858  1.00  0.00     0.173 A 
ATOM     67  C   UNL A   1      50.109  27.485  27.033  1.00  0.00     0.173 A 
ATOM     68  F   UNL A   1      48.185  27.398  23.972  1.00  0.00    -0.203 F 
ATOM     69  C   UNL A   1      50.456  27.273  24.280  1.00  0.00     0.198 A 
ATOM     70  C   UNL A   1      51.394  27.500  26.444  1.00  0.00     0.198 A 
ATOM     71  F   UNL A   1      50.036  27.647  28.359  1.00  0.00    -0.203 F 
ATOM     72  F   UNL A   1      50.576  27.131  22.952  1.00  0.00    -0.200 F 
ATOM     73  C   UNL A   1      51.568  27.334  25.079  1.00  0.00     0.200 A 
ATOM     74  F   UNL A   1      52.480  27.655  27.216  1.00  0.00    -0.200 F 
ATOM     75  F   UNL A   1      52.790  27.250  24.537  1.00  0.00    -0.200 F 
ENDBRANCH  41  65
BRANCH  53  76
ATOM     76  C   UNL A   1      44.312  28.186  30.164  1.00  0.00     0.064 A 
ATOM     77  C   UNL A   1      43.933  26.841  30.322  1.00  0.00     0.173 A 
ATOM     78  C   UNL A   1      44.941  28.775  31.271  1.00  0.00     0.173 A 
ATOM     79  F   UNL A   1      43.304  26.189  29.346  1.00  0.00    -0.203 F 
ATOM     80  C   UNL A   1      44.177  26.123  31.498  1.00  0.00     0.198 A 
ATOM     81  C   UNL A   1      45.183  28.064  32.450  1.00  0.00     0.198 A 
ATOM     82  F   UNL A   1      45.312  30.063  31.217  1.00  0.00    -0.203 F 
ATOM     83  F   UNL A   1      43.786  24.843  31.598  1.00  0.00    -0.200 F 
ATOM     84  C   UNL A   1      44.802  26.738  32.564  1.00  0.00     0.200 A 
ATOM     85  F   UNL A   1      45.771  28.676  33.487  1.00  0.00    -0.200 F 
ATOM     86  F   UNL A   1      45.015  26.064  33.703  1.00  0.00    -0.200 F 
ENDBRANCH  53  76
ENDBRANCH  27  28
ENDBRANCH  20  22
ENDBRANCH  19  20
ENDBRANCH  18  19
ENDBRANCH   1  18
TORSDOF 13
ENDMDL
MODEL 3
REMARK VINA RESULT:     -11.3      4.679      9.384
REMARK SMILES O=C(Cc1cccn1-c1ccccc1F)OCCOC(=O)c1ccc(-c2c3nc(c(-c4c(F)c(F)c(F)c(F)c4F)c4ccc([nH]4)c(-c4c(F)c(F)c(F)c(F)c4F)c4nc(c(-c5c(F)c(F)c(F)c(F)c5F)c5ccc2[nH]5)C=C4)C=C3)cc1
REMARK SMILES IDX 17 1 16 2 2 3 1 4 3 5 4 6 5 7 8 8 6 9 7 10 9 11 10 12 14 13
REMARK SMILES IDX 11 14 13 15 15 16 12 17 18 18 19 19 20 20 21 21 22 22 23 23
REMARK SMILES IDX 84 24 24 25 83 26 25 27 26 28 27 29 77 30 28 31 82 32 76 33
REMARK SMILES IDX 78 34 29 35 81 36 75 37 74 38 30 40 62 41 42 42 61 43 43 44
REMARK SMILES IDX 46 45 60 46 79 47 44 48 45 49 59 51 80 52 47 53 31 54 32 55
REMARK SMILES IDX 40 56 33 57 34 58 38 59 41 60 35 61 36 62 39 63 37 64 63 65
REMARK SMILES IDX 64 66 72 67 65 68 66 69 70 70 73 71 67 72 68 73 71 74 69 75
REMARK SMILES IDX 48 76 49 77 57 78 50 79 51 80 55 81 58 82 52 83 53 84 56 85
REMARK SMILES IDX 54 86
REMARK H PARENT 78 39 46 50
REMARK Flexibility Score: inf
ROOT
ATOM      1  C   UNL A   1      35.791  23.456  25.783  1.00  0.00     0.274 C 
ENDROOT
BRANCH   1   2
ATOM      2  O   UNL A   1      35.360  24.805  25.507  1.00  0.00    -0.462 OA
BRANCH   2   3
ATOM      3  C   UNL A   1      34.160  25.200  25.014  1.00  0.00     0.311 C 
ATOM      4  O   UNL A   1      33.221  24.403  24.988  1.00  0.00    -0.252 OA
BRANCH   3   5
ATOM      5  C   UNL A   1      33.978  26.612  24.488  1.00  0.00     0.177 C 
BRANCH   5   6
ATOM      6  C   UNL A   1      33.525  27.579  25.539  1.00  0.00     0.034 A 
ATOM      7  C   UNL A   1      34.303  28.205  26.501  1.00  0.00     0.024 A 
ATOM      8  N   UNL A   1      32.232  28.086  25.631  1.00  0.00    -0.318 N 
ATOM      9  C   UNL A   1      33.508  29.176  27.133  1.00  0.00     0.020 A 
ATOM     10  C   UNL A   1      32.260  29.108  26.565  1.00  0.00     0.091 A 
BRANCH   8  11
ATOM     11  C   UNL A   1      31.068  27.719  24.899  1.00  0.00     0.081 A 
ATOM     12  C   UNL A   1      30.605  28.561  23.876  1.00  0.00     0.030 A 
ATOM     13  C   UNL A   1      30.340  26.570  25.212  1.00  0.00     0.147 A 
ATOM     14  C   UNL A   1      29.440  28.240  23.172  1.00  0.00     0.002 A 
ATOM     15  C   UNL A   1      29.166  26.262  24.523  1.00  0.00     0.041 A 
ATOM     16  F   UNL A   1      30.693  25.771  26.228  1.00  0.00    -0.205 F 
ATOM     17  C   UNL A   1      28.716  27.094  23.499  1.00  0.00     0.003 A 
ENDBRANCH   8  11
ENDBRANCH   5   6
ENDBRANCH   3   5
ENDBRANCH   2   3
ENDBRANCH   1   2
BRANCH   1  18
ATOM     18  C   UNL A   1      37.303  23.296  25.758  1.00  0.00     0.275 C 
BRANCH  18  19
ATOM     19  O   UNL A   1      37.969  24.467  26.229  1.00  0.00    -0.458 OA
BRANCH  19  20
ATOM     20  C   UNL A   1      39.128  24.208  26.876  1.00  0.00     0.338 C 
ATOM     21  O   UNL A   1      39.664  23.132  27.040  1.00  0.00    -0.246 OA
BRANCH  20  22
ATOM     22  C   UNL A   1      39.637  25.437  27.477  1.00  0.00     0.060 A 
ATOM     23  C   UNL A   1      39.319  25.682  28.816  1.00  0.00     0.016 A 
ATOM     24  C   UNL A   1      40.193  26.418  26.645  1.00  0.00     0.016 A 
ATOM     25  C   UNL A   1      39.462  26.964  29.304  1.00  0.00     0.010 A 
ATOM     26  C   UNL A   1      40.287  27.708  27.116  1.00  0.00     0.010 A 
ATOM     27  C   UNL A   1      39.901  27.970  28.435  1.00  0.00    -0.014 A 
BRANCH  27  28
ATOM     28  C   UNL A   1      40.138  29.305  28.985  1.00  0.00     0.031 A 
ATOM     29  C   UNL A   1      38.781  30.048  29.125  1.00  0.00     0.074 A 
ATOM     30  C   UNL A   1      41.458  29.604  29.222  1.00  0.00     0.049 A 
ATOM     31  N   UNL A   1      38.537  31.314  29.234  1.00  0.00    -0.248 NA
ATOM     32  C   UNL A   1      37.492  29.282  29.113  1.00  0.00     0.031 C 
ATOM     33  C   UNL A   1      42.598  28.660  29.059  1.00  0.00     0.029 A 
ATOM     34  N   UNL A   1      42.131  30.734  29.638  1.00  0.00    -0.354 N 
ATOM     35  C   UNL A   1      37.159  31.480  29.506  1.00  0.00     0.074 A 
ATOM     36  C   UNL A   1      36.550  30.203  29.330  1.00  0.00     0.031 C 
ATOM     37  C   UNL A   1      43.787  29.279  29.254  1.00  0.00     0.029 A 
ATOM     38  C   UNL A   1      43.559  30.669  29.592  1.00  0.00     0.049 A 
ATOM     39  H   UNL A   1      41.656  31.540  29.947  1.00  0.00     0.167 HD
ATOM     40  C   UNL A   1      36.650  32.654  29.986  1.00  0.00     0.037 A 
ATOM     41  C   UNL A   1      44.467  31.687  29.762  1.00  0.00     0.037 A 
ATOM     42  C   UNL A   1      37.687  33.627  30.027  1.00  0.00     0.049 A 
ATOM     43  C   UNL A   1      43.647  32.805  30.236  1.00  0.00     0.074 A 
ATOM     44  C   UNL A   1      38.321  34.289  29.009  1.00  0.00     0.029 A 
ATOM     45  N   UNL A   1      38.471  33.646  31.153  1.00  0.00    -0.354 N 
ATOM     46  N   UNL A   1      43.113  32.875  31.419  1.00  0.00    -0.248 NA
ATOM     47  C   UNL A   1      43.278  33.851  29.276  1.00  0.00     0.031 C 
ATOM     48  C   UNL A   1      39.672  34.201  29.392  1.00  0.00     0.029 A 
ATOM     49  C   UNL A   1      39.765  33.826  30.738  1.00  0.00     0.049 A 
ATOM     50  H   UNL A   1      38.163  33.548  32.083  1.00  0.00     0.167 HD
ATOM     51  C   UNL A   1      42.088  33.761  31.209  1.00  0.00     0.074 A 
ATOM     52  C   UNL A   1      42.438  34.542  30.040  1.00  0.00     0.031 C 
ATOM     53  C   UNL A   1      40.834  33.440  31.619  1.00  0.00     0.037 A 
BRANCH  40  54
ATOM     54  C   UNL A   1      35.356  33.028  30.643  1.00  0.00     0.064 A 
ATOM     55  C   UNL A   1      35.070  32.736  31.982  1.00  0.00     0.173 A 
ATOM     56  C   UNL A   1      34.577  34.049  30.040  1.00  0.00     0.173 A 
ATOM     57  F   UNL A   1      35.755  31.794  32.643  1.00  0.00    -0.203 F 
ATOM     58  C   UNL A   1      34.140  33.494  32.701  1.00  0.00     0.198 A 
ATOM     59  C   UNL A   1      33.691  34.831  30.773  1.00  0.00     0.198 A 
ATOM     60  F   UNL A   1      34.743  34.364  28.745  1.00  0.00    -0.203 F 
ATOM     61  F   UNL A   1      33.938  33.233  34.001  1.00  0.00    -0.200 F 
ATOM     62  C   UNL A   1      33.487  34.566  32.111  1.00  0.00     0.200 A 
ATOM     63  F   UNL A   1      33.097  35.887  30.196  1.00  0.00    -0.200 F 
ATOM     64  F   UNL A   1      32.693  35.362  32.841  1.00  0.00    -0.200 F 
ENDBRANCH  40  54
BRANCH  41  65
ATOM     65  C   UNL A   1      45.935  32.007  29.518  1.00  0.00     0.064 A 
ATOM     66  C   UNL A   1      46.391  32.240  28.183  1.00  0.00     0.173 A 
ATOM     67  C   UNL A   1      46.964  31.987  30.465  1.00  0.00     0.173 A 
ATOM     68  F   UNL A   1      45.540  32.496  27.180  1.00  0.00    -0.203 F 
ATOM     69  C   UNL A   1      47.732  32.217  27.801  1.00  0.00     0.198 A 
ATOM     70  C   UNL A   1      48.326  32.039  30.088  1.00  0.00     0.198 A 
ATOM     71  F   UNL A   1      46.689  31.931  31.773  1.00  0.00    -0.203 F 
ATOM     72  F   UNL A   1      48.054  32.291  26.501  1.00  0.00    -0.200 F 
ATOM     73  C   UNL A   1      48.706  32.093  28.756  1.00  0.00     0.200 A 
ATOM     74  F   UNL A   1      49.281  32.014  31.028  1.00  0.00    -0.200 F 
ATOM     75  F   UNL A   1      49.996  32.042  28.397  1.00  0.00    -0.200 F 
ENDBRANCH  41  65
BRANCH  53  76
ATOM     76  C   UNL A   1      40.762  32.441  32.756  1.00  0.00     0.064 A 
ATOM     77  C   UNL A   1      40.249  31.136  32.650  1.00  0.00     0.173 A 
ATOM     78  C   UNL A   1      41.313  32.778  34.002  1.00  0.00     0.173 A 
ATOM     79  F   UNL A   1      39.677  30.715  31.523  1.00  0.00    -0.203 F 
ATOM     80  C   UNL A   1      40.292  30.221  33.708  1.00  0.00     0.198 A 
ATOM     81  C   UNL A   1      41.355  31.870  35.064  1.00  0.00     0.198 A 
ATOM     82  F   UNL A   1      41.802  34.011  34.200  1.00  0.00    -0.203 F 
ATOM     83  F   UNL A   1      39.779  28.990  33.555  1.00  0.00    -0.200 F 
ATOM     84  C   UNL A   1      40.845  30.590  34.917  1.00  0.00     0.200 A 
ATOM     85  F   UNL A   1      41.875  32.245  36.240  1.00  0.00    -0.200 F 
ATOM     86  F   UNL A   1      40.867  29.728  35.943  1.00  0.00    -0.200 F 
ENDBRANCH  53  76
ENDBRANCH  27  28
ENDBRANCH  20  22
ENDBRANCH  19  20
ENDBRANCH  18  19
ENDBRANCH   1  18
TORSDOF 13
ENDMDL
