MODEL 1
REMARK VINA RESULT:     -12.2      0.000      0.000
REMARK SMILES COc1ccccc1-c1ccc(C(=O)OCCOC(=O)c2ccc(-c3c4nc(c(-c5c(F)c(F)c(F)c(F)c5F)c5ccc([nH]5)c(-c5c(F)c(F)c(F)c(F)c5F)c5nc(c(-c6c(F)c(F)c(F)c(F)c6F)c6ccc3[nH]6)C=C5)C=C4)cc2)c(O)c1
REMARK SMILES IDX 16 1 15 2 13 3 14 4 12 5 9 6 10 7 86 8 11 9 84 10 8 11 3 12
REMARK SMILES IDX 4 13 5 14 7 15 6 16 2 17 1 18 85 19 17 21 18 22 19 23 20 24
REMARK SMILES IDX 21 25 22 26 83 27 23 28 82 29 24 30 25 31 26 32 76 33 27 34
REMARK SMILES IDX 81 35 75 36 77 37 28 38 80 39 74 40 73 41 29 43 61 44 41 45
REMARK SMILES IDX 60 46 42 47 45 48 59 49 78 50 43 51 44 52 58 54 79 55 46 56
REMARK SMILES IDX 30 57 31 58 39 59 32 60 33 61 37 62 40 63 34 64 35 65 38 66
REMARK SMILES IDX 36 67 62 68 63 69 71 70 64 71 65 72 69 73 72 74 66 75 67 76
REMARK SMILES IDX 70 77 68 78 47 79 48 80 56 81 49 82 50 83 54 84 57 85 51 86
REMARK SMILES IDX 52 87 55 88 53 89
REMARK H PARENT 85 20 77 42 45 53
REMARK Flexibility Score: inf
ROOT
ATOM      1  C   UNL A   1      31.477  29.481  24.911  1.00  0.00     0.275 C 
ENDROOT
BRANCH   1   2
ATOM      2  O   UNL A   1      32.827  29.034  24.688  1.00  0.00    -0.458 OA
BRANCH   2   3
ATOM      3  C   UNL A   1      33.045  28.396  23.515  1.00  0.00     0.342 C 
ATOM      4  O   UNL A   1      33.027  28.903  22.400  1.00  0.00    -0.246 OA
BRANCH   3   5
ATOM      5  C   UNL A   1      33.464  26.990  23.713  1.00  0.00     0.101 A 
ATOM      6  C   UNL A   1      34.509  24.431  24.272  1.00  0.00    -0.011 A 
ATOM      7  C   UNL A   1      34.274  25.344  25.307  1.00  0.00     0.010 A 
ATOM      8  C   UNL A   1      34.165  24.796  22.957  1.00  0.00     0.056 A 
ATOM      9  C   UNL A   1      33.792  26.616  25.024  1.00  0.00     0.020 A 
ATOM     10  C   UNL A   1      33.648  26.069  22.679  1.00  0.00     0.130 A 
BRANCH   6  11
ATOM     11  C   UNL A   1      35.251  23.203  24.581  1.00  0.00     0.024 A 
ATOM     12  C   UNL A   1      34.605  21.956  24.696  1.00  0.00     0.126 A 
ATOM     13  C   UNL A   1      35.336  20.784  24.900  1.00  0.00     0.047 A 
ATOM     14  C   UNL A   1      36.727  20.829  24.953  1.00  0.00     0.004 A 
ATOM     15  C   UNL A   1      36.655  23.227  24.655  1.00  0.00     0.012 A 
ATOM     16  C   UNL A   1      37.388  22.050  24.834  1.00  0.00     0.001 A 
BRANCH  12  17
ATOM     17  O   UNL A   1      33.238  21.825  24.660  1.00  0.00    -0.496 OA
ATOM     18  C   UNL A   1      32.816  20.554  25.160  1.00  0.00     0.278 C 
ENDBRANCH  12  17
ENDBRANCH   6  11
BRANCH  10  19
ATOM     19  O   UNL A   1      33.410  26.426  21.382  1.00  0.00    -0.507 OA
ATOM     20  H   UNL A   1      33.859  25.989  20.686  1.00  0.00     0.293 HD
ENDBRANCH  10  19
ENDBRANCH   3   5
ENDBRANCH   2   3
ENDBRANCH   1   2
BRANCH   1  21
ATOM     21  C   UNL A   1      31.463  30.737  25.776  1.00  0.00     0.275 C 
BRANCH  21  22
ATOM     22  O   UNL A   1      32.376  30.586  26.880  1.00  0.00    -0.458 OA
BRANCH  22  23
ATOM     23  C   UNL A   1      33.049  31.702  27.238  1.00  0.00     0.338 C 
ATOM     24  O   UNL A   1      32.649  32.854  27.225  1.00  0.00    -0.246 OA
BRANCH  23  25
ATOM     25  C   UNL A   1      34.408  31.351  27.683  1.00  0.00     0.060 A 
ATOM     26  C   UNL A   1      34.719  30.025  27.965  1.00  0.00     0.016 A 
ATOM     27  C   UNL A   1      35.323  32.358  27.980  1.00  0.00     0.016 A 
ATOM     28  C   UNL A   1      35.889  29.709  28.658  1.00  0.00     0.010 A 
ATOM     29  C   UNL A   1      36.550  32.026  28.568  1.00  0.00     0.010 A 
ATOM     30  C   UNL A   1      36.830  30.705  28.966  1.00  0.00    -0.014 A 
BRANCH  30  31
ATOM     31  C   UNL A   1      38.072  30.390  29.737  1.00  0.00     0.031 A 
ATOM     32  C   UNL A   1      39.129  29.491  29.139  1.00  0.00     0.074 A 
ATOM     33  C   UNL A   1      38.270  30.887  30.976  1.00  0.00     0.049 A 
ATOM     34  N   UNL A   1      40.152  28.909  29.717  1.00  0.00    -0.248 NA
ATOM     35  C   UNL A   1      39.007  29.188  27.703  1.00  0.00     0.031 C 
ATOM     36  C   UNL A   1      37.366  31.793  31.683  1.00  0.00     0.029 A 
ATOM     37  N   UNL A   1      39.301  30.692  31.866  1.00  0.00    -0.354 N 
ATOM     38  C   UNL A   1      40.740  28.112  28.741  1.00  0.00     0.074 A 
ATOM     39  C   UNL A   1      39.972  28.295  27.528  1.00  0.00     0.031 C 
ATOM     40  C   UNL A   1      37.892  32.100  32.878  1.00  0.00     0.029 A 
ATOM     41  C   UNL A   1      39.124  31.341  33.064  1.00  0.00     0.049 A 
ATOM     42  H   UNL A   1      40.091  30.139  31.664  1.00  0.00     0.167 HD
ATOM     43  C   UNL A   1      41.818  27.298  28.849  1.00  0.00     0.037 A 
ATOM     44  C   UNL A   1      39.837  31.297  34.206  1.00  0.00     0.037 A 
ATOM     45  C   UNL A   1      42.641  27.185  30.026  1.00  0.00     0.049 A 
ATOM     46  C   UNL A   1      41.046  30.408  34.292  1.00  0.00     0.074 A 
ATOM     47  C   UNL A   1      43.781  26.419  30.210  1.00  0.00     0.029 A 
ATOM     48  N   UNL A   1      42.429  27.876  31.207  1.00  0.00    -0.354 N 
ATOM     49  N   UNL A   1      41.558  29.618  33.381  1.00  0.00    -0.248 NA
ATOM     50  C   UNL A   1      41.767  30.390  35.575  1.00  0.00     0.031 C 
ATOM     51  C   UNL A   1      44.243  26.627  31.514  1.00  0.00     0.029 A 
ATOM     52  C   UNL A   1      43.413  27.550  32.127  1.00  0.00     0.049 A 
ATOM     53  H   UNL A   1      41.689  28.505  31.370  1.00  0.00     0.167 HD
ATOM     54  C   UNL A   1      42.660  29.017  33.974  1.00  0.00     0.074 A 
ATOM     55  C   UNL A   1      42.759  29.550  35.316  1.00  0.00     0.031 C 
ATOM     56  C   UNL A   1      43.507  28.096  33.455  1.00  0.00     0.037 A 
BRANCH  43  57
ATOM     57  C   UNL A   1      42.167  26.431  27.675  1.00  0.00     0.064 A 
ATOM     58  C   UNL A   1      43.190  26.767  26.778  1.00  0.00     0.173 A 
ATOM     59  C   UNL A   1      41.512  25.202  27.494  1.00  0.00     0.173 A 
ATOM     60  F   UNL A   1      43.841  27.933  26.903  1.00  0.00    -0.203 F 
ATOM     61  C   UNL A   1      43.537  25.911  25.735  1.00  0.00     0.198 A 
ATOM     62  C   UNL A   1      41.877  24.337  26.466  1.00  0.00     0.198 A 
ATOM     63  F   UNL A   1      40.532  24.829  28.331  1.00  0.00    -0.203 F 
ATOM     64  F   UNL A   1      44.499  26.264  24.872  1.00  0.00    -0.200 F 
ATOM     65  C   UNL A   1      42.886  24.693  25.585  1.00  0.00     0.200 A 
ATOM     66  F   UNL A   1      41.257  23.156  26.333  1.00  0.00    -0.200 F 
ATOM     67  F   UNL A   1      43.233  23.865  24.591  1.00  0.00    -0.200 F 
ENDBRANCH  43  57
BRANCH  44  68
ATOM     68  C   UNL A   1      39.393  32.086  35.386  1.00  0.00     0.064 A 
ATOM     69  C   UNL A   1      38.561  31.522  36.362  1.00  0.00     0.173 A 
ATOM     70  C   UNL A   1      39.792  33.420  35.558  1.00  0.00     0.173 A 
ATOM     71  F   UNL A   1      38.130  30.260  36.226  1.00  0.00    -0.203 F 
ATOM     72  C   UNL A   1      38.135  32.266  37.460  1.00  0.00     0.198 A 
ATOM     73  C   UNL A   1      39.392  34.153  36.673  1.00  0.00     0.198 A 
ATOM     74  F   UNL A   1      40.585  34.007  34.651  1.00  0.00    -0.203 F 
ATOM     75  F   UNL A   1      37.303  31.718  38.357  1.00  0.00    -0.200 F 
ATOM     76  C   UNL A   1      38.558  33.578  37.619  1.00  0.00     0.200 A 
ATOM     77  F   UNL A   1      39.815  35.414  36.830  1.00  0.00    -0.200 F 
ATOM     78  F   UNL A   1      38.154  34.289  38.681  1.00  0.00    -0.200 F 
ENDBRANCH  44  68
BRANCH  56  79
ATOM     79  C   UNL A   1      44.635  27.633  34.327  1.00  0.00     0.064 A 
ATOM     80  C   UNL A   1      44.507  26.508  35.154  1.00  0.00     0.173 A 
ATOM     81  C   UNL A   1      45.867  28.303  34.310  1.00  0.00     0.173 A 
ATOM     82  F   UNL A   1      43.342  25.845  35.216  1.00  0.00    -0.203 F 
ATOM     83  C   UNL A   1      45.565  26.084  35.952  1.00  0.00     0.198 A 
ATOM     84  C   UNL A   1      46.931  27.862  35.092  1.00  0.00     0.198 A 
ATOM     85  F   UNL A   1      46.040  29.381  33.532  1.00  0.00    -0.203 F 
ATOM     86  F   UNL A   1      45.408  25.031  36.767  1.00  0.00    -0.200 F 
ATOM     87  C   UNL A   1      46.778  26.757  35.916  1.00  0.00     0.200 A 
ATOM     88  F   UNL A   1      48.105  28.507  35.050  1.00  0.00    -0.200 F 
ATOM     89  F   UNL A   1      47.797  26.345  36.683  1.00  0.00    -0.200 F 
ENDBRANCH  56  79
ENDBRANCH  30  31
ENDBRANCH  23  25
ENDBRANCH  22  23
ENDBRANCH  21  22
ENDBRANCH   1  21
TORSDOF 14
ENDMDL
MODEL 2
REMARK VINA RESULT:     -12.2      4.179      9.835
REMARK SMILES COc1ccccc1-c1ccc(C(=O)OCCOC(=O)c2ccc(-c3c4nc(c(-c5c(F)c(F)c(F)c(F)c5F)c5ccc([nH]5)c(-c5c(F)c(F)c(F)c(F)c5F)c5nc(c(-c6c(F)c(F)c(F)c(F)c6F)c6ccc3[nH]6)C=C5)C=C4)cc2)c(O)c1
REMARK SMILES IDX 16 1 15 2 13 3 14 4 12 5 9 6 10 7 86 8 11 9 84 10 8 11 3 12
REMARK SMILES IDX 4 13 5 14 7 15 6 16 2 17 1 18 85 19 17 21 18 22 19 23 20 24
REMARK SMILES IDX 21 25 22 26 83 27 23 28 82 29 24 30 25 31 26 32 76 33 27 34
REMARK SMILES IDX 81 35 75 36 77 37 28 38 80 39 74 40 73 41 29 43 61 44 41 45
REMARK SMILES IDX 60 46 42 47 45 48 59 49 78 50 43 51 44 52 58 54 79 55 46 56
REMARK SMILES IDX 30 57 31 58 39 59 32 60 33 61 37 62 40 63 34 64 35 65 38 66
REMARK SMILES IDX 36 67 62 68 63 69 71 70 64 71 65 72 69 73 72 74 66 75 67 76
REMARK SMILES IDX 70 77 68 78 47 79 48 80 56 81 49 82 50 83 54 84 57 85 51 86
REMARK SMILES IDX 52 87 55 88 53 89
REMARK H PARENT 85 20 77 42 45 53
REMARK Flexibility Score: inf
ROOT
ATOM      1  C   UNL A   1      35.468  20.662  25.144  1.00  0.00     0.275 C 
ENDROOT
BRANCH   1   2
ATOM      2  O   UNL A   1      35.370  21.803  26.016  1.00  0.00    -0.458 OA
BRANCH   2   3
ATOM      3  C   UNL A   1      34.171  21.979  26.616  1.00  0.00     0.342 C 
ATOM      4  O   UNL A   1      33.635  21.209  27.403  1.00  0.00    -0.246 OA
BRANCH   3   5
ATOM      5  C   UNL A   1      33.595  23.314  26.334  1.00  0.00     0.101 A 
ATOM      6  C   UNL A   1      32.772  25.980  25.930  1.00  0.00    -0.011 A 
ATOM      7  C   UNL A   1      34.040  25.557  25.514  1.00  0.00     0.010 A 
ATOM      8  C   UNL A   1      31.900  25.037  26.505  1.00  0.00     0.056 A 
ATOM      9  C   UNL A   1      34.455  24.252  25.746  1.00  0.00     0.020 A 
ATOM     10  C   UNL A   1      32.310  23.713  26.708  1.00  0.00     0.130 A 
BRANCH   6  11
ATOM     11  C   UNL A   1      32.471  27.416  25.899  1.00  0.00     0.024 A 
ATOM     12  C   UNL A   1      31.762  28.001  24.830  1.00  0.00     0.126 A 
ATOM     13  C   UNL A   1      31.404  29.351  24.858  1.00  0.00     0.047 A 
ATOM     14  C   UNL A   1      31.713  30.132  25.969  1.00  0.00     0.004 A 
ATOM     15  C   UNL A   1      32.788  28.228  27.002  1.00  0.00     0.012 A 
ATOM     16  C   UNL A   1      32.408  29.573  27.040  1.00  0.00     0.001 A 
BRANCH  12  17
ATOM     17  O   UNL A   1      31.423  27.303  23.696  1.00  0.00    -0.496 OA
ATOM     18  C   UNL A   1      30.020  27.375  23.431  1.00  0.00     0.278 C 
ENDBRANCH  12  17
ENDBRANCH   6  11
BRANCH  10  19
ATOM     19  O   UNL A   1      31.474  22.845  27.352  1.00  0.00    -0.507 OA
ATOM     20  H   UNL A   1      31.716  22.492  28.185  1.00  0.00     0.293 HD
ENDBRANCH  10  19
ENDBRANCH   3   5
ENDBRANCH   2   3
ENDBRANCH   1   2
BRANCH   1  21
ATOM     21  C   UNL A   1      36.926  20.256  24.951  1.00  0.00     0.275 C 
BRANCH  21  22
ATOM     22  O   UNL A   1      37.788  21.385  25.191  1.00  0.00    -0.458 OA
BRANCH  22  23
ATOM     23  C   UNL A   1      38.931  21.115  25.861  1.00  0.00     0.338 C 
ATOM     24  O   UNL A   1      39.508  20.046  25.956  1.00  0.00    -0.246 OA
BRANCH  23  25
ATOM     25  C   UNL A   1      39.441  22.339  26.502  1.00  0.00     0.060 A 
ATOM     26  C   UNL A   1      38.924  23.576  26.132  1.00  0.00     0.016 A 
ATOM     27  C   UNL A   1      40.545  22.271  27.347  1.00  0.00     0.016 A 
ATOM     28  C   UNL A   1      39.582  24.751  26.500  1.00  0.00     0.010 A 
ATOM     29  C   UNL A   1      41.134  23.454  27.813  1.00  0.00     0.010 A 
ATOM     30  C   UNL A   1      40.696  24.711  27.355  1.00  0.00    -0.014 A 
BRANCH  30  31
ATOM     31  C   UNL A   1      41.432  25.956  27.732  1.00  0.00     0.031 A 
ATOM     32  C   UNL A   1      40.747  27.023  28.554  1.00  0.00     0.074 A 
ATOM     33  C   UNL A   1      42.708  26.159  27.341  1.00  0.00     0.049 A 
ATOM     34  N   UNL A   1      41.116  28.260  28.787  1.00  0.00    -0.248 NA
ATOM     35  C   UNL A   1      39.467  26.657  29.181  1.00  0.00     0.031 C 
ATOM     36  C   UNL A   1      43.522  25.218  26.573  1.00  0.00     0.029 A 
ATOM     37  N   UNL A   1      43.545  27.234  27.534  1.00  0.00    -0.354 N 
ATOM     38  C   UNL A   1      40.079  28.838  29.511  1.00  0.00     0.074 A 
ATOM     39  C   UNL A   1      39.072  27.814  29.695  1.00  0.00     0.031 C 
ATOM     40  C   UNL A   1      44.744  25.738  26.387  1.00  0.00     0.029 A 
ATOM     41  C   UNL A   1      44.775  27.088  26.939  1.00  0.00     0.049 A 
ATOM     42  H   UNL A   1      43.287  28.033  28.049  1.00  0.00     0.167 HD
ATOM     43  C   UNL A   1      39.974  30.107  29.974  1.00  0.00     0.037 A 
ATOM     44  C   UNL A   1      45.798  27.953  26.803  1.00  0.00     0.037 A 
ATOM     45  C   UNL A   1      41.013  31.100  29.876  1.00  0.00     0.049 A 
ATOM     46  C   UNL A   1      45.670  29.347  27.351  1.00  0.00     0.074 A 
ATOM     47  C   UNL A   1      41.012  32.399  30.359  1.00  0.00     0.029 A 
ATOM     48  N   UNL A   1      42.246  30.897  29.279  1.00  0.00    -0.354 N 
ATOM     49  N   UNL A   1      44.663  29.897  27.983  1.00  0.00    -0.248 NA
ATOM     50  C   UNL A   1      46.815  30.248  27.148  1.00  0.00     0.031 C 
ATOM     51  C   UNL A   1      42.236  32.990  30.029  1.00  0.00     0.029 A 
ATOM     52  C   UNL A   1      43.012  32.048  29.376  1.00  0.00     0.049 A 
ATOM     53  H   UNL A   1      42.536  30.059  28.850  1.00  0.00     0.167 HD
ATOM     54  C   UNL A   1      45.053  31.200  28.260  1.00  0.00     0.074 A 
ATOM     55  C   UNL A   1      46.399  31.354  27.748  1.00  0.00     0.031 C 
ATOM     56  C   UNL A   1      44.353  32.184  28.874  1.00  0.00     0.037 A 
BRANCH  43  57
ATOM     57  C   UNL A   1      38.679  30.521  30.610  1.00  0.00     0.064 A 
ATOM     58  C   UNL A   1      38.511  30.565  32.000  1.00  0.00     0.173 A 
ATOM     59  C   UNL A   1      37.614  30.956  29.805  1.00  0.00     0.173 A 
ATOM     60  F   UNL A   1      39.496  30.152  32.812  1.00  0.00    -0.203 F 
ATOM     61  C   UNL A   1      37.319  31.016  32.563  1.00  0.00     0.198 A 
ATOM     62  C   UNL A   1      36.433  31.430  30.369  1.00  0.00     0.198 A 
ATOM     63  F   UNL A   1      37.728  30.944  28.468  1.00  0.00    -0.203 F 
ATOM     64  F   UNL A   1      37.169  31.023  33.894  1.00  0.00    -0.200 F 
ATOM     65  C   UNL A   1      36.285  31.457  31.748  1.00  0.00     0.200 A 
ATOM     66  F   UNL A   1      35.442  31.869  29.580  1.00  0.00    -0.200 F 
ATOM     67  F   UNL A   1      35.146  31.905  32.292  1.00  0.00    -0.200 F 
ENDBRANCH  43  57
BRANCH  44  68
ATOM     68  C   UNL A   1      47.023  27.540  26.067  1.00  0.00     0.064 A 
ATOM     69  C   UNL A   1      47.108  27.666  24.674  1.00  0.00     0.173 A 
ATOM     70  C   UNL A   1      48.131  27.009  26.744  1.00  0.00     0.173 A 
ATOM     71  F   UNL A   1      46.063  28.141  23.980  1.00  0.00    -0.203 F 
ATOM     72  C   UNL A   1      48.250  27.267  23.985  1.00  0.00     0.198 A 
ATOM     73  C   UNL A   1      49.285  26.641  26.057  1.00  0.00     0.198 A 
ATOM     74  F   UNL A   1      48.100  26.865  28.077  1.00  0.00    -0.203 F 
ATOM     75  F   UNL A   1      48.290  27.357  22.648  1.00  0.00    -0.200 F 
ATOM     76  C   UNL A   1      49.341  26.762  24.677  1.00  0.00     0.200 A 
ATOM     77  F   UNL A   1      50.341  26.168  26.732  1.00  0.00    -0.200 F 
ATOM     78  F   UNL A   1      50.443  26.387  24.014  1.00  0.00    -0.200 F 
ENDBRANCH  44  68
BRANCH  56  79
ATOM     79  C   UNL A   1      45.042  33.503  29.057  1.00  0.00     0.064 A 
ATOM     80  C   UNL A   1      45.837  33.764  30.182  1.00  0.00     0.173 A 
ATOM     81  C   UNL A   1      44.929  34.504  28.081  1.00  0.00     0.173 A 
ATOM     82  F   UNL A   1      45.961  32.843  31.150  1.00  0.00    -0.203 F 
ATOM     83  C   UNL A   1      46.478  34.990  30.335  1.00  0.00     0.198 A 
ATOM     84  C   UNL A   1      45.591  35.721  28.226  1.00  0.00     0.198 A 
ATOM     85  F   UNL A   1      44.185  34.300  26.986  1.00  0.00    -0.203 F 
ATOM     86  F   UNL A   1      47.200  35.234  31.437  1.00  0.00    -0.200 F 
ATOM     87  C   UNL A   1      46.360  35.965  29.355  1.00  0.00     0.200 A 
ATOM     88  F   UNL A   1      45.483  36.658  27.275  1.00  0.00    -0.200 F 
ATOM     89  F   UNL A   1      46.980  37.144  29.502  1.00  0.00    -0.200 F 
ENDBRANCH  56  79
ENDBRANCH  30  31
ENDBRANCH  23  25
ENDBRANCH  22  23
ENDBRANCH  21  22
ENDBRANCH   1  21
TORSDOF 14
ENDMDL
MODEL 3
REMARK VINA RESULT:     -12.2      0.149      1.627
REMARK SMILES COc1ccccc1-c1ccc(C(=O)OCCOC(=O)c2ccc(-c3c4nc(c(-c5c(F)c(F)c(F)c(F)c5F)c5ccc([nH]5)c(-c5c(F)c(F)c(F)c(F)c5F)c5nc(c(-c6c(F)c(F)c(F)c(F)c6F)c6ccc3[nH]6)C=C5)C=C4)cc2)c(O)c1
REMARK SMILES IDX 16 1 15 2 13 3 14 4 12 5 9 6 10 7 86 8 11 9 84 10 8 11 3 12
REMARK SMILES IDX 4 13 5 14 7 15 6 16 2 17 1 18 85 19 17 21 18 22 19 23 20 24
REMARK SMILES IDX 21 25 22 26 83 27 23 28 82 29 24 30 25 31 26 32 76 33 27 34
REMARK SMILES IDX 81 35 75 36 77 37 28 38 80 39 74 40 73 41 29 43 61 44 41 45
REMARK SMILES IDX 60 46 42 47 45 48 59 49 78 50 43 51 44 52 58 54 79 55 46 56
REMARK SMILES IDX 30 57 31 58 39 59 32 60 33 61 37 62 40 63 34 64 35 65 38 66
REMARK SMILES IDX 36 67 62 68 63 69 71 70 64 71 65 72 69 73 72 74 66 75 67 76
REMARK SMILES IDX 70 77 68 78 47 79 48 80 56 81 49 82 50 83 54 84 57 85 51 86
REMARK SMILES IDX 52 87 55 88 53 89
REMARK H PARENT 85 20 77 42 45 53
REMARK Flexibility Score: inf
ROOT
ATOM      1  C   UNL A   1      31.498  29.547  24.819  1.00  0.00     0.275 C 
ENDROOT
BRANCH   1   2
ATOM      2  O   UNL A   1      32.851  29.090  24.634  1.00  0.00    -0.458 OA
BRANCH   2   3
ATOM      3  C   UNL A   1      33.097  28.447  23.470  1.00  0.00     0.342 C 
ATOM      4  O   UNL A   1      33.132  28.955  22.356  1.00  0.00    -0.246 OA
BRANCH   3   5
ATOM      5  C   UNL A   1      33.476  27.032  23.683  1.00  0.00     0.101 A 
ATOM      6  C   UNL A   1      34.448  24.452  24.270  1.00  0.00    -0.011 A 
ATOM      7  C   UNL A   1      34.228  25.378  25.295  1.00  0.00     0.010 A 
ATOM      8  C   UNL A   1      34.126  24.815  22.949  1.00  0.00     0.056 A 
ATOM      9  C   UNL A   1      33.783  26.660  24.999  1.00  0.00     0.020 A 
ATOM     10  C   UNL A   1      33.645  26.099  22.657  1.00  0.00     0.130 A 
BRANCH   6  11
ATOM     11  C   UNL A   1      35.154  23.207  24.594  1.00  0.00     0.024 A 
ATOM     12  C   UNL A   1      34.477  21.974  24.693  1.00  0.00     0.126 A 
ATOM     13  C   UNL A   1      35.176  20.785  24.913  1.00  0.00     0.047 A 
ATOM     14  C   UNL A   1      36.566  20.799  24.998  1.00  0.00     0.004 A 
ATOM     15  C   UNL A   1      36.557  23.198  24.700  1.00  0.00     0.012 A 
ATOM     16  C   UNL A   1      37.257  22.004  24.895  1.00  0.00     0.001 A 
BRANCH  12  17
ATOM     17  O   UNL A   1      33.108  21.875  24.625  1.00  0.00    -0.496 OA
ATOM     18  C   UNL A   1      32.645  20.617  25.123  1.00  0.00     0.278 C 
ENDBRANCH  12  17
ENDBRANCH   6  11
BRANCH  10  19
ATOM     19  O   UNL A   1      33.428  26.452  21.355  1.00  0.00    -0.507 OA
ATOM     20  H   UNL A   1      32.592  26.781  21.091  1.00  0.00     0.293 HD
ENDBRANCH  10  19
ENDBRANCH   3   5
ENDBRANCH   2   3
ENDBRANCH   1   2
BRANCH   1  21
ATOM     21  C   UNL A   1      31.441  30.650  25.872  1.00  0.00     0.275 C 
BRANCH  21  22
ATOM     22  O   UNL A   1      32.488  30.458  26.843  1.00  0.00    -0.458 OA
BRANCH  22  23
ATOM     23  C   UNL A   1      33.130  31.579  27.238  1.00  0.00     0.338 C 
ATOM     24  O   UNL A   1      32.707  32.723  27.243  1.00  0.00    -0.246 OA
BRANCH  23  25
ATOM     25  C   UNL A   1      34.490  31.247  27.698  1.00  0.00     0.060 A 
ATOM     26  C   UNL A   1      34.812  29.927  27.995  1.00  0.00     0.016 A 
ATOM     27  C   UNL A   1      35.392  32.266  27.991  1.00  0.00     0.016 A 
ATOM     28  C   UNL A   1      35.978  29.631  28.701  1.00  0.00     0.010 A 
ATOM     29  C   UNL A   1      36.617  31.953  28.594  1.00  0.00     0.010 A 
ATOM     30  C   UNL A   1      36.907  30.639  29.007  1.00  0.00    -0.014 A 
BRANCH  30  31
ATOM     31  C   UNL A   1      38.145  30.345  29.792  1.00  0.00     0.031 A 
ATOM     32  C   UNL A   1      39.214  29.446  29.214  1.00  0.00     0.074 A 
ATOM     33  C   UNL A   1      38.329  30.859  31.026  1.00  0.00     0.049 A 
ATOM     34  N   UNL A   1      40.237  28.881  29.808  1.00  0.00    -0.248 NA
ATOM     35  C   UNL A   1      39.106  29.124  27.782  1.00  0.00     0.031 C 
ATOM     36  C   UNL A   1      37.412  31.768  31.714  1.00  0.00     0.029 A 
ATOM     37  N   UNL A   1      39.355  30.685  31.926  1.00  0.00    -0.354 N 
ATOM     38  C   UNL A   1      40.839  28.075  28.847  1.00  0.00     0.074 A 
ATOM     39  C   UNL A   1      40.079  28.237  27.626  1.00  0.00     0.031 C 
ATOM     40  C   UNL A   1      37.926  32.095  32.908  1.00  0.00     0.029 A 
ATOM     41  C   UNL A   1      39.163  31.349  33.114  1.00  0.00     0.049 A 
ATOM     42  H   UNL A   1      40.151  30.136  31.738  1.00  0.00     0.167 HD
ATOM     43  C   UNL A   1      41.923  27.272  28.975  1.00  0.00     0.037 A 
ATOM     44  C   UNL A   1      39.868  31.326  34.262  1.00  0.00     0.037 A 
ATOM     45  C   UNL A   1      42.738  27.182  30.159  1.00  0.00     0.049 A 
ATOM     46  C   UNL A   1      41.083  30.448  34.370  1.00  0.00     0.074 A 
ATOM     47  C   UNL A   1      43.882  26.428  30.363  1.00  0.00     0.029 A 
ATOM     48  N   UNL A   1      42.511  27.887  31.330  1.00  0.00    -0.354 N 
ATOM     49  N   UNL A   1      41.608  29.650  33.474  1.00  0.00    -0.248 NA
ATOM     50  C   UNL A   1      41.794  30.453  35.658  1.00  0.00     0.031 C 
ATOM     51  C   UNL A   1      44.333  26.657  31.667  1.00  0.00     0.029 A 
ATOM     52  C   UNL A   1      43.491  27.582  32.262  1.00  0.00     0.049 A 
ATOM     53  H   UNL A   1      41.765  28.512  31.478  1.00  0.00     0.167 HD
ATOM     54  C   UNL A   1      42.711  29.067  34.082  1.00  0.00     0.074 A 
ATOM     55  C   UNL A   1      42.795  29.618  35.418  1.00  0.00     0.031 C 
ATOM     56  C   UNL A   1      43.570  28.146  33.582  1.00  0.00     0.037 A 
BRANCH  43  57
ATOM     57  C   UNL A   1      42.289  26.393  27.815  1.00  0.00     0.064 A 
ATOM     58  C   UNL A   1      41.636  25.179  27.564  1.00  0.00     0.173 A 
ATOM     59  C   UNL A   1      43.263  26.817  26.897  1.00  0.00     0.173 A 
ATOM     60  F   UNL A   1      40.704  24.725  28.416  1.00  0.00    -0.203 F 
ATOM     61  C   UNL A   1      41.952  24.415  26.443  1.00  0.00     0.198 A 
ATOM     62  C   UNL A   1      43.559  26.065  25.764  1.00  0.00     0.198 A 
ATOM     63  F   UNL A   1      43.910  27.977  27.086  1.00  0.00    -0.203 F 
ATOM     64  F   UNL A   1      41.336  23.243  26.237  1.00  0.00    -0.200 F 
ATOM     65  C   UNL A   1      42.906  24.862  25.539  1.00  0.00     0.200 A 
ATOM     66  F   UNL A   1      44.471  26.507  24.886  1.00  0.00    -0.200 F 
ATOM     67  F   UNL A   1      43.197  24.133  24.453  1.00  0.00    -0.200 F 
ENDBRANCH  43  57
BRANCH  44  68
ATOM     68  C   UNL A   1      39.408  32.127  35.428  1.00  0.00     0.064 A 
ATOM     69  C   UNL A   1      38.564  31.573  36.399  1.00  0.00     0.173 A 
ATOM     70  C   UNL A   1      39.803  33.463  35.591  1.00  0.00     0.173 A 
ATOM     71  F   UNL A   1      38.136  30.308  36.271  1.00  0.00    -0.203 F 
ATOM     72  C   UNL A   1      38.124  32.327  37.484  1.00  0.00     0.198 A 
ATOM     73  C   UNL A   1      39.388  34.207  36.693  1.00  0.00     0.198 A 
ATOM     74  F   UNL A   1      40.607  34.042  34.688  1.00  0.00    -0.203 F 
ATOM     75  F   UNL A   1      37.281  31.788  38.376  1.00  0.00    -0.200 F 
ATOM     76  C   UNL A   1      38.543  33.642  37.634  1.00  0.00     0.200 A 
ATOM     77  F   UNL A   1      39.808  35.471  36.841  1.00  0.00    -0.200 F 
ATOM     78  F   UNL A   1      38.125  34.364  38.683  1.00  0.00    -0.200 F 
ENDBRANCH  44  68
BRANCH  56  79
ATOM     79  C   UNL A   1      44.694  27.704  34.469  1.00  0.00     0.064 A 
ATOM     80  C   UNL A   1      45.914  28.396  34.506  1.00  0.00     0.173 A 
ATOM     81  C   UNL A   1      44.538  26.596  35.315  1.00  0.00     0.173 A 
ATOM     82  F   UNL A   1      46.116  29.451  33.702  1.00  0.00    -0.203 F 
ATOM     83  C   UNL A   1      46.946  27.979  35.341  1.00  0.00     0.198 A 
ATOM     84  C   UNL A   1      45.564  26.197  36.166  1.00  0.00     0.198 A 
ATOM     85  F   UNL A   1      43.389  25.907  35.320  1.00  0.00    -0.203 F 
ATOM     86  F   UNL A   1      48.118  28.629  35.330  1.00  0.00    -0.200 F 
ATOM     87  C   UNL A   1      46.769  26.885  36.175  1.00  0.00     0.200 A 
ATOM     88  F   UNL A   1      45.389  25.145  36.978  1.00  0.00    -0.200 F 
ATOM     89  F   UNL A   1      47.763  26.487  36.981  1.00  0.00    -0.200 F 
ENDBRANCH  56  79
ENDBRANCH  30  31
ENDBRANCH  23  25
ENDBRANCH  22  23
ENDBRANCH  21  22
ENDBRANCH   1  21
TORSDOF 14
ENDMDL
