MODEL 1
REMARK VINA RESULT:     -13.2      0.000      0.000
REMARK SMILES CC[NH2+][C@@]1(C(=O)OCCOC(=O)c2ccc(-c3c4nc(c(-c5c(F)c(F)c(F)c(F)c5F)c5ccc([nH]5)c(-c5c(F)c(F)c(F)c(F)c5F)c5nc(c(-c6c(F)c(F)c(F)c(F)c6F)c6ccc3[nH]6)C=C5)C=C4)cc2)CC[C@@H](n2cnc3ccccc32)C1
REMARK SMILES IDX 8 1 7 2 5 3 6 4 4 5 76 6 88 7 77 8 78 9 3 10 2 13 1 14 79 15
REMARK SMILES IDX 80 16 87 17 81 18 82 19 86 20 83 21 85 22 84 23 9 24 10 25
REMARK SMILES IDX 11 26 12 27 13 28 14 29 75 30 15 31 74 32 16 33 17 34 18 35
REMARK SMILES IDX 68 36 19 37 73 38 67 39 69 40 20 41 72 42 66 43 65 44 21 46
REMARK SMILES IDX 53 47 33 48 52 49 34 50 37 51 51 52 70 53 35 54 36 55 50 57
REMARK SMILES IDX 71 58 38 59 22 60 23 61 31 62 24 63 25 64 29 65 32 66 26 67
REMARK SMILES IDX 27 68 30 69 28 70 54 71 55 72 63 73 56 74 57 75 61 76 64 77
REMARK SMILES IDX 58 78 59 79 62 80 60 81 39 82 40 83 48 84 41 85 42 86 46 87
REMARK SMILES IDX 49 88 43 89 44 90 47 91 45 92
REMARK H PARENT 3 11 3 12 69 45 37 56
REMARK Flexibility Score: inf
ROOT
ATOM      1  C   UNL A   1      31.305  31.951  26.501  1.00  0.00     0.274 C 
ENDROOT
BRANCH   1   2
ATOM      2  O   UNL A   1      31.993  30.874  27.170  1.00  0.00    -0.457 OA
BRANCH   2   3
ATOM      3  C   UNL A   1      32.920  30.116  26.502  1.00  0.00     0.368 C 
ATOM      4  O   UNL A   1      34.107  30.258  26.787  1.00  0.00    -0.245 OA
BRANCH   3   5
ATOM      5  C   UNL A   1      32.091  29.002  25.249  1.00  0.00     0.196 C 
ATOM      6  C   UNL A   1      31.725  27.752  26.424  1.00  0.00     0.083 C 
ATOM      7  C   UNL A   1      33.686  28.071  24.962  1.00  0.00     0.106 C 
ATOM      8  C   UNL A   1      32.475  26.443  26.059  1.00  0.00     0.033 C 
ATOM      9  C   UNL A   1      33.239  26.660  24.738  1.00  0.00     0.096 C 
BRANCH   5  10
ATOM     10  N   UNL A   1      30.825  29.704  23.694  1.00  0.00    -0.332 N 
ATOM     11  H   UNL A   1      30.534  30.611  24.055  1.00  0.00     0.347 HD
ATOM     12  H   UNL A   1      31.454  29.379  22.959  1.00  0.00     0.347 HD
BRANCH  10  13
ATOM     13  C   UNL A   1      29.511  29.226  22.905  1.00  0.00     0.257 C 
ATOM     14  C   UNL A   1      28.978  27.852  23.338  1.00  0.00     0.071 C 
ENDBRANCH  10  13
ENDBRANCH   5  10
BRANCH   9  15
ATOM     15  N   UNL A   1      32.452  26.748  23.510  1.00  0.00    -0.327 N 
ATOM     16  C   UNL A   1      33.077  27.122  22.324  1.00  0.00     0.200 A 
ATOM     17  C   UNL A   1      31.760  25.547  23.257  1.00  0.00     0.068 A 
ATOM     18  N   UNL A   1      33.653  26.108  21.695  1.00  0.00    -0.237 NA
ATOM     19  C   UNL A   1      33.129  24.996  22.301  1.00  0.00     0.088 A 
ATOM     20  C   UNL A   1      30.822  24.344  24.286  1.00  0.00     0.028 A 
ATOM     21  C   UNL A   1      33.707  23.300  22.401  1.00  0.00     0.030 A 
ATOM     22  C   UNL A   1      31.407  22.611  24.395  1.00  0.00     0.002 A 
ATOM     23  C   UNL A   1      32.921  22.118  23.485  1.00  0.00     0.002 A 
ENDBRANCH   9  15
ENDBRANCH   3   5
ENDBRANCH   2   3
ENDBRANCH   1   2
BRANCH   1  24
ATOM     24  C   UNL A   1      32.099  33.256  26.695  1.00  0.00     0.275 C 
BRANCH  24  25
ATOM     25  O   UNL A   1      32.228  33.646  28.090  1.00  0.00    -0.458 OA
BRANCH  25  26
ATOM     26  C   UNL A   1      33.287  34.458  28.380  1.00  0.00     0.338 C 
ATOM     27  O   UNL A   1      33.237  35.663  28.576  1.00  0.00    -0.246 OA
BRANCH  26  28
ATOM     28  C   UNL A   1      34.546  33.701  28.635  1.00  0.00     0.060 A 
ATOM     29  C   UNL A   1      34.373  32.476  29.233  1.00  0.00     0.016 A 
ATOM     30  C   UNL A   1      35.836  34.205  28.607  1.00  0.00     0.016 A 
ATOM     31  C   UNL A   1      35.369  31.767  29.883  1.00  0.00     0.010 A 
ATOM     32  C   UNL A   1      36.904  33.439  29.155  1.00  0.00     0.010 A 
ATOM     33  C   UNL A   1      36.676  32.213  29.819  1.00  0.00    -0.014 A 
BRANCH  33  34
ATOM     34  C   UNL A   1      37.724  31.395  30.502  1.00  0.00     0.031 A 
ATOM     35  C   UNL A   1      37.966  31.556  31.976  1.00  0.00     0.074 A 
ATOM     36  C   UNL A   1      38.378  30.410  29.843  1.00  0.00     0.049 A 
ATOM     37  N   UNL A   1      38.926  31.070  32.720  1.00  0.00    -0.248 NA
ATOM     38  C   UNL A   1      36.980  32.360  32.713  1.00  0.00     0.031 C 
ATOM     39  C   UNL A   1      38.129  30.004  28.458  1.00  0.00     0.029 A 
ATOM     40  N   UNL A   1      39.379  29.558  30.253  1.00  0.00    -0.354 N 
ATOM     41  C   UNL A   1      38.694  31.552  34.003  1.00  0.00     0.074 A 
ATOM     42  C   UNL A   1      37.496  32.363  33.935  1.00  0.00     0.031 C 
ATOM     43  C   UNL A   1      38.945  28.989  28.137  1.00  0.00     0.029 A 
ATOM     44  C   UNL A   1      39.847  28.734  29.254  1.00  0.00     0.049 A 
ATOM     45  H   UNL A   1      39.727  29.539  31.174  1.00  0.00     0.167 HD
ATOM     46  C   UNL A   1      39.428  31.349  35.125  1.00  0.00     0.037 A 
ATOM     47  C   UNL A   1      40.920  27.917  29.215  1.00  0.00     0.037 A 
ATOM     48  C   UNL A   1      40.612  30.528  35.181  1.00  0.00     0.049 A 
ATOM     49  C   UNL A   1      41.808  27.829  30.431  1.00  0.00     0.074 A 
ATOM     50  C   UNL A   1      41.461  30.309  36.252  1.00  0.00     0.029 A 
ATOM     51  N   UNL A   1      41.113  29.788  34.119  1.00  0.00    -0.354 N 
ATOM     52  N   UNL A   1      41.654  28.374  31.613  1.00  0.00    -0.248 NA
ATOM     53  C   UNL A   1      43.034  27.027  30.300  1.00  0.00     0.031 C 
ATOM     54  C   UNL A   1      42.512  29.494  35.819  1.00  0.00     0.029 A 
ATOM     55  C   UNL A   1      42.275  29.135  34.502  1.00  0.00     0.049 A 
ATOM     56  H   UNL A   1      40.703  29.734  33.226  1.00  0.00     0.167 HD
ATOM     57  C   UNL A   1      42.739  27.956  32.373  1.00  0.00     0.074 A 
ATOM     58  C   UNL A   1      43.534  27.094  31.525  1.00  0.00     0.031 C 
ATOM     59  C   UNL A   1      43.051  28.262  33.657  1.00  0.00     0.037 A 
BRANCH  46  60
ATOM     60  C   UNL A   1      39.019  32.099  36.360  1.00  0.00     0.064 A 
ATOM     61  C   UNL A   1      38.117  31.573  37.296  1.00  0.00     0.173 A 
ATOM     62  C   UNL A   1      39.546  33.377  36.608  1.00  0.00     0.173 A 
ATOM     63  F   UNL A   1      37.570  30.363  37.101  1.00  0.00    -0.203 F 
ATOM     64  C   UNL A   1      37.727  32.314  38.409  1.00  0.00     0.198 A 
ATOM     65  C   UNL A   1      39.184  34.099  37.741  1.00  0.00     0.198 A 
ATOM     66  F   UNL A   1      40.418  33.928  35.749  1.00  0.00    -0.203 F 
ATOM     67  F   UNL A   1      36.810  31.820  39.253  1.00  0.00    -0.200 F 
ATOM     68  C   UNL A   1      38.264  33.573  38.634  1.00  0.00     0.200 A 
ATOM     69  F   UNL A   1      39.718  35.308  37.962  1.00  0.00    -0.200 F 
ATOM     70  F   UNL A   1      37.887  34.284  39.705  1.00  0.00    -0.200 F 
ENDBRANCH  46  60
BRANCH  47  71
ATOM     71  C   UNL A   1      41.282  27.185  27.965  1.00  0.00     0.064 A 
ATOM     72  C   UNL A   1      40.897  25.850  27.765  1.00  0.00     0.173 A 
ATOM     73  C   UNL A   1      42.087  27.775  26.977  1.00  0.00     0.173 A 
ATOM     74  F   UNL A   1      40.156  25.221  28.690  1.00  0.00    -0.203 F 
ATOM     75  C   UNL A   1      41.331  25.129  26.652  1.00  0.00     0.198 A 
ATOM     76  C   UNL A   1      42.483  27.068  25.843  1.00  0.00     0.198 A 
ATOM     77  F   UNL A   1      42.501  29.044  27.114  1.00  0.00    -0.203 F 
ATOM     78  F   UNL A   1      41.014  23.833  26.531  1.00  0.00    -0.200 F 
ATOM     79  C   UNL A   1      42.118  25.740  25.689  1.00  0.00     0.200 A 
ATOM     80  F   UNL A   1      43.233  27.669  24.910  1.00  0.00    -0.200 F 
ATOM     81  F   UNL A   1      42.542  25.045  24.624  1.00  0.00    -0.200 F 
ENDBRANCH  47  71
BRANCH  59  82
ATOM     82  C   UNL A   1      44.270  27.611  34.251  1.00  0.00     0.064 A 
ATOM     83  C   UNL A   1      45.524  28.238  34.254  1.00  0.00     0.173 A 
ATOM     84  C   UNL A   1      44.167  26.350  34.861  1.00  0.00     0.173 A 
ATOM     85  F   UNL A   1      45.683  29.437  33.673  1.00  0.00    -0.203 F 
ATOM     86  C   UNL A   1      46.636  27.614  34.817  1.00  0.00     0.198 A 
ATOM     87  C   UNL A   1      45.271  25.749  35.459  1.00  0.00     0.198 A 
ATOM     88  F   UNL A   1      42.990  25.708  34.894  1.00  0.00    -0.203 F 
ATOM     89  F   UNL A   1      47.837  28.205  34.755  1.00  0.00    -0.200 F 
ATOM     90  C   UNL A   1      46.507  26.375  35.427  1.00  0.00     0.200 A 
ATOM     91  F   UNL A   1      45.137  24.562  36.067  1.00  0.00    -0.200 F 
ATOM     92  F   UNL A   1      47.575  25.782  35.978  1.00  0.00    -0.200 F 
ENDBRANCH  59  82
ENDBRANCH  33  34
ENDBRANCH  26  28
ENDBRANCH  25  26
ENDBRANCH  24  25
ENDBRANCH   1  24
TORSDOF 14
ENDMDL
MODEL 2
REMARK VINA RESULT:     -12.9      5.200     10.788
REMARK SMILES CC[NH2+][C@@]1(C(=O)OCCOC(=O)c2ccc(-c3c4nc(c(-c5c(F)c(F)c(F)c(F)c5F)c5ccc([nH]5)c(-c5c(F)c(F)c(F)c(F)c5F)c5nc(c(-c6c(F)c(F)c(F)c(F)c6F)c6ccc3[nH]6)C=C5)C=C4)cc2)CC[C@@H](n2cnc3ccccc32)C1
REMARK SMILES IDX 8 1 7 2 5 3 6 4 4 5 76 6 88 7 77 8 78 9 3 10 2 13 1 14 79 15
REMARK SMILES IDX 80 16 87 17 81 18 82 19 86 20 83 21 85 22 84 23 9 24 10 25
REMARK SMILES IDX 11 26 12 27 13 28 14 29 75 30 15 31 74 32 16 33 17 34 18 35
REMARK SMILES IDX 68 36 19 37 73 38 67 39 69 40 20 41 72 42 66 43 65 44 21 46
REMARK SMILES IDX 53 47 33 48 52 49 34 50 37 51 51 52 70 53 35 54 36 55 50 57
REMARK SMILES IDX 71 58 38 59 22 60 23 61 31 62 24 63 25 64 29 65 32 66 26 67
REMARK SMILES IDX 27 68 30 69 28 70 54 71 55 72 63 73 56 74 57 75 61 76 64 77
REMARK SMILES IDX 58 78 59 79 62 80 60 81 39 82 40 83 48 84 41 85 42 86 46 87
REMARK SMILES IDX 49 88 43 89 44 90 47 91 45 92
REMARK H PARENT 3 11 3 12 69 45 37 56
REMARK Flexibility Score: inf
ROOT
ATOM      1  C   UNL A   1      38.240  20.043  25.004  1.00  0.00     0.274 C 
ENDROOT
BRANCH   1   2
ATOM      2  O   UNL A   1      37.652  20.978  25.932  1.00  0.00    -0.457 OA
BRANCH   2   3
ATOM      3  C   UNL A   1      37.146  22.173  25.493  1.00  0.00     0.368 C 
ATOM      4  O   UNL A   1      37.915  23.124  25.368  1.00  0.00    -0.245 OA
BRANCH   3   5
ATOM      5  C   UNL A   1      35.305  22.044  25.189  1.00  0.00     0.196 C 
ATOM      6  C   UNL A   1      35.352  23.044  23.748  1.00  0.00     0.083 C 
ATOM      7  C   UNL A   1      34.999  23.637  26.116  1.00  0.00     0.106 C 
ATOM      8  C   UNL A   1      34.522  24.337  23.971  1.00  0.00     0.033 C 
ATOM      9  C   UNL A   1      33.872  24.275  25.367  1.00  0.00     0.096 C 
BRANCH   5  10
ATOM     10  N   UNL A   1      34.178  20.266  25.473  1.00  0.00    -0.332 N 
ATOM     11  H   UNL A   1      34.894  19.547  25.377  1.00  0.00     0.347 HD
ATOM     12  H   UNL A   1      33.641  20.662  26.245  1.00  0.00     0.347 HD
BRANCH  10  13
ATOM     13  C   UNL A   1      32.895  19.540  24.836  1.00  0.00     0.257 C 
ATOM     14  C   UNL A   1      32.424  20.143  23.504  1.00  0.00     0.071 C 
ENDBRANCH  10  13
ENDBRANCH   5  10
BRANCH   9  15
ATOM     15  N   UNL A   1      32.768  23.335  25.557  1.00  0.00    -0.327 N 
ATOM     16  C   UNL A   1      32.297  23.086  26.842  1.00  0.00     0.200 A 
ATOM     17  C   UNL A   1      31.657  23.683  24.763  1.00  0.00     0.068 A 
ATOM     18  N   UNL A   1      31.402  23.974  27.251  1.00  0.00    -0.237 NA
ATOM     19  C   UNL A   1      31.035  24.633  26.106  1.00  0.00     0.088 A 
ATOM     20  C   UNL A   1      31.424  24.279  23.039  1.00  0.00     0.028 A 
ATOM     21  C   UNL A   1      30.279  26.238  25.835  1.00  0.00     0.030 A 
ATOM     22  C   UNL A   1      30.656  25.918  22.753  1.00  0.00     0.002 A 
ATOM     23  C   UNL A   1      30.147  26.931  24.194  1.00  0.00     0.002 A 
ENDBRANCH   9  15
ENDBRANCH   3   5
ENDBRANCH   2   3
ENDBRANCH   1   2
BRANCH   1  24
ATOM     24  C   UNL A   1      39.257  19.160  25.750  1.00  0.00     0.275 C 
BRANCH  24  25
ATOM     25  O   UNL A   1      40.631  19.391  25.333  1.00  0.00    -0.458 OA
BRANCH  25  26
ATOM     26  C   UNL A   1      41.539  19.531  26.343  1.00  0.00     0.338 C 
ATOM     27  O   UNL A   1      42.342  18.687  26.710  1.00  0.00    -0.246 OA
BRANCH  26  28
ATOM     28  C   UNL A   1      41.609  20.923  26.871  1.00  0.00     0.060 A 
ATOM     29  C   UNL A   1      41.268  21.902  25.969  1.00  0.00     0.016 A 
ATOM     30  C   UNL A   1      42.239  21.339  28.032  1.00  0.00     0.016 A 
ATOM     31  C   UNL A   1      41.592  23.242  26.096  1.00  0.00     0.010 A 
ATOM     32  C   UNL A   1      42.472  22.726  28.251  1.00  0.00     0.010 A 
ATOM     33  C   UNL A   1      42.165  23.696  27.270  1.00  0.00    -0.014 A 
BRANCH  33  34
ATOM     34  C   UNL A   1      42.462  25.156  27.380  1.00  0.00     0.031 A 
ATOM     35  C   UNL A   1      43.715  25.720  26.772  1.00  0.00     0.074 A 
ATOM     36  C   UNL A   1      41.557  26.014  27.906  1.00  0.00     0.049 A 
ATOM     37  N   UNL A   1      44.237  26.914  26.896  1.00  0.00    -0.248 NA
ATOM     38  C   UNL A   1      44.474  24.819  25.892  1.00  0.00     0.031 C 
ATOM     39  C   UNL A   1      40.216  25.652  28.374  1.00  0.00     0.029 A 
ATOM     40  N   UNL A   1      41.619  27.372  28.125  1.00  0.00    -0.354 N 
ATOM     41  C   UNL A   1      45.412  26.894  26.154  1.00  0.00     0.074 A 
ATOM     42  C   UNL A   1      45.521  25.570  25.578  1.00  0.00     0.031 C 
ATOM     43  C   UNL A   1      39.587  26.751  28.817  1.00  0.00     0.029 A 
ATOM     44  C   UNL A   1      40.508  27.879  28.763  1.00  0.00     0.049 A 
ATOM     45  H   UNL A   1      42.384  27.928  27.851  1.00  0.00     0.167 HD
ATOM     46  C   UNL A   1      46.320  27.886  25.989  1.00  0.00     0.037 A 
ATOM     47  C   UNL A   1      40.281  29.094  29.305  1.00  0.00     0.037 A 
ATOM     48  C   UNL A   1      46.193  29.205  26.558  1.00  0.00     0.049 A 
ATOM     49  C   UNL A   1      41.373  30.132  29.241  1.00  0.00     0.074 A 
ATOM     50  C   UNL A   1      47.087  30.260  26.503  1.00  0.00     0.029 A 
ATOM     51  N   UNL A   1      45.098  29.651  27.285  1.00  0.00    -0.354 N 
ATOM     52  N   UNL A   1      42.536  30.078  28.636  1.00  0.00    -0.248 NA
ATOM     53  C   UNL A   1      41.131  31.395  29.954  1.00  0.00     0.031 C 
ATOM     54  C   UNL A   1      46.565  31.318  27.254  1.00  0.00     0.029 A 
ATOM     55  C   UNL A   1      45.307  30.955  27.707  1.00  0.00     0.049 A 
ATOM     56  H   UNL A   1      44.290  29.119  27.472  1.00  0.00     0.167 HD
ATOM     57  C   UNL A   1      43.146  31.305  28.867  1.00  0.00     0.074 A 
ATOM     58  C   UNL A   1      42.216  32.091  29.649  1.00  0.00     0.031 C 
ATOM     59  C   UNL A   1      44.368  31.738  28.469  1.00  0.00     0.037 A 
BRANCH  46  60
ATOM     60  C   UNL A   1      47.576  27.552  25.235  1.00  0.00     0.064 A 
ATOM     61  C   UNL A   1      47.691  27.731  23.849  1.00  0.00     0.173 A 
ATOM     62  C   UNL A   1      48.688  27.039  25.923  1.00  0.00     0.173 A 
ATOM     63  F   UNL A   1      46.655  28.203  23.140  1.00  0.00    -0.203 F 
ATOM     64  C   UNL A   1      48.856  27.370  23.175  1.00  0.00     0.198 A 
ATOM     65  C   UNL A   1      49.863  26.716  25.252  1.00  0.00     0.198 A 
ATOM     66  F   UNL A   1      48.636  26.852  27.251  1.00  0.00    -0.203 F 
ATOM     67  F   UNL A   1      48.920  27.484  21.841  1.00  0.00    -0.200 F 
ATOM     68  C   UNL A   1      49.943  26.868  23.877  1.00  0.00     0.200 A 
ATOM     69  F   UNL A   1      50.916  26.246  25.936  1.00  0.00    -0.200 F 
ATOM     70  F   UNL A   1      51.061  26.521  23.227  1.00  0.00    -0.200 F 
ENDBRANCH  46  60
BRANCH  47  71
ATOM     71  C   UNL A   1      39.012  29.382  30.038  1.00  0.00     0.064 A 
ATOM     72  C   UNL A   1      37.944  30.045  29.414  1.00  0.00     0.173 A 
ATOM     73  C   UNL A   1      38.868  29.073  31.401  1.00  0.00     0.173 A 
ATOM     74  F   UNL A   1      38.038  30.396  28.123  1.00  0.00    -0.203 F 
ATOM     75  C   UNL A   1      36.805  30.417  30.128  1.00  0.00     0.198 A 
ATOM     76  C   UNL A   1      37.711  29.406  32.103  1.00  0.00     0.198 A 
ATOM     77  F   UNL A   1      39.858  28.453  32.060  1.00  0.00    -0.203 F 
ATOM     78  F   UNL A   1      35.839  31.121  29.524  1.00  0.00    -0.200 F 
ATOM     79  C   UNL A   1      36.687  30.091  31.470  1.00  0.00     0.200 A 
ATOM     80  F   UNL A   1      37.598  29.077  33.397  1.00  0.00    -0.200 F 
ATOM     81  F   UNL A   1      35.596  30.456  32.159  1.00  0.00    -0.200 F 
ENDBRANCH  47  71
BRANCH  59  82
ATOM     82  C   UNL A   1      44.750  33.152  28.815  1.00  0.00     0.064 A 
ATOM     83  C   UNL A   1      44.411  34.238  27.995  1.00  0.00     0.173 A 
ATOM     84  C   UNL A   1      45.434  33.423  30.011  1.00  0.00     0.173 A 
ATOM     85  F   UNL A   1      43.770  34.036  26.834  1.00  0.00    -0.203 F 
ATOM     86  C   UNL A   1      44.772  35.538  28.343  1.00  0.00     0.198 A 
ATOM     87  C   UNL A   1      45.756  34.727  30.376  1.00  0.00     0.198 A 
ATOM     88  F   UNL A   1      45.776  32.424  30.837  1.00  0.00    -0.203 F 
ATOM     89  F   UNL A   1      44.492  36.555  27.515  1.00  0.00    -0.200 F 
ATOM     90  C   UNL A   1      45.435  35.783  29.536  1.00  0.00     0.200 A 
ATOM     91  F   UNL A   1      46.377  34.962  31.540  1.00  0.00    -0.200 F 
ATOM     92  F   UNL A   1      45.770  37.036  29.875  1.00  0.00    -0.200 F 
ENDBRANCH  59  82
ENDBRANCH  33  34
ENDBRANCH  26  28
ENDBRANCH  25  26
ENDBRANCH  24  25
ENDBRANCH   1  24
TORSDOF 14
ENDMDL
MODEL 3
REMARK VINA RESULT:     -12.9      5.183     10.736
REMARK SMILES CC[NH2+][C@@]1(C(=O)OCCOC(=O)c2ccc(-c3c4nc(c(-c5c(F)c(F)c(F)c(F)c5F)c5ccc([nH]5)c(-c5c(F)c(F)c(F)c(F)c5F)c5nc(c(-c6c(F)c(F)c(F)c(F)c6F)c6ccc3[nH]6)C=C5)C=C4)cc2)CC[C@@H](n2cnc3ccccc32)C1
REMARK SMILES IDX 8 1 7 2 5 3 6 4 4 5 76 6 88 7 77 8 78 9 3 10 2 13 1 14 79 15
REMARK SMILES IDX 80 16 87 17 81 18 82 19 86 20 83 21 85 22 84 23 9 24 10 25
REMARK SMILES IDX 11 26 12 27 13 28 14 29 75 30 15 31 74 32 16 33 17 34 18 35
REMARK SMILES IDX 68 36 19 37 73 38 67 39 69 40 20 41 72 42 66 43 65 44 21 46
REMARK SMILES IDX 53 47 33 48 52 49 34 50 37 51 51 52 70 53 35 54 36 55 50 57
REMARK SMILES IDX 71 58 38 59 22 60 23 61 31 62 24 63 25 64 29 65 32 66 26 67
REMARK SMILES IDX 27 68 30 69 28 70 54 71 55 72 63 73 56 74 57 75 61 76 64 77
REMARK SMILES IDX 58 78 59 79 62 80 60 81 39 82 40 83 48 84 41 85 42 86 46 87
REMARK SMILES IDX 49 88 43 89 44 90 47 91 45 92
REMARK H PARENT 3 11 3 12 69 45 37 56
REMARK Flexibility Score: inf
ROOT
ATOM      1  C   UNL A   1      37.732  19.622  24.970  1.00  0.00     0.274 C 
ENDROOT
BRANCH   1   2
ATOM      2  O   UNL A   1      37.906  21.031  24.712  1.00  0.00    -0.457 OA
BRANCH   2   3
ATOM      3  C   UNL A   1      37.240  21.965  25.462  1.00  0.00     0.368 C 
ATOM      4  O   UNL A   1      37.896  22.706  26.192  1.00  0.00    -0.245 OA
BRANCH   3   5
ATOM      5  C   UNL A   1      35.395  21.860  25.171  1.00  0.00     0.196 C 
ATOM      6  C   UNL A   1      35.431  22.940  23.789  1.00  0.00     0.083 C 
ATOM      7  C   UNL A   1      35.107  23.399  26.191  1.00  0.00     0.106 C 
ATOM      8  C   UNL A   1      34.609  24.221  24.094  1.00  0.00     0.033 C 
ATOM      9  C   UNL A   1      33.973  24.082  25.491  1.00  0.00     0.096 C 
BRANCH   5  10
ATOM     10  N   UNL A   1      34.265  20.073  25.368  1.00  0.00    -0.332 N 
ATOM     11  H   UNL A   1      34.998  19.364  25.396  1.00  0.00     0.347 HD
ATOM     12  H   UNL A   1      33.623  20.485  26.045  1.00  0.00     0.347 HD
BRANCH  10  13
ATOM     13  C   UNL A   1      33.090  19.301  24.591  1.00  0.00     0.257 C 
ATOM     14  C   UNL A   1      32.385  20.140  23.516  1.00  0.00     0.071 C 
ENDBRANCH  10  13
ENDBRANCH   5  10
BRANCH   9  15
ATOM     15  N   UNL A   1      32.869  23.137  25.641  1.00  0.00    -0.327 N 
ATOM     16  C   UNL A   1      32.394  22.836  26.914  1.00  0.00     0.200 A 
ATOM     17  C   UNL A   1      31.759  23.518  24.860  1.00  0.00     0.068 A 
ATOM     18  N   UNL A   1      31.500  23.707  27.357  1.00  0.00    -0.237 NA
ATOM     19  C   UNL A   1      31.136  24.413  26.240  1.00  0.00     0.088 A 
ATOM     20  C   UNL A   1      31.530  24.185  23.161  1.00  0.00     0.028 A 
ATOM     21  C   UNL A   1      30.383  26.029  26.034  1.00  0.00     0.030 A 
ATOM     22  C   UNL A   1      30.764  25.836  22.942  1.00  0.00     0.002 A 
ATOM     23  C   UNL A   1      30.254  26.790  24.423  1.00  0.00     0.002 A 
ENDBRANCH   9  15
ENDBRANCH   3   5
ENDBRANCH   2   3
ENDBRANCH   1   2
BRANCH   1  24
ATOM     24  C   UNL A   1      38.932  19.105  25.784  1.00  0.00     0.275 C 
BRANCH  24  25
ATOM     25  O   UNL A   1      40.211  19.594  25.293  1.00  0.00    -0.458 OA
BRANCH  25  26
ATOM     26  C   UNL A   1      41.211  19.665  26.221  1.00  0.00     0.338 C 
ATOM     27  O   UNL A   1      42.021  18.786  26.473  1.00  0.00    -0.246 OA
BRANCH  26  28
ATOM     28  C   UNL A   1      41.366  21.028  26.804  1.00  0.00     0.060 A 
ATOM     29  C   UNL A   1      40.969  22.057  25.985  1.00  0.00     0.016 A 
ATOM     30  C   UNL A   1      42.112  21.372  27.919  1.00  0.00     0.016 A 
ATOM     31  C   UNL A   1      41.339  23.382  26.143  1.00  0.00     0.010 A 
ATOM     32  C   UNL A   1      42.401  22.742  28.179  1.00  0.00     0.010 A 
ATOM     33  C   UNL A   1      42.030  23.765  27.278  1.00  0.00    -0.014 A 
BRANCH  33  34
ATOM     34  C   UNL A   1      42.375  25.211  27.427  1.00  0.00     0.031 A 
ATOM     35  C   UNL A   1      43.652  25.747  26.846  1.00  0.00     0.074 A 
ATOM     36  C   UNL A   1      41.493  26.085  27.965  1.00  0.00     0.049 A 
ATOM     37  N   UNL A   1      44.212  26.919  27.004  1.00  0.00    -0.248 NA
ATOM     38  C   UNL A   1      44.390  24.843  25.951  1.00  0.00     0.031 C 
ATOM     39  C   UNL A   1      40.136  25.758  28.411  1.00  0.00     0.029 A 
ATOM     40  N   UNL A   1      41.597  27.435  28.219  1.00  0.00    -0.354 N 
ATOM     41  C   UNL A   1      45.393  26.878  26.274  1.00  0.00     0.074 A 
ATOM     42  C   UNL A   1      45.464  25.566  25.666  1.00  0.00     0.031 C 
ATOM     43  C   UNL A   1      39.539  26.866  28.875  1.00  0.00     0.029 A 
ATOM     44  C   UNL A   1      40.498  27.963  28.859  1.00  0.00     0.049 A 
ATOM     45  H   UNL A   1      42.384  27.971  27.967  1.00  0.00     0.167 HD
ATOM     46  C   UNL A   1      46.336  27.843  26.143  1.00  0.00     0.037 A 
ATOM     47  C   UNL A   1      40.306  29.172  29.428  1.00  0.00     0.037 A 
ATOM     48  C   UNL A   1      46.247  29.151  26.743  1.00  0.00     0.049 A 
ATOM     49  C   UNL A   1      41.433  30.174  29.401  1.00  0.00     0.074 A 
ATOM     50  C   UNL A   1      47.176  30.177  26.723  1.00  0.00     0.029 A 
ATOM     51  N   UNL A   1      45.159  29.615  27.470  1.00  0.00    -0.354 N 
ATOM     52  N   UNL A   1      42.599  30.095  28.806  1.00  0.00    -0.248 NA
ATOM     53  C   UNL A   1      41.225  31.426  30.143  1.00  0.00     0.031 C 
ATOM     54  C   UNL A   1      46.682  31.232  27.496  1.00  0.00     0.029 A 
ATOM     55  C   UNL A   1      45.408  30.901  27.927  1.00  0.00     0.049 A 
ATOM     56  H   UNL A   1      44.333  29.107  27.636  1.00  0.00     0.167 HD
ATOM     57  C   UNL A   1      43.247  31.295  29.073  1.00  0.00     0.074 A 
ATOM     58  C   UNL A   1      42.336  32.092  29.866  1.00  0.00     0.031 C 
ATOM     59  C   UNL A   1      44.487  31.697  28.699  1.00  0.00     0.037 A 
BRANCH  46  60
ATOM     60  C   UNL A   1      47.588  27.486  25.393  1.00  0.00     0.064 A 
ATOM     61  C   UNL A   1      48.730  26.982  26.034  1.00  0.00     0.173 A 
ATOM     62  C   UNL A   1      47.641  27.654  24.000  1.00  0.00     0.173 A 
ATOM     63  F   UNL A   1      48.741  26.815  27.365  1.00  0.00    -0.203 F 
ATOM     64  C   UNL A   1      49.889  26.700  25.313  1.00  0.00     0.198 A 
ATOM     65  C   UNL A   1      48.787  27.336  23.279  1.00  0.00     0.198 A 
ATOM     66  F   UNL A   1      46.576  28.128  23.335  1.00  0.00    -0.203 F 
ATOM     67  F   UNL A   1      50.991  26.286  25.955  1.00  0.00    -0.200 F 
ATOM     68  C   UNL A   1      49.915  26.872  23.937  1.00  0.00     0.200 A 
ATOM     69  F   UNL A   1      48.803  27.488  21.947  1.00  0.00    -0.200 F 
ATOM     70  F   UNL A   1      51.032  26.602  23.247  1.00  0.00    -0.200 F 
ENDBRANCH  46  60
BRANCH  47  71
ATOM     71  C   UNL A   1      39.040  29.484  30.156  1.00  0.00     0.064 A 
ATOM     72  C   UNL A   1      37.986  30.165  29.527  1.00  0.00     0.173 A 
ATOM     73  C   UNL A   1      38.884  29.180  31.519  1.00  0.00     0.173 A 
ATOM     74  F   UNL A   1      38.091  30.513  28.235  1.00  0.00    -0.203 F 
ATOM     75  C   UNL A   1      36.852  30.560  30.236  1.00  0.00     0.198 A 
ATOM     76  C   UNL A   1      37.731  29.534  32.216  1.00  0.00     0.198 A 
ATOM     77  F   UNL A   1      39.860  28.542  32.183  1.00  0.00    -0.203 F 
ATOM     78  F   UNL A   1      35.900  31.280  29.627  1.00  0.00    -0.200 F 
ATOM     79  C   UNL A   1      36.722  30.238  31.578  1.00  0.00     0.200 A 
ATOM     80  F   UNL A   1      37.606  29.209  33.509  1.00  0.00    -0.200 F 
ATOM     81  F   UNL A   1      35.635  30.624  32.261  1.00  0.00    -0.200 F 
ENDBRANCH  47  71
BRANCH  59  82
ATOM     82  C   UNL A   1      44.912  33.088  29.084  1.00  0.00     0.064 A 
ATOM     83  C   UNL A   1      45.633  33.350  30.258  1.00  0.00     0.173 A 
ATOM     84  C   UNL A   1      44.623  34.171  28.237  1.00  0.00     0.173 A 
ATOM     85  F   UNL A   1      45.924  32.356  31.110  1.00  0.00    -0.203 F 
ATOM     86  C   UNL A   1      46.019  34.648  30.586  1.00  0.00     0.198 A 
ATOM     87  C   UNL A   1      45.048  35.459  28.548  1.00  0.00     0.198 A 
ATOM     88  F   UNL A   1      43.944  33.977  27.098  1.00  0.00    -0.203 F 
ATOM     89  F   UNL A   1      46.654  34.884  31.743  1.00  0.00    -0.200 F 
ATOM     90  C   UNL A   1      45.735  35.700  29.728  1.00  0.00     0.200 A 
ATOM     91  F   UNL A   1      44.790  36.469  27.705  1.00  0.00    -0.200 F 
ATOM     92  F   UNL A   1      46.119  36.945  30.040  1.00  0.00    -0.200 F 
ENDBRANCH  59  82
ENDBRANCH  33  34
ENDBRANCH  26  28
ENDBRANCH  25  26
ENDBRANCH  24  25
ENDBRANCH   1  24
TORSDOF 14
ENDMDL
