MODEL 1
REMARK VINA RESULT:     -13.0      0.000      0.000
REMARK SMILES COc1ccc(C)cc1S(=O)(=O)N(CC(=O)OCCOC(=O)c1ccc(-c2c3nc(c(-c4c(F)c(F)c(F)c(F)c4F)c4ccc([nH]4)c(-c4c(F)c(F)c(F)c(F)c4F)c4nc(c(-c5c(F)c(F)c(F)c(F)c5F)c5ccc2[nH]5)C=C4)C=C3)cc1)c1ccc(C)cc1
REMARK SMILES IDX 18 1 17 2 15 3 16 4 14 5 13 6 10 7 11 8 12 9 9 10 3 11 4 12
REMARK SMILES IDX 5 13 8 14 6 15 7 16 2 17 1 18 86 19 87 20 92 21 88 22 91 23
REMARK SMILES IDX 89 24 90 25 19 26 20 27 21 28 22 29 23 30 24 31 85 32 25 33
REMARK SMILES IDX 84 34 26 35 27 36 28 37 78 38 29 39 83 40 77 41 79 42 30 43
REMARK SMILES IDX 82 44 76 45 75 46 31 48 63 49 43 50 62 51 44 52 47 53 61 54
REMARK SMILES IDX 80 55 45 56 46 57 60 59 81 60 48 61 32 62 33 63 41 64 34 65
REMARK SMILES IDX 35 66 39 67 42 68 36 69 37 70 40 71 38 72 64 73 65 74 73 75
REMARK SMILES IDX 66 76 67 77 71 78 74 79 68 80 69 81 72 82 70 83 49 84 50 85
REMARK SMILES IDX 58 86 51 87 52 88 56 89 59 90 53 91 54 92 57 93 55 94
REMARK H PARENT 79 47 47 58
REMARK Flexibility Score: inf
ROOT
ATOM      1  C   UNL A   1      32.901  30.400  26.603  1.00  0.00     0.274 C 
ENDROOT
BRANCH   1   2
ATOM      2  O   UNL A   1      31.798  29.726  27.306  1.00  0.00    -0.461 OA
BRANCH   2   3
ATOM      3  C   UNL A   1      31.798  28.380  27.141  1.00  0.00     0.326 C 
ATOM      4  O   UNL A   1      31.117  27.682  27.835  1.00  0.00    -0.250 OA
BRANCH   3   5
ATOM      5  C   UNL A   1      32.609  27.762  26.038  1.00  0.00     0.258 C 
BRANCH   5   6
ATOM      6  N   UNL A   1      31.759  27.046  24.998  1.00  0.00    -0.255 N 
BRANCH   6   7
ATOM      7  S   UNL A   1      32.679  25.867  24.111  1.00  0.00     0.268 S 
ATOM      8  O   UNL A   1      33.703  26.652  23.436  1.00  0.00    -0.201 OA
ATOM      9  O   UNL A   1      31.796  25.029  23.328  1.00  0.00    -0.201 OA
BRANCH   7  10
ATOM     10  C   UNL A   1      33.578  24.763  25.233  1.00  0.00     0.130 A 
ATOM     11  C   UNL A   1      32.974  23.926  26.187  1.00  0.00     0.139 A 
ATOM     12  C   UNL A   1      33.804  23.068  26.941  1.00  0.00     0.048 A 
ATOM     13  C   UNL A   1      35.173  22.952  26.690  1.00  0.00     0.007 A 
ATOM     14  C   UNL A   1      34.969  24.637  24.992  1.00  0.00     0.029 A 
ATOM     15  C   UNL A   1      35.765  23.720  25.696  1.00  0.00    -0.049 A 
ATOM     16  C   UNL A   1      37.218  23.551  25.362  1.00  0.00     0.044 C 
BRANCH  11  17
ATOM     17  O   UNL A   1      31.616  23.944  26.350  1.00  0.00    -0.495 OA
ATOM     18  C   UNL A   1      30.901  22.752  25.988  1.00  0.00     0.278 C 
ENDBRANCH  11  17
ENDBRANCH   7  10
ENDBRANCH   6   7
BRANCH   6  19
ATOM     19  C   UNL A   1      30.839  27.921  24.187  1.00  0.00     0.053 A 
ATOM     20  C   UNL A   1      31.207  29.085  23.501  1.00  0.00     0.027 A 
ATOM     21  C   UNL A   1      29.525  27.510  23.930  1.00  0.00     0.027 A 
ATOM     22  C   UNL A   1      30.298  29.793  22.665  1.00  0.00     0.005 A 
ATOM     23  C   UNL A   1      28.608  28.203  23.132  1.00  0.00     0.005 A 
ATOM     24  C   UNL A   1      28.984  29.359  22.481  1.00  0.00    -0.051 A 
ATOM     25  C   UNL A   1      28.002  30.001  21.548  1.00  0.00     0.044 C 
ENDBRANCH   6  19
ENDBRANCH   5   6
ENDBRANCH   3   5
ENDBRANCH   2   3
ENDBRANCH   1   2
BRANCH   1  26
ATOM     26  C   UNL A   1      33.956  31.084  27.531  1.00  0.00     0.275 C 
BRANCH  26  27
ATOM     27  O   UNL A   1      35.023  30.243  28.049  1.00  0.00    -0.458 OA
BRANCH  27  28
ATOM     28  C   UNL A   1      36.289  30.722  28.253  1.00  0.00     0.338 C 
ATOM     29  O   UNL A   1      36.581  31.841  28.627  1.00  0.00    -0.246 OA
BRANCH  28  30
ATOM     30  C   UNL A   1      37.236  29.615  27.977  1.00  0.00     0.060 A 
ATOM     31  C   UNL A   1      38.237  29.749  26.991  1.00  0.00     0.016 A 
ATOM     32  C   UNL A   1      37.371  28.717  29.032  1.00  0.00     0.016 A 
ATOM     33  C   UNL A   1      39.462  29.096  27.185  1.00  0.00     0.010 A 
ATOM     34  C   UNL A   1      38.632  28.310  29.349  1.00  0.00     0.010 A 
ATOM     35  C   UNL A   1      39.673  28.440  28.404  1.00  0.00    -0.014 A 
BRANCH  35  36
ATOM     36  C   UNL A   1      40.746  27.509  28.707  1.00  0.00     0.031 A 
ATOM     37  C   UNL A   1      40.770  26.077  28.368  1.00  0.00     0.074 A 
ATOM     38  C   UNL A   1      41.836  28.259  28.983  1.00  0.00     0.049 A 
ATOM     39  N   UNL A   1      41.592  25.241  28.904  1.00  0.00    -0.248 NA
ATOM     40  C   UNL A   1      39.880  25.428  27.406  1.00  0.00     0.031 C 
ATOM     41  C   UNL A   1      43.255  28.008  28.908  1.00  0.00     0.029 A 
ATOM     42  N   UNL A   1      41.767  29.586  29.452  1.00  0.00    -0.354 N 
ATOM     43  C   UNL A   1      41.594  24.102  28.120  1.00  0.00     0.074 A 
ATOM     44  C   UNL A   1      40.394  24.190  27.326  1.00  0.00     0.031 C 
ATOM     45  C   UNL A   1      43.880  28.961  29.633  1.00  0.00     0.029 A 
ATOM     46  C   UNL A   1      42.848  29.759  30.292  1.00  0.00     0.049 A 
ATOM     47  H   UNL A   1      41.083  30.256  29.224  1.00  0.00     0.167 HD
ATOM     48  C   UNL A   1      42.728  23.339  28.066  1.00  0.00     0.037 A 
ATOM     49  C   UNL A   1      42.538  29.785  31.621  1.00  0.00     0.037 A 
ATOM     50  C   UNL A   1      43.776  23.989  28.850  1.00  0.00     0.049 A 
ATOM     51  C   UNL A   1      43.134  28.577  32.289  1.00  0.00     0.074 A 
ATOM     52  C   UNL A   1      44.806  24.835  28.471  1.00  0.00     0.029 A 
ATOM     53  N   UNL A   1      43.616  24.152  30.221  1.00  0.00    -0.354 N 
ATOM     54  N   UNL A   1      43.242  27.390  31.750  1.00  0.00    -0.248 NA
ATOM     55  C   UNL A   1      43.800  28.695  33.571  1.00  0.00     0.031 C 
ATOM     56  C   UNL A   1      45.249  25.531  29.624  1.00  0.00     0.029 A 
ATOM     57  C   UNL A   1      44.483  25.116  30.702  1.00  0.00     0.049 A 
ATOM     58  H   UNL A   1      42.974  23.651  30.774  1.00  0.00     0.167 HD
ATOM     59  C   UNL A   1      44.106  26.638  32.511  1.00  0.00     0.074 A 
ATOM     60  C   UNL A   1      44.408  27.502  33.643  1.00  0.00     0.031 C 
ATOM     61  C   UNL A   1      44.563  25.403  32.129  1.00  0.00     0.037 A 
BRANCH  48  62
ATOM     62  C   UNL A   1      43.022  22.233  27.064  1.00  0.00     0.064 A 
ATOM     63  C   UNL A   1      42.326  20.998  27.113  1.00  0.00     0.173 A 
ATOM     64  C   UNL A   1      43.967  22.326  26.024  1.00  0.00     0.173 A 
ATOM     65  F   UNL A   1      41.336  20.784  27.987  1.00  0.00    -0.203 F 
ATOM     66  C   UNL A   1      42.616  19.925  26.264  1.00  0.00     0.198 A 
ATOM     67  C   UNL A   1      44.274  21.240  25.186  1.00  0.00     0.198 A 
ATOM     68  F   UNL A   1      44.591  23.482  25.760  1.00  0.00    -0.203 F 
ATOM     69  F   UNL A   1      41.928  18.780  26.381  1.00  0.00    -0.200 F 
ATOM     70  C   UNL A   1      43.606  20.037  25.314  1.00  0.00     0.200 A 
ATOM     71  F   UNL A   1      45.223  21.370  24.247  1.00  0.00    -0.200 F 
ATOM     72  F   UNL A   1      43.899  19.002  24.514  1.00  0.00    -0.200 F 
ENDBRANCH  48  62
BRANCH  49  73
ATOM     73  C   UNL A   1      41.199  30.413  31.932  1.00  0.00     0.064 A 
ATOM     74  C   UNL A   1      40.118  29.569  32.295  1.00  0.00     0.173 A 
ATOM     75  C   UNL A   1      41.022  31.781  32.175  1.00  0.00     0.173 A 
ATOM     76  F   UNL A   1      40.212  28.241  32.107  1.00  0.00    -0.203 F 
ATOM     77  C   UNL A   1      38.982  30.048  32.953  1.00  0.00     0.198 A 
ATOM     78  C   UNL A   1      39.863  32.266  32.805  1.00  0.00     0.198 A 
ATOM     79  F   UNL A   1      41.997  32.655  31.888  1.00  0.00    -0.203 F 
ATOM     80  F   UNL A   1      38.049  29.192  33.393  1.00  0.00    -0.200 F 
ATOM     81  C   UNL A   1      38.858  31.399  33.214  1.00  0.00     0.200 A 
ATOM     82  F   UNL A   1      39.759  33.570  33.096  1.00  0.00    -0.200 F 
ATOM     83  F   UNL A   1      37.805  31.857  33.907  1.00  0.00    -0.200 F 
ENDBRANCH  49  73
BRANCH  61  84
ATOM     84  C   UNL A   1      45.250  24.361  33.000  1.00  0.00     0.064 A 
ATOM     85  C   UNL A   1      46.529  24.498  33.559  1.00  0.00     0.173 A 
ATOM     86  C   UNL A   1      44.544  23.201  33.432  1.00  0.00     0.173 A 
ATOM     87  F   UNL A   1      47.274  25.591  33.376  1.00  0.00    -0.203 F 
ATOM     88  C   UNL A   1      47.081  23.537  34.410  1.00  0.00     0.198 A 
ATOM     89  C   UNL A   1      45.063  22.293  34.350  1.00  0.00     0.198 A 
ATOM     90  F   UNL A   1      43.303  22.914  33.014  1.00  0.00    -0.203 F 
ATOM     91  F   UNL A   1      48.332  23.702  34.860  1.00  0.00    -0.200 F 
ATOM     92  C   UNL A   1      46.342  22.449  34.824  1.00  0.00     0.200 A 
ATOM     93  F   UNL A   1      44.298  21.282  34.787  1.00  0.00    -0.200 F 
ATOM     94  F   UNL A   1      46.851  21.573  35.698  1.00  0.00    -0.200 F 
ENDBRANCH  61  84
ENDBRANCH  35  36
ENDBRANCH  28  30
ENDBRANCH  27  28
ENDBRANCH  26  27
ENDBRANCH   1  26
TORSDOF 16
ENDMDL
MODEL 2
REMARK VINA RESULT:     -12.6      3.448      9.521
REMARK SMILES COc1ccc(C)cc1S(=O)(=O)N(CC(=O)OCCOC(=O)c1ccc(-c2c3nc(c(-c4c(F)c(F)c(F)c(F)c4F)c4ccc([nH]4)c(-c4c(F)c(F)c(F)c(F)c4F)c4nc(c(-c5c(F)c(F)c(F)c(F)c5F)c5ccc2[nH]5)C=C4)C=C3)cc1)c1ccc(C)cc1
REMARK SMILES IDX 18 1 17 2 15 3 16 4 14 5 13 6 10 7 11 8 12 9 9 10 3 11 4 12
REMARK SMILES IDX 5 13 8 14 6 15 7 16 2 17 1 18 86 19 87 20 92 21 88 22 91 23
REMARK SMILES IDX 89 24 90 25 19 26 20 27 21 28 22 29 23 30 24 31 85 32 25 33
REMARK SMILES IDX 84 34 26 35 27 36 28 37 78 38 29 39 83 40 77 41 79 42 30 43
REMARK SMILES IDX 82 44 76 45 75 46 31 48 63 49 43 50 62 51 44 52 47 53 61 54
REMARK SMILES IDX 80 55 45 56 46 57 60 59 81 60 48 61 32 62 33 63 41 64 34 65
REMARK SMILES IDX 35 66 39 67 42 68 36 69 37 70 40 71 38 72 64 73 65 74 73 75
REMARK SMILES IDX 66 76 67 77 71 78 74 79 68 80 69 81 72 82 70 83 49 84 50 85
REMARK SMILES IDX 58 86 51 87 52 88 56 89 59 90 53 91 54 92 57 93 55 94
REMARK H PARENT 79 47 47 58
REMARK Flexibility Score: inf
ROOT
ATOM      1  C   UNL A   1      35.899  22.474  25.614  1.00  0.00     0.274 C 
ENDROOT
BRANCH   1   2
ATOM      2  O   UNL A   1      35.280  23.329  26.639  1.00  0.00    -0.461 OA
BRANCH   2   3
ATOM      3  C   UNL A   1      34.048  23.776  26.294  1.00  0.00     0.326 C 
ATOM      4  O   UNL A   1      33.065  23.224  26.698  1.00  0.00    -0.250 OA
BRANCH   3   5
ATOM      5  C   UNL A   1      33.908  25.011  25.451  1.00  0.00     0.258 C 
BRANCH   5   6
ATOM      6  N   UNL A   1      32.595  25.746  25.678  1.00  0.00    -0.255 N 
BRANCH   6   7
ATOM      7  S   UNL A   1      31.454  25.440  24.402  1.00  0.00     0.268 S 
ATOM      8  O   UNL A   1      30.282  24.921  25.092  1.00  0.00    -0.201 OA
ATOM      9  O   UNL A   1      32.071  24.649  23.358  1.00  0.00    -0.201 OA
BRANCH   7  10
ATOM     10  C   UNL A   1      30.912  26.986  23.626  1.00  0.00     0.130 A 
ATOM     11  C   UNL A   1      31.723  27.805  22.821  1.00  0.00     0.139 A 
ATOM     12  C   UNL A   1      31.137  28.943  22.226  1.00  0.00     0.048 A 
ATOM     13  C   UNL A   1      29.771  29.211  22.326  1.00  0.00     0.007 A 
ATOM     14  C   UNL A   1      29.527  27.272  23.721  1.00  0.00     0.029 A 
ATOM     15  C   UNL A   1      28.948  28.364  23.057  1.00  0.00    -0.049 A 
ATOM     16  C   UNL A   1      27.466  28.595  23.109  1.00  0.00     0.044 C 
BRANCH  11  17
ATOM     17  O   UNL A   1      33.035  27.478  22.617  1.00  0.00    -0.495 OA
ATOM     18  C   UNL A   1      33.963  28.566  22.480  1.00  0.00     0.278 C 
ENDBRANCH  11  17
ENDBRANCH   7  10
ENDBRANCH   6   7
BRANCH   6  19
ATOM     19  C   UNL A   1      32.714  27.177  26.137  1.00  0.00     0.053 A 
ATOM     20  C   UNL A   1      31.731  27.902  26.822  1.00  0.00     0.027 A 
ATOM     21  C   UNL A   1      33.939  27.846  26.037  1.00  0.00     0.027 A 
ATOM     22  C   UNL A   1      31.967  29.216  27.318  1.00  0.00     0.005 A 
ATOM     23  C   UNL A   1      34.185  29.146  26.496  1.00  0.00     0.005 A 
ATOM     24  C   UNL A   1      33.198  29.852  27.150  1.00  0.00    -0.051 A 
ATOM     25  C   UNL A   1      33.544  31.193  27.723  1.00  0.00     0.044 C 
ENDBRANCH   6  19
ENDBRANCH   5   6
ENDBRANCH   3   5
ENDBRANCH   2   3
ENDBRANCH   1   2
BRANCH   1  26
ATOM     26  C   UNL A   1      37.307  22.942  25.123  1.00  0.00     0.275 C 
BRANCH  26  27
ATOM     27  O   UNL A   1      38.051  23.828  26.003  1.00  0.00    -0.458 OA
BRANCH  27  28
ATOM     28  C   UNL A   1      39.186  23.422  26.651  1.00  0.00     0.338 C 
ATOM     29  O   UNL A   1      39.585  22.278  26.749  1.00  0.00    -0.246 OA
BRANCH  28  30
ATOM     30  C   UNL A   1      39.863  24.634  27.173  1.00  0.00     0.060 A 
ATOM     31  C   UNL A   1      40.349  25.625  26.294  1.00  0.00     0.016 A 
ATOM     32  C   UNL A   1      39.543  24.929  28.494  1.00  0.00     0.016 A 
ATOM     33  C   UNL A   1      40.335  26.962  26.715  1.00  0.00     0.010 A 
ATOM     34  C   UNL A   1      39.279  26.230  28.798  1.00  0.00     0.010 A 
ATOM     35  C   UNL A   1      39.727  27.259  27.941  1.00  0.00    -0.014 A 
BRANCH  35  36
ATOM     36  C   UNL A   1      39.822  28.512  28.669  1.00  0.00     0.031 A 
ATOM     37  C   UNL A   1      38.804  29.576  28.697  1.00  0.00     0.074 A 
ATOM     38  C   UNL A   1      40.794  28.345  29.593  1.00  0.00     0.049 A 
ATOM     39  N   UNL A   1      39.049  30.773  29.108  1.00  0.00    -0.248 NA
ATOM     40  C   UNL A   1      37.416  29.418  28.265  1.00  0.00     0.031 C 
ATOM     41  C   UNL A   1      41.068  28.967  30.866  1.00  0.00     0.029 A 
ATOM     42  N   UNL A   1      41.842  27.413  29.457  1.00  0.00    -0.354 N 
ATOM     43  C   UNL A   1      37.832  31.386  29.343  1.00  0.00     0.074 A 
ATOM     44  C   UNL A   1      36.865  30.587  28.635  1.00  0.00     0.031 C 
ATOM     45  C   UNL A   1      42.346  28.681  31.197  1.00  0.00     0.029 A 
ATOM     46  C   UNL A   1      42.946  27.976  30.065  1.00  0.00     0.049 A 
ATOM     47  H   UNL A   1      41.795  26.534  29.016  1.00  0.00     0.167 HD
ATOM     48  C   UNL A   1      37.758  32.360  30.301  1.00  0.00     0.037 A 
ATOM     49  C   UNL A   1      43.895  28.442  29.203  1.00  0.00     0.037 A 
ATOM     50  C   UNL A   1      39.060  32.487  30.953  1.00  0.00     0.049 A 
ATOM     51  C   UNL A   1      43.970  29.939  29.317  1.00  0.00     0.074 A 
ATOM     52  C   UNL A   1      39.551  31.931  32.123  1.00  0.00     0.029 A 
ATOM     53  N   UNL A   1      40.165  32.903  30.219  1.00  0.00    -0.354 N 
ATOM     54  N   UNL A   1      42.955  30.734  29.533  1.00  0.00    -0.248 NA
ATOM     55  C   UNL A   1      45.254  30.613  29.354  1.00  0.00     0.031 C 
ATOM     56  C   UNL A   1      40.967  31.992  32.076  1.00  0.00     0.029 A 
ATOM     57  C   UNL A   1      41.338  32.576  30.875  1.00  0.00     0.049 A 
ATOM     58  H   UNL A   1      40.119  33.367  29.351  1.00  0.00     0.167 HD
ATOM     59  C   UNL A   1      43.435  31.973  29.890  1.00  0.00     0.074 A 
ATOM     60  C   UNL A   1      44.876  31.839  29.744  1.00  0.00     0.031 C 
ATOM     61  C   UNL A   1      42.630  32.987  30.343  1.00  0.00     0.037 A 
BRANCH  48  62
ATOM     62  C   UNL A   1      36.485  32.942  30.896  1.00  0.00     0.064 A 
ATOM     63  C   UNL A   1      35.678  33.844  30.156  1.00  0.00     0.173 A 
ATOM     64  C   UNL A   1      35.995  32.646  32.183  1.00  0.00     0.173 A 
ATOM     65  F   UNL A   1      35.958  34.158  28.886  1.00  0.00    -0.203 F 
ATOM     66  C   UNL A   1      34.542  34.463  30.688  1.00  0.00     0.198 A 
ATOM     67  C   UNL A   1      34.867  33.286  32.725  1.00  0.00     0.198 A 
ATOM     68  F   UNL A   1      36.567  31.698  32.937  1.00  0.00    -0.203 F 
ATOM     69  F   UNL A   1      33.838  35.321  29.934  1.00  0.00    -0.200 F 
ATOM     70  C   UNL A   1      34.149  34.203  31.981  1.00  0.00     0.200 A 
ATOM     71  F   UNL A   1      34.479  33.005  33.977  1.00  0.00    -0.200 F 
ATOM     72  F   UNL A   1      33.073  34.813  32.499  1.00  0.00    -0.200 F 
ENDBRANCH  48  62
BRANCH  49  73
ATOM     73  C   UNL A   1      44.031  27.630  27.935  1.00  0.00     0.064 A 
ATOM     74  C   UNL A   1      44.368  26.255  28.041  1.00  0.00     0.173 A 
ATOM     75  C   UNL A   1      43.563  28.056  26.686  1.00  0.00     0.173 A 
ATOM     76  F   UNL A   1      44.813  25.762  29.210  1.00  0.00    -0.203 F 
ATOM     77  C   UNL A   1      44.151  25.350  26.998  1.00  0.00     0.198 A 
ATOM     78  C   UNL A   1      43.379  27.150  25.628  1.00  0.00     0.198 A 
ATOM     79  F   UNL A   1      43.196  29.332  26.496  1.00  0.00    -0.203 F 
ATOM     80  F   UNL A   1      44.362  24.040  27.192  1.00  0.00    -0.200 F 
ATOM     81  C   UNL A   1      43.649  25.798  25.792  1.00  0.00     0.200 A 
ATOM     82  F   UNL A   1      42.853  27.576  24.471  1.00  0.00    -0.200 F 
ATOM     83  F   UNL A   1      43.372  24.925  24.812  1.00  0.00    -0.200 F 
ENDBRANCH  49  73
BRANCH  61  84
ATOM     84  C   UNL A   1      42.983  34.463  30.464  1.00  0.00     0.064 A 
ATOM     85  C   UNL A   1      43.443  35.086  31.634  1.00  0.00     0.173 A 
ATOM     86  C   UNL A   1      43.002  35.299  29.311  1.00  0.00     0.173 A 
ATOM     87  F   UNL A   1      43.625  34.415  32.774  1.00  0.00    -0.203 F 
ATOM     88  C   UNL A   1      43.818  36.430  31.668  1.00  0.00     0.198 A 
ATOM     89  C   UNL A   1      43.463  36.612  29.330  1.00  0.00     0.198 A 
ATOM     90  F   UNL A   1      42.613  34.870  28.102  1.00  0.00    -0.203 F 
ATOM     91  F   UNL A   1      44.191  36.977  32.833  1.00  0.00    -0.200 F 
ATOM     92  C   UNL A   1      43.852  37.186  30.515  1.00  0.00     0.200 A 
ATOM     93  F   UNL A   1      43.549  37.301  28.184  1.00  0.00    -0.200 F 
ATOM     94  F   UNL A   1      44.285  38.452  30.543  1.00  0.00    -0.200 F 
ENDBRANCH  61  84
ENDBRANCH  35  36
ENDBRANCH  28  30
ENDBRANCH  27  28
ENDBRANCH  26  27
ENDBRANCH   1  26
TORSDOF 16
ENDMDL
MODEL 3
REMARK VINA RESULT:     -12.5      1.601      3.320
REMARK SMILES COc1ccc(C)cc1S(=O)(=O)N(CC(=O)OCCOC(=O)c1ccc(-c2c3nc(c(-c4c(F)c(F)c(F)c(F)c4F)c4ccc([nH]4)c(-c4c(F)c(F)c(F)c(F)c4F)c4nc(c(-c5c(F)c(F)c(F)c(F)c5F)c5ccc2[nH]5)C=C4)C=C3)cc1)c1ccc(C)cc1
REMARK SMILES IDX 18 1 17 2 15 3 16 4 14 5 13 6 10 7 11 8 12 9 9 10 3 11 4 12
REMARK SMILES IDX 5 13 8 14 6 15 7 16 2 17 1 18 86 19 87 20 92 21 88 22 91 23
REMARK SMILES IDX 89 24 90 25 19 26 20 27 21 28 22 29 23 30 24 31 85 32 25 33
REMARK SMILES IDX 84 34 26 35 27 36 28 37 78 38 29 39 83 40 77 41 79 42 30 43
REMARK SMILES IDX 82 44 76 45 75 46 31 48 63 49 43 50 62 51 44 52 47 53 61 54
REMARK SMILES IDX 80 55 45 56 46 57 60 59 81 60 48 61 32 62 33 63 41 64 34 65
REMARK SMILES IDX 35 66 39 67 42 68 36 69 37 70 40 71 38 72 64 73 65 74 73 75
REMARK SMILES IDX 66 76 67 77 71 78 74 79 68 80 69 81 72 82 70 83 49 84 50 85
REMARK SMILES IDX 58 86 51 87 52 88 56 89 59 90 53 91 54 92 57 93 55 94
REMARK H PARENT 79 47 47 58
REMARK Flexibility Score: inf
ROOT
ATOM      1  C   UNL A   1      34.379  28.798  26.102  1.00  0.00     0.274 C 
ENDROOT
BRANCH   1   2
ATOM      2  O   UNL A   1      33.177  28.337  25.389  1.00  0.00    -0.461 OA
BRANCH   2   3
ATOM      3  C   UNL A   1      33.420  27.316  24.531  1.00  0.00     0.326 C 
ATOM      4  O   UNL A   1      33.877  27.529  23.446  1.00  0.00    -0.250 OA
BRANCH   3   5
ATOM      5  C   UNL A   1      33.174  25.899  24.966  1.00  0.00     0.258 C 
BRANCH   5   6
ATOM      6  N   UNL A   1      33.730  24.869  23.993  1.00  0.00    -0.255 N 
BRANCH   6   7
ATOM      7  S   UNL A   1      32.476  23.858  23.336  1.00  0.00     0.268 S 
ATOM      8  O   UNL A   1      32.836  23.714  21.933  1.00  0.00    -0.201 OA
ATOM      9  O   UNL A   1      31.174  24.386  23.685  1.00  0.00    -0.201 OA
BRANCH   7  10
ATOM     10  C   UNL A   1      32.558  22.185  24.030  1.00  0.00     0.130 A 
ATOM     11  C   UNL A   1      32.485  21.882  25.401  1.00  0.00     0.139 A 
ATOM     12  C   UNL A   1      32.491  20.523  25.784  1.00  0.00     0.048 A 
ATOM     13  C   UNL A   1      32.457  19.489  24.846  1.00  0.00     0.007 A 
ATOM     14  C   UNL A   1      32.527  21.125  23.090  1.00  0.00     0.029 A 
ATOM     15  C   UNL A   1      32.451  19.781  23.489  1.00  0.00    -0.049 A 
ATOM     16  C   UNL A   1      32.336  18.685  22.471  1.00  0.00     0.044 C 
BRANCH  11  17
ATOM     17  O   UNL A   1      32.391  22.891  26.320  1.00  0.00    -0.495 OA
ATOM     18  C   UNL A   1      31.095  23.135  26.888  1.00  0.00     0.278 C 
ENDBRANCH  11  17
ENDBRANCH   7  10
ENDBRANCH   6   7
BRANCH   6  19
ATOM     19  C   UNL A   1      34.992  24.170  24.426  1.00  0.00     0.053 A 
ATOM     20  C   UNL A   1      35.519  24.157  25.723  1.00  0.00     0.027 A 
ATOM     21  C   UNL A   1      35.661  23.316  23.540  1.00  0.00     0.027 A 
ATOM     22  C   UNL A   1      36.658  23.378  26.072  1.00  0.00     0.005 A 
ATOM     23  C   UNL A   1      36.796  22.560  23.856  1.00  0.00     0.005 A 
ATOM     24  C   UNL A   1      37.312  22.577  25.134  1.00  0.00    -0.051 A 
ATOM     25  C   UNL A   1      38.458  21.664  25.450  1.00  0.00     0.044 C 
ENDBRANCH   6  19
ENDBRANCH   5   6
ENDBRANCH   3   5
ENDBRANCH   2   3
ENDBRANCH   1   2
BRANCH   1  26
ATOM     26  C   UNL A   1      34.168  30.051  27.012  1.00  0.00     0.275 C 
BRANCH  26  27
ATOM     27  O   UNL A   1      35.005  30.155  28.195  1.00  0.00    -0.458 OA
BRANCH  27  28
ATOM     28  C   UNL A   1      36.259  30.704  28.151  1.00  0.00     0.338 C 
ATOM     29  O   UNL A   1      36.537  31.872  28.337  1.00  0.00    -0.246 OA
BRANCH  28  30
ATOM     30  C   UNL A   1      37.218  29.607  27.878  1.00  0.00     0.060 A 
ATOM     31  C   UNL A   1      38.248  29.768  26.926  1.00  0.00     0.016 A 
ATOM     32  C   UNL A   1      37.324  28.684  28.913  1.00  0.00     0.016 A 
ATOM     33  C   UNL A   1      39.469  29.114  27.141  1.00  0.00     0.010 A 
ATOM     34  C   UNL A   1      38.576  28.273  29.259  1.00  0.00     0.010 A 
ATOM     35  C   UNL A   1      39.646  28.429  28.350  1.00  0.00    -0.014 A 
BRANCH  35  36
ATOM     36  C   UNL A   1      40.712  27.494  28.664  1.00  0.00     0.031 A 
ATOM     37  C   UNL A   1      40.731  26.060  28.331  1.00  0.00     0.074 A 
ATOM     38  C   UNL A   1      41.804  28.240  28.942  1.00  0.00     0.049 A 
ATOM     39  N   UNL A   1      41.545  25.223  28.875  1.00  0.00    -0.248 NA
ATOM     40  C   UNL A   1      39.842  25.412  27.367  1.00  0.00     0.031 C 
ATOM     41  C   UNL A   1      43.222  27.982  28.874  1.00  0.00     0.029 A 
ATOM     42  N   UNL A   1      41.739  29.570  29.403  1.00  0.00    -0.354 N 
ATOM     43  C   UNL A   1      41.546  24.081  28.097  1.00  0.00     0.074 A 
ATOM     44  C   UNL A   1      40.351  24.171  27.296  1.00  0.00     0.031 C 
ATOM     45  C   UNL A   1      43.849  28.935  29.598  1.00  0.00     0.029 A 
ATOM     46  C   UNL A   1      42.817  29.742  30.248  1.00  0.00     0.049 A 
ATOM     47  H   UNL A   1      41.060  30.242  29.169  1.00  0.00     0.167 HD
ATOM     48  C   UNL A   1      42.676  23.312  28.052  1.00  0.00     0.037 A 
ATOM     49  C   UNL A   1      42.500  29.775  31.576  1.00  0.00     0.037 A 
ATOM     50  C   UNL A   1      43.724  23.960  28.839  1.00  0.00     0.049 A 
ATOM     51  C   UNL A   1      43.087  28.567  32.252  1.00  0.00     0.074 A 
ATOM     52  C   UNL A   1      44.760  24.800  28.460  1.00  0.00     0.029 A 
ATOM     53  N   UNL A   1      43.557  24.131  30.208  1.00  0.00    -0.354 N 
ATOM     54  N   UNL A   1      43.192  27.378  31.719  1.00  0.00    -0.248 NA
ATOM     55  C   UNL A   1      43.747  28.689  33.537  1.00  0.00     0.031 C 
ATOM     56  C   UNL A   1      45.200  25.498  29.613  1.00  0.00     0.029 A 
ATOM     57  C   UNL A   1      44.427  25.093  30.689  1.00  0.00     0.049 A 
ATOM     58  H   UNL A   1      42.910  23.635  30.760  1.00  0.00     0.167 HD
ATOM     59  C   UNL A   1      44.048  26.625  32.489  1.00  0.00     0.074 A 
ATOM     60  C   UNL A   1      44.349  27.493  33.618  1.00  0.00     0.031 C 
ATOM     61  C   UNL A   1      44.501  25.386  32.114  1.00  0.00     0.037 A 
BRANCH  48  62
ATOM     62  C   UNL A   1      42.970  22.200  27.057  1.00  0.00     0.064 A 
ATOM     63  C   UNL A   1      42.247  20.980  27.090  1.00  0.00     0.173 A 
ATOM     64  C   UNL A   1      43.941  22.272  26.040  1.00  0.00     0.173 A 
ATOM     65  F   UNL A   1      41.232  20.787  27.940  1.00  0.00    -0.203 F 
ATOM     66  C   UNL A   1      42.534  19.901  26.247  1.00  0.00     0.198 A 
ATOM     67  C   UNL A   1      44.244  21.180  25.208  1.00  0.00     0.198 A 
ATOM     68  F   UNL A   1      44.595  23.414  25.790  1.00  0.00    -0.203 F 
ATOM     69  F   UNL A   1      41.819  18.770  26.348  1.00  0.00    -0.200 F 
ATOM     70  C   UNL A   1      43.547  19.991  25.321  1.00  0.00     0.200 A 
ATOM     71  F   UNL A   1      45.216  21.289  24.292  1.00  0.00    -0.200 F 
ATOM     72  F   UNL A   1      43.837  18.950  24.528  1.00  0.00    -0.200 F 
ENDBRANCH  48  62
BRANCH  49  73
ATOM     73  C   UNL A   1      41.163  30.412  31.876  1.00  0.00     0.064 A 
ATOM     74  C   UNL A   1      40.989  31.793  31.598  1.00  0.00     0.173 A 
ATOM     75  C   UNL A   1      39.995  29.682  32.129  1.00  0.00     0.173 A 
ATOM     76  F   UNL A   1      42.058  32.563  31.331  1.00  0.00    -0.203 F 
ATOM     77  C   UNL A   1      39.726  32.378  31.480  1.00  0.00     0.198 A 
ATOM     78  C   UNL A   1      38.727  30.281  32.044  1.00  0.00     0.198 A 
ATOM     79  F   UNL A   1      40.056  28.366  32.377  1.00  0.00    -0.203 F 
ATOM     80  F   UNL A   1      39.612  33.655  31.087  1.00  0.00    -0.200 F 
ATOM     81  C   UNL A   1      38.592  31.619  31.696  1.00  0.00     0.200 A 
ATOM     82  F   UNL A   1      37.626  29.536  32.213  1.00  0.00    -0.200 F 
ATOM     83  F   UNL A   1      37.377  32.155  31.515  1.00  0.00    -0.200 F 
ENDBRANCH  49  73
BRANCH  61  84
ATOM     84  C   UNL A   1      45.178  24.345  32.994  1.00  0.00     0.064 A 
ATOM     85  C   UNL A   1      46.449  24.484  33.572  1.00  0.00     0.173 A 
ATOM     86  C   UNL A   1      44.469  23.183  33.415  1.00  0.00     0.173 A 
ATOM     87  F   UNL A   1      47.193  25.580  33.401  1.00  0.00    -0.203 F 
ATOM     88  C   UNL A   1      46.991  23.524  34.429  1.00  0.00     0.198 A 
ATOM     89  C   UNL A   1      44.977  22.275  34.339  1.00  0.00     0.198 A 
ATOM     90  F   UNL A   1      43.235  22.893  32.979  1.00  0.00    -0.203 F 
ATOM     91  F   UNL A   1      48.235  23.692  34.897  1.00  0.00    -0.200 F 
ATOM     92  C   UNL A   1      46.249  22.434  34.831  1.00  0.00     0.200 A 
ATOM     93  F   UNL A   1      44.209  21.262  34.765  1.00  0.00    -0.200 F 
ATOM     94  F   UNL A   1      46.748  21.558  35.712  1.00  0.00    -0.200 F 
ENDBRANCH  61  84
ENDBRANCH  35  36
ENDBRANCH  28  30
ENDBRANCH  27  28
ENDBRANCH  26  27
ENDBRANCH   1  26
TORSDOF 16
ENDMDL
