MODEL 1
REMARK VINA RESULT:     -12.4      0.000      0.000
REMARK SMILES O=C(OCCOC(=O)c1ccc(OC[C@H]2C[C@H]3CC[C@@H]2C3)c(Cl)c1)c1ccc(-c2c3nc(c(-c4c(F)c(F)c(F)c(F)c4F)c4ccc([nH]4)c(-c4c(F)c(F)c(F)c(F)c4F)c4nc(c(-c5c(F)c(F)c(F)c(F)c5F)c5ccc2[nH]5)C=C4)C=C3)cc1
REMARK SMILES IDX 5 1 4 2 3 3 2 4 1 5 25 6 26 7 87 8 27 9 86 10 28 11 29 12
REMARK SMILES IDX 30 13 80 14 31 15 85 16 79 17 81 18 32 19 84 20 78 21 77 22
REMARK SMILES IDX 33 24 65 25 45 26 64 27 46 28 49 29 63 30 82 31 47 32 48 33
REMARK SMILES IDX 62 35 83 36 50 37 34 38 35 39 43 40 36 41 37 42 41 43 44 44
REMARK SMILES IDX 38 45 39 46 42 47 40 48 66 49 67 50 75 51 68 52 69 53 73 54
REMARK SMILES IDX 76 55 70 56 71 57 74 58 72 59 51 60 52 61 60 62 53 63 54 64
REMARK SMILES IDX 58 65 61 66 55 67 56 68 59 69 57 70 6 71 7 72 8 73 9 74
REMARK SMILES IDX 10 75 24 76 11 77 22 78 12 79 23 80 13 81 14 82 15 83 16 84
REMARK SMILES IDX 20 85 17 86 19 87 21 88 18 89
REMARK H PARENT 81 23 49 34
REMARK Flexibility Score: inf
ROOT
ATOM      1  C   UNL A   1      31.802  30.777  26.290  1.00  0.00     0.275 C 
ENDROOT
BRANCH   1   2
ATOM      2  C   UNL A   1      31.385  32.130  26.878  1.00  0.00     0.275 C 
BRANCH   2   3
ATOM      3  O   UNL A   1      32.454  33.085  26.866  1.00  0.00    -0.458 OA
BRANCH   3   4
ATOM      4  C   UNL A   1      33.231  33.468  27.904  1.00  0.00     0.338 C 
ATOM      5  O   UNL A   1      32.917  34.484  28.523  1.00  0.00    -0.246 OA
BRANCH   4   6
ATOM      6  C   UNL A   1      34.570  32.855  28.204  1.00  0.00     0.060 A 
ATOM      7  C   UNL A   1      35.822  33.484  28.213  1.00  0.00     0.016 A 
ATOM      8  C   UNL A   1      34.528  31.518  28.618  1.00  0.00     0.016 A 
ATOM      9  C   UNL A   1      36.953  32.872  28.776  1.00  0.00     0.010 A 
ATOM     10  C   UNL A   1      35.654  30.912  29.178  1.00  0.00     0.010 A 
ATOM     11  C   UNL A   1      36.868  31.598  29.327  1.00  0.00    -0.014 A 
BRANCH  11  12
ATOM     12  C   UNL A   1      38.043  30.948  29.978  1.00  0.00     0.031 A 
ATOM     13  C   UNL A   1      38.363  31.321  31.398  1.00  0.00     0.074 A 
ATOM     14  C   UNL A   1      38.845  30.079  29.322  1.00  0.00     0.049 A 
ATOM     15  N   UNL A   1      39.360  30.945  32.157  1.00  0.00    -0.248 NA
ATOM     16  C   UNL A   1      37.452  32.282  32.043  1.00  0.00     0.031 C 
ATOM     17  C   UNL A   1      38.695  29.651  27.930  1.00  0.00     0.029 A 
ATOM     18  N   UNL A   1      39.972  29.405  29.739  1.00  0.00    -0.354 N 
ATOM     19  C   UNL A   1      39.180  31.623  33.353  1.00  0.00     0.074 A 
ATOM     20  C   UNL A   1      38.090  32.548  33.166  1.00  0.00     0.031 C 
ATOM     21  C   UNL A   1      39.691  28.805  27.606  1.00  0.00     0.029 A 
ATOM     22  C   UNL A   1      40.552  28.617  28.769  1.00  0.00     0.049 A 
ATOM     23  H   UNL A   1      40.332  29.479  30.653  1.00  0.00     0.167 HD
ATOM     24  C   UNL A   1      39.791  31.425  34.544  1.00  0.00     0.037 A 
ATOM     25  C   UNL A   1      41.641  27.822  28.821  1.00  0.00     0.037 A 
ATOM     26  C   UNL A   1      40.841  30.477  34.754  1.00  0.00     0.049 A 
ATOM     27  C   UNL A   1      42.363  27.666  30.140  1.00  0.00     0.074 A 
ATOM     28  C   UNL A   1      41.506  30.166  35.924  1.00  0.00     0.029 A 
ATOM     29  N   UNL A   1      41.378  29.678  33.755  1.00  0.00    -0.354 N 
ATOM     30  N   UNL A   1      42.104  28.226  31.297  1.00  0.00    -0.248 NA
ATOM     31  C   UNL A   1      43.503  26.737  30.170  1.00  0.00     0.031 C 
ATOM     32  C   UNL A   1      42.465  29.191  35.628  1.00  0.00     0.029 A 
ATOM     33  C   UNL A   1      42.370  28.871  34.281  1.00  0.00     0.049 A 
ATOM     34  H   UNL A   1      41.093  29.683  32.813  1.00  0.00     0.167 HD
ATOM     35  C   UNL A   1      43.002  27.672  32.201  1.00  0.00     0.074 A 
ATOM     36  C   UNL A   1      43.818  26.735  31.458  1.00  0.00     0.031 C 
ATOM     37  C   UNL A   1      43.135  27.911  33.529  1.00  0.00     0.037 A 
BRANCH  24  38
ATOM     38  C   UNL A   1      39.258  32.224  35.696  1.00  0.00     0.064 A 
ATOM     39  C   UNL A   1      39.744  33.517  35.960  1.00  0.00     0.173 A 
ATOM     40  C   UNL A   1      38.336  31.672  36.592  1.00  0.00     0.173 A 
ATOM     41  F   UNL A   1      40.651  34.077  35.144  1.00  0.00    -0.203 F 
ATOM     42  C   UNL A   1      39.376  34.198  37.114  1.00  0.00     0.198 A 
ATOM     43  C   UNL A   1      37.941  32.373  37.728  1.00  0.00     0.198 A 
ATOM     44  F   UNL A   1      37.844  30.441  36.386  1.00  0.00    -0.203 F 
ATOM     45  F   UNL A   1      39.932  35.386  37.394  1.00  0.00    -0.200 F 
ATOM     46  C   UNL A   1      38.475  33.626  37.998  1.00  0.00     0.200 A 
ATOM     47  F   UNL A   1      37.067  31.824  38.582  1.00  0.00    -0.200 F 
ATOM     48  F   UNL A   1      38.138  34.273  39.122  1.00  0.00    -0.200 F 
ENDBRANCH  24  38
BRANCH  25  49
ATOM     49  C   UNL A   1      42.100  27.054  27.627  1.00  0.00     0.064 A 
ATOM     50  C   UNL A   1      41.632  25.754  27.378  1.00  0.00     0.173 A 
ATOM     51  C   UNL A   1      43.074  27.565  26.756  1.00  0.00     0.173 A 
ATOM     52  F   UNL A   1      40.718  25.206  28.193  1.00  0.00    -0.203 F 
ATOM     53  C   UNL A   1      42.148  24.983  26.336  1.00  0.00     0.198 A 
ATOM     54  C   UNL A   1      43.571  26.802  25.697  1.00  0.00     0.198 A 
ATOM     55  F   UNL A   1      43.560  28.801  26.943  1.00  0.00    -0.203 F 
ATOM     56  F   UNL A   1      41.728  23.721  26.168  1.00  0.00    -0.200 F 
ATOM     57  C   UNL A   1      43.117  25.507  25.497  1.00  0.00     0.200 A 
ATOM     58  F   UNL A   1      44.505  27.314  24.883  1.00  0.00    -0.200 F 
ATOM     59  F   UNL A   1      43.625  24.761  24.507  1.00  0.00    -0.200 F 
ENDBRANCH  25  49
BRANCH  37  60
ATOM     60  C   UNL A   1      44.137  27.094  34.286  1.00  0.00     0.064 A 
ATOM     61  C   UNL A   1      45.446  27.545  34.504  1.00  0.00     0.173 A 
ATOM     62  C   UNL A   1      43.753  25.874  34.866  1.00  0.00     0.173 A 
ATOM     63  F   UNL A   1      45.864  28.696  33.957  1.00  0.00    -0.203 F 
ATOM     64  C   UNL A   1      46.339  26.798  35.266  1.00  0.00     0.198 A 
ATOM     65  C   UNL A   1      44.639  25.145  35.654  1.00  0.00     0.198 A 
ATOM     66  F   UNL A   1      42.508  25.404  34.691  1.00  0.00    -0.203 F 
ATOM     67  F   UNL A   1      47.597  27.228  35.434  1.00  0.00    -0.200 F 
ATOM     68  C   UNL A   1      45.932  25.606  35.849  1.00  0.00     0.200 A 
ATOM     69  F   UNL A   1      44.238  24.004  36.228  1.00  0.00    -0.200 F 
ATOM     70  F   UNL A   1      46.788  24.899  36.598  1.00  0.00    -0.200 F 
ENDBRANCH  37  60
ENDBRANCH  11  12
ENDBRANCH   4   6
ENDBRANCH   3   4
ENDBRANCH   2   3
ENDBRANCH   1   2
BRANCH   1  71
ATOM     71  O   UNL A   1      32.214  29.827  27.297  1.00  0.00    -0.458 OA
BRANCH  71  72
ATOM     72  C   UNL A   1      31.769  28.557  27.125  1.00  0.00     0.338 C 
ATOM     73  O   UNL A   1      31.074  27.915  27.890  1.00  0.00    -0.246 OA
BRANCH  72  74
ATOM     74  C   UNL A   1      32.298  27.971  25.875  1.00  0.00     0.061 A 
ATOM     75  C   UNL A   1      33.647  27.628  25.796  1.00  0.00     0.019 A 
ATOM     76  C   UNL A   1      31.447  27.638  24.825  1.00  0.00     0.040 A 
ATOM     77  C   UNL A   1      34.100  26.846  24.725  1.00  0.00     0.049 A 
ATOM     78  C   UNL A   1      31.928  26.940  23.709  1.00  0.00     0.083 A 
ATOM     79  C   UNL A   1      33.214  26.411  23.727  1.00  0.00     0.137 A 
ATOM     80  Cl  UNL A   1      30.933  26.854  22.309  1.00  0.00    -0.080 Cl
BRANCH  79  81
ATOM     81  O   UNL A   1      33.705  25.419  22.919  1.00  0.00    -0.492 OA
BRANCH  81  82
ATOM     82  C   UNL A   1      33.229  24.073  23.100  1.00  0.00     0.233 C 
BRANCH  82  83
ATOM     83  C   UNL A   1      34.242  22.980  23.504  1.00  0.00     0.030 C 
ATOM     84  C   UNL A   1      35.756  23.187  23.311  1.00  0.00     0.011 C 
ATOM     85  C   UNL A   1      34.162  22.453  24.972  1.00  0.00    -0.004 C 
ATOM     86  C   UNL A   1      36.354  22.701  24.644  1.00  0.00    -0.010 C 
ATOM     87  C   UNL A   1      34.565  23.495  26.027  1.00  0.00     0.004 C 
ATOM     88  C   UNL A   1      35.409  21.560  25.022  1.00  0.00     0.007 C 
ATOM     89  C   UNL A   1      36.049  23.745  25.732  1.00  0.00     0.004 C 
ENDBRANCH  82  83
ENDBRANCH  81  82
ENDBRANCH  79  81
ENDBRANCH  72  74
ENDBRANCH  71  72
ENDBRANCH   1  71
TORSDOF 14
ENDMDL
MODEL 2
REMARK VINA RESULT:     -12.1      0.630      1.370
REMARK SMILES O=C(OCCOC(=O)c1ccc(OC[C@H]2C[C@H]3CC[C@@H]2C3)c(Cl)c1)c1ccc(-c2c3nc(c(-c4c(F)c(F)c(F)c(F)c4F)c4ccc([nH]4)c(-c4c(F)c(F)c(F)c(F)c4F)c4nc(c(-c5c(F)c(F)c(F)c(F)c5F)c5ccc2[nH]5)C=C4)C=C3)cc1
REMARK SMILES IDX 5 1 4 2 3 3 2 4 1 5 25 6 26 7 87 8 27 9 86 10 28 11 29 12
REMARK SMILES IDX 30 13 80 14 31 15 85 16 79 17 81 18 32 19 84 20 78 21 77 22
REMARK SMILES IDX 33 24 65 25 45 26 64 27 46 28 49 29 63 30 82 31 47 32 48 33
REMARK SMILES IDX 62 35 83 36 50 37 34 38 35 39 43 40 36 41 37 42 41 43 44 44
REMARK SMILES IDX 38 45 39 46 42 47 40 48 66 49 67 50 75 51 68 52 69 53 73 54
REMARK SMILES IDX 76 55 70 56 71 57 74 58 72 59 51 60 52 61 60 62 53 63 54 64
REMARK SMILES IDX 58 65 61 66 55 67 56 68 59 69 57 70 6 71 7 72 8 73 9 74
REMARK SMILES IDX 10 75 24 76 11 77 22 78 12 79 23 80 13 81 14 82 15 83 16 84
REMARK SMILES IDX 20 85 17 86 19 87 21 88 18 89
REMARK H PARENT 81 23 49 34
REMARK Flexibility Score: inf
ROOT
ATOM      1  C   UNL A   1      31.709  30.928  26.056  1.00  0.00     0.275 C 
ENDROOT
BRANCH   1   2
ATOM      2  C   UNL A   1      31.376  32.111  26.972  1.00  0.00     0.275 C 
BRANCH   2   3
ATOM      3  O   UNL A   1      32.370  33.142  26.919  1.00  0.00    -0.458 OA
BRANCH   3   4
ATOM      4  C   UNL A   1      33.183  33.558  27.916  1.00  0.00     0.338 C 
ATOM      5  O   UNL A   1      32.915  34.615  28.485  1.00  0.00    -0.246 OA
BRANCH   4   6
ATOM      6  C   UNL A   1      34.511  32.921  28.219  1.00  0.00     0.060 A 
ATOM      7  C   UNL A   1      35.777  33.519  28.193  1.00  0.00     0.016 A 
ATOM      8  C   UNL A   1      34.441  31.600  28.677  1.00  0.00     0.016 A 
ATOM      9  C   UNL A   1      36.900  32.897  28.761  1.00  0.00     0.010 A 
ATOM     10  C   UNL A   1      35.559  30.984  29.242  1.00  0.00     0.010 A 
ATOM     11  C   UNL A   1      36.791  31.644  29.354  1.00  0.00    -0.014 A 
BRANCH  11  12
ATOM     12  C   UNL A   1      37.958  30.985  30.010  1.00  0.00     0.031 A 
ATOM     13  C   UNL A   1      38.279  31.363  31.430  1.00  0.00     0.074 A 
ATOM     14  C   UNL A   1      38.754  30.106  29.360  1.00  0.00     0.049 A 
ATOM     15  N   UNL A   1      39.270  30.980  32.193  1.00  0.00    -0.248 NA
ATOM     16  C   UNL A   1      37.376  32.336  32.067  1.00  0.00     0.031 C 
ATOM     17  C   UNL A   1      38.602  29.672  27.971  1.00  0.00     0.029 A 
ATOM     18  N   UNL A   1      39.873  29.422  29.784  1.00  0.00    -0.354 N 
ATOM     19  C   UNL A   1      39.095  31.666  33.385  1.00  0.00     0.074 A 
ATOM     20  C   UNL A   1      38.014  32.601  33.191  1.00  0.00     0.031 C 
ATOM     21  C   UNL A   1      39.591  28.815  27.653  1.00  0.00     0.029 A 
ATOM     22  C   UNL A   1      40.447  28.624  28.819  1.00  0.00     0.049 A 
ATOM     23  H   UNL A   1      40.232  29.497  30.698  1.00  0.00     0.167 HD
ATOM     24  C   UNL A   1      39.701  31.468  34.578  1.00  0.00     0.037 A 
ATOM     25  C   UNL A   1      41.529  27.819  28.878  1.00  0.00     0.037 A 
ATOM     26  C   UNL A   1      40.741  30.511  34.796  1.00  0.00     0.049 A 
ATOM     27  C   UNL A   1      42.246  27.663  30.199  1.00  0.00     0.074 A 
ATOM     28  C   UNL A   1      41.400  30.200  35.968  1.00  0.00     0.029 A 
ATOM     29  N   UNL A   1      41.272  29.701  33.802  1.00  0.00    -0.354 N 
ATOM     30  N   UNL A   1      41.990  28.231  31.353  1.00  0.00    -0.248 NA
ATOM     31  C   UNL A   1      43.377  26.722  30.237  1.00  0.00     0.031 C 
ATOM     32  C   UNL A   1      42.351  29.213  35.679  1.00  0.00     0.029 A 
ATOM     33  C   UNL A   1      42.256  28.888  34.334  1.00  0.00     0.049 A 
ATOM     34  H   UNL A   1      40.990  29.705  32.859  1.00  0.00     0.167 HD
ATOM     35  C   UNL A   1      42.881  27.673  32.262  1.00  0.00     0.074 A 
ATOM     36  C   UNL A   1      43.688  26.724  31.525  1.00  0.00     0.031 C 
ATOM     37  C   UNL A   1      43.012  27.917  33.588  1.00  0.00     0.037 A 
BRANCH  24  38
ATOM     38  C   UNL A   1      39.173  32.278  35.725  1.00  0.00     0.064 A 
ATOM     39  C   UNL A   1      39.653  33.578  35.968  1.00  0.00     0.173 A 
ATOM     40  C   UNL A   1      38.263  31.731  36.636  1.00  0.00     0.173 A 
ATOM     41  F   UNL A   1      40.550  34.133  35.137  1.00  0.00    -0.203 F 
ATOM     42  C   UNL A   1      39.291  34.271  37.117  1.00  0.00     0.198 A 
ATOM     43  C   UNL A   1      37.874  32.445  37.767  1.00  0.00     0.198 A 
ATOM     44  F   UNL A   1      37.777  30.495  36.450  1.00  0.00    -0.203 F 
ATOM     45  F   UNL A   1      39.842  35.466  37.377  1.00  0.00    -0.200 F 
ATOM     46  C   UNL A   1      38.402  33.704  38.016  1.00  0.00     0.200 A 
ATOM     47  F   UNL A   1      37.011  31.901  38.636  1.00  0.00    -0.200 F 
ATOM     48  F   UNL A   1      38.071  34.363  39.135  1.00  0.00    -0.200 F 
ENDBRANCH  24  38
BRANCH  25  49
ATOM     49  C   UNL A   1      41.983  27.040  27.688  1.00  0.00     0.064 A 
ATOM     50  C   UNL A   1      41.517  25.736  27.456  1.00  0.00     0.173 A 
ATOM     51  C   UNL A   1      42.950  27.546  26.806  1.00  0.00     0.173 A 
ATOM     52  F   UNL A   1      40.611  25.193  28.282  1.00  0.00    -0.203 F 
ATOM     53  C   UNL A   1      42.029  24.956  26.419  1.00  0.00     0.198 A 
ATOM     54  C   UNL A   1      43.443  26.773  25.752  1.00  0.00     0.198 A 
ATOM     55  F   UNL A   1      43.433  28.785  26.978  1.00  0.00    -0.203 F 
ATOM     56  F   UNL A   1      41.613  23.691  26.266  1.00  0.00    -0.200 F 
ATOM     57  C   UNL A   1      42.992  25.475  25.568  1.00  0.00     0.200 A 
ATOM     58  F   UNL A   1      44.369  27.281  24.927  1.00  0.00    -0.200 F 
ATOM     59  F   UNL A   1      43.497  24.720  24.582  1.00  0.00    -0.200 F 
ENDBRANCH  25  49
BRANCH  37  60
ATOM     60  C   UNL A   1      44.005  27.093  34.352  1.00  0.00     0.064 A 
ATOM     61  C   UNL A   1      43.665  25.853  34.907  1.00  0.00     0.173 A 
ATOM     62  C   UNL A   1      45.337  27.523  34.460  1.00  0.00     0.173 A 
ATOM     63  F   UNL A   1      42.402  25.407  34.844  1.00  0.00    -0.203 F 
ATOM     64  C   UNL A   1      44.621  25.077  35.556  1.00  0.00     0.198 A 
ATOM     65  C   UNL A   1      46.298  26.731  35.081  1.00  0.00     0.198 A 
ATOM     66  F   UNL A   1      45.712  28.701  33.937  1.00  0.00    -0.203 F 
ATOM     67  F   UNL A   1      44.270  23.909  36.112  1.00  0.00    -0.200 F 
ATOM     68  C   UNL A   1      45.938  25.510  35.632  1.00  0.00     0.200 A 
ATOM     69  F   UNL A   1      47.570  27.144  35.138  1.00  0.00    -0.200 F 
ATOM     70  F   UNL A   1      46.860  24.752  36.239  1.00  0.00    -0.200 F 
ENDBRANCH  37  60
ENDBRANCH  11  12
ENDBRANCH   4   6
ENDBRANCH   3   4
ENDBRANCH   2   3
ENDBRANCH   1   2
BRANCH   1  71
ATOM     71  O   UNL A   1      31.792  29.672  26.763  1.00  0.00    -0.458 OA
BRANCH  71  72
ATOM     72  C   UNL A   1      32.793  28.842  26.375  1.00  0.00     0.338 C 
ATOM     73  O   UNL A   1      33.926  28.804  26.817  1.00  0.00    -0.246 OA
BRANCH  72  74
ATOM     74  C   UNL A   1      32.367  27.984  25.249  1.00  0.00     0.061 A 
ATOM     75  C   UNL A   1      33.319  27.518  24.344  1.00  0.00     0.019 A 
ATOM     76  C   UNL A   1      31.054  27.530  25.151  1.00  0.00     0.040 A 
ATOM     77  C   UNL A   1      32.973  26.510  23.434  1.00  0.00     0.049 A 
ATOM     78  C   UNL A   1      30.693  26.593  24.176  1.00  0.00     0.083 A 
ATOM     79  C   UNL A   1      31.679  25.968  23.418  1.00  0.00     0.137 A 
ATOM     80  Cl  UNL A   1      29.020  26.325  23.881  1.00  0.00    -0.080 Cl
BRANCH  79  81
ATOM     81  O   UNL A   1      31.555  24.802  22.711  1.00  0.00    -0.492 OA
BRANCH  81  82
ATOM     82  C   UNL A   1      31.503  23.555  23.427  1.00  0.00     0.233 C 
BRANCH  82  83
ATOM     83  C   UNL A   1      32.786  22.701  23.516  1.00  0.00     0.030 C 
ATOM     84  C   UNL A   1      34.066  23.106  22.761  1.00  0.00     0.011 C 
ATOM     85  C   UNL A   1      33.329  22.390  24.947  1.00  0.00    -0.004 C 
ATOM     86  C   UNL A   1      35.174  22.918  23.813  1.00  0.00    -0.010 C 
ATOM     87  C   UNL A   1      33.861  23.626  25.689  1.00  0.00     0.004 C 
ATOM     88  C   UNL A   1      34.664  21.716  24.606  1.00  0.00     0.007 C 
ATOM     89  C   UNL A   1      35.069  24.053  24.847  1.00  0.00     0.004 C 
ENDBRANCH  82  83
ENDBRANCH  81  82
ENDBRANCH  79  81
ENDBRANCH  72  74
ENDBRANCH  71  72
ENDBRANCH   1  71
TORSDOF 14
ENDMDL
MODEL 3
REMARK VINA RESULT:     -12.0      5.746     11.436
REMARK SMILES O=C(OCCOC(=O)c1ccc(OC[C@H]2C[C@H]3CC[C@@H]2C3)c(Cl)c1)c1ccc(-c2c3nc(c(-c4c(F)c(F)c(F)c(F)c4F)c4ccc([nH]4)c(-c4c(F)c(F)c(F)c(F)c4F)c4nc(c(-c5c(F)c(F)c(F)c(F)c5F)c5ccc2[nH]5)C=C4)C=C3)cc1
REMARK SMILES IDX 5 1 4 2 3 3 2 4 1 5 25 6 26 7 87 8 27 9 86 10 28 11 29 12
REMARK SMILES IDX 30 13 80 14 31 15 85 16 79 17 81 18 32 19 84 20 78 21 77 22
REMARK SMILES IDX 33 24 65 25 45 26 64 27 46 28 49 29 63 30 82 31 47 32 48 33
REMARK SMILES IDX 62 35 83 36 50 37 34 38 35 39 43 40 36 41 37 42 41 43 44 44
REMARK SMILES IDX 38 45 39 46 42 47 40 48 66 49 67 50 75 51 68 52 69 53 73 54
REMARK SMILES IDX 76 55 70 56 71 57 74 58 72 59 51 60 52 61 60 62 53 63 54 64
REMARK SMILES IDX 58 65 61 66 55 67 56 68 59 69 57 70 6 71 7 72 8 73 9 74
REMARK SMILES IDX 10 75 24 76 11 77 22 78 12 79 23 80 13 81 14 82 15 83 16 84
REMARK SMILES IDX 20 85 17 86 19 87 21 88 18 89
REMARK H PARENT 81 23 49 34
REMARK Flexibility Score: inf
ROOT
ATOM      1  C   UNL A   1      42.296  19.772  26.807  1.00  0.00     0.275 C 
ENDROOT
BRANCH   1   2
ATOM      2  C   UNL A   1      42.524  18.706  25.731  1.00  0.00     0.275 C 
BRANCH   2   3
ATOM      3  O   UNL A   1      43.895  18.625  25.320  1.00  0.00    -0.458 OA
BRANCH   3   4
ATOM      4  C   UNL A   1      44.532  19.394  24.409  1.00  0.00     0.338 C 
ATOM      5  O   UNL A   1      45.035  18.844  23.430  1.00  0.00    -0.246 OA
BRANCH   4   6
ATOM      6  C   UNL A   1      44.851  20.846  24.633  1.00  0.00     0.060 A 
ATOM      7  C   UNL A   1      44.521  21.935  23.816  1.00  0.00     0.016 A 
ATOM      8  C   UNL A   1      45.464  21.135  25.858  1.00  0.00     0.016 A 
ATOM      9  C   UNL A   1      44.631  23.259  24.268  1.00  0.00     0.010 A 
ATOM     10  C   UNL A   1      45.572  22.452  26.306  1.00  0.00     0.010 A 
ATOM     11  C   UNL A   1      45.098  23.533  25.549  1.00  0.00    -0.014 A 
BRANCH  11  12
ATOM     12  C   UNL A   1      45.175  24.929  26.071  1.00  0.00     0.031 A 
ATOM     13  C   UNL A   1      46.517  25.605  26.092  1.00  0.00     0.074 A 
ATOM     14  C   UNL A   1      44.096  25.579  26.564  1.00  0.00     0.049 A 
ATOM     15  N   UNL A   1      46.853  26.783  26.551  1.00  0.00    -0.248 NA
ATOM     16  C   UNL A   1      47.647  24.830  25.551  1.00  0.00     0.031 C 
ATOM     17  C   UNL A   1      42.736  25.044  26.654  1.00  0.00     0.029 A 
ATOM     18  N   UNL A   1      43.975  26.842  27.102  1.00  0.00    -0.354 N 
ATOM     19  C   UNL A   1      48.222  26.874  26.347  1.00  0.00     0.074 A 
ATOM     20  C   UNL A   1      48.676  25.587  25.882  1.00  0.00     0.031 C 
ATOM     21  C   UNL A   1      41.927  25.957  27.224  1.00  0.00     0.029 A 
ATOM     22  C   UNL A   1      42.703  27.154  27.532  1.00  0.00     0.049 A 
ATOM     23  H   UNL A   1      44.732  27.468  27.173  1.00  0.00     0.167 HD
ATOM     24  C   UNL A   1      49.025  27.960  26.430  1.00  0.00     0.037 A 
ATOM     25  C   UNL A   1      42.221  28.283  28.093  1.00  0.00     0.037 A 
ATOM     26  C   UNL A   1      48.576  29.254  26.844  1.00  0.00     0.049 A 
ATOM     27  C   UNL A   1      43.147  29.467  28.252  1.00  0.00     0.074 A 
ATOM     28  C   UNL A   1      49.291  30.432  26.930  1.00  0.00     0.029 A 
ATOM     29  N   UNL A   1      47.277  29.535  27.241  1.00  0.00    -0.354 N 
ATOM     30  N   UNL A   1      44.415  29.574  27.940  1.00  0.00    -0.248 NA
ATOM     31  C   UNL A   1      42.563  30.700  28.804  1.00  0.00     0.031 C 
ATOM     32  C   UNL A   1      48.427  31.426  27.403  1.00  0.00     0.029 A 
ATOM     33  C   UNL A   1      47.167  30.872  27.576  1.00  0.00     0.049 A 
ATOM     34  H   UNL A   1      46.542  28.881  27.277  1.00  0.00     0.167 HD
ATOM     35  C   UNL A   1      44.763  30.895  28.195  1.00  0.00     0.074 A 
ATOM     36  C   UNL A   1      43.573  31.551  28.693  1.00  0.00     0.031 C 
ATOM     37  C   UNL A   1      45.958  31.512  28.023  1.00  0.00     0.037 A 
BRANCH  24  38
ATOM     38  C   UNL A   1      50.444  27.762  25.991  1.00  0.00     0.064 A 
ATOM     39  C   UNL A   1      51.474  27.609  26.936  1.00  0.00     0.173 A 
ATOM     40  C   UNL A   1      50.796  27.817  24.638  1.00  0.00     0.173 A 
ATOM     41  F   UNL A   1      51.188  27.580  28.248  1.00  0.00    -0.203 F 
ATOM     42  C   UNL A   1      52.808  27.588  26.545  1.00  0.00     0.198 A 
ATOM     43  C   UNL A   1      52.132  27.758  24.248  1.00  0.00     0.198 A 
ATOM     44  F   UNL A   1      49.852  27.964  23.697  1.00  0.00    -0.203 F 
ATOM     45  F   UNL A   1      53.775  27.546  27.473  1.00  0.00    -0.200 F 
ATOM     46  C   UNL A   1      53.136  27.663  25.201  1.00  0.00     0.200 A 
ATOM     47  F   UNL A   1      52.452  27.825  22.948  1.00  0.00    -0.200 F 
ATOM     48  F   UNL A   1      54.423  27.665  24.826  1.00  0.00    -0.200 F 
ENDBRANCH  24  38
BRANCH  25  49
ATOM     49  C   UNL A   1      40.788  28.398  28.495  1.00  0.00     0.064 A 
ATOM     50  C   UNL A   1      39.834  28.946  27.623  1.00  0.00     0.173 A 
ATOM     51  C   UNL A   1      40.357  28.044  29.782  1.00  0.00     0.173 A 
ATOM     52  F   UNL A   1      40.197  29.326  26.388  1.00  0.00    -0.203 F 
ATOM     53  C   UNL A   1      38.520  29.174  28.034  1.00  0.00     0.198 A 
ATOM     54  C   UNL A   1      39.035  28.248  30.184  1.00  0.00     0.198 A 
ATOM     55  F   UNL A   1      41.222  27.517  30.659  1.00  0.00    -0.203 F 
ATOM     56  F   UNL A   1      37.652  29.761  27.200  1.00  0.00    -0.200 F 
ATOM     57  C   UNL A   1      38.122  28.825  29.314  1.00  0.00     0.200 A 
ATOM     58  F   UNL A   1      38.651  27.903  31.421  1.00  0.00    -0.200 F 
ATOM     59  F   UNL A   1      36.865  29.059  29.715  1.00  0.00    -0.200 F 
ENDBRANCH  25  49
BRANCH  37  60
ATOM     60  C   UNL A   1      46.025  32.985  28.295  1.00  0.00     0.064 A 
ATOM     61  C   UNL A   1      46.387  33.489  29.551  1.00  0.00     0.173 A 
ATOM     62  C   UNL A   1      45.798  33.900  27.255  1.00  0.00     0.173 A 
ATOM     63  F   UNL A   1      46.599  32.655  30.579  1.00  0.00    -0.203 F 
ATOM     64  C   UNL A   1      46.506  34.860  29.760  1.00  0.00     0.198 A 
ATOM     65  C   UNL A   1      45.949  35.268  27.459  1.00  0.00     0.198 A 
ATOM     66  F   UNL A   1      45.456  33.464  26.032  1.00  0.00    -0.203 F 
ATOM     67  F   UNL A   1      46.818  35.326  30.977  1.00  0.00    -0.200 F 
ATOM     68  C   UNL A   1      46.299  35.747  28.713  1.00  0.00     0.200 A 
ATOM     69  F   UNL A   1      45.765  36.120  26.443  1.00  0.00    -0.200 F 
ATOM     70  F   UNL A   1      46.433  37.064  28.912  1.00  0.00    -0.200 F 
ENDBRANCH  37  60
ENDBRANCH  11  12
ENDBRANCH   4   6
ENDBRANCH   3   4
ENDBRANCH   2   3
ENDBRANCH   1   2
BRANCH   1  71
ATOM     71  O   UNL A   1      41.752  21.001  26.279  1.00  0.00    -0.458 OA
BRANCH  71  72
ATOM     72  C   UNL A   1      41.120  21.799  27.176  1.00  0.00     0.338 C 
ATOM     73  O   UNL A   1      41.539  22.156  28.261  1.00  0.00    -0.246 OA
BRANCH  72  74
ATOM     74  C   UNL A   1      39.765  22.160  26.707  1.00  0.00     0.061 A 
ATOM     75  C   UNL A   1      39.299  23.460  26.894  1.00  0.00     0.019 A 
ATOM     76  C   UNL A   1      39.000  21.260  25.970  1.00  0.00     0.040 A 
ATOM     77  C   UNL A   1      38.135  23.878  26.235  1.00  0.00     0.049 A 
ATOM     78  C   UNL A   1      37.787  21.659  25.394  1.00  0.00     0.083 A 
ATOM     79  C   UNL A   1      37.430  23.003  25.395  1.00  0.00     0.137 A 
ATOM     80  Cl  UNL A   1      36.731  20.442  24.792  1.00  0.00    -0.080 Cl
BRANCH  79  81
ATOM     81  O   UNL A   1      36.506  23.607  24.585  1.00  0.00    -0.492 OA
BRANCH  81  82
ATOM     82  C   UNL A   1      35.439  24.363  25.187  1.00  0.00     0.233 C 
BRANCH  82  83
ATOM     83  C   UNL A   1      34.019  23.754  25.199  1.00  0.00     0.030 C 
ATOM     84  C   UNL A   1      33.718  22.421  24.489  1.00  0.00     0.011 C 
ATOM     85  C   UNL A   1      33.354  23.545  26.596  1.00  0.00    -0.004 C 
ATOM     86  C   UNL A   1      32.877  21.650  25.522  1.00  0.00    -0.010 C 
ATOM     87  C   UNL A   1      34.038  22.468  27.452  1.00  0.00     0.004 C 
ATOM     88  C   UNL A   1      32.090  22.773  26.196  1.00  0.00     0.007 C 
ATOM     89  C   UNL A   1      33.802  21.178  26.658  1.00  0.00     0.004 C 
ENDBRANCH  82  83
ENDBRANCH  81  82
ENDBRANCH  79  81
ENDBRANCH  72  74
ENDBRANCH  71  72
ENDBRANCH   1  71
TORSDOF 14
ENDMDL
