MODEL 1
REMARK VINA RESULT:     -12.7      0.000      0.000
REMARK SMILES Cc1ccnc(C(=O)c2[nH]c3ccc(C(C)(C)C)cc3c2CC(=O)OCCOC(=O)c2ccc(-c3c4nc(c(-c5c(F)c(F)c(F)c(F)c5F)c5ccc([nH]5)c(-c5c(F)c(F)c(F)c(F)c5F)c5nc(c(-c6c(F)c(F)c(F)c(F)c6F)c6ccc3[nH]6)C=C5)C=C4)cc2)c1
REMARK SMILES IDX 26 1 25 2 23 3 24 4 22 5 21 6 9 7 10 8 11 9 20 11 12 12
REMARK SMILES IDX 19 13 13 14 14 15 7 16 8 17 6 18 1 19 2 20 3 21 94 22 4 23
REMARK SMILES IDX 5 24 15 25 16 26 17 27 18 28 27 29 28 30 29 31 30 32 31 33
REMARK SMILES IDX 32 34 93 35 33 36 92 37 34 38 35 39 36 40 86 41 37 42 91 43
REMARK SMILES IDX 85 44 87 45 38 46 90 47 84 48 83 49 39 51 71 52 51 53 70 54
REMARK SMILES IDX 52 55 55 56 69 57 88 58 53 59 54 60 68 62 89 63 56 64 40 65
REMARK SMILES IDX 41 66 49 67 42 68 43 69 47 70 50 71 44 72 45 73 48 74 46 75
REMARK SMILES IDX 72 76 73 77 81 78 74 79 75 80 79 81 82 82 76 83 77 84 80 85
REMARK SMILES IDX 78 86 57 87 58 88 66 89 59 90 60 91 64 92 67 93 61 94 62 95
REMARK SMILES IDX 65 96 63 97
REMARK H PARENT 10 10 87 50 55 61
REMARK Flexibility Score: inf
ROOT
ATOM      1  C   UNL A   1      36.550  21.218  24.916  1.00  0.00     0.274 C 
ENDROOT
BRANCH   1   2
ATOM      2  O   UNL A   1      36.742  22.286  23.962  1.00  0.00    -0.462 OA
BRANCH   2   3
ATOM      3  C   UNL A   1      35.825  23.283  23.987  1.00  0.00     0.310 C 
ATOM      4  O   UNL A   1      35.167  23.635  23.009  1.00  0.00    -0.252 OA
BRANCH   3   5
ATOM      5  C   UNL A   1      35.527  23.849  25.358  1.00  0.00     0.161 C 
BRANCH   5   6
ATOM      6  C   UNL A   1      34.111  23.936  25.827  1.00  0.00     0.000 A 
ATOM      7  C   UNL A   1      33.252  22.893  26.172  1.00  0.00     0.093 A 
ATOM      8  N   UNL A   1      32.045  23.459  26.502  1.00  0.00    -0.352 N 
ATOM      9  C   UNL A   1      32.031  24.792  26.196  1.00  0.00     0.046 A 
ATOM     10  H   UNL A   1      31.290  22.971  26.905  1.00  0.00     0.167 HD
ATOM     11  C   UNL A   1      33.329  25.145  25.850  1.00  0.00     0.004 A 
ATOM     12  C   UNL A   1      30.974  25.697  26.212  1.00  0.00     0.027 A 
ATOM     13  C   UNL A   1      33.590  26.506  25.564  1.00  0.00     0.015 A 
ATOM     14  C   UNL A   1      31.256  27.029  25.894  1.00  0.00     0.006 A 
ATOM     15  C   UNL A   1      32.553  27.470  25.587  1.00  0.00    -0.042 A 
BRANCH   7  16
ATOM     16  C   UNL A   1      33.401  21.449  26.266  1.00  0.00     0.227 C 
ATOM     17  O   UNL A   1      33.702  20.927  27.339  1.00  0.00    -0.285 OA
BRANCH  16  18
ATOM     18  C   UNL A   1      32.894  20.576  25.140  1.00  0.00     0.113 A 
ATOM     19  C   UNL A   1      33.285  17.041  23.804  1.00  0.00     0.044 C 
ATOM     20  C   UNL A   1      32.912  18.488  23.935  1.00  0.00    -0.047 A 
ATOM     21  C   UNL A   1      32.385  19.166  22.835  1.00  0.00     0.023 A 
ATOM     22  C   UNL A   1      33.155  19.204  25.114  1.00  0.00     0.036 A 
ATOM     23  C   UNL A   1      32.130  20.520  22.953  1.00  0.00     0.112 A 
ATOM     24  N   UNL A   1      32.372  21.235  24.069  1.00  0.00    -0.253 NA
ENDBRANCH  16  18
ENDBRANCH   7  16
BRANCH  15  25
ATOM     25  C   UNL A   1      32.865  28.952  25.305  1.00  0.00    -0.013 C 
ATOM     26  C   UNL A   1      31.543  29.748  25.261  1.00  0.00     0.016 C 
ATOM     27  C   UNL A   1      33.772  29.530  26.412  1.00  0.00     0.016 C 
ATOM     28  C   UNL A   1      33.587  29.191  23.958  1.00  0.00     0.016 C 
ENDBRANCH  15  25
ENDBRANCH   5   6
ENDBRANCH   3   5
ENDBRANCH   2   3
ENDBRANCH   1   2
BRANCH   1  29
ATOM     29  C   UNL A   1      37.847  20.433  25.163  1.00  0.00     0.275 C 
BRANCH  29  30
ATOM     30  O   UNL A   1      39.001  21.294  25.276  1.00  0.00    -0.458 OA
BRANCH  30  31
ATOM     31  C   UNL A   1      39.684  21.121  26.426  1.00  0.00     0.338 C 
ATOM     32  O   UNL A   1      40.048  20.060  26.908  1.00  0.00    -0.246 OA
BRANCH  31  33
ATOM     33  C   UNL A   1      40.098  22.380  27.042  1.00  0.00     0.060 A 
ATOM     34  C   UNL A   1      39.614  23.557  26.477  1.00  0.00     0.016 A 
ATOM     35  C   UNL A   1      41.152  22.410  27.957  1.00  0.00     0.016 A 
ATOM     36  C   UNL A   1      40.242  24.763  26.749  1.00  0.00     0.010 A 
ATOM     37  C   UNL A   1      41.727  23.638  28.299  1.00  0.00     0.010 A 
ATOM     38  C   UNL A   1      41.299  24.819  27.670  1.00  0.00    -0.014 A 
BRANCH  38  39
ATOM     39  C   UNL A   1      41.900  26.141  27.971  1.00  0.00     0.031 A 
ATOM     40  C   UNL A   1      43.275  26.505  27.492  1.00  0.00     0.074 A 
ATOM     41  C   UNL A   1      41.142  27.052  28.609  1.00  0.00     0.049 A 
ATOM     42  N   UNL A   1      43.907  27.647  27.591  1.00  0.00    -0.248 NA
ATOM     43  C   UNL A   1      44.040  25.456  26.803  1.00  0.00     0.031 C 
ATOM     44  C   UNL A   1      39.780  26.819  29.094  1.00  0.00     0.029 A 
ATOM     45  N   UNL A   1      41.393  28.359  28.933  1.00  0.00    -0.354 N 
ATOM     46  C   UNL A   1      45.130  27.463  26.962  1.00  0.00     0.074 A 
ATOM     47  C   UNL A   1      45.171  26.087  26.513  1.00  0.00     0.031 C 
ATOM     48  C   UNL A   1      39.302  27.955  29.620  1.00  0.00     0.029 A 
ATOM     49  C   UNL A   1      40.340  28.977  29.561  1.00  0.00     0.049 A 
ATOM     50  H   UNL A   1      42.246  28.811  28.736  1.00  0.00     0.167 HD
ATOM     51  C   UNL A   1      46.124  28.365  26.771  1.00  0.00     0.037 A 
ATOM     52  C   UNL A   1      40.230  30.223  30.053  1.00  0.00     0.037 A 
ATOM     53  C   UNL A   1      46.097  29.722  27.251  1.00  0.00     0.049 A 
ATOM     54  C   UNL A   1      41.388  31.165  29.918  1.00  0.00     0.074 A 
ATOM     55  C   UNL A   1      47.065  30.705  27.126  1.00  0.00     0.029 A 
ATOM     56  N   UNL A   1      45.050  30.284  27.967  1.00  0.00    -0.354 N 
ATOM     57  N   UNL A   1      42.535  30.981  29.312  1.00  0.00    -0.248 NA
ATOM     58  C   UNL A   1      41.240  32.483  30.547  1.00  0.00     0.031 C 
ATOM     59  C   UNL A   1      46.618  31.850  27.797  1.00  0.00     0.029 A 
ATOM     60  C   UNL A   1      45.358  31.591  28.312  1.00  0.00     0.049 A 
ATOM     61  H   UNL A   1      44.210  29.823  28.194  1.00  0.00     0.167 HD
ATOM     62  C   UNL A   1      43.247  32.159  29.485  1.00  0.00     0.074 A 
ATOM     63  C   UNL A   1      42.390  33.059  30.230  1.00  0.00     0.031 C 
ATOM     64  C   UNL A   1      44.501  32.463  29.070  1.00  0.00     0.037 A 
BRANCH  51  65
ATOM     65  C   UNL A   1      47.337  27.911  26.017  1.00  0.00     0.064 A 
ATOM     66  C   UNL A   1      48.499  27.503  26.689  1.00  0.00     0.173 A 
ATOM     67  C   UNL A   1      47.320  27.823  24.618  1.00  0.00     0.173 A 
ATOM     68  F   UNL A   1      48.571  27.587  28.026  1.00  0.00    -0.203 F 
ATOM     69  C   UNL A   1      49.601  27.023  25.985  1.00  0.00     0.198 A 
ATOM     70  C   UNL A   1      48.419  27.330  23.918  1.00  0.00     0.198 A 
ATOM     71  F   UNL A   1      46.233  28.204  23.931  1.00  0.00    -0.203 F 
ATOM     72  F   UNL A   1      50.708  26.656  26.647  1.00  0.00    -0.200 F 
ATOM     73  C   UNL A   1      49.558  26.930  24.601  1.00  0.00     0.200 A 
ATOM     74  F   UNL A   1      48.375  27.238  22.582  1.00  0.00    -0.200 F 
ATOM     75  F   UNL A   1      50.616  26.461  23.927  1.00  0.00    -0.200 F 
ENDBRANCH  51  65
BRANCH  52  76
ATOM     76  C   UNL A   1      38.981  30.628  30.743  1.00  0.00     0.064 A 
ATOM     77  C   UNL A   1      38.855  30.523  32.133  1.00  0.00     0.173 A 
ATOM     78  C   UNL A   1      37.895  31.145  30.020  1.00  0.00     0.173 A 
ATOM     79  F   UNL A   1      39.859  30.013  32.860  1.00  0.00    -0.203 F 
ATOM     80  C   UNL A   1      37.684  30.917  32.776  1.00  0.00     0.198 A 
ATOM     81  C   UNL A   1      36.736  31.562  30.667  1.00  0.00     0.198 A 
ATOM     82  F   UNL A   1      37.971  31.265  28.687  1.00  0.00    -0.203 F 
ATOM     83  F   UNL A   1      37.573  30.778  34.104  1.00  0.00    -0.200 F 
ATOM     84  C   UNL A   1      36.629  31.443  32.045  1.00  0.00     0.200 A 
ATOM     85  F   UNL A   1      35.726  32.083  29.957  1.00  0.00    -0.200 F 
ATOM     86  F   UNL A   1      35.506  31.830  32.665  1.00  0.00    -0.200 F 
ENDBRANCH  52  76
BRANCH  64  87
ATOM     87  C   UNL A   1      45.009  33.826  29.425  1.00  0.00     0.064 A 
ATOM     88  C   UNL A   1      45.729  34.047  30.609  1.00  0.00     0.173 A 
ATOM     89  C   UNL A   1      44.772  34.920  28.580  1.00  0.00     0.173 A 
ATOM     90  F   UNL A   1      45.961  33.033  31.456  1.00  0.00    -0.203 F 
ATOM     91  C   UNL A   1      46.169  35.323  30.948  1.00  0.00     0.198 A 
ATOM     92  C   UNL A   1      45.232  36.191  28.914  1.00  0.00     0.198 A 
ATOM     93  F   UNL A   1      44.089  34.757  27.437  1.00  0.00    -0.203 F 
ATOM     94  F   UNL A   1      46.809  35.521  32.108  1.00  0.00    -0.200 F 
ATOM     95  C   UNL A   1      45.922  36.392  30.100  1.00  0.00     0.200 A 
ATOM     96  F   UNL A   1      44.998  37.223  28.092  1.00  0.00    -0.200 F 
ATOM     97  F   UNL A   1      46.339  37.622  30.433  1.00  0.00    -0.200 F 
ENDBRANCH  64  87
ENDBRANCH  38  39
ENDBRANCH  31  33
ENDBRANCH  30  31
ENDBRANCH  29  30
ENDBRANCH   1  29
TORSDOF 15
ENDMDL
MODEL 2
REMARK VINA RESULT:     -12.7      4.443      7.818
REMARK SMILES Cc1ccnc(C(=O)c2[nH]c3ccc(C(C)(C)C)cc3c2CC(=O)OCCOC(=O)c2ccc(-c3c4nc(c(-c5c(F)c(F)c(F)c(F)c5F)c5ccc([nH]5)c(-c5c(F)c(F)c(F)c(F)c5F)c5nc(c(-c6c(F)c(F)c(F)c(F)c6F)c6ccc3[nH]6)C=C5)C=C4)cc2)c1
REMARK SMILES IDX 26 1 25 2 23 3 24 4 22 5 21 6 9 7 10 8 11 9 20 11 12 12
REMARK SMILES IDX 19 13 13 14 14 15 7 16 8 17 6 18 1 19 2 20 3 21 94 22 4 23
REMARK SMILES IDX 5 24 15 25 16 26 17 27 18 28 27 29 28 30 29 31 30 32 31 33
REMARK SMILES IDX 32 34 93 35 33 36 92 37 34 38 35 39 36 40 86 41 37 42 91 43
REMARK SMILES IDX 85 44 87 45 38 46 90 47 84 48 83 49 39 51 71 52 51 53 70 54
REMARK SMILES IDX 52 55 55 56 69 57 88 58 53 59 54 60 68 62 89 63 56 64 40 65
REMARK SMILES IDX 41 66 49 67 42 68 43 69 47 70 50 71 44 72 45 73 48 74 46 75
REMARK SMILES IDX 72 76 73 77 81 78 74 79 75 80 79 81 82 82 76 83 77 84 80 85
REMARK SMILES IDX 78 86 57 87 58 88 66 89 59 90 60 91 64 92 67 93 61 94 62 95
REMARK SMILES IDX 65 96 63 97
REMARK H PARENT 10 10 87 50 55 61
REMARK Flexibility Score: inf
ROOT
ATOM      1  C   UNL A   1      31.559  29.165  26.220  1.00  0.00     0.274 C 
ENDROOT
BRANCH   1   2
ATOM      2  O   UNL A   1      31.797  28.125  27.195  1.00  0.00    -0.462 OA
BRANCH   2   3
ATOM      3  C   UNL A   1      32.046  26.888  26.702  1.00  0.00     0.310 C 
ATOM      4  O   UNL A   1      31.284  25.930  26.836  1.00  0.00    -0.252 OA
BRANCH   3   5
ATOM      5  C   UNL A   1      33.267  26.782  25.816  1.00  0.00     0.161 C 
BRANCH   5   6
ATOM      6  C   UNL A   1      33.151  26.128  24.478  1.00  0.00     0.000 A 
ATOM      7  C   UNL A   1      32.737  26.696  23.274  1.00  0.00     0.093 A 
ATOM      8  N   UNL A   1      32.756  25.698  22.330  1.00  0.00    -0.352 N 
ATOM      9  C   UNL A   1      32.972  24.480  22.913  1.00  0.00     0.046 A 
ATOM     10  H   UNL A   1      32.631  25.840  21.364  1.00  0.00     0.167 HD
ATOM     11  C   UNL A   1      33.307  24.715  24.241  1.00  0.00     0.004 A 
ATOM     12  C   UNL A   1      32.907  23.205  22.360  1.00  0.00     0.027 A 
ATOM     13  C   UNL A   1      33.656  23.603  25.042  1.00  0.00     0.015 A 
ATOM     14  C   UNL A   1      33.226  22.122  23.185  1.00  0.00     0.006 A 
ATOM     15  C   UNL A   1      33.624  22.288  24.520  1.00  0.00    -0.042 A 
BRANCH   7  16
ATOM     16  C   UNL A   1      32.352  28.040  22.869  1.00  0.00     0.227 C 
ATOM     17  O   UNL A   1      33.203  28.833  22.471  1.00  0.00    -0.285 OA
BRANCH  16  18
ATOM     18  C   UNL A   1      30.889  28.357  22.648  1.00  0.00     0.113 A 
ATOM     19  C   UNL A   1      28.664  31.297  21.734  1.00  0.00     0.044 C 
ATOM     20  C   UNL A   1      29.138  29.945  22.179  1.00  0.00    -0.047 A 
ATOM     21  C   UNL A   1      28.231  29.051  22.750  1.00  0.00     0.023 A 
ATOM     22  C   UNL A   1      30.489  29.584  22.112  1.00  0.00     0.036 A 
ATOM     23  C   UNL A   1      28.707  27.846  23.233  1.00  0.00     0.112 A 
ATOM     24  N   UNL A   1      30.003  27.482  23.197  1.00  0.00    -0.253 NA
ENDBRANCH  16  18
ENDBRANCH   7  16
BRANCH  15  25
ATOM     25  C   UNL A   1      34.041  21.094  25.401  1.00  0.00    -0.013 C 
ATOM     26  C   UNL A   1      35.467  20.650  25.009  1.00  0.00     0.016 C 
ATOM     27  C   UNL A   1      34.024  21.494  26.892  1.00  0.00     0.016 C 
ATOM     28  C   UNL A   1      33.121  19.859  25.253  1.00  0.00     0.016 C 
ENDBRANCH  15  25
ENDBRANCH   5   6
ENDBRANCH   3   5
ENDBRANCH   2   3
ENDBRANCH   1   2
BRANCH   1  29
ATOM     29  C   UNL A   1      31.775  30.565  26.814  1.00  0.00     0.275 C 
BRANCH  29  30
ATOM     30  O   UNL A   1      32.981  31.192  26.326  1.00  0.00    -0.458 OA
BRANCH  30  31
ATOM     31  C   UNL A   1      33.562  32.006  27.230  1.00  0.00     0.338 C 
ATOM     32  O   UNL A   1      33.081  33.014  27.723  1.00  0.00    -0.246 OA
BRANCH  31  33
ATOM     33  C   UNL A   1      34.849  31.505  27.709  1.00  0.00     0.060 A 
ATOM     34  C   UNL A   1      34.904  30.175  28.119  1.00  0.00     0.016 A 
ATOM     35  C   UNL A   1      35.885  32.389  28.016  1.00  0.00     0.016 A 
ATOM     36  C   UNL A   1      35.950  29.743  28.921  1.00  0.00     0.010 A 
ATOM     37  C   UNL A   1      36.983  31.928  28.750  1.00  0.00     0.010 A 
ATOM     38  C   UNL A   1      37.005  30.611  29.237  1.00  0.00    -0.014 A 
BRANCH  38  39
ATOM     39  C   UNL A   1      38.129  30.084  30.049  1.00  0.00     0.031 A 
ATOM     40  C   UNL A   1      39.138  29.136  29.470  1.00  0.00     0.074 A 
ATOM     41  C   UNL A   1      38.281  30.551  31.302  1.00  0.00     0.049 A 
ATOM     42  N   UNL A   1      40.227  28.655  30.016  1.00  0.00    -0.248 NA
ATOM     43  C   UNL A   1      38.904  28.670  28.096  1.00  0.00     0.031 C 
ATOM     44  C   UNL A   1      37.378  31.499  31.959  1.00  0.00     0.029 A 
ATOM     45  N   UNL A   1      39.258  30.320  32.234  1.00  0.00    -0.354 N 
ATOM     46  C   UNL A   1      40.817  27.852  29.051  1.00  0.00     0.074 A 
ATOM     47  C   UNL A   1      39.949  27.878  27.892  1.00  0.00     0.031 C 
ATOM     48  C   UNL A   1      37.862  31.797  33.172  1.00  0.00     0.029 A 
ATOM     49  C   UNL A   1      39.075  31.020  33.400  1.00  0.00     0.049 A 
ATOM     50  H   UNL A   1      40.016  29.710  32.083  1.00  0.00     0.167 HD
ATOM     51  C   UNL A   1      41.981  27.163  29.124  1.00  0.00     0.037 A 
ATOM     52  C   UNL A   1      39.794  31.022  34.536  1.00  0.00     0.037 A 
ATOM     53  C   UNL A   1      42.825  27.109  30.290  1.00  0.00     0.049 A 
ATOM     54  C   UNL A   1      41.022  30.167  34.622  1.00  0.00     0.074 A 
ATOM     55  C   UNL A   1      44.014  26.421  30.469  1.00  0.00     0.029 A 
ATOM     56  N   UNL A   1      42.557  27.758  31.487  1.00  0.00    -0.354 N 
ATOM     57  N   UNL A   1      41.574  29.420  33.699  1.00  0.00    -0.248 NA
ATOM     58  C   UNL A   1      41.719  30.145  35.915  1.00  0.00     0.031 C 
ATOM     59  C   UNL A   1      44.446  26.624  31.785  1.00  0.00     0.029 A 
ATOM     60  C   UNL A   1      43.544  27.466  32.416  1.00  0.00     0.049 A 
ATOM     61  H   UNL A   1      41.782  28.341  31.651  1.00  0.00     0.167 HD
ATOM     62  C   UNL A   1      42.684  28.839  34.295  1.00  0.00     0.074 A 
ATOM     63  C   UNL A   1      42.740  29.343  35.652  1.00  0.00     0.031 C 
ATOM     64  C   UNL A   1      43.571  27.961  33.767  1.00  0.00     0.037 A 
BRANCH  51  65
ATOM     65  C   UNL A   1      42.413  26.398  27.910  1.00  0.00     0.064 A 
ATOM     66  C   UNL A   1      43.301  26.956  26.978  1.00  0.00     0.173 A 
ATOM     67  C   UNL A   1      41.991  25.076  27.708  1.00  0.00     0.173 A 
ATOM     68  F   UNL A   1      43.718  28.223  27.117  1.00  0.00    -0.203 F 
ATOM     69  C   UNL A   1      43.748  26.217  25.885  1.00  0.00     0.198 A 
ATOM     70  C   UNL A   1      42.451  24.336  26.621  1.00  0.00     0.198 A 
ATOM     71  F   UNL A   1      41.141  24.500  28.571  1.00  0.00    -0.203 F 
ATOM     72  F   UNL A   1      44.581  26.777  24.996  1.00  0.00    -0.200 F 
ATOM     73  C   UNL A   1      43.328  24.906  25.711  1.00  0.00     0.200 A 
ATOM     74  F   UNL A   1      42.047  23.069  26.456  1.00  0.00    -0.200 F 
ATOM     75  F   UNL A   1      43.766  24.195  24.663  1.00  0.00    -0.200 F 
ENDBRANCH  51  65
BRANCH  52  76
ATOM     76  C   UNL A   1      39.343  31.843  35.685  1.00  0.00     0.064 A 
ATOM     77  C   UNL A   1      39.811  33.149  35.871  1.00  0.00     0.173 A 
ATOM     78  C   UNL A   1      38.417  31.338  36.611  1.00  0.00     0.173 A 
ATOM     79  F   UNL A   1      40.712  33.665  35.023  1.00  0.00    -0.203 F 
ATOM     80  C   UNL A   1      39.372  33.920  36.945  1.00  0.00     0.198 A 
ATOM     81  C   UNL A   1      37.961  32.118  37.669  1.00  0.00     0.198 A 
ATOM     82  F   UNL A   1      37.941  30.092  36.473  1.00  0.00    -0.203 F 
ATOM     83  F   UNL A   1      39.858  35.156  37.121  1.00  0.00    -0.200 F 
ATOM     84  C   UNL A   1      38.443  33.407  37.838  1.00  0.00     0.200 A 
ATOM     85  F   UNL A   1      37.053  31.623  38.521  1.00  0.00    -0.200 F 
ATOM     86  F   UNL A   1      38.016  34.153  38.867  1.00  0.00    -0.200 F 
ENDBRANCH  52  76
BRANCH  64  87
ATOM     87  C   UNL A   1      44.669  27.495  34.672  1.00  0.00     0.064 A 
ATOM     88  C   UNL A   1      45.878  28.201  34.770  1.00  0.00     0.173 A 
ATOM     89  C   UNL A   1      44.516  26.333  35.442  1.00  0.00     0.173 A 
ATOM     90  F   UNL A   1      46.074  29.306  34.036  1.00  0.00    -0.203 F 
ATOM     91  C   UNL A   1      46.906  27.743  35.587  1.00  0.00     0.198 A 
ATOM     92  C   UNL A   1      45.540  25.890  36.274  1.00  0.00     0.198 A 
ATOM     93  F   UNL A   1      43.378  25.626  35.382  1.00  0.00    -0.203 F 
ATOM     94  F   UNL A   1      48.071  28.404  35.627  1.00  0.00    -0.200 F 
ATOM     95  C   UNL A   1      46.736  26.591  36.340  1.00  0.00     0.200 A 
ATOM     96  F   UNL A   1      45.374  24.780  37.005  1.00  0.00    -0.200 F 
ATOM     97  F   UNL A   1      47.732  26.146  37.120  1.00  0.00    -0.200 F 
ENDBRANCH  64  87
ENDBRANCH  38  39
ENDBRANCH  31  33
ENDBRANCH  30  31
ENDBRANCH  29  30
ENDBRANCH   1  29
TORSDOF 15
ENDMDL
MODEL 3
REMARK VINA RESULT:     -12.7      4.517     10.011
REMARK SMILES Cc1ccnc(C(=O)c2[nH]c3ccc(C(C)(C)C)cc3c2CC(=O)OCCOC(=O)c2ccc(-c3c4nc(c(-c5c(F)c(F)c(F)c(F)c5F)c5ccc([nH]5)c(-c5c(F)c(F)c(F)c(F)c5F)c5nc(c(-c6c(F)c(F)c(F)c(F)c6F)c6ccc3[nH]6)C=C5)C=C4)cc2)c1
REMARK SMILES IDX 26 1 25 2 23 3 24 4 22 5 21 6 9 7 10 8 11 9 20 11 12 12
REMARK SMILES IDX 19 13 13 14 14 15 7 16 8 17 6 18 1 19 2 20 3 21 94 22 4 23
REMARK SMILES IDX 5 24 15 25 16 26 17 27 18 28 27 29 28 30 29 31 30 32 31 33
REMARK SMILES IDX 32 34 93 35 33 36 92 37 34 38 35 39 36 40 86 41 37 42 91 43
REMARK SMILES IDX 85 44 87 45 38 46 90 47 84 48 83 49 39 51 71 52 51 53 70 54
REMARK SMILES IDX 52 55 55 56 69 57 88 58 53 59 54 60 68 62 89 63 56 64 40 65
REMARK SMILES IDX 41 66 49 67 42 68 43 69 47 70 50 71 44 72 45 73 48 74 46 75
REMARK SMILES IDX 72 76 73 77 81 78 74 79 75 80 79 81 82 82 76 83 77 84 80 85
REMARK SMILES IDX 78 86 57 87 58 88 66 89 59 90 60 91 64 92 67 93 61 94 62 95
REMARK SMILES IDX 65 96 63 97
REMARK H PARENT 10 10 87 50 55 61
REMARK Flexibility Score: inf
ROOT
ATOM      1  C   UNL A   1      31.688  30.245  25.786  1.00  0.00     0.274 C 
ENDROOT
BRANCH   1   2
ATOM      2  O   UNL A   1      32.829  29.412  26.089  1.00  0.00    -0.462 OA
BRANCH   2   3
ATOM      3  C   UNL A   1      32.580  28.090  26.249  1.00  0.00     0.310 C 
ATOM      4  O   UNL A   1      31.515  27.638  26.668  1.00  0.00    -0.252 OA
BRANCH   3   5
ATOM      5  C   UNL A   1      33.653  27.164  25.720  1.00  0.00     0.161 C 
BRANCH   5   6
ATOM      6  C   UNL A   1      33.421  26.421  24.446  1.00  0.00     0.000 A 
ATOM      7  C   UNL A   1      32.860  26.896  23.261  1.00  0.00     0.093 A 
ATOM      8  N   UNL A   1      32.817  25.840  22.384  1.00  0.00    -0.352 N 
ATOM      9  C   UNL A   1      33.139  24.670  23.014  1.00  0.00     0.046 A 
ATOM     10  H   UNL A   1      32.585  25.914  21.430  1.00  0.00     0.167 HD
ATOM     11  C   UNL A   1      33.603  25.001  24.281  1.00  0.00     0.004 A 
ATOM     12  C   UNL A   1      33.063  23.359  22.551  1.00  0.00     0.027 A 
ATOM     13  C   UNL A   1      34.077  23.955  25.107  1.00  0.00     0.015 A 
ATOM     14  C   UNL A   1      33.509  22.344  23.402  1.00  0.00     0.006 A 
ATOM     15  C   UNL A   1      34.040  22.608  24.673  1.00  0.00    -0.042 A 
BRANCH   7  16
ATOM     16  C   UNL A   1      32.384  28.198  22.818  1.00  0.00     0.227 C 
ATOM     17  O   UNL A   1      33.177  29.027  22.374  1.00  0.00    -0.285 OA
BRANCH  16  18
ATOM     18  C   UNL A   1      30.901  28.416  22.618  1.00  0.00     0.113 A 
ATOM     19  C   UNL A   1      28.482  31.167  21.610  1.00  0.00     0.044 C 
ATOM     20  C   UNL A   1      29.046  29.871  22.112  1.00  0.00    -0.047 A 
ATOM     21  C   UNL A   1      28.208  28.957  22.751  1.00  0.00     0.023 A 
ATOM     22  C   UNL A   1      30.415  29.587  22.030  1.00  0.00     0.036 A 
ATOM     23  C   UNL A   1      28.766  27.808  23.283  1.00  0.00     0.112 A 
ATOM     24  N   UNL A   1      30.081  27.521  23.233  1.00  0.00    -0.253 NA
ENDBRANCH  16  18
ENDBRANCH   7  16
BRANCH  15  25
ATOM     25  C   UNL A   1      34.593  21.487  25.576  1.00  0.00    -0.013 C 
ATOM     26  C   UNL A   1      33.987  21.632  26.988  1.00  0.00     0.016 C 
ATOM     27  C   UNL A   1      34.223  20.104  25.001  1.00  0.00     0.016 C 
ATOM     28  C   UNL A   1      36.131  21.517  25.734  1.00  0.00     0.016 C 
ENDBRANCH  15  25
ENDBRANCH   5   6
ENDBRANCH   3   5
ENDBRANCH   2   3
ENDBRANCH   1   2
BRANCH   1  29
ATOM     29  C   UNL A   1      31.786  31.618  26.465  1.00  0.00     0.275 C 
BRANCH  29  30
ATOM     30  O   UNL A   1      32.627  31.596  27.639  1.00  0.00    -0.458 OA
BRANCH  30  31
ATOM     31  C   UNL A   1      33.589  32.541  27.624  1.00  0.00     0.338 C 
ATOM     32  O   UNL A   1      33.437  33.736  27.427  1.00  0.00    -0.246 OA
BRANCH  31  33
ATOM     33  C   UNL A   1      34.903  32.027  28.006  1.00  0.00     0.060 A 
ATOM     34  C   UNL A   1      34.962  30.725  28.497  1.00  0.00     0.016 A 
ATOM     35  C   UNL A   1      35.989  32.893  28.149  1.00  0.00     0.016 A 
ATOM     36  C   UNL A   1      36.071  30.309  29.219  1.00  0.00     0.010 A 
ATOM     37  C   UNL A   1      37.143  32.442  28.801  1.00  0.00     0.010 A 
ATOM     38  C   UNL A   1      37.177  31.159  29.370  1.00  0.00    -0.014 A 
BRANCH  38  39
ATOM     39  C   UNL A   1      38.361  30.647  30.101  1.00  0.00     0.031 A 
ATOM     40  C   UNL A   1      38.640  31.046  31.521  1.00  0.00     0.074 A 
ATOM     41  C   UNL A   1      39.139  29.734  29.490  1.00  0.00     0.049 A 
ATOM     42  N   UNL A   1      39.578  30.618  32.329  1.00  0.00    -0.248 NA
ATOM     43  C   UNL A   1      37.747  32.047  32.119  1.00  0.00     0.031 C 
ATOM     44  C   UNL A   1      38.945  29.249  28.121  1.00  0.00     0.029 A 
ATOM     45  N   UNL A   1      40.223  29.031  29.943  1.00  0.00    -0.354 N 
ATOM     46  C   UNL A   1      39.377  31.279  33.532  1.00  0.00     0.074 A 
ATOM     47  C   UNL A   1      38.248  32.166  33.343  1.00  0.00     0.031 C 
ATOM     48  C   UNL A   1      39.856  28.301  27.859  1.00  0.00     0.029 A 
ATOM     49  C   UNL A   1      40.730  28.153  29.017  1.00  0.00     0.049 A 
ATOM     50  H   UNL A   1      40.604  29.145  30.844  1.00  0.00     0.167 HD
ATOM     51  C   UNL A   1      40.068  31.151  34.691  1.00  0.00     0.037 A 
ATOM     52  C   UNL A   1      41.794  27.334  29.085  1.00  0.00     0.037 A 
ATOM     53  C   UNL A   1      41.214  30.295  34.866  1.00  0.00     0.049 A 
ATOM     54  C   UNL A   1      42.601  27.292  30.347  1.00  0.00     0.074 A 
ATOM     55  C   UNL A   1      41.994  30.112  35.995  1.00  0.00     0.029 A 
ATOM     56  N   UNL A   1      41.755  29.490  33.874  1.00  0.00    -0.354 N 
ATOM     57  N   UNL A   1      42.394  27.914  31.481  1.00  0.00    -0.248 NA
ATOM     58  C   UNL A   1      43.799  26.442  30.333  1.00  0.00     0.031 C 
ATOM     59  C   UNL A   1      43.029  29.225  35.676  1.00  0.00     0.029 A 
ATOM     60  C   UNL A   1      42.874  28.830  34.358  1.00  0.00     0.049 A 
ATOM     61  H   UNL A   1      41.396  29.401  32.962  1.00  0.00     0.167 HD
ATOM     62  C   UNL A   1      43.433  27.533  32.317  1.00  0.00     0.074 A 
ATOM     63  C   UNL A   1      44.253  26.603  31.567  1.00  0.00     0.031 C 
ATOM     64  C   UNL A   1      43.687  27.924  33.589  1.00  0.00     0.037 A 
BRANCH  51  65
ATOM     65  C   UNL A   1      39.613  31.962  35.865  1.00  0.00     0.064 A 
ATOM     66  C   UNL A   1      40.199  33.202  36.162  1.00  0.00     0.173 A 
ATOM     67  C   UNL A   1      38.541  31.532  36.661  1.00  0.00     0.173 A 
ATOM     68  F   UNL A   1      41.240  33.647  35.442  1.00  0.00    -0.203 F 
ATOM     69  C   UNL A   1      39.730  33.980  37.217  1.00  0.00     0.198 A 
ATOM     70  C   UNL A   1      38.065  32.320  37.707  1.00  0.00     0.198 A 
ATOM     71  F   UNL A   1      37.949  30.354  36.417  1.00  0.00    -0.203 F 
ATOM     72  F   UNL A   1      40.318  35.152  37.495  1.00  0.00    -0.200 F 
ATOM     73  C   UNL A   1      38.659  33.543  37.984  1.00  0.00     0.200 A 
ATOM     74  F   UNL A   1      37.030  31.898  38.445  1.00  0.00    -0.200 F 
ATOM     75  F   UNL A   1      38.204  34.298  38.993  1.00  0.00    -0.200 F 
ENDBRANCH  51  65
BRANCH  52  76
ATOM     76  C   UNL A   1      42.162  26.516  27.904  1.00  0.00     0.064 A 
ATOM     77  C   UNL A   1      43.119  26.960  26.985  1.00  0.00     0.173 A 
ATOM     78  C   UNL A   1      41.571  25.262  27.685  1.00  0.00     0.173 A 
ATOM     79  F   UNL A   1      43.693  28.161  27.143  1.00  0.00    -0.203 F 
ATOM     80  C   UNL A   1      43.470  26.180  25.885  1.00  0.00     0.198 A 
ATOM     81  C   UNL A   1      41.941  24.474  26.600  1.00  0.00     0.198 A 
ATOM     82  F   UNL A   1      40.649  24.795  28.540  1.00  0.00    -0.203 F 
ATOM     83  F   UNL A   1      44.366  26.640  25.001  1.00  0.00    -0.200 F 
ATOM     84  C   UNL A   1      42.887  24.935  25.698  1.00  0.00     0.200 A 
ATOM     85  F   UNL A   1      41.385  23.266  26.432  1.00  0.00    -0.200 F 
ATOM     86  F   UNL A   1      43.231  24.183  24.644  1.00  0.00    -0.200 F 
ENDBRANCH  52  76
BRANCH  64  87
ATOM     87  C   UNL A   1      44.907  27.344  34.235  1.00  0.00     0.064 A 
ATOM     88  C   UNL A   1      46.146  27.999  34.165  1.00  0.00     0.173 A 
ATOM     89  C   UNL A   1      44.841  26.124  34.923  1.00  0.00     0.173 A 
ATOM     90  F   UNL A   1      46.260  29.159  33.500  1.00  0.00    -0.203 F 
ATOM     91  C   UNL A   1      47.283  27.438  34.738  1.00  0.00     0.198 A 
ATOM     92  C   UNL A   1      45.977  25.576  35.513  1.00  0.00     0.198 A 
ATOM     93  F   UNL A   1      43.679  25.462  35.017  1.00  0.00    -0.203 F 
ATOM     94  F   UNL A   1      48.466  28.054  34.616  1.00  0.00    -0.200 F 
ATOM     95  C   UNL A   1      47.197  26.229  35.413  1.00  0.00     0.200 A 
ATOM     96  F   UNL A   1      45.893  24.412  36.169  1.00  0.00    -0.200 F 
ATOM     97  F   UNL A   1      48.295  25.685  35.957  1.00  0.00    -0.200 F 
ENDBRANCH  64  87
ENDBRANCH  38  39
ENDBRANCH  31  33
ENDBRANCH  30  31
ENDBRANCH  29  30
ENDBRANCH   1  29
TORSDOF 15
ENDMDL
