MODEL 1
REMARK VINA RESULT:     -11.0      0.000      0.000
REMARK SMILES Cc1ncccc1C(=O)NCCOCC(=O)OCCOC(=O)c1ccc(-c2c3nc(c(-c4c(F)c(F)c(F)c(F)c4F)c4ccc([nH]4)c(-c4c(F)c(F)c(F)c(F)c4F)c4nc(c(-c5c(F)c(F)c(F)c(F)c5F)c5ccc2[nH]5)C=C4)C=C3)cc1
REMARK SMILES IDX 17 1 15 2 16 3 14 4 13 5 12 6 11 7 10 8 8 9 9 10 7 12 1 13
REMARK SMILES IDX 2 14 3 15 4 16 6 17 5 18 18 19 19 20 20 21 21 22 22 23 23 24
REMARK SMILES IDX 24 25 85 26 25 27 84 28 26 29 27 30 28 31 78 32 29 33 83 34
REMARK SMILES IDX 77 35 79 36 30 37 82 38 76 39 75 40 31 42 63 43 43 44 62 45
REMARK SMILES IDX 44 46 47 47 61 48 80 49 45 50 46 51 60 53 81 54 48 55 32 56
REMARK SMILES IDX 33 57 41 58 34 59 35 60 39 61 42 62 36 63 37 64 40 65 38 66
REMARK SMILES IDX 64 67 65 68 73 69 66 70 67 71 71 72 74 73 68 74 69 75 72 76
REMARK SMILES IDX 70 77 49 78 50 79 58 80 51 81 52 82 56 83 59 84 53 85 54 86
REMARK SMILES IDX 57 87 55 88
REMARK H PARENT 10 11 79 41 47 52
REMARK Flexibility Score: inf
ROOT
ATOM      1  O   UNL A   1      42.363  19.958  25.363  1.00  0.00    -0.460 OA
ENDROOT
BRANCH   1   2
ATOM      2  C   UNL A   1      41.683  20.075  26.537  1.00  0.00     0.332 C 
ATOM      3  O   UNL A   1      42.206  20.033  27.648  1.00  0.00    -0.250 OA
BRANCH   2   4
ATOM      4  C   UNL A   1      40.186  20.411  26.342  1.00  0.00     0.282 C 
BRANCH   4   5
ATOM      5  O   UNL A   1      39.618  21.662  26.684  1.00  0.00    -0.368 OA
BRANCH   5   6
ATOM      6  C   UNL A   1      38.537  22.112  25.856  1.00  0.00     0.182 C 
BRANCH   6   7
ATOM      7  C   UNL A   1      37.773  20.975  25.150  1.00  0.00     0.144 C 
BRANCH   7   8
ATOM      8  N   UNL A   1      36.410  20.680  25.589  1.00  0.00    -0.350 N 
ATOM      9  C   UNL A   1      35.315  20.838  24.770  1.00  0.00     0.253 C 
ATOM     10  O   UNL A   1      35.130  21.799  24.036  1.00  0.00    -0.269 OA
ATOM     11  H   UNL A   1      36.270  20.355  26.507  1.00  0.00     0.163 HD
BRANCH   9  12
ATOM     12  C   UNL A   1      34.338  19.727  24.731  1.00  0.00     0.061 A 
ATOM     13  C   UNL A   1      32.488  21.231  25.611  1.00  0.00     0.067 C 
ATOM     14  C   UNL A   1      33.028  19.895  25.194  1.00  0.00     0.050 A 
ATOM     15  N   UNL A   1      32.170  18.847  25.357  1.00  0.00    -0.261 NA
ATOM     16  C   UNL A   1      32.639  17.605  25.111  1.00  0.00     0.111 A 
ATOM     17  C   UNL A   1      34.779  18.429  24.457  1.00  0.00     0.017 A 
ATOM     18  C   UNL A   1      33.916  17.350  24.643  1.00  0.00     0.021 A 
ENDBRANCH   9  12
ENDBRANCH   7   8
ENDBRANCH   6   7
ENDBRANCH   5   6
ENDBRANCH   4   5
ENDBRANCH   2   4
ENDBRANCH   1   2
BRANCH   1  19
ATOM     19  C   UNL A   1      43.785  20.216  25.403  1.00  0.00     0.274 C 
BRANCH  19  20
ATOM     20  C   UNL A   1      44.129  21.634  24.890  1.00  0.00     0.275 C 
BRANCH  20  21
ATOM     21  O   UNL A   1      43.023  22.576  24.883  1.00  0.00    -0.458 OA
BRANCH  21  22
ATOM     22  C   UNL A   1      43.416  23.848  25.003  1.00  0.00     0.338 C 
ATOM     23  O   UNL A   1      44.361  24.369  24.406  1.00  0.00    -0.246 OA
BRANCH  22  24
ATOM     24  C   UNL A   1      42.727  24.734  25.929  1.00  0.00     0.060 A 
ATOM     25  C   UNL A   1      43.291  26.017  26.032  1.00  0.00     0.016 A 
ATOM     26  C   UNL A   1      41.871  24.248  26.915  1.00  0.00     0.016 A 
ATOM     27  C   UNL A   1      43.093  26.775  27.170  1.00  0.00     0.010 A 
ATOM     28  C   UNL A   1      41.625  25.042  28.041  1.00  0.00     0.010 A 
ATOM     29  C   UNL A   1      42.259  26.290  28.183  1.00  0.00    -0.014 A 
BRANCH  29  30
ATOM     30  C   UNL A   1      41.942  27.198  29.302  1.00  0.00     0.031 A 
ATOM     31  C   UNL A   1      42.756  27.245  30.555  1.00  0.00     0.074 A 
ATOM     32  C   UNL A   1      40.919  28.047  29.114  1.00  0.00     0.049 A 
ATOM     33  N   UNL A   1      42.493  27.850  31.684  1.00  0.00    -0.248 NA
ATOM     34  C   UNL A   1      44.032  26.523  30.544  1.00  0.00     0.031 C 
ATOM     35  C   UNL A   1      40.134  28.143  27.881  1.00  0.00     0.029 A 
ATOM     36  N   UNL A   1      40.377  28.990  29.938  1.00  0.00    -0.354 N 
ATOM     37  C   UNL A   1      43.538  27.529  32.541  1.00  0.00     0.074 A 
ATOM     38  C   UNL A   1      44.455  26.696  31.792  1.00  0.00     0.031 C 
ATOM     39  C   UNL A   1      39.207  29.096  28.031  1.00  0.00     0.029 A 
ATOM     40  C   UNL A   1      39.289  29.615  29.391  1.00  0.00     0.049 A 
ATOM     41  H   UNL A   1      40.731  29.198  30.833  1.00  0.00     0.167 HD
ATOM     42  C   UNL A   1      43.693  27.904  33.834  1.00  0.00     0.037 A 
ATOM     43  C   UNL A   1      38.417  30.474  29.942  1.00  0.00     0.037 A 
ATOM     44  C   UNL A   1      42.816  28.833  34.510  1.00  0.00     0.049 A 
ATOM     45  C   UNL A   1      38.625  30.894  31.362  1.00  0.00     0.074 A 
ATOM     46  C   UNL A   1      42.909  29.328  35.799  1.00  0.00     0.029 A 
ATOM     47  N   UNL A   1      41.707  29.436  33.932  1.00  0.00    -0.354 N 
ATOM     48  N   UNL A   1      39.547  30.501  32.208  1.00  0.00    -0.248 NA
ATOM     49  C   UNL A   1      37.681  31.874  31.903  1.00  0.00     0.031 C 
ATOM     50  C   UNL A   1      41.846  30.212  36.009  1.00  0.00     0.029 A 
ATOM     51  C   UNL A   1      41.111  30.301  34.837  1.00  0.00     0.049 A 
ATOM     52  H   UNL A   1      41.389  29.272  33.016  1.00  0.00     0.167 HD
ATOM     53  C   UNL A   1      39.300  31.189  33.383  1.00  0.00     0.074 A 
ATOM     54  C   UNL A   1      38.151  32.040  33.132  1.00  0.00     0.031 C 
ATOM     55  C   UNL A   1      39.961  31.123  34.564  1.00  0.00     0.037 A 
BRANCH  42  56
ATOM     56  C   UNL A   1      44.822  27.310  34.629  1.00  0.00     0.064 A 
ATOM     57  C   UNL A   1      44.703  26.091  35.310  1.00  0.00     0.173 A 
ATOM     58  C   UNL A   1      46.085  27.924  34.604  1.00  0.00     0.173 A 
ATOM     59  F   UNL A   1      43.520  25.462  35.367  1.00  0.00    -0.203 F 
ATOM     60  C   UNL A   1      45.806  25.510  35.938  1.00  0.00     0.198 A 
ATOM     61  C   UNL A   1      47.190  27.329  35.209  1.00  0.00     0.198 A 
ATOM     62  F   UNL A   1      46.258  29.089  33.962  1.00  0.00    -0.203 F 
ATOM     63  F   UNL A   1      45.667  24.349  36.593  1.00  0.00    -0.200 F 
ATOM     64  C   UNL A   1      47.049  26.121  35.875  1.00  0.00     0.200 A 
ATOM     65  F   UNL A   1      48.393  27.913  35.128  1.00  0.00    -0.200 F 
ATOM     66  F   UNL A   1      48.114  25.545  36.449  1.00  0.00    -0.200 F 
ENDBRANCH  42  56
BRANCH  43  67
ATOM     67  C   UNL A   1      37.271  30.936  29.129  1.00  0.00     0.064 A 
ATOM     68  C   UNL A   1      36.166  30.108  28.903  1.00  0.00     0.173 A 
ATOM     69  C   UNL A   1      37.211  32.259  28.664  1.00  0.00     0.173 A 
ATOM     70  F   UNL A   1      36.185  28.837  29.327  1.00  0.00    -0.203 F 
ATOM     71  C   UNL A   1      35.037  30.589  28.245  1.00  0.00     0.198 A 
ATOM     72  C   UNL A   1      36.072  32.746  28.032  1.00  0.00     0.198 A 
ATOM     73  F   UNL A   1      38.240  33.093  28.877  1.00  0.00    -0.203 F 
ATOM     74  F   UNL A   1      33.994  29.776  28.032  1.00  0.00    -0.200 F 
ATOM     75  C   UNL A   1      34.986  31.910  27.822  1.00  0.00     0.200 A 
ATOM     76  F   UNL A   1      36.016  34.030  27.652  1.00  0.00    -0.200 F 
ATOM     77  F   UNL A   1      33.884  32.380  27.220  1.00  0.00    -0.200 F 
ENDBRANCH  43  67
BRANCH  55  78
ATOM     78  C   UNL A   1      39.457  32.013  35.659  1.00  0.00     0.064 A 
ATOM     79  C   UNL A   1      39.942  33.319  35.820  1.00  0.00     0.173 A 
ATOM     80  C   UNL A   1      38.487  31.551  36.559  1.00  0.00     0.173 A 
ATOM     81  F   UNL A   1      40.885  33.794  34.992  1.00  0.00    -0.203 F 
ATOM     82  C   UNL A   1      39.497  34.120  36.866  1.00  0.00     0.198 A 
ATOM     83  C   UNL A   1      38.026  32.364  37.590  1.00  0.00     0.198 A 
ATOM     84  F   UNL A   1      37.992  30.310  36.443  1.00  0.00    -0.203 F 
ATOM     85  F   UNL A   1      40.014  35.344  37.036  1.00  0.00    -0.200 F 
ATOM     86  C   UNL A   1      38.538  33.643  37.748  1.00  0.00     0.200 A 
ATOM     87  F   UNL A   1      37.096  31.905  38.439  1.00  0.00    -0.200 F 
ATOM     88  F   UNL A   1      38.118  34.414  38.761  1.00  0.00    -0.200 F 
ENDBRANCH  55  78
ENDBRANCH  29  30
ENDBRANCH  22  24
ENDBRANCH  21  22
ENDBRANCH  20  21
ENDBRANCH  19  20
ENDBRANCH   1  19
TORSDOF 16
ENDMDL
MODEL 2
REMARK VINA RESULT:     -11.0      2.730      8.332
REMARK SMILES Cc1ncccc1C(=O)NCCOCC(=O)OCCOC(=O)c1ccc(-c2c3nc(c(-c4c(F)c(F)c(F)c(F)c4F)c4ccc([nH]4)c(-c4c(F)c(F)c(F)c(F)c4F)c4nc(c(-c5c(F)c(F)c(F)c(F)c5F)c5ccc2[nH]5)C=C4)C=C3)cc1
REMARK SMILES IDX 17 1 15 2 16 3 14 4 13 5 12 6 11 7 10 8 8 9 9 10 7 12 1 13
REMARK SMILES IDX 2 14 3 15 4 16 6 17 5 18 18 19 19 20 20 21 21 22 22 23 23 24
REMARK SMILES IDX 24 25 85 26 25 27 84 28 26 29 27 30 28 31 78 32 29 33 83 34
REMARK SMILES IDX 77 35 79 36 30 37 82 38 76 39 75 40 31 42 63 43 43 44 62 45
REMARK SMILES IDX 44 46 47 47 61 48 80 49 45 50 46 51 60 53 81 54 48 55 32 56
REMARK SMILES IDX 33 57 41 58 34 59 35 60 39 61 42 62 36 63 37 64 40 65 38 66
REMARK SMILES IDX 64 67 65 68 73 69 66 70 67 71 71 72 74 73 68 74 69 75 72 76
REMARK SMILES IDX 70 77 49 78 50 79 58 80 51 81 52 82 56 83 59 84 53 85 54 86
REMARK SMILES IDX 57 87 55 88
REMARK H PARENT 10 11 79 41 47 52
REMARK Flexibility Score: inf
ROOT
ATOM      1  O   UNL A   1      45.571  23.318  23.767  1.00  0.00    -0.460 OA
ENDROOT
BRANCH   1   2
ATOM      2  C   UNL A   1      44.687  22.439  24.315  1.00  0.00     0.332 C 
ATOM      3  O   UNL A   1      43.469  22.495  24.165  1.00  0.00    -0.250 OA
BRANCH   2   4
ATOM      4  C   UNL A   1      45.375  21.261  25.045  1.00  0.00     0.282 C 
BRANCH   4   5
ATOM      5  O   UNL A   1      45.635  20.012  24.431  1.00  0.00    -0.368 OA
BRANCH   5   6
ATOM      6  C   UNL A   1      44.528  19.104  24.353  1.00  0.00     0.182 C 
BRANCH   6   7
ATOM      7  C   UNL A   1      43.626  19.105  25.602  1.00  0.00     0.144 C 
BRANCH   7   8
ATOM      8  N   UNL A   1      42.302  19.715  25.500  1.00  0.00    -0.350 N 
ATOM      9  C   UNL A   1      41.583  20.120  26.602  1.00  0.00     0.253 C 
ATOM     10  O   UNL A   1      41.473  19.474  27.636  1.00  0.00    -0.269 OA
ATOM     11  H   UNL A   1      41.908  19.841  24.607  1.00  0.00     0.163 HD
BRANCH   9  12
ATOM     12  C   UNL A   1      40.967  21.465  26.547  1.00  0.00     0.061 A 
ATOM     13  C   UNL A   1      42.976  22.511  27.698  1.00  0.00     0.067 C 
ATOM     14  C   UNL A   1      41.591  22.575  27.127  1.00  0.00     0.050 A 
ATOM     15  N   UNL A   1      40.961  23.776  27.269  1.00  0.00    -0.261 NA
ATOM     16  C   UNL A   1      39.671  23.861  26.881  1.00  0.00     0.111 A 
ATOM     17  C   UNL A   1      39.639  21.598  26.129  1.00  0.00     0.017 A 
ATOM     18  C   UNL A   1      38.981  22.817  26.291  1.00  0.00     0.021 A 
ENDBRANCH   9  12
ENDBRANCH   7   8
ENDBRANCH   6   7
ENDBRANCH   5   6
ENDBRANCH   4   5
ENDBRANCH   2   4
ENDBRANCH   1   2
BRANCH   1  19
ATOM     19  C   UNL A   1      46.628  23.802  24.627  1.00  0.00     0.274 C 
BRANCH  19  20
ATOM     20  C   UNL A   1      46.406  25.275  25.043  1.00  0.00     0.275 C 
BRANCH  20  21
ATOM     21  O   UNL A   1      45.067  25.789  24.811  1.00  0.00    -0.458 OA
BRANCH  21  22
ATOM     22  C   UNL A   1      44.944  27.087  25.105  1.00  0.00     0.338 C 
ATOM     23  O   UNL A   1      45.656  27.994  24.667  1.00  0.00    -0.246 OA
BRANCH  22  24
ATOM     24  C   UNL A   1      43.922  27.523  26.043  1.00  0.00     0.060 A 
ATOM     25  C   UNL A   1      44.058  28.855  26.470  1.00  0.00     0.016 A 
ATOM     26  C   UNL A   1      43.147  26.616  26.764  1.00  0.00     0.016 A 
ATOM     27  C   UNL A   1      43.515  29.258  27.675  1.00  0.00     0.010 A 
ATOM     28  C   UNL A   1      42.549  27.043  27.955  1.00  0.00     0.010 A 
ATOM     29  C   UNL A   1      42.757  28.352  28.426  1.00  0.00    -0.014 A 
BRANCH  29  30
ATOM     30  C   UNL A   1      42.059  28.867  29.619  1.00  0.00     0.031 A 
ATOM     31  C   UNL A   1      40.702  29.490  29.550  1.00  0.00     0.074 A 
ATOM     32  C   UNL A   1      42.671  28.682  30.799  1.00  0.00     0.049 A 
ATOM     33  N   UNL A   1      40.050  30.147  30.474  1.00  0.00    -0.248 NA
ATOM     34  C   UNL A   1      39.976  29.360  28.283  1.00  0.00     0.031 C 
ATOM     35  C   UNL A   1      43.950  27.990  30.973  1.00  0.00     0.029 A 
ATOM     36  N   UNL A   1      42.302  29.039  32.064  1.00  0.00    -0.354 N 
ATOM     37  C   UNL A   1      38.866  30.566  29.881  1.00  0.00     0.074 A 
ATOM     38  C   UNL A   1      38.876  30.065  28.523  1.00  0.00     0.031 C 
ATOM     39  C   UNL A   1      44.261  27.973  32.274  1.00  0.00     0.029 A 
ATOM     40  C   UNL A   1      43.243  28.719  33.005  1.00  0.00     0.049 A 
ATOM     41  H   UNL A   1      41.449  29.482  32.276  1.00  0.00     0.167 HD
ATOM     42  C   UNL A   1      37.877  31.306  30.440  1.00  0.00     0.037 A 
ATOM     43  C   UNL A   1      43.307  29.037  34.307  1.00  0.00     0.037 A 
ATOM     44  C   UNL A   1      37.850  31.685  31.833  1.00  0.00     0.049 A 
ATOM     45  C   UNL A   1      42.190  29.830  34.907  1.00  0.00     0.074 A 
ATOM     46  C   UNL A   1      36.873  32.385  32.520  1.00  0.00     0.029 A 
ATOM     47  N   UNL A   1      38.832  31.361  32.761  1.00  0.00    -0.354 N 
ATOM     48  N   UNL A   1      41.128  30.325  34.320  1.00  0.00    -0.248 NA
ATOM     49  C   UNL A   1      42.277  30.106  36.343  1.00  0.00     0.031 C 
ATOM     50  C   UNL A   1      37.272  32.502  33.856  1.00  0.00     0.029 A 
ATOM     51  C   UNL A   1      38.480  31.841  34.013  1.00  0.00     0.049 A 
ATOM     52  H   UNL A   1      39.657  30.865  32.558  1.00  0.00     0.167 HD
ATOM     53  C   UNL A   1      40.412  30.969  35.314  1.00  0.00     0.074 A 
ATOM     54  C   UNL A   1      41.154  30.782  36.547  1.00  0.00     0.031 C 
ATOM     55  C   UNL A   1      39.246  31.654  35.218  1.00  0.00     0.037 A 
BRANCH  42  56
ATOM     56  C   UNL A   1      36.752  31.785  29.567  1.00  0.00     0.064 A 
ATOM     57  C   UNL A   1      35.727  30.936  29.127  1.00  0.00     0.173 A 
ATOM     58  C   UNL A   1      36.640  33.153  29.267  1.00  0.00     0.173 A 
ATOM     59  F   UNL A   1      35.782  29.621  29.383  1.00  0.00    -0.203 F 
ATOM     60  C   UNL A   1      34.634  31.439  28.419  1.00  0.00     0.198 A 
ATOM     61  C   UNL A   1      35.536  33.655  28.584  1.00  0.00     0.198 A 
ATOM     62  F   UNL A   1      37.589  34.012  29.668  1.00  0.00    -0.203 F 
ATOM     63  F   UNL A   1      33.671  30.607  27.998  1.00  0.00    -0.200 F 
ATOM     64  C   UNL A   1      34.533  32.797  28.160  1.00  0.00     0.200 A 
ATOM     65  F   UNL A   1      35.433  34.971  28.353  1.00  0.00    -0.200 F 
ATOM     66  F   UNL A   1      33.466  33.283  27.510  1.00  0.00    -0.200 F 
ENDBRANCH  42  56
BRANCH  43  67
ATOM     67  C   UNL A   1      44.498  28.619  35.079  1.00  0.00     0.064 A 
ATOM     68  C   UNL A   1      45.594  29.473  35.235  1.00  0.00     0.173 A 
ATOM     69  C   UNL A   1      44.508  27.398  35.774  1.00  0.00     0.173 A 
ATOM     70  F   UNL A   1      45.625  30.645  34.585  1.00  0.00    -0.203 F 
ATOM     71  C   UNL A   1      46.657  29.126  36.064  1.00  0.00     0.198 A 
ATOM     72  C   UNL A   1      45.557  27.065  36.623  1.00  0.00     0.198 A 
ATOM     73  F   UNL A   1      43.467  26.558  35.669  1.00  0.00    -0.203 F 
ATOM     74  F   UNL A   1      47.701  29.956  36.192  1.00  0.00    -0.200 F 
ATOM     75  C   UNL A   1      46.631  27.929  36.767  1.00  0.00     0.200 A 
ATOM     76  F   UNL A   1      45.513  25.923  37.323  1.00  0.00    -0.200 F 
ATOM     77  F   UNL A   1      47.640  27.614  37.592  1.00  0.00    -0.200 F 
ENDBRANCH  43  67
BRANCH  55  78
ATOM     78  C   UNL A   1      38.707  32.231  36.490  1.00  0.00     0.064 A 
ATOM     79  C   UNL A   1      39.002  33.546  36.878  1.00  0.00     0.173 A 
ATOM     80  C   UNL A   1      37.896  31.458  37.333  1.00  0.00     0.173 A 
ATOM     81  F   UNL A   1      39.790  34.314  36.110  1.00  0.00    -0.203 F 
ATOM     82  C   UNL A   1      38.530  34.057  38.083  1.00  0.00     0.198 A 
ATOM     83  C   UNL A   1      37.405  31.980  38.526  1.00  0.00     0.198 A 
ATOM     84  F   UNL A   1      37.586  30.196  37.003  1.00  0.00    -0.203 F 
ATOM     85  F   UNL A   1      38.869  35.297  38.461  1.00  0.00    -0.200 F 
ATOM     86  C   UNL A   1      37.731  33.275  38.904  1.00  0.00     0.200 A 
ATOM     87  F   UNL A   1      36.629  31.227  39.317  1.00  0.00    -0.200 F 
ATOM     88  F   UNL A   1      37.284  33.766  40.068  1.00  0.00    -0.200 F 
ENDBRANCH  55  78
ENDBRANCH  29  30
ENDBRANCH  22  24
ENDBRANCH  21  22
ENDBRANCH  20  21
ENDBRANCH  19  20
ENDBRANCH   1  19
TORSDOF 16
ENDMDL
MODEL 3
REMARK VINA RESULT:     -10.9      4.675      9.857
REMARK SMILES Cc1ncccc1C(=O)NCCOCC(=O)OCCOC(=O)c1ccc(-c2c3nc(c(-c4c(F)c(F)c(F)c(F)c4F)c4ccc([nH]4)c(-c4c(F)c(F)c(F)c(F)c4F)c4nc(c(-c5c(F)c(F)c(F)c(F)c5F)c5ccc2[nH]5)C=C4)C=C3)cc1
REMARK SMILES IDX 17 1 15 2 16 3 14 4 13 5 12 6 11 7 10 8 8 9 9 10 7 12 1 13
REMARK SMILES IDX 2 14 3 15 4 16 6 17 5 18 18 19 19 20 20 21 21 22 22 23 23 24
REMARK SMILES IDX 24 25 85 26 25 27 84 28 26 29 27 30 28 31 78 32 29 33 83 34
REMARK SMILES IDX 77 35 79 36 30 37 82 38 76 39 75 40 31 42 63 43 43 44 62 45
REMARK SMILES IDX 44 46 47 47 61 48 80 49 45 50 46 51 60 53 81 54 48 55 32 56
REMARK SMILES IDX 33 57 41 58 34 59 35 60 39 61 42 62 36 63 37 64 40 65 38 66
REMARK SMILES IDX 64 67 65 68 73 69 66 70 67 71 71 72 74 73 68 74 69 75 72 76
REMARK SMILES IDX 70 77 49 78 50 79 58 80 51 81 52 82 56 83 59 84 53 85 54 86
REMARK SMILES IDX 57 87 55 88
REMARK H PARENT 10 11 79 41 47 52
REMARK Flexibility Score: inf
ROOT
ATOM      1  O   UNL A   1      45.053  19.987  25.553  1.00  0.00    -0.460 OA
ENDROOT
BRANCH   1   2
ATOM      2  C   UNL A   1      45.222  20.770  24.452  1.00  0.00     0.332 C 
ATOM      3  O   UNL A   1      44.486  20.752  23.468  1.00  0.00    -0.250 OA
BRANCH   2   4
ATOM      4  C   UNL A   1      46.365  21.801  24.609  1.00  0.00     0.282 C 
BRANCH   4   5
ATOM      5  O   UNL A   1      46.400  22.772  25.638  1.00  0.00    -0.368 OA
BRANCH   5   6
ATOM      6  C   UNL A   1      46.466  24.140  25.213  1.00  0.00     0.182 C 
BRANCH   6   7
ATOM      7  C   UNL A   1      45.089  24.795  24.993  1.00  0.00     0.144 C 
BRANCH   7   8
ATOM      8  N   UNL A   1      45.027  26.250  24.866  1.00  0.00    -0.350 N 
ATOM      9  C   UNL A   1      43.979  26.995  25.360  1.00  0.00     0.253 C 
ATOM     10  O   UNL A   1      42.798  26.691  25.249  1.00  0.00    -0.269 OA
ATOM     11  H   UNL A   1      45.763  26.716  24.410  1.00  0.00     0.163 HD
BRANCH   9  12
ATOM     12  C   UNL A   1      44.321  28.206  26.139  1.00  0.00     0.061 A 
ATOM     13  C   UNL A   1      41.916  29.023  26.058  1.00  0.00     0.067 C 
ATOM     14  C   UNL A   1      43.366  29.193  26.405  1.00  0.00     0.050 A 
ATOM     15  N   UNL A   1      43.695  30.403  26.940  1.00  0.00    -0.261 NA
ATOM     16  C   UNL A   1      45.002  30.659  27.163  1.00  0.00     0.111 A 
ATOM     17  C   UNL A   1      45.662  28.495  26.411  1.00  0.00     0.017 A 
ATOM     18  C   UNL A   1      46.010  29.739  26.938  1.00  0.00     0.021 A 
ENDBRANCH   9  12
ENDBRANCH   7   8
ENDBRANCH   6   7
ENDBRANCH   5   6
ENDBRANCH   4   5
ENDBRANCH   2   4
ENDBRANCH   1   2
BRANCH   1  19
ATOM     19  C   UNL A   1      44.532  18.656  25.334  1.00  0.00     0.274 C 
BRANCH  19  20
ATOM     20  C   UNL A   1      43.136  18.469  25.972  1.00  0.00     0.275 C 
BRANCH  20  21
ATOM     21  O   UNL A   1      42.052  19.174  25.309  1.00  0.00    -0.458 OA
BRANCH  21  22
ATOM     22  C   UNL A   1      41.409  20.025  26.114  1.00  0.00     0.338 C 
ATOM     23  O   UNL A   1      40.252  19.897  26.520  1.00  0.00    -0.246 OA
BRANCH  22  24
ATOM     24  C   UNL A   1      42.070  21.245  26.553  1.00  0.00     0.060 A 
ATOM     25  C   UNL A   1      42.181  21.374  27.948  1.00  0.00     0.016 A 
ATOM     26  C   UNL A   1      42.200  22.354  25.719  1.00  0.00     0.016 A 
ATOM     27  C   UNL A   1      42.309  22.624  28.523  1.00  0.00     0.010 A 
ATOM     28  C   UNL A   1      42.390  23.612  26.301  1.00  0.00     0.010 A 
ATOM     29  C   UNL A   1      42.413  23.752  27.702  1.00  0.00    -0.014 A 
BRANCH  29  30
ATOM     30  C   UNL A   1      42.716  25.044  28.347  1.00  0.00     0.031 A 
ATOM     31  C   UNL A   1      41.657  26.045  28.678  1.00  0.00     0.074 A 
ATOM     32  C   UNL A   1      43.995  25.253  28.698  1.00  0.00     0.049 A 
ATOM     33  N   UNL A   1      41.792  27.285  29.072  1.00  0.00    -0.248 NA
ATOM     34  C   UNL A   1      40.265  25.603  28.557  1.00  0.00     0.031 C 
ATOM     35  C   UNL A   1      45.079  24.286  28.508  1.00  0.00     0.029 A 
ATOM     36  N   UNL A   1      44.594  26.325  29.294  1.00  0.00    -0.354 N 
ATOM     37  C   UNL A   1      40.504  27.792  29.181  1.00  0.00     0.074 A 
ATOM     38  C   UNL A   1      39.597  26.717  28.839  1.00  0.00     0.031 C 
ATOM     39  C   UNL A   1      46.215  24.811  28.980  1.00  0.00     0.029 A 
ATOM     40  C   UNL A   1      45.948  26.171  29.430  1.00  0.00     0.049 A 
ATOM     41  H   UNL A   1      44.104  27.124  29.594  1.00  0.00     0.167 HD
ATOM     42  C   UNL A   1      40.136  29.049  29.532  1.00  0.00     0.037 A 
ATOM     43  C   UNL A   1      46.882  27.051  29.823  1.00  0.00     0.037 A 
ATOM     44  C   UNL A   1      41.066  30.059  29.982  1.00  0.00     0.049 A 
ATOM     45  C   UNL A   1      46.449  28.422  30.232  1.00  0.00     0.074 A 
ATOM     46  C   UNL A   1      40.800  31.347  30.417  1.00  0.00     0.029 A 
ATOM     47  N   UNL A   1      42.439  29.879  30.090  1.00  0.00    -0.354 N 
ATOM     48  N   UNL A   1      45.244  28.938  30.225  1.00  0.00    -0.248 NA
ATOM     49  C   UNL A   1      47.497  29.329  30.705  1.00  0.00     0.031 C 
ATOM     50  C   UNL A   1      42.012  31.952  30.767  1.00  0.00     0.029 A 
ATOM     51  C   UNL A   1      43.031  31.029  30.589  1.00  0.00     0.049 A 
ATOM     52  H   UNL A   1      42.921  29.057  29.846  1.00  0.00     0.167 HD
ATOM     53  C   UNL A   1      45.384  30.232  30.698  1.00  0.00     0.074 A 
ATOM     54  C   UNL A   1      46.791  30.412  31.001  1.00  0.00     0.031 C 
ATOM     55  C   UNL A   1      44.436  31.185  30.866  1.00  0.00     0.037 A 
BRANCH  42  56
ATOM     56  C   UNL A   1      38.687  29.433  29.432  1.00  0.00     0.064 A 
ATOM     57  C   UNL A   1      37.878  29.619  30.561  1.00  0.00     0.173 A 
ATOM     58  C   UNL A   1      38.135  29.736  28.176  1.00  0.00     0.173 A 
ATOM     59  F   UNL A   1      38.352  29.343  31.784  1.00  0.00    -0.203 F 
ATOM     60  C   UNL A   1      36.571  30.091  30.436  1.00  0.00     0.198 A 
ATOM     61  C   UNL A   1      36.840  30.233  28.056  1.00  0.00     0.198 A 
ATOM     62  F   UNL A   1      38.867  29.583  27.062  1.00  0.00    -0.203 F 
ATOM     63  F   UNL A   1      35.810  30.251  31.528  1.00  0.00    -0.200 F 
ATOM     64  C   UNL A   1      36.058  30.411  29.187  1.00  0.00     0.200 A 
ATOM     65  F   UNL A   1      36.356  30.559  26.850  1.00  0.00    -0.200 F 
ATOM     66  F   UNL A   1      34.814  30.897  29.072  1.00  0.00    -0.200 F 
ENDBRANCH  42  56
BRANCH  43  67
ATOM     67  C   UNL A   1      48.301  26.633  29.797  1.00  0.00     0.064 A 
ATOM     68  C   UNL A   1      49.114  26.905  28.691  1.00  0.00     0.173 A 
ATOM     69  C   UNL A   1      48.899  26.058  30.930  1.00  0.00     0.173 A 
ATOM     70  F   UNL A   1      48.582  27.450  27.588  1.00  0.00    -0.203 F 
ATOM     71  C   UNL A   1      50.477  26.623  28.721  1.00  0.00     0.198 A 
ATOM     72  C   UNL A   1      50.265  25.802  30.968  1.00  0.00     0.198 A 
ATOM     73  F   UNL A   1      48.160  25.799  32.019  1.00  0.00    -0.203 F 
ATOM     74  F   UNL A   1      51.235  26.884  27.647  1.00  0.00    -0.200 F 
ATOM     75  C   UNL A   1      51.053  26.084  29.863  1.00  0.00     0.200 A 
ATOM     76  F   UNL A   1      50.821  25.311  32.084  1.00  0.00    -0.200 F 
ATOM     77  F   UNL A   1      52.371  25.847  29.902  1.00  0.00    -0.200 F 
ENDBRANCH  43  67
BRANCH  55  78
ATOM     78  C   UNL A   1      44.902  32.497  31.418  1.00  0.00     0.064 A 
ATOM     79  C   UNL A   1      45.310  33.541  30.575  1.00  0.00     0.173 A 
ATOM     80  C   UNL A   1      44.948  32.708  32.803  1.00  0.00     0.173 A 
ATOM     81  F   UNL A   1      45.300  33.374  29.244  1.00  0.00    -0.203 F 
ATOM     82  C   UNL A   1      45.781  34.739  31.101  1.00  0.00     0.198 A 
ATOM     83  C   UNL A   1      45.396  33.917  33.326  1.00  0.00     0.198 A 
ATOM     84  F   UNL A   1      44.566  31.740  33.649  1.00  0.00    -0.203 F 
ATOM     85  F   UNL A   1      46.219  35.702  30.279  1.00  0.00    -0.200 F 
ATOM     86  C   UNL A   1      45.822  34.927  32.474  1.00  0.00     0.200 A 
ATOM     87  F   UNL A   1      45.431  34.101  34.653  1.00  0.00    -0.200 F 
ATOM     88  F   UNL A   1      46.284  36.079  32.979  1.00  0.00    -0.200 F 
ENDBRANCH  55  78
ENDBRANCH  29  30
ENDBRANCH  22  24
ENDBRANCH  21  22
ENDBRANCH  20  21
ENDBRANCH  19  20
ENDBRANCH   1  19
TORSDOF 16
ENDMDL
