MODEL 1
REMARK VINA RESULT:     -11.7      0.000      0.000
REMARK SMILES CC[C@@](C)([NH2+]CC(=O)N[C@@H](C)c1ccc(F)cc1)C(=O)OCCOC(=O)c1ccc(-c2c3nc(c(-c4c(F)c(F)c(F)c(F)c4F)c4ccc([nH]4)c(-c4c(F)c(F)c(F)c(F)c4F)c4nc(c(-c5c(F)c(F)c(F)c(F)c5F)c5ccc2[nH]5)C=C4)C=C3)cc1
REMARK SMILES IDX 21 1 19 2 20 3 3 4 4 5 2 6 1 7 5 8 6 11 7 12 8 13 9 14 10 16
REMARK SMILES IDX 11 17 12 18 13 19 18 20 14 21 17 22 15 23 16 24 22 25 23 26
REMARK SMILES IDX 24 27 25 28 26 29 27 30 28 31 89 32 29 33 88 34 30 35 31 36
REMARK SMILES IDX 32 37 82 38 33 39 87 40 81 41 83 42 34 43 86 44 80 45 79 46
REMARK SMILES IDX 35 48 67 49 47 50 66 51 48 52 51 53 65 54 84 55 49 56 50 57
REMARK SMILES IDX 64 59 85 60 52 61 36 62 37 63 45 64 38 65 39 66 43 67 46 68
REMARK SMILES IDX 40 69 41 70 44 71 42 72 68 73 69 74 77 75 70 76 71 77 75 78
REMARK SMILES IDX 78 79 72 80 73 81 76 82 74 83 53 84 54 85 62 86 55 87 56 88
REMARK SMILES IDX 60 89 63 90 57 91 58 92 61 93 59 94
REMARK H PARENT 5 9 5 10 9 15 83 47 51 58
REMARK Flexibility Score: inf
ROOT
ATOM      1  O   UNL A   1      31.295  27.826  24.965  1.00  0.00    -0.457 OA
ENDROOT
BRANCH   1   2
ATOM      2  C   UNL A   1      31.344  27.150  23.768  1.00  0.00     0.367 C 
ATOM      3  O   UNL A   1      30.906  27.607  22.718  1.00  0.00    -0.245 OA
BRANCH   2   4
ATOM      4  C   UNL A   1      32.021  25.742  23.928  1.00  0.00     0.191 C 
ATOM      5  C   UNL A   1      31.922  24.709  22.791  1.00  0.00     0.092 C 
BRANCH   4   6
ATOM      6  C   UNL A   1      33.544  26.062  24.075  1.00  0.00     0.077 C 
ATOM      7  C   UNL A   1      34.018  26.159  25.542  1.00  0.00     0.011 C 
ENDBRANCH   4   6
BRANCH   4   8
ATOM      8  N   UNL A   1      31.444  25.061  25.127  1.00  0.00    -0.325 N 
ATOM      9  H   UNL A   1      30.669  25.632  25.461  1.00  0.00     0.347 HD
ATOM     10  H   UNL A   1      32.224  24.966  25.777  1.00  0.00     0.347 HD
BRANCH   8  11
ATOM     11  C   UNL A   1      30.928  23.669  24.941  1.00  0.00     0.362 C 
BRANCH  11  12
ATOM     12  C   UNL A   1      30.972  22.728  26.158  1.00  0.00     0.275 C 
ATOM     13  O   UNL A   1      30.362  23.022  27.190  1.00  0.00    -0.268 OA
ATOM     14  N   UNL A   1      31.662  21.536  26.142  1.00  0.00    -0.345 N 
ATOM     15  H   UNL A   1      31.366  20.880  26.813  1.00  0.00     0.164 HD
BRANCH  14  16
ATOM     16  C   UNL A   1      32.762  21.088  25.289  1.00  0.00     0.109 C 
ATOM     17  C   UNL A   1      32.285  20.745  23.864  1.00  0.00     0.036 C 
BRANCH  16  18
ATOM     18  C   UNL A   1      33.932  22.037  25.118  1.00  0.00    -0.026 A 
ATOM     19  C   UNL A   1      34.452  22.389  23.871  1.00  0.00     0.009 A 
ATOM     20  C   UNL A   1      34.648  22.402  26.283  1.00  0.00     0.009 A 
ATOM     21  C   UNL A   1      35.660  23.089  23.793  1.00  0.00     0.039 A 
ATOM     22  C   UNL A   1      35.843  23.108  26.204  1.00  0.00     0.039 A 
ATOM     23  C   UNL A   1      36.342  23.440  24.956  1.00  0.00     0.123 A 
ATOM     24  F   UNL A   1      37.515  24.079  24.869  1.00  0.00    -0.207 F 
ENDBRANCH  16  18
ENDBRANCH  14  16
ENDBRANCH  11  12
ENDBRANCH   8  11
ENDBRANCH   4   8
ENDBRANCH   2   4
ENDBRANCH   1   2
BRANCH   1  25
ATOM     25  C   UNL A   1      31.200  29.268  24.942  1.00  0.00     0.274 C 
BRANCH  25  26
ATOM     26  C   UNL A   1      32.586  29.905  25.048  1.00  0.00     0.275 C 
BRANCH  26  27
ATOM     27  O   UNL A   1      33.025  29.744  26.402  1.00  0.00    -0.458 OA
BRANCH  27  28
ATOM     28  C   UNL A   1      33.299  30.895  27.043  1.00  0.00     0.338 C 
ATOM     29  O   UNL A   1      32.535  31.800  27.353  1.00  0.00    -0.246 OA
BRANCH  28  30
ATOM     30  C   UNL A   1      34.660  30.774  27.550  1.00  0.00     0.060 A 
ATOM     31  C   UNL A   1      35.107  29.492  27.876  1.00  0.00     0.016 A 
ATOM     32  C   UNL A   1      35.458  31.889  27.766  1.00  0.00     0.016 A 
ATOM     33  C   UNL A   1      36.329  29.312  28.496  1.00  0.00     0.010 A 
ATOM     34  C   UNL A   1      36.711  31.704  28.346  1.00  0.00     0.010 A 
ATOM     35  C   UNL A   1      37.135  30.420  28.746  1.00  0.00    -0.014 A 
BRANCH  35  36
ATOM     36  C   UNL A   1      38.369  30.274  29.542  1.00  0.00     0.031 A 
ATOM     37  C   UNL A   1      39.466  29.425  28.986  1.00  0.00     0.074 A 
ATOM     38  C   UNL A   1      38.508  30.883  30.730  1.00  0.00     0.049 A 
ATOM     39  N   UNL A   1      40.460  28.849  29.602  1.00  0.00    -0.248 NA
ATOM     40  C   UNL A   1      39.422  29.176  27.535  1.00  0.00     0.031 C 
ATOM     41  C   UNL A   1      37.573  31.850  31.306  1.00  0.00     0.029 A 
ATOM     42  N   UNL A   1      39.488  30.753  31.680  1.00  0.00    -0.354 N 
ATOM     43  C   UNL A   1      41.110  28.100  28.632  1.00  0.00     0.074 A 
ATOM     44  C   UNL A   1      40.420  28.319  27.381  1.00  0.00     0.031 C 
ATOM     45  C   UNL A   1      38.017  32.215  32.518  1.00  0.00     0.029 A 
ATOM     46  C   UNL A   1      39.203  31.427  32.841  1.00  0.00     0.049 A 
ATOM     47  H   UNL A   1      40.311  30.230  31.544  1.00  0.00     0.167 HD
ATOM     48  C   UNL A   1      42.173  27.281  28.800  1.00  0.00     0.037 A 
ATOM     49  C   UNL A   1      39.783  31.346  34.053  1.00  0.00     0.037 A 
ATOM     50  C   UNL A   1      42.862  27.131  30.053  1.00  0.00     0.049 A 
ATOM     51  C   UNL A   1      40.915  30.379  34.247  1.00  0.00     0.074 A 
ATOM     52  C   UNL A   1      43.958  26.345  30.348  1.00  0.00     0.029 A 
ATOM     53  N   UNL A   1      42.518  27.803  31.220  1.00  0.00    -0.354 N 
ATOM     54  N   UNL A   1      41.476  29.581  33.369  1.00  0.00    -0.248 NA
ATOM     55  C   UNL A   1      41.473  30.269  35.601  1.00  0.00     0.031 C 
ATOM     56  C   UNL A   1      44.252  26.508  31.706  1.00  0.00     0.029 A 
ATOM     57  C   UNL A   1      43.368  27.431  32.246  1.00  0.00     0.049 A 
ATOM     58  H   UNL A   1      41.779  28.448  31.303  1.00  0.00     0.167 HD
ATOM     59  C   UNL A   1      42.453  28.877  34.058  1.00  0.00     0.074 A 
ATOM     60  C   UNL A   1      42.416  29.350  35.428  1.00  0.00     0.031 C 
ATOM     61  C   UNL A   1      43.300  27.924  33.599  1.00  0.00     0.037 A 
BRANCH  48  62
ATOM     62  C   UNL A   1      42.593  26.441  27.634  1.00  0.00     0.064 A 
ATOM     63  C   UNL A   1      41.964  25.207  27.403  1.00  0.00     0.173 A 
ATOM     64  C   UNL A   1      43.608  26.834  26.752  1.00  0.00     0.173 A 
ATOM     65  F   UNL A   1      40.982  24.786  28.215  1.00  0.00    -0.203 F 
ATOM     66  C   UNL A   1      42.339  24.398  26.335  1.00  0.00     0.198 A 
ATOM     67  C   UNL A   1      43.963  26.034  25.668  1.00  0.00     0.198 A 
ATOM     68  F   UNL A   1      44.225  28.015  26.915  1.00  0.00    -0.203 F 
ATOM     69  F   UNL A   1      41.733  23.217  26.146  1.00  0.00    -0.200 F 
ATOM     70  C   UNL A   1      43.333  24.814  25.464  1.00  0.00     0.200 A 
ATOM     71  F   UNL A   1      44.903  26.451  24.808  1.00  0.00    -0.200 F 
ATOM     72  F   UNL A   1      43.678  24.045  24.422  1.00  0.00    -0.200 F 
ENDBRANCH  48  62
BRANCH  49  73
ATOM     73  C   UNL A   1      39.232  32.154  35.169  1.00  0.00     0.064 A 
ATOM     74  C   UNL A   1      39.576  33.507  35.326  1.00  0.00     0.173 A 
ATOM     75  C   UNL A   1      38.425  31.568  36.151  1.00  0.00     0.173 A 
ATOM     76  F   UNL A   1      40.350  34.114  34.413  1.00  0.00    -0.203 F 
ATOM     77  C   UNL A   1      39.172  34.228  36.447  1.00  0.00     0.198 A 
ATOM     78  C   UNL A   1      38.000  32.299  37.260  1.00  0.00     0.198 A 
ATOM     79  F   UNL A   1      38.053  30.286  36.033  1.00  0.00    -0.203 F 
ATOM     80  F   UNL A   1      39.563  35.500  36.600  1.00  0.00    -0.200 F 
ATOM     81  C   UNL A   1      38.385  33.622  37.414  1.00  0.00     0.200 A 
ATOM     82  F   UNL A   1      37.226  31.716  38.186  1.00  0.00    -0.200 F 
ATOM     83  F   UNL A   1      38.003  34.313  38.497  1.00  0.00    -0.200 F 
ENDBRANCH  49  73
BRANCH  61  84
ATOM     84  C   UNL A   1      44.271  27.333  34.575  1.00  0.00     0.064 A 
ATOM     85  C   UNL A   1      43.928  26.185  35.304  1.00  0.00     0.173 A 
ATOM     86  C   UNL A   1      45.483  27.970  34.871  1.00  0.00     0.173 A 
ATOM     87  F   UNL A   1      42.773  25.549  35.060  1.00  0.00    -0.203 F 
ATOM     88  C   UNL A   1      44.755  25.712  36.317  1.00  0.00     0.198 A 
ATOM     89  C   UNL A   1      46.318  27.480  35.870  1.00  0.00     0.198 A 
ATOM     90  F   UNL A   1      45.855  29.065  34.190  1.00  0.00    -0.203 F 
ATOM     91  F   UNL A   1      44.389  24.639  37.033  1.00  0.00    -0.200 F 
ATOM     92  C   UNL A   1      45.947  26.361  36.600  1.00  0.00     0.200 A 
ATOM     93  F   UNL A   1      47.479  28.097  36.133  1.00  0.00    -0.200 F 
ATOM     94  F   UNL A   1      46.740  25.907  37.582  1.00  0.00    -0.200 F 
ENDBRANCH  61  84
ENDBRANCH  35  36
ENDBRANCH  28  30
ENDBRANCH  27  28
ENDBRANCH  26  27
ENDBRANCH  25  26
ENDBRANCH   1  25
TORSDOF 17
ENDMDL
MODEL 2
REMARK VINA RESULT:     -11.7      1.170      2.354
REMARK SMILES CC[C@@](C)([NH2+]CC(=O)N[C@@H](C)c1ccc(F)cc1)C(=O)OCCOC(=O)c1ccc(-c2c3nc(c(-c4c(F)c(F)c(F)c(F)c4F)c4ccc([nH]4)c(-c4c(F)c(F)c(F)c(F)c4F)c4nc(c(-c5c(F)c(F)c(F)c(F)c5F)c5ccc2[nH]5)C=C4)C=C3)cc1
REMARK SMILES IDX 21 1 19 2 20 3 3 4 4 5 2 6 1 7 5 8 6 11 7 12 8 13 9 14 10 16
REMARK SMILES IDX 11 17 12 18 13 19 18 20 14 21 17 22 15 23 16 24 22 25 23 26
REMARK SMILES IDX 24 27 25 28 26 29 27 30 28 31 89 32 29 33 88 34 30 35 31 36
REMARK SMILES IDX 32 37 82 38 33 39 87 40 81 41 83 42 34 43 86 44 80 45 79 46
REMARK SMILES IDX 35 48 67 49 47 50 66 51 48 52 51 53 65 54 84 55 49 56 50 57
REMARK SMILES IDX 64 59 85 60 52 61 36 62 37 63 45 64 38 65 39 66 43 67 46 68
REMARK SMILES IDX 40 69 41 70 44 71 42 72 68 73 69 74 77 75 70 76 71 77 75 78
REMARK SMILES IDX 78 79 72 80 73 81 76 82 74 83 53 84 54 85 62 86 55 87 56 88
REMARK SMILES IDX 60 89 63 90 57 91 58 92 61 93 59 94
REMARK H PARENT 5 9 5 10 9 15 83 47 51 58
REMARK Flexibility Score: inf
ROOT
ATOM      1  O   UNL A   1      31.226  27.854  24.985  1.00  0.00    -0.457 OA
ENDROOT
BRANCH   1   2
ATOM      2  C   UNL A   1      31.055  27.062  23.873  1.00  0.00     0.367 C 
ATOM      3  O   UNL A   1      30.276  27.334  22.967  1.00  0.00    -0.245 OA
BRANCH   2   4
ATOM      4  C   UNL A   1      31.972  25.788  23.926  1.00  0.00     0.191 C 
ATOM      5  C   UNL A   1      31.799  24.675  22.876  1.00  0.00     0.092 C 
BRANCH   4   6
ATOM      6  C   UNL A   1      33.416  26.345  23.714  1.00  0.00     0.077 C 
ATOM      7  C   UNL A   1      33.642  26.968  22.318  1.00  0.00     0.011 C 
ENDBRANCH   4   6
BRANCH   4   8
ATOM      8  N   UNL A   1      31.788  25.113  25.246  1.00  0.00    -0.325 N 
ATOM      9  H   UNL A   1      31.693  25.842  25.953  1.00  0.00     0.347 HD
ATOM     10  H   UNL A   1      32.606  24.513  25.351  1.00  0.00     0.347 HD
BRANCH   8  11
ATOM     11  C   UNL A   1      30.617  24.194  25.388  1.00  0.00     0.362 C 
BRANCH  11  12
ATOM     12  C   UNL A   1      30.762  23.003  26.352  1.00  0.00     0.275 C 
ATOM     13  O   UNL A   1      30.312  23.075  27.499  1.00  0.00    -0.268 OA
ATOM     14  N   UNL A   1      31.372  21.825  25.980  1.00  0.00    -0.345 N 
ATOM     15  H   UNL A   1      31.127  21.044  26.526  1.00  0.00     0.164 HD
BRANCH  14  16
ATOM     16  C   UNL A   1      32.322  21.547  24.903  1.00  0.00     0.109 C 
ATOM     17  C   UNL A   1      33.729  22.089  25.221  1.00  0.00     0.036 C 
BRANCH  16  18
ATOM     18  C   UNL A   1      32.515  20.094  24.514  1.00  0.00    -0.026 A 
ATOM     19  C   UNL A   1      33.199  19.175  25.313  1.00  0.00     0.009 A 
ATOM     20  C   UNL A   1      32.171  19.725  23.192  1.00  0.00     0.009 A 
ATOM     21  C   UNL A   1      33.531  17.918  24.799  1.00  0.00     0.039 A 
ATOM     22  C   UNL A   1      32.492  18.470  22.686  1.00  0.00     0.039 A 
ATOM     23  C   UNL A   1      33.176  17.578  23.495  1.00  0.00     0.123 A 
ATOM     24  F   UNL A   1      33.529  16.385  23.002  1.00  0.00    -0.207 F 
ENDBRANCH  16  18
ENDBRANCH  14  16
ENDBRANCH  11  12
ENDBRANCH   8  11
ENDBRANCH   4   8
ENDBRANCH   2   4
ENDBRANCH   1   2
BRANCH   1  25
ATOM     25  C   UNL A   1      31.419  29.274  24.800  1.00  0.00     0.274 C 
BRANCH  25  26
ATOM     26  C   UNL A   1      32.853  29.676  25.149  1.00  0.00     0.275 C 
BRANCH  26  27
ATOM     27  O   UNL A   1      32.942  29.738  26.577  1.00  0.00    -0.458 OA
BRANCH  27  28
ATOM     28  C   UNL A   1      33.292  30.942  27.065  1.00  0.00     0.338 C 
ATOM     29  O   UNL A   1      32.587  31.922  27.266  1.00  0.00    -0.246 OA
BRANCH  28  30
ATOM     30  C   UNL A   1      34.653  30.805  27.571  1.00  0.00     0.060 A 
ATOM     31  C   UNL A   1      35.070  29.525  27.937  1.00  0.00     0.016 A 
ATOM     32  C   UNL A   1      35.478  31.907  27.745  1.00  0.00     0.016 A 
ATOM     33  C   UNL A   1      36.291  29.336  28.558  1.00  0.00     0.010 A 
ATOM     34  C   UNL A   1      36.730  31.711  28.326  1.00  0.00     0.010 A 
ATOM     35  C   UNL A   1      37.125  30.432  28.767  1.00  0.00    -0.014 A 
BRANCH  35  36
ATOM     36  C   UNL A   1      38.358  30.283  29.562  1.00  0.00     0.031 A 
ATOM     37  C   UNL A   1      39.454  29.433  29.005  1.00  0.00     0.074 A 
ATOM     38  C   UNL A   1      38.499  30.891  30.751  1.00  0.00     0.049 A 
ATOM     39  N   UNL A   1      40.448  28.855  29.620  1.00  0.00    -0.248 NA
ATOM     40  C   UNL A   1      39.409  29.185  27.554  1.00  0.00     0.031 C 
ATOM     41  C   UNL A   1      37.566  31.859  31.328  1.00  0.00     0.029 A 
ATOM     42  N   UNL A   1      39.479  30.759  31.700  1.00  0.00    -0.354 N 
ATOM     43  C   UNL A   1      41.095  28.105  28.649  1.00  0.00     0.074 A 
ATOM     44  C   UNL A   1      40.405  28.327  27.398  1.00  0.00     0.031 C 
ATOM     45  C   UNL A   1      38.012  32.222  32.541  1.00  0.00     0.029 A 
ATOM     46  C   UNL A   1      39.196  31.432  32.862  1.00  0.00     0.049 A 
ATOM     47  H   UNL A   1      40.302  30.234  31.563  1.00  0.00     0.167 HD
ATOM     48  C   UNL A   1      42.157  27.284  28.816  1.00  0.00     0.037 A 
ATOM     49  C   UNL A   1      39.776  31.348  34.073  1.00  0.00     0.037 A 
ATOM     50  C   UNL A   1      42.846  27.132  30.068  1.00  0.00     0.049 A 
ATOM     51  C   UNL A   1      40.907  30.379  34.267  1.00  0.00     0.074 A 
ATOM     52  C   UNL A   1      43.941  26.344  30.362  1.00  0.00     0.029 A 
ATOM     53  N   UNL A   1      42.505  27.804  31.236  1.00  0.00    -0.354 N 
ATOM     54  N   UNL A   1      41.466  29.581  33.387  1.00  0.00    -0.248 NA
ATOM     55  C   UNL A   1      41.465  30.267  35.620  1.00  0.00     0.031 C 
ATOM     56  C   UNL A   1      44.237  26.506  31.720  1.00  0.00     0.029 A 
ATOM     57  C   UNL A   1      43.354  27.429  32.261  1.00  0.00     0.049 A 
ATOM     58  H   UNL A   1      41.767  28.450  31.320  1.00  0.00     0.167 HD
ATOM     59  C   UNL A   1      42.442  28.875  34.075  1.00  0.00     0.074 A 
ATOM     60  C   UNL A   1      42.406  29.347  35.446  1.00  0.00     0.031 C 
ATOM     61  C   UNL A   1      43.288  27.921  33.615  1.00  0.00     0.037 A 
BRANCH  48  62
ATOM     62  C   UNL A   1      42.576  26.445  27.649  1.00  0.00     0.064 A 
ATOM     63  C   UNL A   1      43.571  26.914  26.777  1.00  0.00     0.173 A 
ATOM     64  C   UNL A   1      42.006  25.193  27.381  1.00  0.00     0.173 A 
ATOM     65  F   UNL A   1      44.153  28.104  26.991  1.00  0.00    -0.203 F 
ATOM     66  C   UNL A   1      43.975  26.163  25.677  1.00  0.00     0.198 A 
ATOM     67  C   UNL A   1      42.432  24.432  26.294  1.00  0.00     0.198 A 
ATOM     68  F   UNL A   1      41.068  24.689  28.197  1.00  0.00    -0.203 F 
ATOM     69  F   UNL A   1      44.915  26.641  24.849  1.00  0.00    -0.200 F 
ATOM     70  C   UNL A   1      43.410  24.920  25.440  1.00  0.00     0.200 A 
ATOM     71  F   UNL A   1      41.908  23.217  26.083  1.00  0.00    -0.200 F 
ATOM     72  F   UNL A   1      43.817  24.187  24.394  1.00  0.00    -0.200 F 
ENDBRANCH  48  62
BRANCH  49  73
ATOM     73  C   UNL A   1      39.227  32.157  35.191  1.00  0.00     0.064 A 
ATOM     74  C   UNL A   1      39.559  33.513  35.338  1.00  0.00     0.173 A 
ATOM     75  C   UNL A   1      38.436  31.568  36.182  1.00  0.00     0.173 A 
ATOM     76  F   UNL A   1      40.318  34.124  34.415  1.00  0.00    -0.203 F 
ATOM     77  C   UNL A   1      39.158  34.236  36.459  1.00  0.00     0.198 A 
ATOM     78  C   UNL A   1      38.012  32.299  37.292  1.00  0.00     0.198 A 
ATOM     79  F   UNL A   1      38.075  30.281  36.074  1.00  0.00    -0.203 F 
ATOM     80  F   UNL A   1      39.538  35.513  36.602  1.00  0.00    -0.200 F 
ATOM     81  C   UNL A   1      38.386  33.627  37.437  1.00  0.00     0.200 A 
ATOM     82  F   UNL A   1      37.253  31.713  38.227  1.00  0.00    -0.200 F 
ATOM     83  F   UNL A   1      38.006  34.319  38.519  1.00  0.00    -0.200 F 
ENDBRANCH  49  73
BRANCH  61  84
ATOM     84  C   UNL A   1      44.258  27.328  34.590  1.00  0.00     0.064 A 
ATOM     85  C   UNL A   1      45.504  27.935  34.804  1.00  0.00     0.173 A 
ATOM     86  C   UNL A   1      44.000  26.102  35.218  1.00  0.00     0.173 A 
ATOM     87  F   UNL A   1      45.796  29.104  34.215  1.00  0.00    -0.203 F 
ATOM     88  C   UNL A   1      46.470  27.318  35.592  1.00  0.00     0.198 A 
ATOM     89  C   UNL A   1      44.961  25.500  36.024  1.00  0.00     0.198 A 
ATOM     90  F   UNL A   1      42.816  25.493  35.050  1.00  0.00    -0.203 F 
ATOM     91  F   UNL A   1      47.672  27.892  35.748  1.00  0.00    -0.200 F 
ATOM     92  C   UNL A   1      46.199  26.101  36.199  1.00  0.00     0.200 A 
ATOM     93  F   UNL A   1      44.693  24.332  36.624  1.00  0.00    -0.200 F 
ATOM     94  F   UNL A   1      47.134  25.506  36.953  1.00  0.00    -0.200 F 
ENDBRANCH  61  84
ENDBRANCH  35  36
ENDBRANCH  28  30
ENDBRANCH  27  28
ENDBRANCH  26  27
ENDBRANCH  25  26
ENDBRANCH   1  25
TORSDOF 17
ENDMDL
MODEL 3
REMARK VINA RESULT:     -11.6      1.849      3.421
REMARK SMILES CC[C@@](C)([NH2+]CC(=O)N[C@@H](C)c1ccc(F)cc1)C(=O)OCCOC(=O)c1ccc(-c2c3nc(c(-c4c(F)c(F)c(F)c(F)c4F)c4ccc([nH]4)c(-c4c(F)c(F)c(F)c(F)c4F)c4nc(c(-c5c(F)c(F)c(F)c(F)c5F)c5ccc2[nH]5)C=C4)C=C3)cc1
REMARK SMILES IDX 21 1 19 2 20 3 3 4 4 5 2 6 1 7 5 8 6 11 7 12 8 13 9 14 10 16
REMARK SMILES IDX 11 17 12 18 13 19 18 20 14 21 17 22 15 23 16 24 22 25 23 26
REMARK SMILES IDX 24 27 25 28 26 29 27 30 28 31 89 32 29 33 88 34 30 35 31 36
REMARK SMILES IDX 32 37 82 38 33 39 87 40 81 41 83 42 34 43 86 44 80 45 79 46
REMARK SMILES IDX 35 48 67 49 47 50 66 51 48 52 51 53 65 54 84 55 49 56 50 57
REMARK SMILES IDX 64 59 85 60 52 61 36 62 37 63 45 64 38 65 39 66 43 67 46 68
REMARK SMILES IDX 40 69 41 70 44 71 42 72 68 73 69 74 77 75 70 76 71 77 75 78
REMARK SMILES IDX 78 79 72 80 73 81 76 82 74 83 53 84 54 85 62 86 55 87 56 88
REMARK SMILES IDX 60 89 63 90 57 91 58 92 61 93 59 94
REMARK H PARENT 5 9 5 10 9 15 83 47 51 58
REMARK Flexibility Score: inf
ROOT
ATOM      1  O   UNL A   1      32.318  26.605  26.394  1.00  0.00    -0.457 OA
ENDROOT
BRANCH   1   2
ATOM      2  C   UNL A   1      31.857  25.370  25.999  1.00  0.00     0.367 C 
ATOM      3  O   UNL A   1      30.736  24.953  26.268  1.00  0.00    -0.245 OA
BRANCH   2   4
ATOM      4  C   UNL A   1      32.940  24.586  25.175  1.00  0.00     0.191 C 
ATOM      5  C   UNL A   1      34.378  25.130  25.086  1.00  0.00     0.092 C 
BRANCH   4   6
ATOM      6  C   UNL A   1      33.056  23.209  25.906  1.00  0.00     0.077 C 
ATOM      7  C   UNL A   1      34.059  23.214  27.081  1.00  0.00     0.011 C 
ENDBRANCH   4   6
BRANCH   4   8
ATOM      8  N   UNL A   1      32.479  24.465  23.759  1.00  0.00    -0.325 N 
ATOM      9  H   UNL A   1      31.619  25.005  23.669  1.00  0.00     0.347 HD
ATOM     10  H   UNL A   1      32.379  23.462  23.600  1.00  0.00     0.347 HD
BRANCH   8  11
ATOM     11  C   UNL A   1      33.417  24.931  22.692  1.00  0.00     0.362 C 
BRANCH  11  12
ATOM     12  C   UNL A   1      32.812  25.697  21.502  1.00  0.00     0.275 C 
ATOM     13  O   UNL A   1      33.096  25.370  20.346  1.00  0.00    -0.268 OA
ATOM     14  N   UNL A   1      31.933  26.744  21.671  1.00  0.00    -0.345 N 
ATOM     15  H   UNL A   1      31.368  26.937  20.888  1.00  0.00     0.164 HD
BRANCH  14  16
ATOM     16  C   UNL A   1      31.701  27.613  22.824  1.00  0.00     0.109 C 
ATOM     17  C   UNL A   1      32.876  28.582  23.062  1.00  0.00     0.036 C 
BRANCH  16  18
ATOM     18  C   UNL A   1      30.453  28.472  22.799  1.00  0.00    -0.026 A 
ATOM     19  C   UNL A   1      29.204  28.016  23.228  1.00  0.00     0.009 A 
ATOM     20  C   UNL A   1      30.528  29.707  22.112  1.00  0.00     0.009 A 
ATOM     21  C   UNL A   1      28.060  28.778  22.974  1.00  0.00     0.039 A 
ATOM     22  C   UNL A   1      29.390  30.469  21.870  1.00  0.00     0.039 A 
ATOM     23  C   UNL A   1      28.163  29.993  22.299  1.00  0.00     0.123 A 
ATOM     24  F   UNL A   1      27.057  30.697  22.031  1.00  0.00    -0.207 F 
ENDBRANCH  16  18
ENDBRANCH  14  16
ENDBRANCH  11  12
ENDBRANCH   8  11
ENDBRANCH   4   8
ENDBRANCH   2   4
ENDBRANCH   1   2
BRANCH   1  25
ATOM     25  C   UNL A   1      31.402  27.723  26.379  1.00  0.00     0.274 C 
BRANCH  25  26
ATOM     26  C   UNL A   1      31.920  28.860  27.261  1.00  0.00     0.275 C 
BRANCH  26  27
ATOM     27  O   UNL A   1      33.027  29.458  26.577  1.00  0.00    -0.458 OA
BRANCH  27  28
ATOM     28  C   UNL A   1      33.344  30.695  26.998  1.00  0.00     0.338 C 
ATOM     29  O   UNL A   1      32.613  31.666  27.144  1.00  0.00    -0.246 OA
BRANCH  28  30
ATOM     30  C   UNL A   1      34.708  30.623  27.510  1.00  0.00     0.060 A 
ATOM     31  C   UNL A   1      35.230  29.351  27.751  1.00  0.00     0.016 A 
ATOM     32  C   UNL A   1      35.434  31.766  27.810  1.00  0.00     0.016 A 
ATOM     33  C   UNL A   1      36.458  29.203  28.370  1.00  0.00     0.010 A 
ATOM     34  C   UNL A   1      36.693  31.618  28.389  1.00  0.00     0.010 A 
ATOM     35  C   UNL A   1      37.192  30.338  28.704  1.00  0.00    -0.014 A 
BRANCH  35  36
ATOM     36  C   UNL A   1      38.427  30.213  29.501  1.00  0.00     0.031 A 
ATOM     37  C   UNL A   1      39.537  29.378  28.949  1.00  0.00     0.074 A 
ATOM     38  C   UNL A   1      38.557  30.828  30.688  1.00  0.00     0.049 A 
ATOM     39  N   UNL A   1      40.539  28.818  29.567  1.00  0.00    -0.248 NA
ATOM     40  C   UNL A   1      39.497  29.122  27.499  1.00  0.00     0.031 C 
ATOM     41  C   UNL A   1      37.609  31.784  31.259  1.00  0.00     0.029 A 
ATOM     42  N   UNL A   1      39.538  30.716  31.638  1.00  0.00    -0.354 N 
ATOM     43  C   UNL A   1      41.199  28.075  28.601  1.00  0.00     0.074 A 
ATOM     44  C   UNL A   1      40.507  28.279  27.348  1.00  0.00     0.031 C 
ATOM     45  C   UNL A   1      38.047  32.160  32.470  1.00  0.00     0.029 A 
ATOM     46  C   UNL A   1      39.244  31.390  32.796  1.00  0.00     0.049 A 
ATOM     47  H   UNL A   1      40.369  30.204  31.504  1.00  0.00     0.167 HD
ATOM     48  C   UNL A   1      42.274  27.271  28.772  1.00  0.00     0.037 A 
ATOM     49  C   UNL A   1      39.824  31.322  34.009  1.00  0.00     0.037 A 
ATOM     50  C   UNL A   1      42.965  27.136  30.026  1.00  0.00     0.049 A 
ATOM     51  C   UNL A   1      40.970  30.371  34.207  1.00  0.00     0.074 A 
ATOM     52  C   UNL A   1      44.071  26.367  30.324  1.00  0.00     0.029 A 
ATOM     53  N   UNL A   1      42.611  27.808  31.190  1.00  0.00    -0.354 N 
ATOM     54  N   UNL A   1      41.543  29.578  33.332  1.00  0.00    -0.248 NA
ATOM     55  C   UNL A   1      41.528  30.275  35.562  1.00  0.00     0.031 C 
ATOM     56  C   UNL A   1      44.363  26.539  31.682  1.00  0.00     0.029 A 
ATOM     57  C   UNL A   1      43.465  27.451  32.218  1.00  0.00     0.049 A 
ATOM     58  H   UNL A   1      41.863  28.442  31.271  1.00  0.00     0.167 HD
ATOM     59  C   UNL A   1      42.529  28.891  34.024  1.00  0.00     0.074 A 
ATOM     60  C   UNL A   1      42.484  29.368  35.393  1.00  0.00     0.031 C 
ATOM     61  C   UNL A   1      43.390  27.948  33.569  1.00  0.00     0.037 A 
BRANCH  48  62
ATOM     62  C   UNL A   1      42.707  26.433  27.610  1.00  0.00     0.064 A 
ATOM     63  C   UNL A   1      42.103  25.185  27.390  1.00  0.00     0.173 A 
ATOM     64  C   UNL A   1      43.708  26.842  26.720  1.00  0.00     0.173 A 
ATOM     65  F   UNL A   1      41.135  24.747  28.210  1.00  0.00    -0.203 F 
ATOM     66  C   UNL A   1      42.491  24.376  26.325  1.00  0.00     0.198 A 
ATOM     67  C   UNL A   1      44.075  26.043  25.639  1.00  0.00     0.198 A 
ATOM     68  F   UNL A   1      44.300  28.037  26.872  1.00  0.00    -0.203 F 
ATOM     69  F   UNL A   1      41.910  23.181  26.147  1.00  0.00    -0.200 F 
ATOM     70  C   UNL A   1      43.471  24.809  25.447  1.00  0.00     0.200 A 
ATOM     71  F   UNL A   1      45.002  26.474  24.772  1.00  0.00    -0.200 F 
ATOM     72  F   UNL A   1      43.827  24.040  24.408  1.00  0.00    -0.200 F 
ENDBRANCH  48  62
BRANCH  49  73
ATOM     73  C   UNL A   1      39.261  32.127  35.122  1.00  0.00     0.064 A 
ATOM     74  C   UNL A   1      39.605  33.478  35.288  1.00  0.00     0.173 A 
ATOM     75  C   UNL A   1      38.442  31.538  36.091  1.00  0.00     0.173 A 
ATOM     76  F   UNL A   1      40.390  34.087  34.387  1.00  0.00    -0.203 F 
ATOM     77  C   UNL A   1      39.189  34.195  36.407  1.00  0.00     0.198 A 
ATOM     78  C   UNL A   1      38.004  32.264  37.198  1.00  0.00     0.198 A 
ATOM     79  F   UNL A   1      38.069  30.256  35.964  1.00  0.00    -0.203 F 
ATOM     80  F   UNL A   1      39.580  35.466  36.570  1.00  0.00    -0.200 F 
ATOM     81  C   UNL A   1      38.390  33.587  37.363  1.00  0.00     0.200 A 
ATOM     82  F   UNL A   1      37.219  31.679  38.112  1.00  0.00    -0.200 F 
ATOM     83  F   UNL A   1      37.996  34.273  38.444  1.00  0.00    -0.200 F 
ENDBRANCH  49  73
BRANCH  61  84
ATOM     84  C   UNL A   1      44.368  27.375  34.548  1.00  0.00     0.064 A 
ATOM     85  C   UNL A   1      44.039  26.229  35.287  1.00  0.00     0.173 A 
ATOM     86  C   UNL A   1      45.574  28.027  34.837  1.00  0.00     0.173 A 
ATOM     87  F   UNL A   1      42.890  25.580  35.049  1.00  0.00    -0.203 F 
ATOM     88  C   UNL A   1      44.873  25.773  36.302  1.00  0.00     0.198 A 
ATOM     89  C   UNL A   1      46.417  27.553  35.838  1.00  0.00     0.198 A 
ATOM     90  F   UNL A   1      45.934  29.120  34.146  1.00  0.00    -0.203 F 
ATOM     91  F   UNL A   1      44.519  24.701  37.027  1.00  0.00    -0.200 F 
ATOM     92  C   UNL A   1      46.059  26.436  36.577  1.00  0.00     0.200 A 
ATOM     93  F   UNL A   1      47.571  28.185  36.093  1.00  0.00    -0.200 F 
ATOM     94  F   UNL A   1      46.858  25.998  37.560  1.00  0.00    -0.200 F 
ENDBRANCH  61  84
ENDBRANCH  35  36
ENDBRANCH  28  30
ENDBRANCH  27  28
ENDBRANCH  26  27
ENDBRANCH  25  26
ENDBRANCH   1  25
TORSDOF 17
ENDMDL
