MODEL 1
REMARK VINA RESULT:     -11.1      0.000      0.000
REMARK SMILES COc1c(Br)cc(C)cc1C(=O)OCCOC(=O)c1ccc(-c2c3nc(c(-c4c(F)c(F)c(F)c(F)c4F)c4ccc([nH]4)c(-c4c(F)c(F)c(F)c(F)c4F)c4nc(c(-c5c(F)c(F)c(F)c(F)c5F)c5ccc2[nH]5)C=C4)C=C3)cc1
REMARK SMILES IDX 15 1 14 2 13 3 11 4 12 5 10 6 3 7 4 8 5 9 6 10 9 11 7 12
REMARK SMILES IDX 8 13 2 14 1 15 16 16 17 17 18 18 19 19 20 20 81 21 21 22
REMARK SMILES IDX 80 23 22 24 23 25 24 26 74 27 25 28 79 29 73 30 75 31 26 32
REMARK SMILES IDX 78 33 72 34 71 35 27 37 59 38 39 39 58 40 40 41 43 42 57 43
REMARK SMILES IDX 76 44 41 45 42 46 56 48 77 49 44 50 28 51 29 52 37 53 30 54
REMARK SMILES IDX 31 55 35 56 38 57 32 58 33 59 36 60 34 61 60 62 61 63 69 64
REMARK SMILES IDX 62 65 63 66 67 67 70 68 64 69 65 70 68 71 66 72 45 73 46 74
REMARK SMILES IDX 54 75 47 76 48 77 52 78 55 79 49 80 50 81 53 82 51 83
REMARK H PARENT 75 36 43 47
REMARK Flexibility Score: inf
ROOT
ATOM      1  C   UNL A   1      31.789  29.662  25.462  1.00  0.00     0.275 C 
ENDROOT
BRANCH   1   2
ATOM      2  C   UNL A   1      31.688  28.278  24.814  1.00  0.00     0.275 C 
BRANCH   2   3
ATOM      3  O   UNL A   1      32.749  27.440  25.300  1.00  0.00    -0.458 OA
BRANCH   3   4
ATOM      4  C   UNL A   1      32.351  26.348  25.995  1.00  0.00     0.342 C 
ATOM      5  O   UNL A   1      31.531  26.297  26.896  1.00  0.00    -0.246 OA
BRANCH   4   6
ATOM      6  C   UNL A   1      33.031  25.188  25.404  1.00  0.00     0.103 A 
ATOM      7  C   UNL A   1      32.366  24.208  24.652  1.00  0.00     0.147 A 
ATOM      8  C   UNL A   1      33.151  23.190  24.080  1.00  0.00     0.061 A 
ATOM      9  Br  UNL A   1      32.379  21.861  22.949  1.00  0.00    -0.047 Br
ATOM     10  C   UNL A   1      34.532  23.117  24.294  1.00  0.00     0.023 A 
ATOM     11  C   UNL A   1      34.418  25.105  25.642  1.00  0.00     0.023 A 
ATOM     12  C   UNL A   1      35.172  24.058  25.104  1.00  0.00    -0.049 A 
ATOM     13  C   UNL A   1      36.633  23.903  25.410  1.00  0.00     0.044 C 
BRANCH   7  14
ATOM     14  O   UNL A   1      31.020  24.070  24.439  1.00  0.00    -0.495 OA
ATOM     15  C   UNL A   1      30.341  24.918  23.532  1.00  0.00     0.278 C 
ENDBRANCH   7  14
ENDBRANCH   4   6
ENDBRANCH   3   4
ENDBRANCH   2   3
ENDBRANCH   1   2
BRANCH   1  16
ATOM     16  O   UNL A   1      33.154  29.981  25.814  1.00  0.00    -0.458 OA
BRANCH  16  17
ATOM     17  C   UNL A   1      33.303  30.958  26.745  1.00  0.00     0.338 C 
ATOM     18  O   UNL A   1      32.505  31.828  27.043  1.00  0.00    -0.246 OA
BRANCH  17  19
ATOM     19  C   UNL A   1      34.562  30.742  27.482  1.00  0.00     0.060 A 
ATOM     20  C   UNL A   1      34.903  29.426  27.808  1.00  0.00     0.016 A 
ATOM     21  C   UNL A   1      35.378  31.804  27.882  1.00  0.00     0.016 A 
ATOM     22  C   UNL A   1      36.077  29.161  28.504  1.00  0.00     0.010 A 
ATOM     23  C   UNL A   1      36.545  31.539  28.610  1.00  0.00     0.010 A 
ATOM     24  C   UNL A   1      36.898  30.215  28.922  1.00  0.00    -0.014 A 
BRANCH  24  25
ATOM     25  C   UNL A   1      38.062  29.901  29.783  1.00  0.00     0.031 A 
ATOM     26  C   UNL A   1      39.137  29.002  29.246  1.00  0.00     0.074 A 
ATOM     27  C   UNL A   1      38.203  30.508  30.976  1.00  0.00     0.049 A 
ATOM     28  N   UNL A   1      40.239  28.587  29.814  1.00  0.00    -0.248 NA
ATOM     29  C   UNL A   1      38.951  28.523  27.867  1.00  0.00     0.031 C 
ATOM     30  C   UNL A   1      37.271  31.489  31.530  1.00  0.00     0.029 A 
ATOM     31  N   UNL A   1      39.191  30.414  31.921  1.00  0.00    -0.354 N 
ATOM     32  C   UNL A   1      40.874  27.795  28.867  1.00  0.00     0.074 A 
ATOM     33  C   UNL A   1      40.032  27.779  27.691  1.00  0.00     0.031 C 
ATOM     34  C   UNL A   1      37.738  31.915  32.715  1.00  0.00     0.029 A 
ATOM     35  C   UNL A   1      38.969  31.196  33.029  1.00  0.00     0.049 A 
ATOM     36  H   UNL A   1      39.985  29.840  31.817  1.00  0.00     0.167 HD
ATOM     37  C   UNL A   1      42.053  27.137  28.979  1.00  0.00     0.037 A 
ATOM     38  C   UNL A   1      39.669  31.290  34.177  1.00  0.00     0.037 A 
ATOM     39  C   UNL A   1      42.863  27.155  30.169  1.00  0.00     0.049 A 
ATOM     40  C   UNL A   1      40.918  30.456  34.320  1.00  0.00     0.074 A 
ATOM     41  C   UNL A   1      44.041  26.479  30.428  1.00  0.00     0.029 A 
ATOM     42  N   UNL A   1      42.565  27.892  31.309  1.00  0.00    -0.354 N 
ATOM     43  N   UNL A   1      41.489  29.663  33.444  1.00  0.00    -0.248 NA
ATOM     44  C   UNL A   1      41.613  30.518  35.613  1.00  0.00     0.031 C 
ATOM     45  C   UNL A   1      44.422  26.756  31.745  1.00  0.00     0.029 A 
ATOM     46  C   UNL A   1      43.522  27.665  32.284  1.00  0.00     0.049 A 
ATOM     47  H   UNL A   1      41.789  28.490  31.408  1.00  0.00     0.167 HD
ATOM     48  C   UNL A   1      42.621  29.154  34.066  1.00  0.00     0.074 A 
ATOM     49  C   UNL A   1      42.666  29.743  35.390  1.00  0.00     0.031 C 
ATOM     50  C   UNL A   1      43.542  28.277  33.590  1.00  0.00     0.037 A 
BRANCH  37  51
ATOM     51  C   UNL A   1      42.476  26.282  27.818  1.00  0.00     0.064 A 
ATOM     52  C   UNL A   1      43.372  26.738  26.840  1.00  0.00     0.173 A 
ATOM     53  C   UNL A   1      41.948  24.989  27.669  1.00  0.00     0.173 A 
ATOM     54  F   UNL A   1      43.891  27.972  26.921  1.00  0.00    -0.203 F 
ATOM     55  C   UNL A   1      43.690  25.950  25.735  1.00  0.00     0.198 A 
ATOM     56  C   UNL A   1      42.294  24.192  26.581  1.00  0.00     0.198 A 
ATOM     57  F   UNL A   1      41.087  24.501  28.574  1.00  0.00    -0.203 F 
ATOM     58  F   UNL A   1      44.495  26.432  24.778  1.00  0.00    -0.200 F 
ATOM     59  C   UNL A   1      43.154  24.676  25.608  1.00  0.00     0.200 A 
ATOM     60  F   UNL A   1      41.779  22.960  26.465  1.00  0.00    -0.200 F 
ATOM     61  F   UNL A   1      43.453  23.924  24.540  1.00  0.00    -0.200 F 
ENDBRANCH  37  51
BRANCH  38  62
ATOM     62  C   UNL A   1      39.185  32.153  35.291  1.00  0.00     0.064 A 
ATOM     63  C   UNL A   1      39.517  33.514  35.366  1.00  0.00     0.173 A 
ATOM     64  C   UNL A   1      38.406  31.623  36.333  1.00  0.00     0.173 A 
ATOM     65  F   UNL A   1      40.282  34.071  34.414  1.00  0.00    -0.203 F 
ATOM     66  C   UNL A   1      39.110  34.301  36.444  1.00  0.00     0.198 A 
ATOM     67  C   UNL A   1      37.970  32.417  37.391  1.00  0.00     0.198 A 
ATOM     68  F   UNL A   1      38.064  30.326  36.322  1.00  0.00    -0.203 F 
ATOM     69  F   UNL A   1      39.493  35.583  36.518  1.00  0.00    -0.200 F 
ATOM     70  C   UNL A   1      38.332  33.753  37.453  1.00  0.00     0.200 A 
ATOM     71  F   UNL A   1      37.208  31.884  38.356  1.00  0.00    -0.200 F 
ATOM     72  F   UNL A   1      37.943  34.508  38.489  1.00  0.00    -0.200 F 
ENDBRANCH  38  62
BRANCH  50  73
ATOM     73  C   UNL A   1      44.696  27.940  34.490  1.00  0.00     0.064 A 
ATOM     74  C   UNL A   1      45.868  28.708  34.510  1.00  0.00     0.173 A 
ATOM     75  C   UNL A   1      44.600  26.861  35.383  1.00  0.00     0.173 A 
ATOM     76  F   UNL A   1      46.015  29.741  33.666  1.00  0.00    -0.203 F 
ATOM     77  C   UNL A   1      46.914  28.392  35.373  1.00  0.00     0.198 A 
ATOM     78  C   UNL A   1      45.632  26.572  36.269  1.00  0.00     0.198 A 
ATOM     79  F   UNL A   1      43.496  26.100  35.409  1.00  0.00    -0.203 F 
ATOM     80  F   UNL A   1      48.047  29.109  35.340  1.00  0.00    -0.200 F 
ATOM     81  C   UNL A   1      46.792  27.332  36.259  1.00  0.00     0.200 A 
ATOM     82  F   UNL A   1      45.503  25.559  37.138  1.00  0.00    -0.200 F 
ATOM     83  F   UNL A   1      47.794  27.039  37.098  1.00  0.00    -0.200 F 
ENDBRANCH  50  73
ENDBRANCH  24  25
ENDBRANCH  17  19
ENDBRANCH  16  17
ENDBRANCH   1  16
TORSDOF 12
ENDMDL
MODEL 2
REMARK VINA RESULT:     -11.1      3.900      9.431
REMARK SMILES COc1c(Br)cc(C)cc1C(=O)OCCOC(=O)c1ccc(-c2c3nc(c(-c4c(F)c(F)c(F)c(F)c4F)c4ccc([nH]4)c(-c4c(F)c(F)c(F)c(F)c4F)c4nc(c(-c5c(F)c(F)c(F)c(F)c5F)c5ccc2[nH]5)C=C4)C=C3)cc1
REMARK SMILES IDX 15 1 14 2 13 3 11 4 12 5 10 6 3 7 4 8 5 9 6 10 9 11 7 12
REMARK SMILES IDX 8 13 2 14 1 15 16 16 17 17 18 18 19 19 20 20 81 21 21 22
REMARK SMILES IDX 80 23 22 24 23 25 24 26 74 27 25 28 79 29 73 30 75 31 26 32
REMARK SMILES IDX 78 33 72 34 71 35 27 37 59 38 39 39 58 40 40 41 43 42 57 43
REMARK SMILES IDX 76 44 41 45 42 46 56 48 77 49 44 50 28 51 29 52 37 53 30 54
REMARK SMILES IDX 31 55 35 56 38 57 32 58 33 59 36 60 34 61 60 62 61 63 69 64
REMARK SMILES IDX 62 65 63 66 67 67 70 68 64 69 65 70 68 71 66 72 45 73 46 74
REMARK SMILES IDX 54 75 47 76 48 77 52 78 55 79 49 80 50 81 53 82 51 83
REMARK H PARENT 75 36 43 47
REMARK Flexibility Score: inf
ROOT
ATOM      1  C   UNL A   1      32.785  31.969  27.595  1.00  0.00     0.275 C 
ENDROOT
BRANCH   1   2
ATOM      2  C   UNL A   1      32.698  33.491  27.441  1.00  0.00     0.275 C 
BRANCH   2   3
ATOM      3  O   UNL A   1      32.529  34.097  28.733  1.00  0.00    -0.458 OA
BRANCH   3   4
ATOM      4  C   UNL A   1      33.401  35.092  29.023  1.00  0.00     0.342 C 
ATOM      5  O   UNL A   1      33.290  36.278  28.765  1.00  0.00    -0.246 OA
BRANCH   4   6
ATOM      6  C   UNL A   1      34.494  34.495  29.801  1.00  0.00     0.103 A 
ATOM      7  C   UNL A   1      34.404  34.232  31.176  1.00  0.00     0.147 A 
ATOM      8  C   UNL A   1      35.498  33.588  31.783  1.00  0.00     0.061 A 
ATOM      9  Br  UNL A   1      35.453  33.079  33.622  1.00  0.00    -0.047 Br
ATOM     10  C   UNL A   1      36.657  33.270  31.065  1.00  0.00     0.023 A 
ATOM     11  C   UNL A   1      35.668  34.198  29.080  1.00  0.00     0.023 A 
ATOM     12  C   UNL A   1      36.763  33.602  29.713  1.00  0.00    -0.049 A 
ATOM     13  C   UNL A   1      38.051  33.351  28.985  1.00  0.00     0.044 C 
BRANCH   7  14
ATOM     14  O   UNL A   1      33.399  34.573  32.041  1.00  0.00    -0.495 OA
ATOM     15  C   UNL A   1      33.250  35.908  32.487  1.00  0.00     0.278 C 
ENDBRANCH   7  14
ENDBRANCH   4   6
ENDBRANCH   3   4
ENDBRANCH   2   3
ENDBRANCH   1   2
BRANCH   1  16
ATOM     16  O   UNL A   1      34.109  31.555  28.001  1.00  0.00    -0.458 OA
BRANCH  16  17
ATOM     17  C   UNL A   1      34.473  30.305  27.616  1.00  0.00     0.338 C 
ATOM     18  O   UNL A   1      33.876  29.556  26.864  1.00  0.00    -0.246 OA
BRANCH  17  19
ATOM     19  C   UNL A   1      35.817  30.004  28.143  1.00  0.00     0.060 A 
ATOM     20  C   UNL A   1      36.892  30.076  27.251  1.00  0.00     0.016 A 
ATOM     21  C   UNL A   1      36.023  29.622  29.472  1.00  0.00     0.016 A 
ATOM     22  C   UNL A   1      38.182  29.801  27.690  1.00  0.00     0.010 A 
ATOM     23  C   UNL A   1      37.320  29.315  29.906  1.00  0.00     0.010 A 
ATOM     24  C   UNL A   1      38.403  29.404  29.015  1.00  0.00    -0.014 A 
BRANCH  24  25
ATOM     25  C   UNL A   1      39.769  28.982  29.404  1.00  0.00     0.031 A 
ATOM     26  C   UNL A   1      40.533  29.822  30.385  1.00  0.00     0.074 A 
ATOM     27  C   UNL A   1      40.260  27.806  28.973  1.00  0.00     0.049 A 
ATOM     28  N   UNL A   1      41.737  29.654  30.867  1.00  0.00    -0.248 NA
ATOM     29  C   UNL A   1      39.832  31.004  30.910  1.00  0.00     0.031 C 
ATOM     30  C   UNL A   1      39.543  26.864  28.114  1.00  0.00     0.029 A 
ATOM     31  N   UNL A   1      41.460  27.189  29.218  1.00  0.00    -0.354 N 
ATOM     32  C   UNL A   1      41.940  30.710  31.745  1.00  0.00     0.074 A 
ATOM     33  C   UNL A   1      40.740  31.518  31.725  1.00  0.00     0.031 C 
ATOM     34  C   UNL A   1      40.313  25.783  27.913  1.00  0.00     0.029 A 
ATOM     35  C   UNL A   1      41.597  25.981  28.579  1.00  0.00     0.049 A 
ATOM     36  H   UNL A   1      42.157  27.575  29.797  1.00  0.00     0.167 HD
ATOM     37  C   UNL A   1      43.036  30.979  32.495  1.00  0.00     0.037 A 
ATOM     38  C   UNL A   1      42.657  25.149  28.518  1.00  0.00     0.037 A 
ATOM     39  C   UNL A   1      44.225  30.166  32.484  1.00  0.00     0.049 A 
ATOM     40  C   UNL A   1      43.907  25.532  29.270  1.00  0.00     0.074 A 
ATOM     41  C   UNL A   1      45.421  30.370  33.147  1.00  0.00     0.029 A 
ATOM     42  N   UNL A   1      44.363  28.991  31.756  1.00  0.00    -0.354 N 
ATOM     43  N   UNL A   1      44.118  26.560  30.057  1.00  0.00    -0.248 NA
ATOM     44  C   UNL A   1      45.070  24.648  29.118  1.00  0.00     0.031 C 
ATOM     45  C   UNL A   1      46.304  29.351  32.771  1.00  0.00     0.029 A 
ATOM     46  C   UNL A   1      45.635  28.472  31.932  1.00  0.00     0.049 A 
ATOM     47  H   UNL A   1      43.660  28.585  31.199  1.00  0.00     0.167 HD
ATOM     48  C   UNL A   1      45.422  26.435  30.515  1.00  0.00     0.074 A 
ATOM     49  C   UNL A   1      45.950  25.218  29.930  1.00  0.00     0.031 C 
ATOM     50  C   UNL A   1      46.125  27.250  31.342  1.00  0.00     0.037 A 
BRANCH  37  51
ATOM     51  C   UNL A   1      43.019  32.241  33.310  1.00  0.00     0.064 A 
ATOM     52  C   UNL A   1      42.628  32.256  34.658  1.00  0.00     0.173 A 
ATOM     53  C   UNL A   1      43.373  33.464  32.719  1.00  0.00     0.173 A 
ATOM     54  F   UNL A   1      42.260  31.120  35.269  1.00  0.00    -0.203 F 
ATOM     55  C   UNL A   1      42.553  33.453  35.369  1.00  0.00     0.198 A 
ATOM     56  C   UNL A   1      43.328  34.652  33.442  1.00  0.00     0.198 A 
ATOM     57  F   UNL A   1      43.755  33.509  31.434  1.00  0.00    -0.203 F 
ATOM     58  F   UNL A   1      42.112  33.453  36.635  1.00  0.00    -0.200 F 
ATOM     59  C   UNL A   1      42.906  34.649  34.762  1.00  0.00     0.200 A 
ATOM     60  F   UNL A   1      43.676  35.805  32.854  1.00  0.00    -0.200 F 
ATOM     61  F   UNL A   1      42.823  35.800  35.444  1.00  0.00    -0.200 F 
ENDBRANCH  37  51
BRANCH  38  62
ATOM     62  C   UNL A   1      42.605  23.917  27.682  1.00  0.00     0.064 A 
ATOM     63  C   UNL A   1      42.233  22.676  28.220  1.00  0.00     0.173 A 
ATOM     64  C   UNL A   1      42.967  23.946  26.324  1.00  0.00     0.173 A 
ATOM     65  F   UNL A   1      41.903  22.581  29.517  1.00  0.00    -0.203 F 
ATOM     66  C   UNL A   1      42.246  21.516  27.444  1.00  0.00     0.198 A 
ATOM     67  C   UNL A   1      42.946  22.794  25.541  1.00  0.00     0.198 A 
ATOM     68  F   UNL A   1      43.341  25.102  25.754  1.00  0.00    -0.203 F 
ATOM     69  F   UNL A   1      41.943  20.336  28.002  1.00  0.00    -0.200 F 
ATOM     70  C   UNL A   1      42.597  21.577  26.104  1.00  0.00     0.200 A 
ATOM     71  F   UNL A   1      43.274  22.864  24.244  1.00  0.00    -0.200 F 
ATOM     72  F   UNL A   1      42.611  20.463  25.359  1.00  0.00    -0.200 F 
ENDBRANCH  38  62
BRANCH  50  73
ATOM     73  C   UNL A   1      47.522  26.827  31.696  1.00  0.00     0.064 A 
ATOM     74  C   UNL A   1      47.779  25.902  32.717  1.00  0.00     0.173 A 
ATOM     75  C   UNL A   1      48.614  27.318  30.962  1.00  0.00     0.173 A 
ATOM     76  F   UNL A   1      46.772  25.414  33.458  1.00  0.00    -0.203 F 
ATOM     77  C   UNL A   1      49.081  25.505  33.010  1.00  0.00     0.198 A 
ATOM     78  C   UNL A   1      49.909  26.889  31.233  1.00  0.00     0.198 A 
ATOM     79  F   UNL A   1      48.420  28.198  29.968  1.00  0.00    -0.203 F 
ATOM     80  F   UNL A   1      49.310  24.659  34.025  1.00  0.00    -0.200 F 
ATOM     81  C   UNL A   1      50.143  25.990  32.261  1.00  0.00     0.200 A 
ATOM     82  F   UNL A   1      50.931  27.345  30.494  1.00  0.00    -0.200 F 
ATOM     83  F   UNL A   1      51.394  25.595  32.535  1.00  0.00    -0.200 F 
ENDBRANCH  50  73
ENDBRANCH  24  25
ENDBRANCH  17  19
ENDBRANCH  16  17
ENDBRANCH   1  16
TORSDOF 12
ENDMDL
MODEL 3
REMARK VINA RESULT:     -11.1      3.481      9.202
REMARK SMILES COc1c(Br)cc(C)cc1C(=O)OCCOC(=O)c1ccc(-c2c3nc(c(-c4c(F)c(F)c(F)c(F)c4F)c4ccc([nH]4)c(-c4c(F)c(F)c(F)c(F)c4F)c4nc(c(-c5c(F)c(F)c(F)c(F)c5F)c5ccc2[nH]5)C=C4)C=C3)cc1
REMARK SMILES IDX 15 1 14 2 13 3 11 4 12 5 10 6 3 7 4 8 5 9 6 10 9 11 7 12
REMARK SMILES IDX 8 13 2 14 1 15 16 16 17 17 18 18 19 19 20 20 81 21 21 22
REMARK SMILES IDX 80 23 22 24 23 25 24 26 74 27 25 28 79 29 73 30 75 31 26 32
REMARK SMILES IDX 78 33 72 34 71 35 27 37 59 38 39 39 58 40 40 41 43 42 57 43
REMARK SMILES IDX 76 44 41 45 42 46 56 48 77 49 44 50 28 51 29 52 37 53 30 54
REMARK SMILES IDX 31 55 35 56 38 57 32 58 33 59 36 60 34 61 60 62 61 63 69 64
REMARK SMILES IDX 62 65 63 66 67 67 70 68 64 69 65 70 68 71 66 72 45 73 46 74
REMARK SMILES IDX 54 75 47 76 48 77 52 78 55 79 49 80 50 81 53 82 51 83
REMARK H PARENT 75 36 43 47
REMARK Flexibility Score: inf
ROOT
ATOM      1  C   UNL A   1      32.516  31.725  27.298  1.00  0.00     0.275 C 
ENDROOT
BRANCH   1   2
ATOM      2  C   UNL A   1      32.260  33.235  27.344  1.00  0.00     0.275 C 
BRANCH   2   3
ATOM      3  O   UNL A   1      33.476  33.919  27.686  1.00  0.00    -0.458 OA
BRANCH   3   4
ATOM      4  C   UNL A   1      33.403  34.716  28.779  1.00  0.00     0.342 C 
ATOM      5  O   UNL A   1      32.563  35.563  29.028  1.00  0.00    -0.246 OA
BRANCH   4   6
ATOM      6  C   UNL A   1      34.491  34.314  29.680  1.00  0.00     0.103 A 
ATOM      7  C   UNL A   1      34.344  34.228  31.072  1.00  0.00     0.147 A 
ATOM      8  C   UNL A   1      35.447  33.757  31.810  1.00  0.00     0.061 A 
ATOM      9  Br  UNL A   1      35.336  33.494  33.696  1.00  0.00    -0.047 Br
ATOM     10  C   UNL A   1      36.663  33.439  31.194  1.00  0.00     0.023 A 
ATOM     11  C   UNL A   1      35.721  34.017  29.059  1.00  0.00     0.023 A 
ATOM     12  C   UNL A   1      36.819  33.597  29.816  1.00  0.00    -0.049 A 
ATOM     13  C   UNL A   1      38.160  33.354  29.188  1.00  0.00     0.044 C 
BRANCH   7  14
ATOM     14  O   UNL A   1      33.271  34.600  31.836  1.00  0.00    -0.495 OA
ATOM     15  C   UNL A   1      33.137  35.933  32.294  1.00  0.00     0.278 C 
ENDBRANCH   7  14
ENDBRANCH   4   6
ENDBRANCH   3   4
ENDBRANCH   2   3
ENDBRANCH   1   2
BRANCH   1  16
ATOM     16  O   UNL A   1      33.844  31.401  27.768  1.00  0.00    -0.458 OA
BRANCH  16  17
ATOM     17  C   UNL A   1      34.357  30.233  27.306  1.00  0.00     0.338 C 
ATOM     18  O   UNL A   1      33.930  29.539  26.400  1.00  0.00    -0.246 OA
BRANCH  17  19
ATOM     19  C   UNL A   1      35.639  29.960  27.984  1.00  0.00     0.060 A 
ATOM     20  C   UNL A   1      36.806  30.059  27.221  1.00  0.00     0.016 A 
ATOM     21  C   UNL A   1      35.700  29.579  29.327  1.00  0.00     0.016 A 
ATOM     22  C   UNL A   1      38.044  29.813  27.805  1.00  0.00     0.010 A 
ATOM     23  C   UNL A   1      36.945  29.300  29.906  1.00  0.00     0.010 A 
ATOM     24  C   UNL A   1      38.121  29.417  29.146  1.00  0.00    -0.014 A 
BRANCH  24  25
ATOM     25  C   UNL A   1      39.442  29.025  29.689  1.00  0.00     0.031 A 
ATOM     26  C   UNL A   1      39.987  29.770  30.872  1.00  0.00     0.074 A 
ATOM     27  C   UNL A   1      40.080  27.947  29.199  1.00  0.00     0.049 A 
ATOM     28  N   UNL A   1      41.116  29.607  31.512  1.00  0.00    -0.248 NA
ATOM     29  C   UNL A   1      39.129  30.829  31.422  1.00  0.00     0.031 C 
ATOM     30  C   UNL A   1      39.571  27.088  28.130  1.00  0.00     0.029 A 
ATOM     31  N   UNL A   1      41.274  27.371  29.551  1.00  0.00    -0.354 N 
ATOM     32  C   UNL A   1      41.106  30.547  32.534  1.00  0.00     0.074 A 
ATOM     33  C   UNL A   1      39.864  31.282  32.426  1.00  0.00     0.031 C 
ATOM     34  C   UNL A   1      40.443  26.088  27.920  1.00  0.00     0.029 A 
ATOM     35  C   UNL A   1      41.596  26.268  28.797  1.00  0.00     0.049 A 
ATOM     36  H   UNL A   1      41.847  27.716  30.274  1.00  0.00     0.167 HD
ATOM     37  C   UNL A   1      42.055  30.775  33.473  1.00  0.00     0.037 A 
ATOM     38  C   UNL A   1      42.713  25.514  28.801  1.00  0.00     0.037 A 
ATOM     39  C   UNL A   1      43.292  30.040  33.548  1.00  0.00     0.049 A 
ATOM     40  C   UNL A   1      43.806  25.863  29.781  1.00  0.00     0.074 A 
ATOM     41  C   UNL A   1      44.358  30.221  34.410  1.00  0.00     0.029 A 
ATOM     42  N   UNL A   1      43.625  28.981  32.713  1.00  0.00    -0.354 N 
ATOM     43  N   UNL A   1      43.819  26.788  30.711  1.00  0.00    -0.248 NA
ATOM     44  C   UNL A   1      45.043  25.074  29.704  1.00  0.00     0.031 C 
ATOM     45  C   UNL A   1      45.362  29.313  34.054  1.00  0.00     0.029 A 
ATOM     46  C   UNL A   1      44.893  28.516  33.020  1.00  0.00     0.049 A 
ATOM     47  H   UNL A   1      43.045  28.614  32.007  1.00  0.00     0.167 HD
ATOM     48  C   UNL A   1      45.048  26.677  31.348  1.00  0.00     0.074 A 
ATOM     49  C   UNL A   1      45.747  25.581  30.707  1.00  0.00     0.031 C 
ATOM     50  C   UNL A   1      45.556  27.414  32.368  1.00  0.00     0.037 A 
BRANCH  37  51
ATOM     51  C   UNL A   1      41.822  31.914  34.424  1.00  0.00     0.064 A 
ATOM     52  C   UNL A   1      42.227  33.226  34.135  1.00  0.00     0.173 A 
ATOM     53  C   UNL A   1      41.206  31.680  35.664  1.00  0.00     0.173 A 
ATOM     54  F   UNL A   1      42.839  33.505  32.974  1.00  0.00    -0.203 F 
ATOM     55  C   UNL A   1      42.063  34.250  35.066  1.00  0.00     0.198 A 
ATOM     56  C   UNL A   1      41.014  32.711  36.579  1.00  0.00     0.198 A 
ATOM     57  F   UNL A   1      40.798  30.446  35.994  1.00  0.00    -0.203 F 
ATOM     58  F   UNL A   1      42.519  35.481  34.796  1.00  0.00    -0.200 F 
ATOM     59  C   UNL A   1      41.454  33.993  36.286  1.00  0.00     0.200 A 
ATOM     60  F   UNL A   1      40.419  32.461  37.753  1.00  0.00    -0.200 F 
ATOM     61  F   UNL A   1      41.306  34.976  37.185  1.00  0.00    -0.200 F 
ENDBRANCH  37  51
BRANCH  38  62
ATOM     62  C   UNL A   1      42.880  24.402  27.822  1.00  0.00     0.064 A 
ATOM     63  C   UNL A   1      42.551  23.078  28.148  1.00  0.00     0.173 A 
ATOM     64  C   UNL A   1      43.412  24.637  26.543  1.00  0.00     0.173 A 
ATOM     65  F   UNL A   1      42.065  22.789  29.364  1.00  0.00    -0.203 F 
ATOM     66  C   UNL A   1      42.768  22.035  27.246  1.00  0.00     0.198 A 
ATOM     67  C   UNL A   1      43.594  23.600  25.631  1.00  0.00     0.198 A 
ATOM     68  F   UNL A   1      43.754  25.881  26.176  1.00  0.00    -0.203 F 
ATOM     69  F   UNL A   1      42.499  20.773  27.608  1.00  0.00    -0.200 F 
ATOM     70  C   UNL A   1      43.283  22.298  25.986  1.00  0.00     0.200 A 
ATOM     71  F   UNL A   1      44.082  23.864  24.410  1.00  0.00    -0.200 F 
ATOM     72  F   UNL A   1      43.492  21.296  25.121  1.00  0.00    -0.200 F 
ENDBRANCH  38  62
BRANCH  50  73
ATOM     73  C   UNL A   1      46.914  27.027  32.881  1.00  0.00     0.064 A 
ATOM     74  C   UNL A   1      48.087  27.616  32.389  1.00  0.00     0.173 A 
ATOM     75  C   UNL A   1      47.033  26.090  33.920  1.00  0.00     0.173 A 
ATOM     76  F   UNL A   1      48.028  28.506  31.387  1.00  0.00    -0.203 F 
ATOM     77  C   UNL A   1      49.333  27.261  32.900  1.00  0.00     0.198 A 
ATOM     78  C   UNL A   1      48.277  25.767  34.452  1.00  0.00     0.198 A 
ATOM     79  F   UNL A   1      45.940  25.504  34.431  1.00  0.00    -0.203 F 
ATOM     80  F   UNL A   1      50.446  27.798  32.379  1.00  0.00    -0.200 F 
ATOM     81  C   UNL A   1      49.426  26.345  33.937  1.00  0.00     0.200 A 
ATOM     82  F   UNL A   1      48.362  24.896  35.468  1.00  0.00    -0.200 F 
ATOM     83  F   UNL A   1      50.625  26.016  34.436  1.00  0.00    -0.200 F 
ENDBRANCH  50  73
ENDBRANCH  24  25
ENDBRANCH  17  19
ENDBRANCH  16  17
ENDBRANCH   1  16
TORSDOF 12
ENDMDL
