MODEL 1
REMARK VINA RESULT:     -13.6      0.000      0.000
REMARK SMILES C[C@H]1CS(=O)(=O)N(c2cccc(C(=O)Nc3ccc(O)c(C(=O)OCCOC(=O)c4ccc(-c5c6nc(c(-c7c(F)c(F)c(F)c(F)c7F)c7ccc([nH]7)c(-c7c(F)c(F)c(F)c(F)c7F)c7nc(c(-c8c(F)c(F)c(F)c(F)c8F)c8ccc5[nH]8)C=C7)C=C6)cc4)c3)c2)C1=O
REMARK SMILES IDX 25 1 24 2 22 3 23 4 21 5 16 6 17 7 93 8 18 9 19 10 15 11
REMARK SMILES IDX 13 12 14 13 12 15 8 16 9 17 94 18 10 19 11 20 7 21 1 22 2 23
REMARK SMILES IDX 3 24 95 25 4 26 96 27 5 28 6 29 20 30 26 32 27 33 28 34
REMARK SMILES IDX 29 35 30 36 31 37 92 38 32 39 91 40 33 41 34 42 35 43 85 44
REMARK SMILES IDX 36 45 90 46 84 47 86 48 37 49 89 50 83 51 82 52 38 54 70 55
REMARK SMILES IDX 50 56 69 57 51 58 54 59 68 60 87 61 52 62 53 63 67 65 88 66
REMARK SMILES IDX 55 67 39 68 40 69 48 70 41 71 42 72 46 73 49 74 43 75 44 76
REMARK SMILES IDX 47 77 45 78 71 79 72 80 80 81 73 82 74 83 78 84 81 85 75 86
REMARK SMILES IDX 76 87 79 88 77 89 56 90 57 91 65 92 58 93 59 94 63 95 66 96
REMARK SMILES IDX 60 97 61 98 64 99 62 100
REMARK H PARENT 15 14 20 31 86 53 54 64
REMARK Flexibility Score: inf
ROOT
ATOM      1  C   UNL A   1      31.536  31.650  26.887  1.00  0.00     0.275 C 
ENDROOT
BRANCH   1   2
ATOM      2  O   UNL A   1      31.582  31.005  25.594  1.00  0.00    -0.458 OA
BRANCH   2   3
ATOM      3  C   UNL A   1      32.285  29.851  25.559  1.00  0.00     0.342 C 
ATOM      4  O   UNL A   1      33.469  29.729  25.835  1.00  0.00    -0.246 OA
BRANCH   3   5
ATOM      5  C   UNL A   1      31.506  28.667  25.138  1.00  0.00     0.103 A 
ATOM      6  C   UNL A   1      30.623  26.466  25.551  1.00  0.00     0.042 A 
ATOM      7  C   UNL A   1      29.886  26.511  24.365  1.00  0.00     0.030 A 
ATOM      8  C   UNL A   1      31.522  27.486  25.879  1.00  0.00     0.045 A 
ATOM      9  C   UNL A   1      29.864  27.688  23.627  1.00  0.00     0.049 A 
ATOM     10  C   UNL A   1      30.614  28.779  24.056  1.00  0.00     0.130 A 
BRANCH   6  11
ATOM     11  N   UNL A   1      30.287  25.459  26.462  1.00  0.00    -0.322 N 
ATOM     12  C   UNL A   1      30.494  24.095  26.364  1.00  0.00     0.255 C 
ATOM     13  O   UNL A   1      29.991  23.360  27.216  1.00  0.00    -0.269 OA
ATOM     14  H   UNL A   1      29.841  25.762  27.286  1.00  0.00     0.170 HD
BRANCH  12  15
ATOM     15  C   UNL A   1      31.371  23.478  25.314  1.00  0.00     0.042 A 
ATOM     16  C   UNL A   1      33.479  22.530  24.512  1.00  0.00     0.061 A 
ATOM     17  C   UNL A   1      32.925  22.416  23.235  1.00  0.00     0.027 A 
ATOM     18  C   UNL A   1      32.667  22.989  25.559  1.00  0.00     0.041 A 
ATOM     19  C   UNL A   1      31.603  22.800  22.998  1.00  0.00     0.003 A 
ATOM     20  C   UNL A   1      30.838  23.348  24.028  1.00  0.00     0.014 A 
BRANCH  16  21
ATOM     21  N   UNL A   1      34.867  22.255  24.723  1.00  0.00    -0.207 N 
ATOM     22  C   UNL A   1      37.425  19.742  24.691  1.00  0.00     0.019 C 
ATOM     23  C   UNL A   1      36.823  20.974  25.358  1.00  0.00     0.094 C 
ATOM     24  C   UNL A   1      37.406  22.261  24.770  1.00  0.00     0.173 C 
ATOM     25  C   UNL A   1      35.308  21.007  25.205  1.00  0.00     0.244 C 
ATOM     26  S   UNL A   1      36.065  23.384  24.455  1.00  0.00     0.242 S 
ATOM     27  O   UNL A   1      34.580  20.067  25.496  1.00  0.00    -0.273 OA
ATOM     28  O   UNL A   1      36.025  24.368  25.508  1.00  0.00    -0.206 OA
ATOM     29  O   UNL A   1      36.093  23.747  23.054  1.00  0.00    -0.206 OA
ENDBRANCH  16  21
ENDBRANCH  12  15
ENDBRANCH   6  11
BRANCH  10  30
ATOM     30  O   UNL A   1      30.366  29.953  23.396  1.00  0.00    -0.507 OA
ATOM     31  H   UNL A   1      29.489  30.181  23.159  1.00  0.00     0.293 HD
ENDBRANCH  10  30
ENDBRANCH   3   5
ENDBRANCH   2   3
ENDBRANCH   1   2
BRANCH   1  32
ATOM     32  C   UNL A   1      32.130  33.066  26.882  1.00  0.00     0.275 C 
BRANCH  32  33
ATOM     33  O   UNL A   1      32.468  33.513  28.212  1.00  0.00    -0.458 OA
BRANCH  33  34
ATOM     34  C   UNL A   1      33.548  34.327  28.292  1.00  0.00     0.338 C 
ATOM     35  O   UNL A   1      33.549  35.548  28.262  1.00  0.00    -0.246 OA
BRANCH  34  36
ATOM     36  C   UNL A   1      34.743  33.541  28.662  1.00  0.00     0.060 A 
ATOM     37  C   UNL A   1      34.515  32.337  29.333  1.00  0.00     0.016 A 
ATOM     38  C   UNL A   1      36.051  33.947  28.388  1.00  0.00     0.016 A 
ATOM     39  C   UNL A   1      35.571  31.499  29.674  1.00  0.00     0.010 A 
ATOM     40  C   UNL A   1      37.124  33.140  28.802  1.00  0.00     0.010 A 
ATOM     41  C   UNL A   1      36.887  31.912  29.447  1.00  0.00    -0.014 A 
BRANCH  41  42
ATOM     42  C   UNL A   1      37.980  31.156  30.105  1.00  0.00     0.031 A 
ATOM     43  C   UNL A   1      38.241  31.429  31.562  1.00  0.00     0.074 A 
ATOM     44  C   UNL A   1      38.671  30.193  29.468  1.00  0.00     0.049 A 
ATOM     45  N   UNL A   1      39.154  30.931  32.354  1.00  0.00    -0.248 NA
ATOM     46  C   UNL A   1      37.327  32.380  32.216  1.00  0.00     0.031 C 
ATOM     47  C   UNL A   1      38.436  29.746  28.098  1.00  0.00     0.029 A 
ATOM     48  N   UNL A   1      39.714  29.412  29.904  1.00  0.00    -0.354 N 
ATOM     49  C   UNL A   1      38.921  31.504  33.597  1.00  0.00     0.074 A 
ATOM     50  C   UNL A   1      37.788  32.391  33.457  1.00  0.00     0.031 C 
ATOM     51  C   UNL A   1      39.325  28.781  27.798  1.00  0.00     0.029 A 
ATOM     52  C   UNL A   1      40.215  28.571  28.941  1.00  0.00     0.049 A 
ATOM     53  H   UNL A   1      40.069  29.450  30.822  1.00  0.00     0.167 HD
ATOM     54  C   UNL A   1      39.597  31.316  34.754  1.00  0.00     0.037 A 
ATOM     55  C   UNL A   1      41.288  27.755  28.974  1.00  0.00     0.037 A 
ATOM     56  C   UNL A   1      40.745  30.462  34.890  1.00  0.00     0.049 A 
ATOM     57  C   UNL A   1      42.112  27.670  30.238  1.00  0.00     0.074 A 
ATOM     58  C   UNL A   1      41.534  30.249  36.006  1.00  0.00     0.029 A 
ATOM     59  N   UNL A   1      41.274  29.689  33.868  1.00  0.00    -0.354 N 
ATOM     60  N   UNL A   1      41.911  28.239  31.403  1.00  0.00    -0.248 NA
ATOM     61  C   UNL A   1      43.323  26.836  30.187  1.00  0.00     0.031 C 
ATOM     62  C   UNL A   1      42.571  29.383  35.644  1.00  0.00     0.029 A 
ATOM     63  C   UNL A   1      42.394  29.013  34.321  1.00  0.00     0.049 A 
ATOM     64  H   UNL A   1      40.907  29.630  32.956  1.00  0.00     0.167 HD
ATOM     65  C   UNL A   1      42.944  27.806  32.227  1.00  0.00     0.074 A 
ATOM     66  C   UNL A   1      43.766  26.918  31.434  1.00  0.00     0.031 C 
ATOM     67  C   UNL A   1      43.189  28.116  33.523  1.00  0.00     0.037 A 
BRANCH  54  68
ATOM     68  C   UNL A   1      39.140  32.099  35.946  1.00  0.00     0.064 A 
ATOM     69  C   UNL A   1      39.586  33.407  36.186  1.00  0.00     0.173 A 
ATOM     70  C   UNL A   1      38.243  31.530  36.862  1.00  0.00     0.173 A 
ATOM     71  F   UNL A   1      40.465  33.983  35.353  1.00  0.00    -0.203 F 
ATOM     72  C   UNL A   1      39.164  34.110  37.312  1.00  0.00     0.198 A 
ATOM     73  C   UNL A   1      37.802  32.245  37.971  1.00  0.00     0.198 A 
ATOM     74  F   UNL A   1      37.793  30.279  36.679  1.00  0.00    -0.203 F 
ATOM     75  F   UNL A   1      39.638  35.340  37.548  1.00  0.00    -0.200 F 
ATOM     76  C   UNL A   1      38.268  33.531  38.199  1.00  0.00     0.200 A 
ATOM     77  F   UNL A   1      36.932  31.686  38.823  1.00  0.00    -0.200 F 
ATOM     78  F   UNL A   1      37.860  34.209  39.280  1.00  0.00    -0.200 F 
ENDBRANCH  54  68
BRANCH  55  79
ATOM     79  C   UNL A   1      41.693  26.982  27.767  1.00  0.00     0.064 A 
ATOM     80  C   UNL A   1      41.220  25.681  27.540  1.00  0.00     0.173 A 
ATOM     81  C   UNL A   1      42.621  27.503  26.852  1.00  0.00     0.173 A 
ATOM     82  F   UNL A   1      40.359  25.123  28.403  1.00  0.00    -0.203 F 
ATOM     83  C   UNL A   1      41.679  24.924  26.463  1.00  0.00     0.198 A 
ATOM     84  C   UNL A   1      43.056  26.756  25.758  1.00  0.00     0.198 A 
ATOM     85  F   UNL A   1      43.116  28.737  27.026  1.00  0.00    -0.203 F 
ATOM     86  F   UNL A   1      41.259  23.661  26.307  1.00  0.00    -0.200 F 
ATOM     87  C   UNL A   1      42.593  25.464  25.571  1.00  0.00     0.200 A 
ATOM     88  F   UNL A   1      43.934  27.286  24.896  1.00  0.00    -0.200 F 
ATOM     89  F   UNL A   1      43.042  24.732  24.542  1.00  0.00    -0.200 F 
ENDBRANCH  55  79
BRANCH  67  90
ATOM     90  C   UNL A   1      44.363  27.455  34.188  1.00  0.00     0.064 A 
ATOM     91  C   UNL A   1      45.629  28.057  34.223  1.00  0.00     0.173 A 
ATOM     92  C   UNL A   1      44.200  26.229  34.852  1.00  0.00     0.173 A 
ATOM     93  F   UNL A   1      45.839  29.223  33.594  1.00  0.00    -0.203 F 
ATOM     94  C   UNL A   1      46.694  27.446  34.880  1.00  0.00     0.198 A 
ATOM     95  C   UNL A   1      45.259  25.636  35.533  1.00  0.00     0.198 A 
ATOM     96  F   UNL A   1      43.007  25.616  34.858  1.00  0.00    -0.203 F 
ATOM     97  F   UNL A   1      47.905  28.019  34.864  1.00  0.00    -0.200 F 
ATOM     98  C   UNL A   1      46.507  26.241  35.541  1.00  0.00     0.200 A 
ATOM     99  F   UNL A   1      45.071  24.480  36.185  1.00  0.00    -0.200 F 
ATOM    100  F   UNL A   1      47.531  25.661  36.182  1.00  0.00    -0.200 F 
ENDBRANCH  67  90
ENDBRANCH  41  42
ENDBRANCH  34  36
ENDBRANCH  33  34
ENDBRANCH  32  33
ENDBRANCH   1  32
TORSDOF 15
ENDMDL
MODEL 2
REMARK VINA RESULT:     -13.2      1.422      2.322
REMARK SMILES C[C@H]1CS(=O)(=O)N(c2cccc(C(=O)Nc3ccc(O)c(C(=O)OCCOC(=O)c4ccc(-c5c6nc(c(-c7c(F)c(F)c(F)c(F)c7F)c7ccc([nH]7)c(-c7c(F)c(F)c(F)c(F)c7F)c7nc(c(-c8c(F)c(F)c(F)c(F)c8F)c8ccc5[nH]8)C=C7)C=C6)cc4)c3)c2)C1=O
REMARK SMILES IDX 25 1 24 2 22 3 23 4 21 5 16 6 17 7 93 8 18 9 19 10 15 11
REMARK SMILES IDX 13 12 14 13 12 15 8 16 9 17 94 18 10 19 11 20 7 21 1 22 2 23
REMARK SMILES IDX 3 24 95 25 4 26 96 27 5 28 6 29 20 30 26 32 27 33 28 34
REMARK SMILES IDX 29 35 30 36 31 37 92 38 32 39 91 40 33 41 34 42 35 43 85 44
REMARK SMILES IDX 36 45 90 46 84 47 86 48 37 49 89 50 83 51 82 52 38 54 70 55
REMARK SMILES IDX 50 56 69 57 51 58 54 59 68 60 87 61 52 62 53 63 67 65 88 66
REMARK SMILES IDX 55 67 39 68 40 69 48 70 41 71 42 72 46 73 49 74 43 75 44 76
REMARK SMILES IDX 47 77 45 78 71 79 72 80 80 81 73 82 74 83 78 84 81 85 75 86
REMARK SMILES IDX 76 87 79 88 77 89 56 90 57 91 65 92 58 93 59 94 63 95 66 96
REMARK SMILES IDX 60 97 61 98 64 99 62 100
REMARK H PARENT 15 14 20 31 86 53 54 64
REMARK Flexibility Score: inf
ROOT
ATOM      1  C   UNL A   1      31.394  31.478  26.868  1.00  0.00     0.275 C 
ENDROOT
BRANCH   1   2
ATOM      2  O   UNL A   1      31.746  30.796  25.643  1.00  0.00    -0.458 OA
BRANCH   2   3
ATOM      3  C   UNL A   1      32.372  29.610  25.813  1.00  0.00     0.342 C 
ATOM      4  O   UNL A   1      33.398  29.430  26.452  1.00  0.00    -0.246 OA
BRANCH   3   5
ATOM      5  C   UNL A   1      31.719  28.466  25.142  1.00  0.00     0.103 A 
ATOM      6  C   UNL A   1      31.366  27.075  23.209  1.00  0.00     0.042 A 
ATOM      7  C   UNL A   1      30.582  26.192  23.956  1.00  0.00     0.030 A 
ATOM      8  C   UNL A   1      31.834  28.269  23.766  1.00  0.00     0.045 A 
ATOM      9  C   UNL A   1      30.470  26.382  25.328  1.00  0.00     0.049 A 
ATOM     10  C   UNL A   1      31.097  27.473  25.921  1.00  0.00     0.130 A 
BRANCH   6  11
ATOM     11  N   UNL A   1      31.802  26.624  21.959  1.00  0.00    -0.322 N 
ATOM     12  C   UNL A   1      32.790  25.701  21.665  1.00  0.00     0.255 C 
ATOM     13  O   UNL A   1      33.121  25.549  20.488  1.00  0.00    -0.269 OA
ATOM     14  H   UNL A   1      31.344  27.018  21.181  1.00  0.00     0.170 HD
BRANCH  12  15
ATOM     15  C   UNL A   1      33.415  24.818  22.704  1.00  0.00     0.042 A 
ATOM     16  C   UNL A   1      33.786  22.665  23.804  1.00  0.00     0.061 A 
ATOM     17  C   UNL A   1      34.584  23.304  24.755  1.00  0.00     0.027 A 
ATOM     18  C   UNL A   1      33.272  23.420  22.740  1.00  0.00     0.041 A 
ATOM     19  C   UNL A   1      34.824  24.678  24.673  1.00  0.00     0.003 A 
ATOM     20  C   UNL A   1      34.224  25.434  23.665  1.00  0.00     0.014 A 
BRANCH  16  21
ATOM     21  N   UNL A   1      33.441  21.286  23.962  1.00  0.00    -0.207 N 
ATOM     22  C   UNL A   1      32.333  18.304  22.308  1.00  0.00     0.019 C 
ATOM     23  C   UNL A   1      32.270  19.209  23.532  1.00  0.00     0.094 C 
ATOM     24  C   UNL A   1      33.334  18.820  24.562  1.00  0.00     0.173 C 
ATOM     25  C   UNL A   1      32.463  20.672  23.156  1.00  0.00     0.244 C 
ATOM     26  S   UNL A   1      34.132  20.307  25.122  1.00  0.00     0.242 S 
ATOM     27  O   UNL A   1      31.819  21.232  22.279  1.00  0.00    -0.273 OA
ATOM     28  O   UNL A   1      33.599  20.663  26.413  1.00  0.00    -0.206 OA
ATOM     29  O   UNL A   1      35.553  20.181  24.876  1.00  0.00    -0.206 OA
ENDBRANCH  16  21
ENDBRANCH  12  15
ENDBRANCH   6  11
BRANCH  10  30
ATOM     30  O   UNL A   1      31.115  27.463  27.291  1.00  0.00    -0.507 OA
ATOM     31  H   UNL A   1      31.391  26.695  27.749  1.00  0.00     0.293 HD
ENDBRANCH  10  30
ENDBRANCH   3   5
ENDBRANCH   2   3
ENDBRANCH   1   2
BRANCH   1  32
ATOM     32  C   UNL A   1      31.683  32.986  26.830  1.00  0.00     0.275 C 
BRANCH  32  33
ATOM     33  O   UNL A   1      33.098  33.265  26.888  1.00  0.00    -0.458 OA
BRANCH  33  34
ATOM     34  C   UNL A   1      33.536  33.796  28.054  1.00  0.00     0.338 C 
ATOM     35  O   UNL A   1      32.930  34.567  28.781  1.00  0.00    -0.246 OA
BRANCH  34  36
ATOM     36  C   UNL A   1      34.786  33.129  28.472  1.00  0.00     0.060 A 
ATOM     37  C   UNL A   1      34.686  31.781  28.826  1.00  0.00     0.016 A 
ATOM     38  C   UNL A   1      36.023  33.774  28.537  1.00  0.00     0.016 A 
ATOM     39  C   UNL A   1      35.816  31.050  29.177  1.00  0.00     0.010 A 
ATOM     40  C   UNL A   1      37.152  33.058  28.969  1.00  0.00     0.010 A 
ATOM     41  C   UNL A   1      37.052  31.692  29.290  1.00  0.00    -0.014 A 
BRANCH  41  42
ATOM     42  C   UNL A   1      38.154  30.971  29.972  1.00  0.00     0.031 A 
ATOM     43  C   UNL A   1      38.386  31.264  31.429  1.00  0.00     0.074 A 
ATOM     44  C   UNL A   1      38.879  30.020  29.354  1.00  0.00     0.049 A 
ATOM     45  N   UNL A   1      39.301  30.797  32.239  1.00  0.00    -0.248 NA
ATOM     46  C   UNL A   1      37.439  32.197  32.061  1.00  0.00     0.031 C 
ATOM     47  C   UNL A   1      38.676  29.555  27.985  1.00  0.00     0.029 A 
ATOM     48  N   UNL A   1      39.935  29.270  29.812  1.00  0.00    -0.354 N 
ATOM     49  C   UNL A   1      39.035  31.376  33.473  1.00  0.00     0.074 A 
ATOM     50  C   UNL A   1      37.882  32.231  33.308  1.00  0.00     0.031 C 
ATOM     51  C   UNL A   1      39.593  28.611  27.707  1.00  0.00     0.029 A 
ATOM     52  C   UNL A   1      40.471  28.434  28.864  1.00  0.00     0.049 A 
ATOM     53  H   UNL A   1      40.275  29.326  30.734  1.00  0.00     0.167 HD
ATOM     54  C   UNL A   1      39.699  31.216  34.641  1.00  0.00     0.037 A 
ATOM     55  C   UNL A   1      41.564  27.646  28.921  1.00  0.00     0.037 A 
ATOM     56  C   UNL A   1      40.866  30.393  34.802  1.00  0.00     0.049 A 
ATOM     57  C   UNL A   1      42.372  27.594  30.197  1.00  0.00     0.074 A 
ATOM     58  C   UNL A   1      41.645  30.211  35.931  1.00  0.00     0.029 A 
ATOM     59  N   UNL A   1      41.429  29.625  33.795  1.00  0.00    -0.354 N 
ATOM     60  N   UNL A   1      42.139  28.169  31.353  1.00  0.00    -0.248 NA
ATOM     61  C   UNL A   1      43.605  26.791  30.171  1.00  0.00     0.031 C 
ATOM     62  C   UNL A   1      42.709  29.368  35.592  1.00  0.00     0.029 A 
ATOM     63  C   UNL A   1      42.560  28.982  34.270  1.00  0.00     0.049 A 
ATOM     64  H   UNL A   1      41.077  29.547  32.878  1.00  0.00     0.167 HD
ATOM     65  C   UNL A   1      43.171  27.770  32.196  1.00  0.00     0.074 A 
ATOM     66  C   UNL A   1      44.027  26.896  31.423  1.00  0.00     0.031 C 
ATOM     67  C   UNL A   1      43.390  28.098  33.493  1.00  0.00     0.037 A 
BRANCH  54  68
ATOM     68  C   UNL A   1      39.205  31.998  35.819  1.00  0.00     0.064 A 
ATOM     69  C   UNL A   1      38.306  31.450  36.746  1.00  0.00     0.173 A 
ATOM     70  C   UNL A   1      39.641  33.315  36.023  1.00  0.00     0.173 A 
ATOM     71  F   UNL A   1      37.841  30.203  36.577  1.00  0.00    -0.203 F 
ATOM     72  C   UNL A   1      37.844  32.201  37.823  1.00  0.00     0.198 A 
ATOM     73  C   UNL A   1      39.198  34.054  37.116  1.00  0.00     0.198 A 
ATOM     74  F   UNL A   1      40.497  33.885  35.161  1.00  0.00    -0.203 F 
ATOM     75  F   UNL A   1      36.948  31.676  38.669  1.00  0.00    -0.200 F 
ATOM     76  C   UNL A   1      38.296  33.499  38.011  1.00  0.00     0.200 A 
ATOM     77  F   UNL A   1      39.641  35.306  37.299  1.00  0.00    -0.200 F 
ATOM     78  F   UNL A   1      37.852  34.221  39.049  1.00  0.00    -0.200 F 
ENDBRANCH  54  68
BRANCH  55  79
ATOM     79  C   UNL A   1      42.007  26.873  27.727  1.00  0.00     0.064 A 
ATOM     80  C   UNL A   1      41.559  25.563  27.499  1.00  0.00     0.173 A 
ATOM     81  C   UNL A   1      42.944  27.404  26.828  1.00  0.00     0.173 A 
ATOM     82  F   UNL A   1      40.691  24.996  28.347  1.00  0.00    -0.203 F 
ATOM     83  C   UNL A   1      42.053  24.807  26.436  1.00  0.00     0.198 A 
ATOM     84  C   UNL A   1      43.414  26.658  25.748  1.00  0.00     0.198 A 
ATOM     85  F   UNL A   1      43.416  28.647  27.003  1.00  0.00    -0.203 F 
ATOM     86  F   UNL A   1      41.658  23.536  26.280  1.00  0.00    -0.200 F 
ATOM     87  C   UNL A   1      42.977  25.356  25.560  1.00  0.00     0.200 A 
ATOM     88  F   UNL A   1      44.300  27.197  24.901  1.00  0.00    -0.200 F 
ATOM     89  F   UNL A   1      43.458  24.626  24.544  1.00  0.00    -0.200 F 
ENDBRANCH  55  79
BRANCH  67  90
ATOM     90  C   UNL A   1      44.570  27.474  34.180  1.00  0.00     0.064 A 
ATOM     91  C   UNL A   1      45.814  28.117  34.243  1.00  0.00     0.173 A 
ATOM     92  C   UNL A   1      44.434  26.241  34.838  1.00  0.00     0.173 A 
ATOM     93  F   UNL A   1      45.999  29.291  33.621  1.00  0.00    -0.203 F 
ATOM     94  C   UNL A   1      46.885  27.539  34.921  1.00  0.00     0.198 A 
ATOM     95  C   UNL A   1      45.497  25.681  35.540  1.00  0.00     0.198 A 
ATOM     96  F   UNL A   1      43.262  25.590  34.817  1.00  0.00    -0.203 F 
ATOM     97  F   UNL A   1      48.077  28.152  34.932  1.00  0.00    -0.200 F 
ATOM     98  C   UNL A   1      46.724  26.327  35.575  1.00  0.00     0.200 A 
ATOM     99  F   UNL A   1      45.334  24.518  36.186  1.00  0.00    -0.200 F 
ATOM    100  F   UNL A   1      47.753  25.779  36.237  1.00  0.00    -0.200 F 
ENDBRANCH  67  90
ENDBRANCH  41  42
ENDBRANCH  34  36
ENDBRANCH  33  34
ENDBRANCH  32  33
ENDBRANCH   1  32
TORSDOF 15
ENDMDL
MODEL 3
REMARK VINA RESULT:     -13.1      4.164     10.338
REMARK SMILES C[C@H]1CS(=O)(=O)N(c2cccc(C(=O)Nc3ccc(O)c(C(=O)OCCOC(=O)c4ccc(-c5c6nc(c(-c7c(F)c(F)c(F)c(F)c7F)c7ccc([nH]7)c(-c7c(F)c(F)c(F)c(F)c7F)c7nc(c(-c8c(F)c(F)c(F)c(F)c8F)c8ccc5[nH]8)C=C7)C=C6)cc4)c3)c2)C1=O
REMARK SMILES IDX 25 1 24 2 22 3 23 4 21 5 16 6 17 7 93 8 18 9 19 10 15 11
REMARK SMILES IDX 13 12 14 13 12 15 8 16 9 17 94 18 10 19 11 20 7 21 1 22 2 23
REMARK SMILES IDX 3 24 95 25 4 26 96 27 5 28 6 29 20 30 26 32 27 33 28 34
REMARK SMILES IDX 29 35 30 36 31 37 92 38 32 39 91 40 33 41 34 42 35 43 85 44
REMARK SMILES IDX 36 45 90 46 84 47 86 48 37 49 89 50 83 51 82 52 38 54 70 55
REMARK SMILES IDX 50 56 69 57 51 58 54 59 68 60 87 61 52 62 53 63 67 65 88 66
REMARK SMILES IDX 55 67 39 68 40 69 48 70 41 71 42 72 46 73 49 74 43 75 44 76
REMARK SMILES IDX 47 77 45 78 71 79 72 80 80 81 73 82 74 83 78 84 81 85 75 86
REMARK SMILES IDX 76 87 79 88 77 89 56 90 57 91 65 92 58 93 59 94 63 95 66 96
REMARK SMILES IDX 60 97 61 98 64 99 62 100
REMARK H PARENT 15 14 20 31 86 53 54 64
REMARK Flexibility Score: inf
ROOT
ATOM      1  C   UNL A   1      37.916  19.910  24.635  1.00  0.00     0.275 C 
ENDROOT
BRANCH   1   2
ATOM      2  O   UNL A   1      36.587  19.967  25.202  1.00  0.00    -0.458 OA
BRANCH   2   3
ATOM      3  C   UNL A   1      36.108  21.215  25.402  1.00  0.00     0.342 C 
ATOM      4  O   UNL A   1      36.606  22.062  26.128  1.00  0.00    -0.246 OA
BRANCH   3   5
ATOM      5  C   UNL A   1      34.868  21.525  24.658  1.00  0.00     0.103 A 
ATOM      6  C   UNL A   1      33.646  22.829  23.045  1.00  0.00     0.042 A 
ATOM      7  C   UNL A   1      32.544  21.976  23.153  1.00  0.00     0.030 A 
ATOM      8  C   UNL A   1      34.757  22.677  23.880  1.00  0.00     0.045 A 
ATOM      9  C   UNL A   1      32.653  20.824  23.923  1.00  0.00     0.049 A 
ATOM     10  C   UNL A   1      33.837  20.570  24.609  1.00  0.00     0.130 A 
BRANCH   6  11
ATOM     11  N   UNL A   1      33.655  23.710  21.959  1.00  0.00    -0.322 N 
ATOM     12  C   UNL A   1      32.856  24.817  21.732  1.00  0.00     0.255 C 
ATOM     13  O   UNL A   1      32.927  25.379  20.638  1.00  0.00    -0.269 OA
ATOM     14  H   UNL A   1      34.320  23.516  21.259  1.00  0.00     0.170 HD
BRANCH  12  15
ATOM     15  C   UNL A   1      31.969  25.411  22.786  1.00  0.00     0.042 A 
ATOM     16  C   UNL A   1      31.425  27.069  24.500  1.00  0.00     0.061 A 
ATOM     17  C   UNL A   1      30.257  26.363  24.792  1.00  0.00     0.027 A 
ATOM     18  C   UNL A   1      32.233  26.627  23.443  1.00  0.00     0.041 A 
ATOM     19  C   UNL A   1      29.926  25.210  24.076  1.00  0.00     0.003 A 
ATOM     20  C   UNL A   1      30.790  24.725  23.093  1.00  0.00     0.014 A 
BRANCH  16  21
ATOM     21  N   UNL A   1      31.823  28.174  25.317  1.00  0.00    -0.207 N 
ATOM     22  C   UNL A   1      31.062  31.528  26.333  1.00  0.00     0.019 C 
ATOM     23  C   UNL A   1      32.115  30.494  25.956  1.00  0.00     0.094 C 
ATOM     24  C   UNL A   1      32.590  29.715  27.185  1.00  0.00     0.173 C 
ATOM     25  C   UNL A   1      31.584  29.506  24.925  1.00  0.00     0.244 C 
ATOM     26  S   UNL A   1      32.623  27.987  26.768  1.00  0.00     0.242 S 
ATOM     27  O   UNL A   1      31.046  29.848  23.879  1.00  0.00    -0.273 OA
ATOM     28  O   UNL A   1      33.986  27.599  26.503  1.00  0.00    -0.206 OA
ATOM     29  O   UNL A   1      31.781  27.275  27.705  1.00  0.00    -0.206 OA
ENDBRANCH  16  21
ENDBRANCH  12  15
ENDBRANCH   6  11
BRANCH  10  30
ATOM     30  O   UNL A   1      33.933  19.320  25.162  1.00  0.00    -0.507 OA
ATOM     31  H   UNL A   1      33.441  18.610  24.802  1.00  0.00     0.293 HD
ENDBRANCH  10  30
ENDBRANCH   3   5
ENDBRANCH   2   3
ENDBRANCH   1   2
BRANCH   1  32
ATOM     32  C   UNL A   1      38.987  19.457  25.638  1.00  0.00     0.275 C 
BRANCH  32  33
ATOM     33  O   UNL A   1      40.051  20.424  25.763  1.00  0.00    -0.458 OA
BRANCH  33  34
ATOM     34  C   UNL A   1      40.717  20.403  26.943  1.00  0.00     0.338 C 
ATOM     35  O   UNL A   1      41.186  19.424  27.502  1.00  0.00    -0.246 OA
BRANCH  34  36
ATOM     36  C   UNL A   1      41.018  21.783  27.374  1.00  0.00     0.060 A 
ATOM     37  C   UNL A   1      40.365  22.808  26.684  1.00  0.00     0.016 A 
ATOM     38  C   UNL A   1      41.909  22.095  28.402  1.00  0.00     0.016 A 
ATOM     39  C   UNL A   1      40.538  24.139  27.054  1.00  0.00     0.010 A 
ATOM     40  C   UNL A   1      42.146  23.443  28.724  1.00  0.00     0.010 A 
ATOM     41  C   UNL A   1      41.460  24.469  28.050  1.00  0.00    -0.014 A 
BRANCH  41  42
ATOM     42  C   UNL A   1      41.856  25.891  28.192  1.00  0.00     0.031 A 
ATOM     43  C   UNL A   1      43.194  26.304  27.642  1.00  0.00     0.074 A 
ATOM     44  C   UNL A   1      41.029  26.817  28.711  1.00  0.00     0.049 A 
ATOM     45  N   UNL A   1      43.785  27.471  27.670  1.00  0.00    -0.248 NA
ATOM     46  C   UNL A   1      43.959  25.256  26.945  1.00  0.00     0.031 C 
ATOM     47  C   UNL A   1      39.663  26.574  29.167  1.00  0.00     0.029 A 
ATOM     48  N   UNL A   1      41.226  28.158  28.936  1.00  0.00    -0.354 N 
ATOM     49  C   UNL A   1      44.984  27.297  26.992  1.00  0.00     0.074 A 
ATOM     50  C   UNL A   1      45.044  25.916  26.570  1.00  0.00     0.031 C 
ATOM     51  C   UNL A   1      39.150  27.727  29.636  1.00  0.00     0.029 A 
ATOM     52  C   UNL A   1      40.165  28.778  29.549  1.00  0.00     0.049 A 
ATOM     53  H   UNL A   1      42.050  28.632  28.680  1.00  0.00     0.167 HD
ATOM     54  C   UNL A   1      45.957  28.206  26.750  1.00  0.00     0.037 A 
ATOM     55  C   UNL A   1      40.047  30.038  30.015  1.00  0.00     0.037 A 
ATOM     56  C   UNL A   1      45.918  29.570  27.197  1.00  0.00     0.049 A 
ATOM     57  C   UNL A   1      41.205  30.995  29.857  1.00  0.00     0.074 A 
ATOM     58  C   UNL A   1      46.879  30.554  27.053  1.00  0.00     0.029 A 
ATOM     59  N   UNL A   1      44.860  30.139  27.890  1.00  0.00    -0.354 N 
ATOM     60  N   UNL A   1      42.353  30.819  29.247  1.00  0.00    -0.248 NA
ATOM     61  C   UNL A   1      41.055  32.327  30.466  1.00  0.00     0.031 C 
ATOM     62  C   UNL A   1      46.423  31.706  27.701  1.00  0.00     0.029 A 
ATOM     63  C   UNL A   1      45.154  31.457  28.200  1.00  0.00     0.049 A 
ATOM     64  H   UNL A   1      44.024  29.675  28.126  1.00  0.00     0.167 HD
ATOM     65  C   UNL A   1      43.042  32.021  29.367  1.00  0.00     0.074 A 
ATOM     66  C   UNL A   1      42.180  32.924  30.100  1.00  0.00     0.031 C 
ATOM     67  C   UNL A   1      44.276  32.348  28.912  1.00  0.00     0.037 A 
BRANCH  54  68
ATOM     68  C   UNL A   1      47.171  27.727  26.016  1.00  0.00     0.064 A 
ATOM     69  C   UNL A   1      48.309  27.262  26.692  1.00  0.00     0.173 A 
ATOM     70  C   UNL A   1      47.194  27.733  24.613  1.00  0.00     0.173 A 
ATOM     71  F   UNL A   1      48.343  27.263  28.033  1.00  0.00    -0.203 F 
ATOM     72  C   UNL A   1      49.434  26.840  25.989  1.00  0.00     0.198 A 
ATOM     73  C   UNL A   1      48.310  27.285  23.914  1.00  0.00     0.198 A 
ATOM     74  F   UNL A   1      46.132  28.173  23.921  1.00  0.00    -0.203 F 
ATOM     75  F   UNL A   1      50.528  26.445  26.655  1.00  0.00    -0.200 F 
ATOM     76  C   UNL A   1      49.431  26.845  24.602  1.00  0.00     0.200 A 
ATOM     77  F   UNL A   1      48.304  27.284  22.574  1.00  0.00    -0.200 F 
ATOM     78  F   UNL A   1      50.515  26.436  23.927  1.00  0.00    -0.200 F 
ENDBRANCH  54  68
BRANCH  55  79
ATOM     79  C   UNL A   1      38.812  30.474  30.724  1.00  0.00     0.064 A 
ATOM     80  C   UNL A   1      37.734  31.043  30.030  1.00  0.00     0.173 A 
ATOM     81  C   UNL A   1      38.714  30.396  32.122  1.00  0.00     0.173 A 
ATOM     82  F   UNL A   1      37.790  31.174  28.697  1.00  0.00    -0.203 F 
ATOM     83  C   UNL A   1      36.622  31.541  30.709  1.00  0.00     0.198 A 
ATOM     84  C   UNL A   1      37.588  30.866  32.796  1.00  0.00     0.198 A 
ATOM     85  F   UNL A   1      39.719  29.871  32.838  1.00  0.00    -0.203 F 
ATOM     86  F   UNL A   1      35.636  32.139  30.026  1.00  0.00    -0.200 F 
ATOM     87  C   UNL A   1      36.548  31.449  32.090  1.00  0.00     0.200 A 
ATOM     88  F   UNL A   1      37.520  30.767  34.130  1.00  0.00    -0.200 F 
ATOM     89  F   UNL A   1      35.484  31.936  32.742  1.00  0.00    -0.200 F 
ENDBRANCH  55  79
BRANCH  67  90
ATOM     90  C   UNL A   1      44.756  33.752  29.144  1.00  0.00     0.064 A 
ATOM     91  C   UNL A   1      44.411  34.803  28.283  1.00  0.00     0.173 A 
ATOM     92  C   UNL A   1      45.521  34.058  30.281  1.00  0.00     0.173 A 
ATOM     93  F   UNL A   1      43.692  34.561  27.177  1.00  0.00    -0.203 F 
ATOM     94  C   UNL A   1      44.833  36.106  28.539  1.00  0.00     0.198 A 
ATOM     95  C   UNL A   1      45.915  35.366  30.550  1.00  0.00     0.198 A 
ATOM     96  F   UNL A   1      45.869  33.091  31.143  1.00  0.00    -0.203 F 
ATOM     97  F   UNL A   1      44.527  37.087  27.679  1.00  0.00    -0.200 F 
ATOM     98  C   UNL A   1      45.577  36.387  29.675  1.00  0.00     0.200 A 
ATOM     99  F   UNL A   1      46.619  35.638  31.658  1.00  0.00    -0.200 F 
ATOM    100  F   UNL A   1      45.971  37.644  29.926  1.00  0.00    -0.200 F 
ENDBRANCH  67  90
ENDBRANCH  41  42
ENDBRANCH  34  36
ENDBRANCH  33  34
ENDBRANCH  32  33
ENDBRANCH   1  32
TORSDOF 15
ENDMDL
