MODEL 1
REMARK VINA RESULT:     -13.4      0.000      0.000
REMARK SMILES Cc1ccccc1CNc1ccc(C(=O)OCCOC(=O)c2ccc(-c3c4nc(c(-c5c(F)c(F)c(F)c(F)c5F)c5ccc([nH]5)c(-c5c(F)c(F)c(F)c(F)c5F)c5nc(c(-c6c(F)c(F)c(F)c(F)c6F)c6ccc3[nH]6)C=C5)C=C4)cc2)c(F)c1F
REMARK SMILES IDX 17 1 16 2 14 3 15 4 13 5 10 6 11 7 87 8 12 9 85 10 88 11
REMARK SMILES IDX 86 12 9 13 8 15 7 16 1 17 2 18 3 19 4 20 6 21 5 22 18 23
REMARK SMILES IDX 19 24 20 25 21 26 22 27 23 28 84 29 24 30 83 31 25 32 26 33
REMARK SMILES IDX 27 34 77 35 28 36 82 37 76 38 78 39 29 40 81 41 75 42 74 43
REMARK SMILES IDX 30 45 62 46 42 47 61 48 43 49 46 50 60 51 79 52 44 53 45 54
REMARK SMILES IDX 59 56 80 57 47 58 31 59 32 60 40 61 33 62 34 63 38 64 41 65
REMARK SMILES IDX 35 66 36 67 39 68 37 69 63 70 64 71 72 72 65 73 66 74 70 75
REMARK SMILES IDX 73 76 67 77 68 78 71 79 69 80 48 81 49 82 57 83 50 84 51 85
REMARK SMILES IDX 55 86 58 87 52 88 53 89 56 90 54 91
REMARK H PARENT 9 14 78 44 46 55
REMARK Flexibility Score: inf
ROOT
ATOM      1  C   UNL A   1      37.053  21.666  25.108  1.00  0.00     0.275 C 
ENDROOT
BRANCH   1   2
ATOM      2  O   UNL A   1      35.959  21.871  26.014  1.00  0.00    -0.458 OA
BRANCH   2   3
ATOM      3  C   UNL A   1      34.850  21.195  25.616  1.00  0.00     0.341 C 
ATOM      4  O   UNL A   1      34.848  20.114  25.040  1.00  0.00    -0.246 OA
BRANCH   3   5
ATOM      5  C   UNL A   1      33.583  21.910  25.824  1.00  0.00     0.099 A 
ATOM      6  C   UNL A   1      31.490  23.750  26.244  1.00  0.00     0.074 A 
ATOM      7  C   UNL A   1      32.411  23.472  27.260  1.00  0.00     0.030 A 
ATOM      8  C   UNL A   1      31.585  23.010  25.054  1.00  0.00     0.182 A 
ATOM      9  C   UNL A   1      33.457  22.581  27.047  1.00  0.00     0.021 A 
ATOM     10  C   UNL A   1      32.612  22.086  24.848  1.00  0.00     0.175 A 
ATOM     11  F   UNL A   1      30.715  23.257  24.059  1.00  0.00    -0.201 F 
ATOM     12  F   UNL A   1      32.676  21.438  23.680  1.00  0.00    -0.203 F 
BRANCH   6  13
ATOM     13  N   UNL A   1      30.578  24.793  26.366  1.00  0.00    -0.379 N 
ATOM     14  H   UNL A   1      29.846  24.739  27.023  1.00  0.00     0.161 HD
BRANCH  13  15
ATOM     15  C   UNL A   1      30.716  25.964  25.515  1.00  0.00     0.149 C 
BRANCH  15  16
ATOM     16  C   UNL A   1      31.804  26.870  26.036  1.00  0.00    -0.026 A 
ATOM     17  C   UNL A   1      33.601  25.974  24.433  1.00  0.00     0.044 C 
ATOM     18  C   UNL A   1      33.119  26.882  25.532  1.00  0.00    -0.046 A 
ATOM     19  C   UNL A   1      34.036  27.814  26.051  1.00  0.00     0.004 A 
ATOM     20  C   UNL A   1      33.676  28.691  27.074  1.00  0.00     0.000 A 
ATOM     21  C   UNL A   1      31.465  27.750  27.086  1.00  0.00     0.006 A 
ATOM     22  C   UNL A   1      32.392  28.652  27.600  1.00  0.00     0.000 A 
ENDBRANCH  15  16
ENDBRANCH  13  15
ENDBRANCH   6  13
ENDBRANCH   3   5
ENDBRANCH   2   3
ENDBRANCH   1   2
BRANCH   1  23
ATOM     23  C   UNL A   1      38.428  22.046  25.674  1.00  0.00     0.275 C 
BRANCH  23  24
ATOM     24  O   UNL A   1      38.648  23.265  26.438  1.00  0.00    -0.458 OA
BRANCH  24  25
ATOM     25  C   UNL A   1      39.775  23.579  27.112  1.00  0.00     0.338 C 
ATOM     26  O   UNL A   1      40.594  22.744  27.473  1.00  0.00    -0.246 OA
BRANCH  25  27
ATOM     27  C   UNL A   1      39.874  24.989  27.516  1.00  0.00     0.060 A 
ATOM     28  C   UNL A   1      40.305  25.953  26.588  1.00  0.00     0.016 A 
ATOM     29  C   UNL A   1      39.441  25.353  28.788  1.00  0.00     0.016 A 
ATOM     30  C   UNL A   1      40.215  27.303  26.897  1.00  0.00     0.010 A 
ATOM     31  C   UNL A   1      39.213  26.674  29.044  1.00  0.00     0.010 A 
ATOM     32  C   UNL A   1      39.669  27.638  28.129  1.00  0.00    -0.014 A 
BRANCH  32  33
ATOM     33  C   UNL A   1      39.850  28.925  28.764  1.00  0.00     0.031 A 
ATOM     34  C   UNL A   1      38.787  29.929  28.778  1.00  0.00     0.074 A 
ATOM     35  C   UNL A   1      40.926  28.878  29.582  1.00  0.00     0.049 A 
ATOM     36  N   UNL A   1      38.949  31.132  29.197  1.00  0.00    -0.248 NA
ATOM     37  C   UNL A   1      37.437  29.684  28.286  1.00  0.00     0.031 C 
ATOM     38  C   UNL A   1      41.267  29.627  30.774  1.00  0.00     0.029 A 
ATOM     39  N   UNL A   1      42.038  28.035  29.387  1.00  0.00    -0.354 N 
ATOM     40  C   UNL A   1      37.693  31.676  29.385  1.00  0.00     0.074 A 
ATOM     41  C   UNL A   1      36.807  30.807  28.655  1.00  0.00     0.031 C 
ATOM     42  C   UNL A   1      42.585  29.464  31.013  1.00  0.00     0.029 A 
ATOM     43  C   UNL A   1      43.142  28.734  29.879  1.00  0.00     0.049 A 
ATOM     44  H   UNL A   1      42.036  27.136  28.986  1.00  0.00     0.167 HD
ATOM     45  C   UNL A   1      37.574  32.683  30.301  1.00  0.00     0.037 A 
ATOM     46  C   UNL A   1      44.011  29.241  28.955  1.00  0.00     0.037 A 
ATOM     47  C   UNL A   1      38.907  33.012  30.820  1.00  0.00     0.049 A 
ATOM     48  C   UNL A   1      43.947  30.749  28.964  1.00  0.00     0.074 A 
ATOM     49  C   UNL A   1      39.573  32.611  31.967  1.00  0.00     0.029 A 
ATOM     50  N   UNL A   1      39.876  33.500  29.948  1.00  0.00    -0.354 N 
ATOM     51  N   UNL A   1      42.863  31.444  29.191  1.00  0.00    -0.248 NA
ATOM     52  C   UNL A   1      45.143  31.570  28.853  1.00  0.00     0.031 C 
ATOM     53  C   UNL A   1      40.966  32.785  31.740  1.00  0.00     0.029 A 
ATOM     54  C   UNL A   1      41.142  33.296  30.464  1.00  0.00     0.049 A 
ATOM     55  H   UNL A   1      39.685  33.932  29.084  1.00  0.00     0.167 HD
ATOM     56  C   UNL A   1      43.208  32.761  29.359  1.00  0.00     0.074 A 
ATOM     57  C   UNL A   1      44.642  32.788  29.116  1.00  0.00     0.031 C 
ATOM     58  C   UNL A   1      42.324  33.735  29.735  1.00  0.00     0.037 A 
BRANCH  45  59
ATOM     59  C   UNL A   1      36.298  33.173  30.968  1.00  0.00     0.064 A 
ATOM     60  C   UNL A   1      35.408  34.020  30.260  1.00  0.00     0.173 A 
ATOM     61  C   UNL A   1      35.899  32.904  32.292  1.00  0.00     0.173 A 
ATOM     62  F   UNL A   1      35.603  34.314  28.967  1.00  0.00    -0.203 F 
ATOM     63  C   UNL A   1      34.277  34.599  30.844  1.00  0.00     0.198 A 
ATOM     64  C   UNL A   1      34.774  33.498  32.883  1.00  0.00     0.198 A 
ATOM     65  F   UNL A   1      36.547  32.028  33.062  1.00  0.00    -0.203 F 
ATOM     66  F   UNL A   1      33.492  35.406  30.115  1.00  0.00    -0.200 F 
ATOM     67  C   UNL A   1      33.968  34.352  32.163  1.00  0.00     0.200 A 
ATOM     68  F   UNL A   1      34.477  33.227  34.163  1.00  0.00    -0.200 F 
ATOM     69  F   UNL A   1      32.891  34.914  32.728  1.00  0.00    -0.200 F 
ENDBRANCH  45  59
BRANCH  46  70
ATOM     70  C   UNL A   1      44.161  28.358  27.747  1.00  0.00     0.064 A 
ATOM     71  C   UNL A   1      44.742  27.080  27.928  1.00  0.00     0.173 A 
ATOM     72  C   UNL A   1      43.460  28.563  26.551  1.00  0.00     0.173 A 
ATOM     73  F   UNL A   1      45.431  26.813  29.051  1.00  0.00    -0.203 F 
ATOM     74  C   UNL A   1      44.524  26.032  27.032  1.00  0.00     0.198 A 
ATOM     75  C   UNL A   1      43.267  27.515  25.638  1.00  0.00     0.198 A 
ATOM     76  F   UNL A   1      42.878  29.742  26.297  1.00  0.00    -0.203 F 
ATOM     77  F   UNL A   1      44.985  24.804  27.313  1.00  0.00    -0.200 F 
ATOM     78  C   UNL A   1      43.770  26.246  25.895  1.00  0.00     0.200 A 
ATOM     79  F   UNL A   1      42.513  27.712  24.546  1.00  0.00    -0.200 F 
ATOM     80  F   UNL A   1      43.489  25.227  25.070  1.00  0.00    -0.200 F 
ENDBRANCH  46  70
BRANCH  58  81
ATOM     81  C   UNL A   1      42.539  35.222  29.558  1.00  0.00     0.064 A 
ATOM     82  C   UNL A   1      43.421  35.979  30.347  1.00  0.00     0.173 A 
ATOM     83  C   UNL A   1      41.979  35.912  28.453  1.00  0.00     0.173 A 
ATOM     84  F   UNL A   1      44.146  35.424  31.325  1.00  0.00    -0.203 F 
ATOM     85  C   UNL A   1      43.648  37.336  30.111  1.00  0.00     0.198 A 
ATOM     86  C   UNL A   1      42.277  37.241  28.169  1.00  0.00     0.198 A 
ATOM     87  F   UNL A   1      41.151  35.313  27.584  1.00  0.00    -0.203 F 
ATOM     88  F   UNL A   1      44.444  38.024  30.940  1.00  0.00    -0.200 F 
ATOM     89  C   UNL A   1      43.090  37.962  29.015  1.00  0.00     0.200 A 
ATOM     90  F   UNL A   1      41.791  37.808  27.055  1.00  0.00    -0.200 F 
ATOM     91  F   UNL A   1      43.357  39.250  28.760  1.00  0.00    -0.200 F 
ENDBRANCH  58  81
ENDBRANCH  32  33
ENDBRANCH  25  27
ENDBRANCH  24  25
ENDBRANCH  23  24
ENDBRANCH   1  23
TORSDOF 14
ENDMDL
MODEL 2
REMARK VINA RESULT:     -13.3      3.931      9.884
REMARK SMILES Cc1ccccc1CNc1ccc(C(=O)OCCOC(=O)c2ccc(-c3c4nc(c(-c5c(F)c(F)c(F)c(F)c5F)c5ccc([nH]5)c(-c5c(F)c(F)c(F)c(F)c5F)c5nc(c(-c6c(F)c(F)c(F)c(F)c6F)c6ccc3[nH]6)C=C5)C=C4)cc2)c(F)c1F
REMARK SMILES IDX 17 1 16 2 14 3 15 4 13 5 10 6 11 7 87 8 12 9 85 10 88 11
REMARK SMILES IDX 86 12 9 13 8 15 7 16 1 17 2 18 3 19 4 20 6 21 5 22 18 23
REMARK SMILES IDX 19 24 20 25 21 26 22 27 23 28 84 29 24 30 83 31 25 32 26 33
REMARK SMILES IDX 27 34 77 35 28 36 82 37 76 38 78 39 29 40 81 41 75 42 74 43
REMARK SMILES IDX 30 45 62 46 42 47 61 48 43 49 46 50 60 51 79 52 44 53 45 54
REMARK SMILES IDX 59 56 80 57 47 58 31 59 32 60 40 61 33 62 34 63 38 64 41 65
REMARK SMILES IDX 35 66 36 67 39 68 37 69 63 70 64 71 72 72 65 73 66 74 70 75
REMARK SMILES IDX 73 76 67 77 68 78 71 79 69 80 48 81 49 82 57 83 50 84 51 85
REMARK SMILES IDX 55 86 58 87 52 88 53 89 56 90 54 91
REMARK H PARENT 9 14 78 44 46 55
REMARK Flexibility Score: inf
ROOT
ATOM      1  C   UNL A   1      32.673  30.202  25.881  1.00  0.00     0.275 C 
ENDROOT
BRANCH   1   2
ATOM      2  O   UNL A   1      32.063  28.916  25.693  1.00  0.00    -0.458 OA
BRANCH   2   3
ATOM      3  C   UNL A   1      31.316  28.879  24.560  1.00  0.00     0.341 C 
ATOM      4  O   UNL A   1      30.472  29.707  24.241  1.00  0.00    -0.246 OA
BRANCH   3   5
ATOM      5  C   UNL A   1      31.500  27.675  23.737  1.00  0.00     0.099 A 
ATOM      6  C   UNL A   1      32.274  25.245  22.538  1.00  0.00     0.074 A 
ATOM      7  C   UNL A   1      33.113  26.363  22.492  1.00  0.00     0.030 A 
ATOM      8  C   UNL A   1      31.000  25.406  23.109  1.00  0.00     0.182 A 
ATOM      9  C   UNL A   1      32.742  27.557  23.103  1.00  0.00     0.021 A 
ATOM     10  C   UNL A   1      30.608  26.613  23.691  1.00  0.00     0.175 A 
ATOM     11  F   UNL A   1      30.173  24.348  23.170  1.00  0.00    -0.201 F 
ATOM     12  F   UNL A   1      29.398  26.697  24.255  1.00  0.00    -0.203 F 
BRANCH   6  13
ATOM     13  N   UNL A   1      32.720  23.994  22.127  1.00  0.00    -0.379 N 
ATOM     14  H   UNL A   1      32.832  23.795  21.169  1.00  0.00     0.161 HD
BRANCH  13  15
ATOM     15  C   UNL A   1      33.020  22.981  23.127  1.00  0.00     0.149 C 
BRANCH  15  16
ATOM     16  C   UNL A   1      34.349  23.265  23.784  1.00  0.00    -0.026 A 
ATOM     17  C   UNL A   1      33.316  24.320  25.886  1.00  0.00     0.044 C 
ATOM     18  C   UNL A   1      34.481  23.866  25.050  1.00  0.00    -0.046 A 
ATOM     19  C   UNL A   1      35.770  24.026  25.594  1.00  0.00     0.004 A 
ATOM     20  C   UNL A   1      36.907  23.636  24.887  1.00  0.00     0.000 A 
ATOM     21  C   UNL A   1      35.512  22.898  23.074  1.00  0.00     0.006 A 
ATOM     22  C   UNL A   1      36.780  23.082  23.620  1.00  0.00     0.000 A 
ENDBRANCH  15  16
ENDBRANCH  13  15
ENDBRANCH   6  13
ENDBRANCH   3   5
ENDBRANCH   2   3
ENDBRANCH   1   2
BRANCH   1  23
ATOM     23  C   UNL A   1      33.523  30.325  27.152  1.00  0.00     0.275 C 
BRANCH  23  24
ATOM     24  O   UNL A   1      34.978  30.297  27.123  1.00  0.00    -0.458 OA
BRANCH  24  25
ATOM     25  C   UNL A   1      35.795  30.835  28.055  1.00  0.00     0.338 C 
ATOM     26  O   UNL A   1      35.655  31.969  28.493  1.00  0.00    -0.246 OA
BRANCH  25  27
ATOM     27  C   UNL A   1      36.961  30.008  28.397  1.00  0.00     0.060 A 
ATOM     28  C   UNL A   1      36.939  29.214  29.557  1.00  0.00     0.016 A 
ATOM     29  C   UNL A   1      38.028  29.956  27.505  1.00  0.00     0.016 A 
ATOM     30  C   UNL A   1      37.947  28.288  29.783  1.00  0.00     0.010 A 
ATOM     31  C   UNL A   1      38.942  28.951  27.644  1.00  0.00     0.010 A 
ATOM     32  C   UNL A   1      38.937  28.177  28.816  1.00  0.00    -0.014 A 
BRANCH  32  33
ATOM     33  C   UNL A   1      40.228  27.572  29.055  1.00  0.00     0.031 A 
ATOM     34  C   UNL A   1      40.537  26.217  28.598  1.00  0.00     0.074 A 
ATOM     35  C   UNL A   1      41.119  28.529  29.400  1.00  0.00     0.049 A 
ATOM     36  N   UNL A   1      41.610  25.586  28.913  1.00  0.00    -0.248 NA
ATOM     37  C   UNL A   1      39.644  25.423  27.763  1.00  0.00     0.031 C 
ATOM     38  C   UNL A   1      42.559  28.603  29.263  1.00  0.00     0.029 A 
ATOM     39  N   UNL A   1      40.782  29.732  30.050  1.00  0.00    -0.354 N 
ATOM     40  C   UNL A   1      41.725  24.512  28.052  1.00  0.00     0.074 A 
ATOM     41  C   UNL A   1      40.412  24.363  27.480  1.00  0.00     0.031 C 
ATOM     42  C   UNL A   1      43.010  29.586  30.070  1.00  0.00     0.029 A 
ATOM     43  C   UNL A   1      41.875  30.052  30.859  1.00  0.00     0.049 A 
ATOM     44  H   UNL A   1      39.946  30.244  29.954  1.00  0.00     0.167 HD
ATOM     45  C   UNL A   1      42.981  24.030  27.810  1.00  0.00     0.037 A 
ATOM     46  C   UNL A   1      41.717  29.877  32.206  1.00  0.00     0.037 A 
ATOM     47  C   UNL A   1      43.939  24.763  28.647  1.00  0.00     0.049 A 
ATOM     48  C   UNL A   1      42.597  28.748  32.682  1.00  0.00     0.074 A 
ATOM     49  C   UNL A   1      44.755  25.849  28.376  1.00  0.00     0.029 A 
ATOM     50  N   UNL A   1      43.836  24.679  30.032  1.00  0.00    -0.354 N 
ATOM     51  N   UNL A   1      42.878  27.679  31.983  1.00  0.00    -0.248 NA
ATOM     52  C   UNL A   1      43.330  28.823  33.937  1.00  0.00     0.031 C 
ATOM     53  C   UNL A   1      45.074  26.469  29.614  1.00  0.00     0.029 A 
ATOM     54  C   UNL A   1      44.458  25.759  30.633  1.00  0.00     0.049 A 
ATOM     55  H   UNL A   1      43.384  23.952  30.518  1.00  0.00     0.167 HD
ATOM     56  C   UNL A   1      43.880  26.987  32.615  1.00  0.00     0.074 A 
ATOM     57  C   UNL A   1      44.110  27.733  33.842  1.00  0.00     0.031 C 
ATOM     58  C   UNL A   1      44.494  25.886  32.083  1.00  0.00     0.037 A 
BRANCH  45  59
ATOM     59  C   UNL A   1      43.421  23.150  26.651  1.00  0.00     0.064 A 
ATOM     60  C   UNL A   1      43.159  21.757  26.679  1.00  0.00     0.173 A 
ATOM     61  C   UNL A   1      44.133  23.575  25.512  1.00  0.00     0.173 A 
ATOM     62  F   UNL A   1      42.430  21.202  27.656  1.00  0.00    -0.203 F 
ATOM     63  C   UNL A   1      43.633  20.870  25.706  1.00  0.00     0.198 A 
ATOM     64  C   UNL A   1      44.621  22.684  24.544  1.00  0.00     0.198 A 
ATOM     65  F   UNL A   1      44.354  24.866  25.257  1.00  0.00    -0.203 F 
ATOM     66  F   UNL A   1      43.362  19.561  25.811  1.00  0.00    -0.200 F 
ATOM     67  C   UNL A   1      44.379  21.332  24.645  1.00  0.00     0.200 A 
ATOM     68  F   UNL A   1      45.327  23.156  23.506  1.00  0.00    -0.200 F 
ATOM     69  F   UNL A   1      44.842  20.484  23.716  1.00  0.00    -0.200 F 
ENDBRANCH  45  59
BRANCH  46  70
ATOM     70  C   UNL A   1      40.321  30.185  32.675  1.00  0.00     0.064 A 
ATOM     71  C   UNL A   1      39.862  31.520  32.558  1.00  0.00     0.173 A 
ATOM     72  C   UNL A   1      39.343  29.203  32.883  1.00  0.00     0.173 A 
ATOM     73  F   UNL A   1      40.745  32.514  32.359  1.00  0.00    -0.203 F 
ATOM     74  C   UNL A   1      38.504  31.836  32.519  1.00  0.00     0.198 A 
ATOM     75  C   UNL A   1      37.979  29.529  32.872  1.00  0.00     0.198 A 
ATOM     76  F   UNL A   1      39.689  27.915  33.005  1.00  0.00    -0.203 F 
ATOM     77  F   UNL A   1      38.117  33.097  32.274  1.00  0.00    -0.200 F 
ATOM     78  C   UNL A   1      37.561  30.836  32.658  1.00  0.00     0.200 A 
ATOM     79  F   UNL A   1      37.060  28.557  32.980  1.00  0.00    -0.200 F 
ATOM     80  F   UNL A   1      36.255  31.119  32.542  1.00  0.00    -0.200 F 
ENDBRANCH  46  70
BRANCH  58  81
ATOM     81  C   UNL A   1      45.299  24.873  32.867  1.00  0.00     0.064 A 
ATOM     82  C   UNL A   1      46.596  25.115  33.347  1.00  0.00     0.173 A 
ATOM     83  C   UNL A   1      44.708  23.664  33.314  1.00  0.00     0.173 A 
ATOM     84  F   UNL A   1      47.219  26.282  33.141  1.00  0.00    -0.203 F 
ATOM     85  C   UNL A   1      47.283  24.184  34.128  1.00  0.00     0.198 A 
ATOM     86  C   UNL A   1      45.364  22.780  34.165  1.00  0.00     0.198 A 
ATOM     87  F   UNL A   1      43.459  23.313  32.976  1.00  0.00    -0.203 F 
ATOM     88  F   UNL A   1      48.546  24.438  34.497  1.00  0.00    -0.200 F 
ATOM     89  C   UNL A   1      46.663  23.025  34.549  1.00  0.00     0.200 A 
ATOM     90  F   UNL A   1      44.716  21.701  34.630  1.00  0.00    -0.200 F 
ATOM     91  F   UNL A   1      47.306  22.162  35.345  1.00  0.00    -0.200 F 
ENDBRANCH  58  81
ENDBRANCH  32  33
ENDBRANCH  25  27
ENDBRANCH  24  25
ENDBRANCH  23  24
ENDBRANCH   1  23
TORSDOF 14
ENDMDL
MODEL 3
REMARK VINA RESULT:     -13.1      4.687     10.246
REMARK SMILES Cc1ccccc1CNc1ccc(C(=O)OCCOC(=O)c2ccc(-c3c4nc(c(-c5c(F)c(F)c(F)c(F)c5F)c5ccc([nH]5)c(-c5c(F)c(F)c(F)c(F)c5F)c5nc(c(-c6c(F)c(F)c(F)c(F)c6F)c6ccc3[nH]6)C=C5)C=C4)cc2)c(F)c1F
REMARK SMILES IDX 17 1 16 2 14 3 15 4 13 5 10 6 11 7 87 8 12 9 85 10 88 11
REMARK SMILES IDX 86 12 9 13 8 15 7 16 1 17 2 18 3 19 4 20 6 21 5 22 18 23
REMARK SMILES IDX 19 24 20 25 21 26 22 27 23 28 84 29 24 30 83 31 25 32 26 33
REMARK SMILES IDX 27 34 77 35 28 36 82 37 76 38 78 39 29 40 81 41 75 42 74 43
REMARK SMILES IDX 30 45 62 46 42 47 61 48 43 49 46 50 60 51 79 52 44 53 45 54
REMARK SMILES IDX 59 56 80 57 47 58 31 59 32 60 40 61 33 62 34 63 38 64 41 65
REMARK SMILES IDX 35 66 36 67 39 68 37 69 63 70 64 71 72 72 65 73 66 74 70 75
REMARK SMILES IDX 73 76 67 77 68 78 71 79 69 80 48 81 49 82 57 83 50 84 51 85
REMARK SMILES IDX 55 86 58 87 52 88 53 89 56 90 54 91
REMARK H PARENT 9 14 78 44 46 55
REMARK Flexibility Score: inf
ROOT
ATOM      1  C   UNL A   1      33.347  35.350  29.755  1.00  0.00     0.275 C 
ENDROOT
BRANCH   1   2
ATOM      2  O   UNL A   1      33.763  33.980  29.661  1.00  0.00    -0.458 OA
BRANCH   2   3
ATOM      3  C   UNL A   1      34.300  33.704  28.445  1.00  0.00     0.341 C 
ATOM      4  O   UNL A   1      34.540  34.531  27.573  1.00  0.00    -0.246 OA
BRANCH   3   5
ATOM      5  C   UNL A   1      34.493  32.274  28.163  1.00  0.00     0.099 A 
ATOM      6  C   UNL A   1      34.701  29.678  27.088  1.00  0.00     0.074 A 
ATOM      7  C   UNL A   1      33.451  30.284  27.254  1.00  0.00     0.030 A 
ATOM      8  C   UNL A   1      35.830  30.364  27.566  1.00  0.00     0.182 A 
ATOM      9  C   UNL A   1      33.348  31.574  27.765  1.00  0.00     0.021 A 
ATOM     10  C   UNL A   1      35.729  31.645  28.113  1.00  0.00     0.175 A 
ATOM     11  F   UNL A   1      37.045  29.807  27.416  1.00  0.00    -0.201 F 
ATOM     12  F   UNL A   1      36.842  32.266  28.517  1.00  0.00    -0.203 F 
BRANCH   6  13
ATOM     13  N   UNL A   1      34.834  28.488  26.382  1.00  0.00    -0.379 N 
ATOM     14  H   UNL A   1      35.633  27.925  26.501  1.00  0.00     0.161 HD
BRANCH  13  15
ATOM     15  C   UNL A   1      33.780  28.081  25.465  1.00  0.00     0.149 C 
BRANCH  15  16
ATOM     16  C   UNL A   1      33.348  26.664  25.754  1.00  0.00    -0.026 A 
ATOM     17  C   UNL A   1      31.079  27.342  26.750  1.00  0.00     0.044 C 
ATOM     18  C   UNL A   1      32.107  26.328  26.330  1.00  0.00    -0.046 A 
ATOM     19  C   UNL A   1      31.783  24.969  26.496  1.00  0.00     0.004 A 
ATOM     20  C   UNL A   1      32.679  23.962  26.137  1.00  0.00     0.000 A 
ATOM     21  C   UNL A   1      34.250  25.632  25.417  1.00  0.00     0.006 A 
ATOM     22  C   UNL A   1      33.919  24.293  25.608  1.00  0.00     0.000 A 
ENDBRANCH  15  16
ENDBRANCH  13  15
ENDBRANCH   6  13
ENDBRANCH   3   5
ENDBRANCH   2   3
ENDBRANCH   1   2
BRANCH   1  23
ATOM     23  C   UNL A   1      32.950  35.800  31.167  1.00  0.00     0.275 C 
BRANCH  23  24
ATOM     24  O   UNL A   1      33.377  35.087  32.362  1.00  0.00    -0.458 OA
BRANCH  24  25
ATOM     25  C   UNL A   1      34.469  35.375  33.103  1.00  0.00     0.338 C 
ATOM     26  O   UNL A   1      34.622  36.442  33.683  1.00  0.00    -0.246 OA
BRANCH  25  27
ATOM     27  C   UNL A   1      35.536  34.367  33.038  1.00  0.00     0.060 A 
ATOM     28  C   UNL A   1      35.667  33.420  34.070  1.00  0.00     0.016 A 
ATOM     29  C   UNL A   1      36.337  34.312  31.900  1.00  0.00     0.016 A 
ATOM     30  C   UNL A   1      36.539  32.350  33.924  1.00  0.00     0.010 A 
ATOM     31  C   UNL A   1      37.085  33.190  31.686  1.00  0.00     0.010 A 
ATOM     32  C   UNL A   1      37.237  32.259  32.727  1.00  0.00    -0.014 A 
BRANCH  32  33
ATOM     33  C   UNL A   1      38.435  31.466  32.556  1.00  0.00     0.031 A 
ATOM     34  C   UNL A   1      38.438  30.246  31.750  1.00  0.00     0.074 A 
ATOM     35  C   UNL A   1      39.514  32.194  32.921  1.00  0.00     0.049 A 
ATOM     36  N   UNL A   1      39.432  29.435  31.689  1.00  0.00    -0.248 NA
ATOM     37  C   UNL A   1      37.301  29.799  30.955  1.00  0.00     0.031 C 
ATOM     38  C   UNL A   1      40.903  32.133  32.516  1.00  0.00     0.029 A 
ATOM     39  N   UNL A   1      39.492  33.224  33.882  1.00  0.00    -0.354 N 
ATOM     40  C   UNL A   1      39.225  28.609  30.601  1.00  0.00     0.074 A 
ATOM     41  C   UNL A   1      37.828  28.764  30.288  1.00  0.00     0.031 C 
ATOM     42  C   UNL A   1      41.637  32.819  33.417  1.00  0.00     0.029 A 
ATOM     43  C   UNL A   1      40.741  33.198  34.504  1.00  0.00     0.049 A 
ATOM     44  H   UNL A   1      38.746  33.837  34.076  1.00  0.00     0.167 HD
ATOM     45  C   UNL A   1      40.327  28.061  30.007  1.00  0.00     0.037 A 
ATOM     46  C   UNL A   1      40.786  32.707  35.779  1.00  0.00     0.037 A 
ATOM     47  C   UNL A   1      41.518  28.441  30.777  1.00  0.00     0.049 A 
ATOM     48  C   UNL A   1      41.538  31.399  35.798  1.00  0.00     0.074 A 
ATOM     49  C   UNL A   1      42.442  29.457  30.600  1.00  0.00     0.029 A 
ATOM     50  N   UNL A   1      41.638  28.021  32.098  1.00  0.00    -0.354 N 
ATOM     51  N   UNL A   1      41.521  30.517  34.832  1.00  0.00    -0.248 NA
ATOM     52  C   UNL A   1      42.474  31.067  36.862  1.00  0.00     0.031 C 
ATOM     53  C   UNL A   1      43.061  29.701  31.856  1.00  0.00     0.029 A 
ATOM     54  C   UNL A   1      42.518  28.832  32.789  1.00  0.00     0.049 A 
ATOM     55  H   UNL A   1      41.161  27.252  32.487  1.00  0.00     0.167 HD
ATOM     56  C   UNL A   1      42.488  29.575  35.074  1.00  0.00     0.074 A 
ATOM     57  C   UNL A   1      43.039  29.954  36.366  1.00  0.00     0.031 C 
ATOM     58  C   UNL A   1      42.818  28.583  34.192  1.00  0.00     0.037 A 
BRANCH  45  59
ATOM     59  C   UNL A   1      40.417  27.459  28.614  1.00  0.00     0.064 A 
ATOM     60  C   UNL A   1      39.876  26.173  28.360  1.00  0.00     0.173 A 
ATOM     61  C   UNL A   1      41.047  28.045  27.498  1.00  0.00     0.173 A 
ATOM     62  F   UNL A   1      39.181  25.511  29.295  1.00  0.00    -0.203 F 
ATOM     63  C   UNL A   1      40.022  25.510  27.137  1.00  0.00     0.198 A 
ATOM     64  C   UNL A   1      41.206  27.373  26.276  1.00  0.00     0.198 A 
ATOM     65  F   UNL A   1      41.498  29.300  27.518  1.00  0.00    -0.203 F 
ATOM     66  F   UNL A   1      39.499  24.286  26.979  1.00  0.00    -0.200 F 
ATOM     67  C   UNL A   1      40.702  26.104  26.098  1.00  0.00     0.200 A 
ATOM     68  F   UNL A   1      41.853  27.978  25.268  1.00  0.00    -0.200 F 
ATOM     69  F   UNL A   1      40.851  25.468  24.928  1.00  0.00    -0.200 F 
ENDBRANCH  45  59
BRANCH  46  70
ATOM     70  C   UNL A   1      39.558  33.046  36.578  1.00  0.00     0.064 A 
ATOM     71  C   UNL A   1      38.627  32.010  36.835  1.00  0.00     0.173 A 
ATOM     72  C   UNL A   1      39.446  34.197  37.370  1.00  0.00     0.173 A 
ATOM     73  F   UNL A   1      38.673  30.877  36.112  1.00  0.00    -0.203 F 
ATOM     74  C   UNL A   1      37.728  32.067  37.901  1.00  0.00     0.198 A 
ATOM     75  C   UNL A   1      38.522  34.263  38.423  1.00  0.00     0.198 A 
ATOM     76  F   UNL A   1      40.286  35.226  37.195  1.00  0.00    -0.203 F 
ATOM     77  F   UNL A   1      36.958  31.007  38.185  1.00  0.00    -0.200 F 
ATOM     78  C   UNL A   1      37.690  33.188  38.707  1.00  0.00     0.200 A 
ATOM     79  F   UNL A   1      38.499  35.339  39.224  1.00  0.00    -0.200 F 
ATOM     80  F   UNL A   1      36.887  33.220  39.781  1.00  0.00    -0.200 F 
ENDBRANCH  46  70
BRANCH  58  81
ATOM     81  C   UNL A   1      43.568  27.317  34.546  1.00  0.00     0.064 A 
ATOM     82  C   UNL A   1      42.937  26.117  34.914  1.00  0.00     0.173 A 
ATOM     83  C   UNL A   1      44.970  27.225  34.356  1.00  0.00     0.173 A 
ATOM     84  F   UNL A   1      41.604  26.011  34.975  1.00  0.00    -0.203 F 
ATOM     85  C   UNL A   1      43.657  24.949  35.166  1.00  0.00     0.198 A 
ATOM     86  C   UNL A   1      45.673  26.036  34.522  1.00  0.00     0.198 A 
ATOM     87  F   UNL A   1      45.706  28.275  33.963  1.00  0.00    -0.203 F 
ATOM     88  F   UNL A   1      43.009  23.853  35.585  1.00  0.00    -0.200 F 
ATOM     89  C   UNL A   1      45.021  24.903  34.956  1.00  0.00     0.200 A 
ATOM     90  F   UNL A   1      46.982  25.991  34.233  1.00  0.00    -0.200 F 
ATOM     91  F   UNL A   1      45.699  23.764  35.144  1.00  0.00    -0.200 F 
ENDBRANCH  58  81
ENDBRANCH  32  33
ENDBRANCH  25  27
ENDBRANCH  24  25
ENDBRANCH  23  24
ENDBRANCH   1  23
TORSDOF 14
ENDMDL
