MODEL 1
REMARK VINA RESULT:     -11.4      0.000      0.000
REMARK SMILES Cc1cc(C)c(S(=O)(=O)Nc2ccc(N3CCN(c4ccccn4)CC3)c(C(=O)OCCOC(=O)c3ccc(-c4c5nc(c(-c6c(F)c(F)c(F)c(F)c6F)c6ccc([nH]6)c(-c6c(F)c(F)c(F)c(F)c6F)c6nc(c(-c7c(F)c(F)c(F)c(F)c7F)c7ccc4[nH]7)C=C6)C=C5)cc3)c2)c(C)c1
REMARK SMILES IDX 31 1 30 2 28 3 29 4 27 5 11 6 12 7 99 8 13 9 14 10 10 11
REMARK SMILES IDX 7 13 8 14 9 15 6 16 1 17 2 18 3 19 102 20 4 21 100 22 5 23
REMARK SMILES IDX 101 24 15 25 16 26 26 27 17 28 25 29 18 30 19 31 20 32 24 33
REMARK SMILES IDX 21 34 23 35 22 36 32 37 33 38 34 39 35 40 36 41 37 42 98 43
REMARK SMILES IDX 38 44 97 45 39 46 40 47 41 48 91 49 42 50 96 51 90 52 92 53
REMARK SMILES IDX 43 54 95 55 89 56 88 57 44 59 76 60 56 61 75 62 57 63 60 64
REMARK SMILES IDX 74 65 93 66 58 67 59 68 73 70 94 71 61 72 45 73 46 74 54 75
REMARK SMILES IDX 47 76 48 77 52 78 55 79 49 80 50 81 53 82 51 83 77 84 78 85
REMARK SMILES IDX 86 86 79 87 80 88 84 89 87 90 81 91 82 92 85 93 83 94 62 95
REMARK SMILES IDX 63 96 71 97 64 98 65 99 69 100 72 101 66 102 67 103 70 104
REMARK SMILES IDX 68 105
REMARK H PARENT 10 12 92 58 60 69
REMARK Flexibility Score: inf
ROOT
ATOM      1  C   UNL A   1      38.061  30.538  34.350  1.00  0.00     0.275 C 
ENDROOT
BRANCH   1   2
ATOM      2  O   UNL A   1      38.411  30.313  32.970  1.00  0.00    -0.458 OA
BRANCH   2   3
ATOM      3  C   UNL A   1      37.793  29.254  32.393  1.00  0.00     0.340 C 
ATOM      4  O   UNL A   1      37.605  28.170  32.919  1.00  0.00    -0.246 OA
BRANCH   3   5
ATOM      5  C   UNL A   1      37.489  29.553  30.978  1.00  0.00     0.085 A 
ATOM      6  C   UNL A   1      36.424  31.284  29.706  1.00  0.00     0.050 A 
ATOM      7  C   UNL A   1      37.083  30.838  28.555  1.00  0.00     0.029 A 
ATOM      8  C   UNL A   1      36.480  30.520  30.855  1.00  0.00     0.044 A 
ATOM      9  C   UNL A   1      38.001  29.782  28.641  1.00  0.00     0.029 A 
ATOM     10  C   UNL A   1      38.304  29.193  29.878  1.00  0.00     0.052 A 
BRANCH   6  11
ATOM     11  N   UNL A   1      36.108  32.671  29.760  1.00  0.00    -0.280 N 
ATOM     12  H   UNL A   1      36.795  33.266  30.136  1.00  0.00     0.180 HD
BRANCH  11  13
ATOM     13  S   UNL A   1      34.686  33.392  29.248  1.00  0.00     0.262 S 
ATOM     14  O   UNL A   1      33.704  32.328  29.152  1.00  0.00    -0.201 OA
ATOM     15  O   UNL A   1      35.062  34.162  28.079  1.00  0.00    -0.201 OA
BRANCH  13  16
ATOM     16  C   UNL A   1      34.036  34.586  30.449  1.00  0.00     0.093 A 
ATOM     17  C   UNL A   1      33.711  37.647  33.507  1.00  0.00     0.044 C 
ATOM     18  C   UNL A   1      33.787  36.575  32.461  1.00  0.00    -0.051 A 
ATOM     19  C   UNL A   1      34.119  35.270  32.802  1.00  0.00     0.008 A 
ATOM     20  C   UNL A   1      33.418  36.832  31.141  1.00  0.00     0.008 A 
ATOM     21  C   UNL A   1      34.240  34.267  31.819  1.00  0.00    -0.030 A 
ATOM     22  C   UNL A   1      33.484  35.843  30.129  1.00  0.00    -0.030 A 
ATOM     23  C   UNL A   1      34.428  32.863  32.341  1.00  0.00     0.046 C 
ATOM     24  C   UNL A   1      32.808  36.191  28.835  1.00  0.00     0.046 C 
ENDBRANCH  13  16
ENDBRANCH  11  13
ENDBRANCH   6  11
BRANCH  10  25
ATOM     25  N   UNL A   1      39.453  28.401  29.934  1.00  0.00    -0.367 N 
ATOM     26  C   UNL A   1      39.310  26.752  29.318  1.00  0.00     0.138 C 
ATOM     27  C   UNL A   1      41.115  29.265  29.991  1.00  0.00     0.138 C 
ATOM     28  C   UNL A   1      40.701  25.886  28.404  1.00  0.00     0.139 C 
ATOM     29  C   UNL A   1      42.728  28.196  28.923  1.00  0.00     0.139 C 
ATOM     30  N   UNL A   1      42.338  26.472  28.402  1.00  0.00    -0.353 N 
BRANCH  30  31
ATOM     31  C   UNL A   1      43.398  25.590  28.207  1.00  0.00     0.128 A 
ATOM     32  C   UNL A   1      44.119  25.064  29.291  1.00  0.00     0.047 A 
ATOM     33  N   UNL A   1      43.698  25.178  26.959  1.00  0.00    -0.239 NA
ATOM     34  C   UNL A   1      45.181  24.183  29.116  1.00  0.00     0.005 A 
ATOM     35  C   UNL A   1      44.754  24.331  26.803  1.00  0.00     0.113 A 
ATOM     36  C   UNL A   1      45.527  23.826  27.834  1.00  0.00     0.020 A 
ENDBRANCH  30  31
ENDBRANCH  10  25
ENDBRANCH   3   5
ENDBRANCH   2   3
ENDBRANCH   1   2
BRANCH   1  37
ATOM     37  C   UNL A   1      38.126  32.034  34.627  1.00  0.00     0.275 C 
BRANCH  37  38
ATOM     38  O   UNL A   1      37.520  32.722  33.516  1.00  0.00    -0.458 OA
BRANCH  38  39
ATOM     39  C   UNL A   1      37.766  34.045  33.470  1.00  0.00     0.338 C 
ATOM     40  O   UNL A   1      37.231  34.942  34.097  1.00  0.00    -0.246 OA
BRANCH  39  41
ATOM     41  C   UNL A   1      38.893  34.314  32.578  1.00  0.00     0.060 A 
ATOM     42  C   UNL A   1      38.696  34.508  30.846  1.00  0.00     0.016 A 
ATOM     43  C   UNL A   1      40.509  34.118  33.151  1.00  0.00     0.016 A 
ATOM     44  C   UNL A   1      40.278  34.392  29.696  1.00  0.00     0.010 A 
ATOM     45  C   UNL A   1      41.913  34.097  32.114  1.00  0.00     0.010 A 
ATOM     46  C   UNL A   1      41.875  34.266  30.369  1.00  0.00    -0.014 A 
BRANCH  46  47
ATOM     47  C   UNL A   1      43.109  34.557  29.515  1.00  0.00     0.031 A 
ATOM     48  C   UNL A   1      44.111  33.456  29.270  1.00  0.00     0.074 A 
ATOM     49  C   UNL A   1      43.438  35.791  29.035  1.00  0.00     0.049 A 
ATOM     50  N   UNL A   1      45.359  33.530  28.874  1.00  0.00    -0.248 NA
ATOM     51  C   UNL A   1      43.651  32.083  29.510  1.00  0.00     0.031 C 
ATOM     52  C   UNL A   1      42.617  36.992  29.035  1.00  0.00     0.029 A 
ATOM     53  N   UNL A   1      44.623  36.279  28.492  1.00  0.00    -0.354 N 
ATOM     54  C   UNL A   1      45.830  32.224  28.854  1.00  0.00     0.074 A 
ATOM     55  C   UNL A   1      44.771  31.390  29.378  1.00  0.00     0.031 C 
ATOM     56  C   UNL A   1      43.298  38.068  28.650  1.00  0.00     0.029 A 
ATOM     57  C   UNL A   1      44.644  37.659  28.357  1.00  0.00     0.049 A 
ATOM     58  H   UNL A   1      45.373  35.699  28.228  1.00  0.00     0.167 HD
ATOM     59  C   UNL A   1      47.009  31.750  28.381  1.00  0.00     0.037 A 
ATOM     60  C   UNL A   1      45.606  38.555  28.069  1.00  0.00     0.037 A 
ATOM     61  C   UNL A   1      48.026  32.571  27.771  1.00  0.00     0.049 A 
ATOM     62  C   UNL A   1      46.935  38.046  27.663  1.00  0.00     0.074 A 
ATOM     63  C   UNL A   1      49.203  32.172  27.164  1.00  0.00     0.029 A 
ATOM     64  N   UNL A   1      47.987  33.956  27.688  1.00  0.00    -0.354 N 
ATOM     65  N   UNL A   1      47.349  36.807  27.641  1.00  0.00    -0.248 NA
ATOM     66  C   UNL A   1      47.903  39.034  27.186  1.00  0.00     0.031 C 
ATOM     67  C   UNL A   1      49.909  33.316  26.776  1.00  0.00     0.029 A 
ATOM     68  C   UNL A   1      49.145  34.429  27.088  1.00  0.00     0.049 A 
ATOM     69  H   UNL A   1      47.246  34.521  28.008  1.00  0.00     0.167 HD
ATOM     70  C   UNL A   1      48.619  36.853  27.107  1.00  0.00     0.074 A 
ATOM     71  C   UNL A   1      48.907  38.248  26.824  1.00  0.00     0.031 C 
ATOM     72  C   UNL A   1      49.452  35.818  26.852  1.00  0.00     0.037 A 
BRANCH  59  73
ATOM     73  C   UNL A   1      47.258  30.270  28.503  1.00  0.00     0.064 A 
ATOM     74  C   UNL A   1      46.764  29.345  27.568  1.00  0.00     0.173 A 
ATOM     75  C   UNL A   1      48.003  29.768  29.581  1.00  0.00     0.173 A 
ATOM     76  F   UNL A   1      46.035  29.765  26.523  1.00  0.00    -0.203 F 
ATOM     77  C   UNL A   1      46.954  27.976  27.740  1.00  0.00     0.198 A 
ATOM     78  C   UNL A   1      48.227  28.401  29.728  1.00  0.00     0.198 A 
ATOM     79  F   UNL A   1      48.509  30.603  30.500  1.00  0.00    -0.203 F 
ATOM     80  F   UNL A   1      46.400  27.110  26.879  1.00  0.00    -0.200 F 
ATOM     81  C   UNL A   1      47.690  27.506  28.817  1.00  0.00     0.200 A 
ATOM     82  F   UNL A   1      48.953  27.950  30.761  1.00  0.00    -0.200 F 
ATOM     83  F   UNL A   1      47.869  26.188  28.983  1.00  0.00    -0.200 F 
ENDBRANCH  59  73
BRANCH  60  84
ATOM     84  C   UNL A   1      45.307  40.013  28.151  1.00  0.00     0.064 A 
ATOM     85  C   UNL A   1      45.621  40.770  29.286  1.00  0.00     0.173 A 
ATOM     86  C   UNL A   1      44.791  40.693  27.038  1.00  0.00     0.173 A 
ATOM     87  F   UNL A   1      46.089  40.163  30.386  1.00  0.00    -0.203 F 
ATOM     88  C   UNL A   1      45.452  42.155  29.296  1.00  0.00     0.198 A 
ATOM     89  C   UNL A   1      44.652  42.080  27.036  1.00  0.00     0.198 A 
ATOM     90  F   UNL A   1      44.425  40.005  25.948  1.00  0.00    -0.203 F 
ATOM     91  F   UNL A   1      45.746  42.857  30.399  1.00  0.00    -0.200 F 
ATOM     92  C   UNL A   1      44.985  42.812  28.165  1.00  0.00     0.200 A 
ATOM     93  F   UNL A   1      44.207  42.708  25.937  1.00  0.00    -0.200 F 
ATOM     94  F   UNL A   1      44.850  44.145  28.167  1.00  0.00    -0.200 F 
ENDBRANCH  60  84
BRANCH  72  95
ATOM     95  C   UNL A   1      50.764  36.169  26.232  1.00  0.00     0.064 A 
ATOM     96  C   UNL A   1      50.923  36.220  24.841  1.00  0.00     0.173 A 
ATOM     97  C   UNL A   1      51.879  36.443  27.038  1.00  0.00     0.173 A 
ATOM     98  F   UNL A   1      49.891  35.931  24.032  1.00  0.00    -0.203 F 
ATOM     99  C   UNL A   1      52.160  36.506  24.275  1.00  0.00     0.198 A 
ATOM    100  C   UNL A   1      53.106  36.763  26.470  1.00  0.00     0.198 A 
ATOM    101  F   UNL A   1      51.776  36.395  28.375  1.00  0.00    -0.203 F 
ATOM    102  F   UNL A   1      52.306  36.486  22.944  1.00  0.00    -0.200 F 
ATOM    103  C   UNL A   1      53.248  36.786  25.090  1.00  0.00     0.200 A 
ATOM    104  F   UNL A   1      54.154  37.039  27.257  1.00  0.00    -0.200 F 
ATOM    105  F   UNL A   1      54.439  37.064  24.544  1.00  0.00    -0.200 F 
ENDBRANCH  72  95
ENDBRANCH  46  47
ENDBRANCH  39  41
ENDBRANCH  38  39
ENDBRANCH  37  38
ENDBRANCH   1  37
TORSDOF 16
ENDMDL
MODEL 2
REMARK VINA RESULT:     -11.2      7.448     12.529
REMARK SMILES Cc1cc(C)c(S(=O)(=O)Nc2ccc(N3CCN(c4ccccn4)CC3)c(C(=O)OCCOC(=O)c3ccc(-c4c5nc(c(-c6c(F)c(F)c(F)c(F)c6F)c6ccc([nH]6)c(-c6c(F)c(F)c(F)c(F)c6F)c6nc(c(-c7c(F)c(F)c(F)c(F)c7F)c7ccc4[nH]7)C=C6)C=C5)cc3)c2)c(C)c1
REMARK SMILES IDX 31 1 30 2 28 3 29 4 27 5 11 6 12 7 99 8 13 9 14 10 10 11
REMARK SMILES IDX 7 13 8 14 9 15 6 16 1 17 2 18 3 19 102 20 4 21 100 22 5 23
REMARK SMILES IDX 101 24 15 25 16 26 26 27 17 28 25 29 18 30 19 31 20 32 24 33
REMARK SMILES IDX 21 34 23 35 22 36 32 37 33 38 34 39 35 40 36 41 37 42 98 43
REMARK SMILES IDX 38 44 97 45 39 46 40 47 41 48 91 49 42 50 96 51 90 52 92 53
REMARK SMILES IDX 43 54 95 55 89 56 88 57 44 59 76 60 56 61 75 62 57 63 60 64
REMARK SMILES IDX 74 65 93 66 58 67 59 68 73 70 94 71 61 72 45 73 46 74 54 75
REMARK SMILES IDX 47 76 48 77 52 78 55 79 49 80 50 81 53 82 51 83 77 84 78 85
REMARK SMILES IDX 86 86 79 87 80 88 84 89 87 90 81 91 82 92 85 93 83 94 62 95
REMARK SMILES IDX 63 96 71 97 64 98 65 99 69 100 72 101 66 102 67 103 70 104
REMARK SMILES IDX 68 105
REMARK H PARENT 10 12 92 58 60 69
REMARK Flexibility Score: inf
ROOT
ATOM      1  C   UNL A   1      49.990  24.235  35.227  1.00  0.00     0.275 C 
ENDROOT
BRANCH   1   2
ATOM      2  O   UNL A   1      48.552  24.339  35.257  1.00  0.00    -0.458 OA
BRANCH   2   3
ATOM      3  C   UNL A   1      47.902  23.463  34.454  1.00  0.00     0.340 C 
ATOM      4  O   UNL A   1      48.365  22.422  34.020  1.00  0.00    -0.246 OA
BRANCH   3   5
ATOM      5  C   UNL A   1      46.585  24.011  34.067  1.00  0.00     0.085 A 
ATOM      6  C   UNL A   1      45.548  24.978  32.134  1.00  0.00     0.050 A 
ATOM      7  C   UNL A   1      44.289  24.690  32.670  1.00  0.00     0.029 A 
ATOM      8  C   UNL A   1      46.670  24.816  32.922  1.00  0.00     0.044 A 
ATOM      9  C   UNL A   1      44.189  23.997  33.884  1.00  0.00     0.029 A 
ATOM     10  C   UNL A   1      45.338  23.546  34.551  1.00  0.00     0.052 A 
BRANCH   6  11
ATOM     11  N   UNL A   1      45.644  25.000  30.714  1.00  0.00    -0.280 N 
ATOM     12  H   UNL A   1      46.380  25.528  30.329  1.00  0.00     0.180 HD
BRANCH  11  13
ATOM     13  S   UNL A   1      44.631  24.222  29.631  1.00  0.00     0.262 S 
ATOM     14  O   UNL A   1      43.341  24.879  29.740  1.00  0.00    -0.201 OA
ATOM     15  O   UNL A   1      44.774  22.813  29.939  1.00  0.00    -0.201 OA
BRANCH  13  16
ATOM     16  C   UNL A   1      45.165  24.418  27.909  1.00  0.00     0.093 A 
ATOM     17  C   UNL A   1      47.556  24.583  24.292  1.00  0.00     0.044 C 
ATOM     18  C   UNL A   1      46.704  24.551  25.526  1.00  0.00    -0.051 A 
ATOM     19  C   UNL A   1      46.751  25.588  26.450  1.00  0.00     0.008 A 
ATOM     20  C   UNL A   1      45.761  23.542  25.722  1.00  0.00     0.008 A 
ATOM     21  C   UNL A   1      45.988  25.544  27.635  1.00  0.00    -0.030 A 
ATOM     22  C   UNL A   1      44.945  23.482  26.878  1.00  0.00    -0.030 A 
ATOM     23  C   UNL A   1      45.995  26.807  28.460  1.00  0.00     0.046 C 
ATOM     24  C   UNL A   1      43.808  22.504  26.820  1.00  0.00     0.046 C 
ENDBRANCH  13  16
ENDBRANCH  11  13
ENDBRANCH   6  11
BRANCH  10  25
ATOM     25  N   UNL A   1      45.153  22.589  35.550  1.00  0.00    -0.367 N 
ATOM     26  C   UNL A   1      45.246  20.896  35.057  1.00  0.00     0.138 C 
ATOM     27  C   UNL A   1      45.493  23.092  37.323  1.00  0.00     0.138 C 
ATOM     28  C   UNL A   1      45.984  19.559  36.146  1.00  0.00     0.139 C 
ATOM     29  C   UNL A   1      46.337  21.479  38.576  1.00  0.00     0.139 C 
ATOM     30  N   UNL A   1      46.298  19.790  37.841  1.00  0.00    -0.353 N 
BRANCH  30  31
ATOM     31  C   UNL A   1      46.317  18.698  38.705  1.00  0.00     0.128 A 
ATOM     32  C   UNL A   1      47.406  18.461  39.560  1.00  0.00     0.047 A 
ATOM     33  N   UNL A   1      45.243  17.887  38.773  1.00  0.00    -0.239 NA
ATOM     34  C   UNL A   1      47.444  17.375  40.427  1.00  0.00     0.005 A 
ATOM     35  C   UNL A   1      45.304  16.816  39.614  1.00  0.00     0.113 A 
ATOM     36  C   UNL A   1      46.374  16.511  40.437  1.00  0.00     0.020 A 
ENDBRANCH  30  31
ENDBRANCH  10  25
ENDBRANCH   3   5
ENDBRANCH   2   3
ENDBRANCH   1   2
BRANCH   1  37
ATOM     37  C   UNL A   1      50.579  25.599  35.560  1.00  0.00     0.275 C 
BRANCH  37  38
ATOM     38  O   UNL A   1      49.879  26.592  34.787  1.00  0.00    -0.458 OA
BRANCH  38  39
ATOM     39  C   UNL A   1      49.286  27.558  35.513  1.00  0.00     0.338 C 
ATOM     40  O   UNL A   1      49.713  28.149  36.490  1.00  0.00    -0.246 OA
BRANCH  39  41
ATOM     41  C   UNL A   1      48.003  27.919  34.913  1.00  0.00     0.060 A 
ATOM     42  C   UNL A   1      47.824  29.283  33.825  1.00  0.00     0.016 A 
ATOM     43  C   UNL A   1      46.544  27.217  35.513  1.00  0.00     0.016 A 
ATOM     44  C   UNL A   1      46.025  29.966  33.453  1.00  0.00     0.010 A 
ATOM     45  C   UNL A   1      44.948  27.793  35.105  1.00  0.00     0.010 A 
ATOM     46  C   UNL A   1      44.610  29.149  34.045  1.00  0.00    -0.014 A 
BRANCH  46  47
ATOM     47  C   UNL A   1      43.232  29.444  33.455  1.00  0.00     0.031 A 
ATOM     48  C   UNL A   1      42.926  29.007  32.044  1.00  0.00     0.074 A 
ATOM     49  C   UNL A   1      42.269  30.184  34.080  1.00  0.00     0.049 A 
ATOM     50  N   UNL A   1      41.986  29.413  31.224  1.00  0.00    -0.248 NA
ATOM     51  C   UNL A   1      43.802  27.978  31.470  1.00  0.00     0.031 C 
ATOM     52  C   UNL A   1      42.257  30.637  35.462  1.00  0.00     0.029 A 
ATOM     53  N   UNL A   1      41.101  30.765  33.598  1.00  0.00    -0.354 N 
ATOM     54  C   UNL A   1      42.185  28.715  30.041  1.00  0.00     0.074 A 
ATOM     55  C   UNL A   1      43.395  27.941  30.211  1.00  0.00     0.031 C 
ATOM     56  C   UNL A   1      41.257  31.482  35.706  1.00  0.00     0.029 A 
ATOM     57  C   UNL A   1      40.518  31.655  34.486  1.00  0.00     0.049 A 
ATOM     58  H   UNL A   1      40.724  30.563  32.711  1.00  0.00     0.167 HD
ATOM     59  C   UNL A   1      41.399  28.667  28.937  1.00  0.00     0.037 A 
ATOM     60  C   UNL A   1      39.525  32.558  34.388  1.00  0.00     0.037 A 
ATOM     61  C   UNL A   1      40.144  29.365  28.804  1.00  0.00     0.049 A 
ATOM     62  C   UNL A   1      38.734  32.593  33.137  1.00  0.00     0.074 A 
ATOM     63  C   UNL A   1      39.225  29.293  27.773  1.00  0.00     0.029 A 
ATOM     64  N   UNL A   1      39.629  30.260  29.733  1.00  0.00    -0.354 N 
ATOM     65  N   UNL A   1      38.936  31.914  32.040  1.00  0.00    -0.248 NA
ATOM     66  C   UNL A   1      37.554  33.458  33.125  1.00  0.00     0.031 C 
ATOM     67  C   UNL A   1      38.189  30.195  28.042  1.00  0.00     0.029 A 
ATOM     68  C   UNL A   1      38.431  30.787  29.271  1.00  0.00     0.049 A 
ATOM     69  H   UNL A   1      40.052  30.487  30.593  1.00  0.00     0.167 HD
ATOM     70  C   UNL A   1      37.882  32.234  31.210  1.00  0.00     0.074 A 
ATOM     71  C   UNL A   1      37.047  33.175  31.934  1.00  0.00     0.031 C 
ATOM     72  C   UNL A   1      37.628  31.759  29.969  1.00  0.00     0.037 A 
BRANCH  59  73
ATOM     73  C   UNL A   1      41.877  27.825  27.784  1.00  0.00     0.064 A 
ATOM     74  C   UNL A   1      41.337  26.558  27.503  1.00  0.00     0.173 A 
ATOM     75  C   UNL A   1      42.900  28.294  26.946  1.00  0.00     0.173 A 
ATOM     76  F   UNL A   1      40.365  26.052  28.277  1.00  0.00    -0.203 F 
ATOM     77  C   UNL A   1      41.843  25.773  26.469  1.00  0.00     0.198 A 
ATOM     78  C   UNL A   1      43.375  27.524  25.887  1.00  0.00     0.198 A 
ATOM     79  F   UNL A   1      43.448  29.500  27.157  1.00  0.00    -0.203 F 
ATOM     80  F   UNL A   1      41.367  24.534  26.277  1.00  0.00    -0.200 F 
ATOM     81  C   UNL A   1      42.857  26.258  25.659  1.00  0.00     0.200 A 
ATOM     82  F   UNL A   1      44.345  28.001  25.095  1.00  0.00    -0.200 F 
ATOM     83  F   UNL A   1      43.345  25.500  24.668  1.00  0.00    -0.200 F 
ENDBRANCH  59  73
BRANCH  60  84
ATOM     84  C   UNL A   1      39.243  33.476  35.528  1.00  0.00     0.064 A 
ATOM     85  C   UNL A   1      38.436  33.093  36.605  1.00  0.00     0.173 A 
ATOM     86  C   UNL A   1      39.873  34.728  35.600  1.00  0.00     0.173 A 
ATOM     87  F   UNL A   1      37.789  31.919  36.571  1.00  0.00    -0.203 F 
ATOM     88  C   UNL A   1      38.288  33.916  37.722  1.00  0.00     0.198 A 
ATOM     89  C   UNL A   1      39.752  35.536  36.729  1.00  0.00     0.198 A 
ATOM     90  F   UNL A   1      40.612  35.162  34.571  1.00  0.00    -0.203 F 
ATOM     91  F   UNL A   1      37.498  33.534  38.735  1.00  0.00    -0.200 F 
ATOM     92  C   UNL A   1      38.960  35.129  37.792  1.00  0.00     0.200 A 
ATOM     93  F   UNL A   1      40.410  36.703  36.792  1.00  0.00    -0.200 F 
ATOM     94  F   UNL A   1      38.839  35.905  38.877  1.00  0.00    -0.200 F 
ENDBRANCH  60  84
BRANCH  72  95
ATOM     95  C   UNL A   1      36.381  32.262  29.317  1.00  0.00     0.064 A 
ATOM     96  C   UNL A   1      35.307  31.406  29.039  1.00  0.00     0.173 A 
ATOM     97  C   UNL A   1      36.267  33.612  28.954  1.00  0.00     0.173 A 
ATOM     98  F   UNL A   1      35.389  30.100  29.339  1.00  0.00    -0.203 F 
ATOM     99  C   UNL A   1      34.170  31.878  28.394  1.00  0.00     0.198 A 
ATOM    100  C   UNL A   1      35.114  34.088  28.340  1.00  0.00     0.198 A 
ATOM    101  F   UNL A   1      37.275  34.466  29.191  1.00  0.00    -0.203 F 
ATOM    102  F   UNL A   1      33.182  31.031  28.079  1.00  0.00    -0.200 F 
ATOM    103  C   UNL A   1      34.071  33.220  28.052  1.00  0.00     0.200 A 
ATOM    104  F   UNL A   1      35.017  35.384  28.018  1.00  0.00    -0.200 F 
ATOM    105  F   UNL A   1      32.974  33.673  27.433  1.00  0.00    -0.200 F 
ENDBRANCH  72  95
ENDBRANCH  46  47
ENDBRANCH  39  41
ENDBRANCH  38  39
ENDBRANCH  37  38
ENDBRANCH   1  37
TORSDOF 16
ENDMDL
MODEL 3
REMARK VINA RESULT:     -11.1      6.125     14.120
REMARK SMILES Cc1cc(C)c(S(=O)(=O)Nc2ccc(N3CCN(c4ccccn4)CC3)c(C(=O)OCCOC(=O)c3ccc(-c4c5nc(c(-c6c(F)c(F)c(F)c(F)c6F)c6ccc([nH]6)c(-c6c(F)c(F)c(F)c(F)c6F)c6nc(c(-c7c(F)c(F)c(F)c(F)c7F)c7ccc4[nH]7)C=C6)C=C5)cc3)c2)c(C)c1
REMARK SMILES IDX 31 1 30 2 28 3 29 4 27 5 11 6 12 7 99 8 13 9 14 10 10 11
REMARK SMILES IDX 7 13 8 14 9 15 6 16 1 17 2 18 3 19 102 20 4 21 100 22 5 23
REMARK SMILES IDX 101 24 15 25 16 26 26 27 17 28 25 29 18 30 19 31 20 32 24 33
REMARK SMILES IDX 21 34 23 35 22 36 32 37 33 38 34 39 35 40 36 41 37 42 98 43
REMARK SMILES IDX 38 44 97 45 39 46 40 47 41 48 91 49 42 50 96 51 90 52 92 53
REMARK SMILES IDX 43 54 95 55 89 56 88 57 44 59 76 60 56 61 75 62 57 63 60 64
REMARK SMILES IDX 74 65 93 66 58 67 59 68 73 70 94 71 61 72 45 73 46 74 54 75
REMARK SMILES IDX 47 76 48 77 52 78 55 79 49 80 50 81 53 82 51 83 77 84 78 85
REMARK SMILES IDX 86 86 79 87 80 88 84 89 87 90 81 91 82 92 85 93 83 94 62 95
REMARK SMILES IDX 63 96 71 97 64 98 65 99 69 100 72 101 66 102 67 103 70 104
REMARK SMILES IDX 68 105
REMARK H PARENT 10 12 92 58 60 69
REMARK Flexibility Score: inf
ROOT
ATOM      1  C   UNL A   1      44.325  40.200  26.854  1.00  0.00     0.275 C 
ENDROOT
BRANCH   1   2
ATOM      2  O   UNL A   1      43.605  41.427  26.622  1.00  0.00    -0.458 OA
BRANCH   2   3
ATOM      3  C   UNL A   1      44.383  42.491  26.309  1.00  0.00     0.340 C 
ATOM      4  O   UNL A   1      44.528  43.488  26.996  1.00  0.00    -0.246 OA
BRANCH   3   5
ATOM      5  C   UNL A   1      44.939  42.331  24.950  1.00  0.00     0.085 A 
ATOM      6  C   UNL A   1      44.323  42.857  22.693  1.00  0.00     0.050 A 
ATOM      7  C   UNL A   1      45.661  42.732  22.303  1.00  0.00     0.029 A 
ATOM      8  C   UNL A   1      43.951  42.464  23.963  1.00  0.00     0.044 A 
ATOM      9  C   UNL A   1      46.647  42.470  23.264  1.00  0.00     0.029 A 
ATOM     10  C   UNL A   1      46.316  42.375  24.625  1.00  0.00     0.052 A 
BRANCH   6  11
ATOM     11  N   UNL A   1      43.524  43.763  21.939  1.00  0.00    -0.280 N 
ATOM     12  H   UNL A   1      43.569  44.711  22.197  1.00  0.00     0.180 HD
BRANCH  11  13
ATOM     13  S   UNL A   1      42.516  43.378  20.659  1.00  0.00     0.262 S 
ATOM     14  O   UNL A   1      41.161  43.579  21.138  1.00  0.00    -0.201 OA
ATOM     15  O   UNL A   1      42.961  42.072  20.217  1.00  0.00    -0.201 OA
BRANCH  13  16
ATOM     16  C   UNL A   1      42.731  44.490  19.242  1.00  0.00     0.093 A 
ATOM     17  C   UNL A   1      42.633  47.941  16.614  1.00  0.00     0.044 C 
ATOM     18  C   UNL A   1      42.670  46.725  17.490  1.00  0.00    -0.051 A 
ATOM     19  C   UNL A   1      41.537  45.938  17.664  1.00  0.00     0.008 A 
ATOM     20  C   UNL A   1      43.864  46.286  18.061  1.00  0.00     0.008 A 
ATOM     21  C   UNL A   1      41.550  44.820  18.523  1.00  0.00    -0.030 A 
ATOM     22  C   UNL A   1      43.930  45.145  18.897  1.00  0.00    -0.030 A 
ATOM     23  C   UNL A   1      40.315  43.954  18.482  1.00  0.00     0.046 C 
ATOM     24  C   UNL A   1      45.312  44.651  19.212  1.00  0.00     0.046 C 
ENDBRANCH  13  16
ENDBRANCH  11  13
ENDBRANCH   6  11
BRANCH  10  25
ATOM     25  N   UNL A   1      47.371  42.453  25.536  1.00  0.00    -0.367 N 
ATOM     26  C   UNL A   1      47.834  44.068  26.079  1.00  0.00     0.138 C 
ATOM     27  C   UNL A   1      47.739  40.945  26.586  1.00  0.00     0.138 C 
ATOM     28  C   UNL A   1      48.412  44.426  27.828  1.00  0.00     0.139 C 
ATOM     29  C   UNL A   1      48.442  41.413  28.628  1.00  0.00     0.139 C 
ATOM     30  N   UNL A   1      48.886  43.174  28.938  1.00  0.00    -0.353 N 
BRANCH  30  31
ATOM     31  C   UNL A   1      49.783  43.454  29.966  1.00  0.00     0.128 A 
ATOM     32  C   UNL A   1      51.169  43.308  29.786  1.00  0.00     0.047 A 
ATOM     33  N   UNL A   1      49.322  43.937  31.137  1.00  0.00    -0.239 NA
ATOM     34  C   UNL A   1      52.079  43.581  30.801  1.00  0.00     0.005 A 
ATOM     35  C   UNL A   1      50.225  44.179  32.128  1.00  0.00     0.113 A 
ATOM     36  C   UNL A   1      51.594  44.003  32.016  1.00  0.00     0.020 A 
ENDBRANCH  30  31
ENDBRANCH  10  25
ENDBRANCH   3   5
ENDBRANCH   2   3
ENDBRANCH   1   2
BRANCH   1  37
ATOM     37  C   UNL A   1      44.441  39.986  28.358  1.00  0.00     0.275 C 
BRANCH  37  38
ATOM     38  O   UNL A   1      44.265  38.582  28.626  1.00  0.00    -0.458 OA
BRANCH  38  39
ATOM     39  C   UNL A   1      45.377  37.836  28.478  1.00  0.00     0.338 C 
ATOM     40  O   UNL A   1      46.531  38.204  28.353  1.00  0.00    -0.246 OA
BRANCH  39  41
ATOM     41  C   UNL A   1      45.042  36.416  28.574  1.00  0.00     0.060 A 
ATOM     42  C   UNL A   1      45.625  35.398  29.878  1.00  0.00     0.016 A 
ATOM     43  C   UNL A   1      44.332  35.605  27.225  1.00  0.00     0.016 A 
ATOM     44  C   UNL A   1      45.525  33.452  29.676  1.00  0.00     0.010 A 
ATOM     45  C   UNL A   1      44.182  33.871  27.100  1.00  0.00     0.010 A 
ATOM     46  C   UNL A   1      44.727  32.727  28.313  1.00  0.00    -0.014 A 
BRANCH  46  47
ATOM     47  C   UNL A   1      44.316  31.255  28.339  1.00  0.00     0.031 A 
ATOM     48  C   UNL A   1      45.109  30.254  27.536  1.00  0.00     0.074 A 
ATOM     49  C   UNL A   1      43.198  30.779  28.962  1.00  0.00     0.049 A 
ATOM     50  N   UNL A   1      44.781  29.048  27.139  1.00  0.00    -0.248 NA
ATOM     51  C   UNL A   1      46.452  30.668  27.112  1.00  0.00     0.031 C 
ATOM     52  C   UNL A   1      42.322  31.493  29.878  1.00  0.00     0.029 A 
ATOM     53  N   UNL A   1      42.542  29.557  28.863  1.00  0.00    -0.354 N 
ATOM     54  C   UNL A   1      45.860  28.585  26.397  1.00  0.00     0.074 A 
ATOM     55  C   UNL A   1      46.805  29.676  26.309  1.00  0.00     0.031 C 
ATOM     56  C   UNL A   1      41.226  30.796  30.172  1.00  0.00     0.029 A 
ATOM     57  C   UNL A   1      41.293  29.548  29.463  1.00  0.00     0.049 A 
ATOM     58  H   UNL A   1      42.929  28.772  28.411  1.00  0.00     0.167 HD
ATOM     59  C   UNL A   1      46.078  27.346  25.893  1.00  0.00     0.037 A 
ATOM     60  C   UNL A   1      40.259  28.686  29.458  1.00  0.00     0.037 A 
ATOM     61  C   UNL A   1      45.179  26.232  26.062  1.00  0.00     0.049 A 
ATOM     62  C   UNL A   1      40.450  27.372  28.804  1.00  0.00     0.074 A 
ATOM     63  C   UNL A   1      45.361  24.913  25.684  1.00  0.00     0.029 A 
ATOM     64  N   UNL A   1      43.928  26.302  26.661  1.00  0.00    -0.354 N 
ATOM     65  N   UNL A   1      41.483  26.956  28.122  1.00  0.00    -0.248 NA
ATOM     66  C   UNL A   1      39.376  26.391  28.967  1.00  0.00     0.031 C 
ATOM     67  C   UNL A   1      44.196  24.202  25.990  1.00  0.00     0.029 A 
ATOM     68  C   UNL A   1      43.307  25.062  26.613  1.00  0.00     0.049 A 
ATOM     69  H   UNL A   1      43.538  27.114  27.061  1.00  0.00     0.167 HD
ATOM     70  C   UNL A   1      41.209  25.643  27.803  1.00  0.00     0.074 A 
ATOM     71  C   UNL A   1      39.906  25.336  28.364  1.00  0.00     0.031 C 
ATOM     72  C   UNL A   1      41.992  24.771  27.127  1.00  0.00     0.037 A 
BRANCH  59  73
ATOM     73  C   UNL A   1      47.346  27.131  25.109  1.00  0.00     0.064 A 
ATOM     74  C   UNL A   1      48.468  26.486  25.657  1.00  0.00     0.173 A 
ATOM     75  C   UNL A   1      47.442  27.587  23.786  1.00  0.00     0.173 A 
ATOM     76  F   UNL A   1      48.439  26.039  26.921  1.00  0.00    -0.203 F 
ATOM     77  C   UNL A   1      49.651  26.358  24.932  1.00  0.00     0.198 A 
ATOM     78  C   UNL A   1      48.613  27.421  23.049  1.00  0.00     0.198 A 
ATOM     79  F   UNL A   1      46.401  28.202  23.205  1.00  0.00    -0.203 F 
ATOM     80  F   UNL A   1      50.732  25.814  25.507  1.00  0.00    -0.200 F 
ATOM     81  C   UNL A   1      49.720  26.821  23.627  1.00  0.00     0.200 A 
ATOM     82  F   UNL A   1      48.673  27.855  21.782  1.00  0.00    -0.200 F 
ATOM     83  F   UNL A   1      50.860  26.701  22.932  1.00  0.00    -0.200 F 
ENDBRANCH  59  73
BRANCH  60  84
ATOM     84  C   UNL A   1      38.975  29.066  30.111  1.00  0.00     0.064 A 
ATOM     85  C   UNL A   1      38.723  28.797  31.462  1.00  0.00     0.173 A 
ATOM     86  C   UNL A   1      38.014  29.805  29.405  1.00  0.00     0.173 A 
ATOM     87  F   UNL A   1      39.596  28.069  32.172  1.00  0.00    -0.203 F 
ATOM     88  C   UNL A   1      37.569  29.273  32.087  1.00  0.00     0.198 A 
ATOM     89  C   UNL A   1      36.878  30.309  30.037  1.00  0.00     0.198 A 
ATOM     90  F   UNL A   1      38.184  30.042  28.097  1.00  0.00    -0.203 F 
ATOM     91  F   UNL A   1      37.344  28.990  33.377  1.00  0.00    -0.200 F 
ATOM     92  C   UNL A   1      36.657  30.044  31.380  1.00  0.00     0.200 A 
ATOM     93  F   UNL A   1      36.004  31.059  29.349  1.00  0.00    -0.200 F 
ATOM     94  F   UNL A   1      35.565  30.524  31.990  1.00  0.00    -0.200 F 
ENDBRANCH  60  84
BRANCH  72  95
ATOM     95  C   UNL A   1      41.445  23.391  26.961  1.00  0.00     0.064 A 
ATOM     96  C   UNL A   1      40.272  23.155  26.231  1.00  0.00     0.173 A 
ATOM     97  C   UNL A   1      42.092  22.295  27.552  1.00  0.00     0.173 A 
ATOM     98  F   UNL A   1      39.603  24.179  25.679  1.00  0.00    -0.203 F 
ATOM     99  C   UNL A   1      39.750  21.871  26.120  1.00  0.00     0.198 A 
ATOM    100  C   UNL A   1      41.586  21.009  27.409  1.00  0.00     0.198 A 
ATOM    101  F   UNL A   1      43.211  22.476  28.269  1.00  0.00    -0.203 F 
ATOM    102  F   UNL A   1      38.594  21.676  25.473  1.00  0.00    -0.200 F 
ATOM    103  C   UNL A   1      40.411  20.799  26.702  1.00  0.00     0.200 A 
ATOM    104  F   UNL A   1      42.228  19.974  27.965  1.00  0.00    -0.200 F 
ATOM    105  F   UNL A   1      39.908  19.563  26.592  1.00  0.00    -0.200 F 
ENDBRANCH  72  95
ENDBRANCH  46  47
ENDBRANCH  39  41
ENDBRANCH  38  39
ENDBRANCH  37  38
ENDBRANCH   1  37
TORSDOF 16
ENDMDL
