MODEL 1
REMARK VINA RESULT:     -12.0      0.000      0.000
REMARK SMILES COc1ccc(/C=C(\CCC(=O)OCCOC(=O)c2ccc(-c3c4nc(c(-c5c(F)c(F)c(F)c(F)c5F)c5ccc([nH]5)c(-c5c(F)c(F)c(F)c(F)c5F)c5nc(c(-c6c(F)c(F)c(F)c(F)c6F)c6ccc3[nH]6)C=C5)C=C4)cc2)c2nc3ccccc3s2)cc1F
REMARK SMILES IDX 14 1 13 2 11 3 12 4 10 5 9 6 8 7 7 8 6 9 3 10 4 11 92 12
REMARK SMILES IDX 5 13 91 14 93 15 2 16 1 17 82 18 83 19 90 20 84 21 89 22
REMARK SMILES IDX 85 23 88 24 86 25 87 26 15 27 16 28 17 29 18 30 19 31 20 32
REMARK SMILES IDX 81 33 21 34 80 35 22 36 23 37 24 38 74 39 25 40 79 41 73 42
REMARK SMILES IDX 75 43 26 44 78 45 72 46 71 47 27 49 59 50 39 51 58 52 40 53
REMARK SMILES IDX 43 54 57 55 76 56 41 57 42 58 56 60 77 61 44 62 28 63 29 64
REMARK SMILES IDX 37 65 30 66 31 67 35 68 38 69 32 70 33 71 36 72 34 73 60 74
REMARK SMILES IDX 61 75 69 76 62 77 63 78 67 79 70 80 64 81 65 82 68 83 66 84
REMARK SMILES IDX 45 85 46 86 54 87 47 88 48 89 52 90 55 91 49 92 50 93 53 94
REMARK SMILES IDX 51 95
REMARK H PARENT 75 48 43 59
REMARK Flexibility Score: inf
ROOT
ATOM      1  C   UNL A   1      31.778  31.481  26.777  1.00  0.00     0.274 C 
ENDROOT
BRANCH   1   2
ATOM      2  O   UNL A   1      33.121  31.002  26.961  1.00  0.00    -0.462 OA
BRANCH   2   3
ATOM      3  C   UNL A   1      33.333  29.672  26.832  1.00  0.00     0.306 C 
ATOM      4  O   UNL A   1      34.007  28.982  27.583  1.00  0.00    -0.252 OA
BRANCH   3   5
ATOM      5  C   UNL A   1      32.560  29.125  25.659  1.00  0.00     0.127 C 
BRANCH   5   6
ATOM      6  C   UNL A   1      31.790  27.859  26.048  1.00  0.00     0.050 C 
BRANCH   6   7
ATOM      7  C   UNL A   1      31.772  26.773  24.983  1.00  0.00    -0.011 C 
ATOM      8  C   UNL A   1      31.103  26.863  23.806  1.00  0.00     0.015 C 
BRANCH   8   9
ATOM      9  C   UNL A   1      30.237  27.934  23.230  1.00  0.00    -0.022 A 
ATOM     10  C   UNL A   1      28.440  29.887  22.194  1.00  0.00     0.154 A 
ATOM     11  C   UNL A   1      29.801  29.981  21.946  1.00  0.00     0.050 A 
ATOM     12  C   UNL A   1      27.969  28.800  22.923  1.00  0.00     0.165 A 
ATOM     13  C   UNL A   1      30.681  29.015  22.454  1.00  0.00     0.012 A 
ATOM     14  C   UNL A   1      28.850  27.840  23.438  1.00  0.00     0.051 A 
ATOM     15  F   UNL A   1      26.654  28.633  23.125  1.00  0.00    -0.203 F 
BRANCH  10  16
ATOM     16  O   UNL A   1      27.653  30.840  21.612  1.00  0.00    -0.494 OA
ATOM     17  C   UNL A   1      28.238  32.139  21.644  1.00  0.00     0.278 C 
ENDBRANCH  10  16
ENDBRANCH   8   9
BRANCH   7  18
ATOM     18  C   UNL A   1      32.528  25.566  25.265  1.00  0.00     0.120 A 
ATOM     19  N   UNL A   1      33.772  25.561  25.704  1.00  0.00    -0.236 NA
ATOM     20  S   UNL A   1      31.959  24.003  24.779  1.00  0.00    -0.114 S 
ATOM     21  C   UNL A   1      34.391  24.352  25.434  1.00  0.00     0.082 A 
ATOM     22  C   UNL A   1      33.561  23.370  24.900  1.00  0.00     0.055 A 
ATOM     23  C   UNL A   1      35.768  24.078  25.583  1.00  0.00     0.030 A 
ATOM     24  C   UNL A   1      34.063  22.112  24.524  1.00  0.00     0.021 A 
ATOM     25  C   UNL A   1      36.290  22.860  25.140  1.00  0.00     0.002 A 
ATOM     26  C   UNL A   1      35.442  21.885  24.625  1.00  0.00     0.002 A 
ENDBRANCH   7  18
ENDBRANCH   6   7
ENDBRANCH   5   6
ENDBRANCH   3   5
ENDBRANCH   2   3
ENDBRANCH   1   2
BRANCH   1  27
ATOM     27  C   UNL A   1      31.767  33.007  26.883  1.00  0.00     0.275 C 
BRANCH  27  28
ATOM     28  O   UNL A   1      33.084  33.445  27.232  1.00  0.00    -0.458 OA
BRANCH  28  29
ATOM     29  C   UNL A   1      33.194  34.273  28.294  1.00  0.00     0.338 C 
ATOM     30  O   UNL A   1      32.533  35.237  28.602  1.00  0.00    -0.246 OA
BRANCH  29  31
ATOM     31  C   UNL A   1      34.308  33.730  29.068  1.00  0.00     0.060 A 
ATOM     32  C   UNL A   1      34.090  32.621  29.889  1.00  0.00     0.016 A 
ATOM     33  C   UNL A   1      35.577  34.272  28.881  1.00  0.00     0.016 A 
ATOM     34  C   UNL A   1      35.166  32.025  30.525  1.00  0.00     0.010 A 
ATOM     35  C   UNL A   1      36.657  33.661  29.500  1.00  0.00     0.010 A 
ATOM     36  C   UNL A   1      36.451  32.542  30.325  1.00  0.00    -0.014 A 
BRANCH  36  37
ATOM     37  C   UNL A   1      37.589  31.953  31.047  1.00  0.00     0.031 A 
ATOM     38  C   UNL A   1      38.420  30.928  30.347  1.00  0.00     0.074 A 
ATOM     39  C   UNL A   1      37.849  32.351  32.304  1.00  0.00     0.049 A 
ATOM     40  N   UNL A   1      39.429  30.233  30.797  1.00  0.00    -0.248 NA
ATOM     41  C   UNL A   1      38.058  30.635  28.949  1.00  0.00     0.031 C 
ATOM     42  C   UNL A   1      37.092  33.367  33.037  1.00  0.00     0.029 A 
ATOM     43  N   UNL A   1      38.820  31.956  33.182  1.00  0.00    -0.354 N 
ATOM     44  C   UNL A   1      39.809  29.410  29.746  1.00  0.00     0.074 A 
ATOM     45  C   UNL A   1      38.905  29.663  28.649  1.00  0.00     0.031 C 
ATOM     46  C   UNL A   1      37.639  33.528  34.252  1.00  0.00     0.029 A 
ATOM     47  C   UNL A   1      38.756  32.600  34.393  1.00  0.00     0.049 A 
ATOM     48  H   UNL A   1      39.498  31.277  32.967  1.00  0.00     0.167 HD
ATOM     49  C   UNL A   1      40.835  28.531  29.712  1.00  0.00     0.037 A 
ATOM     50  C   UNL A   1      39.519  32.442  35.490  1.00  0.00     0.037 A 
ATOM     51  C   UNL A   1      41.719  28.313  30.825  1.00  0.00     0.049 A 
ATOM     52  C   UNL A   1      40.640  31.441  35.435  1.00  0.00     0.074 A 
ATOM     53  C   UNL A   1      42.797  27.453  30.918  1.00  0.00     0.029 A 
ATOM     54  N   UNL A   1      41.621  28.970  32.046  1.00  0.00    -0.354 N 
ATOM     55  N   UNL A   1      41.000  30.661  34.442  1.00  0.00    -0.248 NA
ATOM     56  C   UNL A   1      41.462  31.296  36.642  1.00  0.00     0.031 C 
ATOM     57  C   UNL A   1      43.321  27.556  32.209  1.00  0.00     0.029 A 
ATOM     58  C   UNL A   1      42.610  28.524  32.905  1.00  0.00     0.049 A 
ATOM     59  H   UNL A   1      40.947  29.653  32.267  1.00  0.00     0.167 HD
ATOM     60  C   UNL A   1      42.099  29.946  34.892  1.00  0.00     0.074 A 
ATOM     61  C   UNL A   1      42.356  30.400  36.246  1.00  0.00     0.031 C 
ATOM     62  C   UNL A   1      42.831  29.003  34.248  1.00  0.00     0.037 A 
BRANCH  49  63
ATOM     63  C   UNL A   1      41.028  27.734  28.455  1.00  0.00     0.064 A 
ATOM     64  C   UNL A   1      40.353  26.517  28.276  1.00  0.00     0.173 A 
ATOM     65  C   UNL A   1      41.886  28.162  27.431  1.00  0.00     0.173 A 
ATOM     66  F   UNL A   1      39.514  26.063  29.220  1.00  0.00    -0.203 F 
ATOM     67  C   UNL A   1      40.537  25.756  27.124  1.00  0.00     0.198 A 
ATOM     68  C   UNL A   1      42.044  27.414  26.266  1.00  0.00     0.198 A 
ATOM     69  F   UNL A   1      42.538  29.330  27.540  1.00  0.00    -0.203 F 
ATOM     70  F   UNL A   1      39.897  24.587  26.986  1.00  0.00    -0.200 F 
ATOM     71  C   UNL A   1      41.376  26.208  26.118  1.00  0.00     0.200 A 
ATOM     72  F   UNL A   1      42.830  27.870  25.281  1.00  0.00    -0.200 F 
ATOM     73  F   UNL A   1      41.536  25.485  25.001  1.00  0.00    -0.200 F 
ENDBRANCH  49  63
BRANCH  50  74
ATOM     74  C   UNL A   1      39.258  33.279  36.690  1.00  0.00     0.064 A 
ATOM     75  C   UNL A   1      39.852  34.541  36.846  1.00  0.00     0.173 A 
ATOM     76  C   UNL A   1      38.465  32.799  37.742  1.00  0.00     0.173 A 
ATOM     77  F   UNL A   1      40.623  35.044  35.871  1.00  0.00    -0.203 F 
ATOM     78  C   UNL A   1      39.688  35.276  38.019  1.00  0.00     0.198 A 
ATOM     79  C   UNL A   1      38.282  33.547  38.905  1.00  0.00     0.198 A 
ATOM     80  F   UNL A   1      37.861  31.607  37.635  1.00  0.00    -0.203 F 
ATOM     81  F   UNL A   1      40.306  36.457  38.159  1.00  0.00    -0.200 F 
ATOM     82  C   UNL A   1      38.903  34.778  39.047  1.00  0.00     0.200 A 
ATOM     83  F   UNL A   1      37.506  33.071  39.889  1.00  0.00    -0.200 F 
ATOM     84  F   UNL A   1      38.747  35.485  40.175  1.00  0.00    -0.200 F 
ENDBRANCH  50  74
BRANCH  62  85
ATOM     85  C   UNL A   1      43.992  28.413  34.993  1.00  0.00     0.064 A 
ATOM     86  C   UNL A   1      43.825  27.239  35.745  1.00  0.00     0.173 A 
ATOM     87  C   UNL A   1      45.240  29.048  35.027  1.00  0.00     0.173 A 
ATOM     88  F   UNL A   1      42.644  26.602  35.753  1.00  0.00    -0.203 F 
ATOM     89  C   UNL A   1      44.865  26.733  36.517  1.00  0.00     0.198 A 
ATOM     90  C   UNL A   1      46.289  28.519  35.774  1.00  0.00     0.198 A 
ATOM     91  F   UNL A   1      45.449  30.166  34.315  1.00  0.00    -0.203 F 
ATOM     92  F   UNL A   1      44.672  25.633  37.258  1.00  0.00    -0.200 F 
ATOM     93  C   UNL A   1      46.096  27.369  36.526  1.00  0.00     0.200 A 
ATOM     94  F   UNL A   1      47.486  29.121  35.762  1.00  0.00    -0.200 F 
ATOM     95  F   UNL A   1      47.102  26.872  37.259  1.00  0.00    -0.200 F 
ENDBRANCH  62  85
ENDBRANCH  36  37
ENDBRANCH  29  31
ENDBRANCH  28  29
ENDBRANCH  27  28
ENDBRANCH   1  27
TORSDOF 16
ENDMDL
MODEL 2
REMARK VINA RESULT:     -12.0      5.682     10.751
REMARK SMILES COc1ccc(/C=C(\CCC(=O)OCCOC(=O)c2ccc(-c3c4nc(c(-c5c(F)c(F)c(F)c(F)c5F)c5ccc([nH]5)c(-c5c(F)c(F)c(F)c(F)c5F)c5nc(c(-c6c(F)c(F)c(F)c(F)c6F)c6ccc3[nH]6)C=C5)C=C4)cc2)c2nc3ccccc3s2)cc1F
REMARK SMILES IDX 14 1 13 2 11 3 12 4 10 5 9 6 8 7 7 8 6 9 3 10 4 11 92 12
REMARK SMILES IDX 5 13 91 14 93 15 2 16 1 17 82 18 83 19 90 20 84 21 89 22
REMARK SMILES IDX 85 23 88 24 86 25 87 26 15 27 16 28 17 29 18 30 19 31 20 32
REMARK SMILES IDX 81 33 21 34 80 35 22 36 23 37 24 38 74 39 25 40 79 41 73 42
REMARK SMILES IDX 75 43 26 44 78 45 72 46 71 47 27 49 59 50 39 51 58 52 40 53
REMARK SMILES IDX 43 54 57 55 76 56 41 57 42 58 56 60 77 61 44 62 28 63 29 64
REMARK SMILES IDX 37 65 30 66 31 67 35 68 38 69 32 70 33 71 36 72 34 73 60 74
REMARK SMILES IDX 61 75 69 76 62 77 63 78 67 79 70 80 64 81 65 82 68 83 66 84
REMARK SMILES IDX 45 85 46 86 54 87 47 88 48 89 52 90 55 91 49 92 50 93 53 94
REMARK SMILES IDX 51 95
REMARK H PARENT 75 48 43 59
REMARK Flexibility Score: inf
ROOT
ATOM      1  C   UNL A   1      38.734  21.062  25.968  1.00  0.00     0.274 C 
ENDROOT
BRANCH   1   2
ATOM      2  O   UNL A   1      37.916  21.613  24.923  1.00  0.00    -0.462 OA
BRANCH   2   3
ATOM      3  C   UNL A   1      37.305  22.796  25.166  1.00  0.00     0.306 C 
ATOM      4  O   UNL A   1      37.828  23.777  25.675  1.00  0.00    -0.252 OA
BRANCH   3   5
ATOM      5  C   UNL A   1      35.886  22.773  24.656  1.00  0.00     0.127 C 
BRANCH   5   6
ATOM      6  C   UNL A   1      34.884  22.797  25.815  1.00  0.00     0.050 C 
BRANCH   6   7
ATOM      7  C   UNL A   1      33.454  23.122  25.412  1.00  0.00    -0.011 C 
ATOM      8  C   UNL A   1      32.552  22.207  24.976  1.00  0.00     0.015 C 
BRANCH   8   9
ATOM      9  C   UNL A   1      32.654  20.735  24.753  1.00  0.00    -0.022 A 
ATOM     10  C   UNL A   1      32.803  17.953  24.153  1.00  0.00     0.154 A 
ATOM     11  C   UNL A   1      32.979  18.403  25.452  1.00  0.00     0.050 A 
ATOM     12  C   UNL A   1      32.514  18.883  23.159  1.00  0.00     0.165 A 
ATOM     13  C   UNL A   1      32.900  19.772  25.744  1.00  0.00     0.012 A 
ATOM     14  C   UNL A   1      32.444  20.252  23.449  1.00  0.00     0.051 A 
ATOM     15  F   UNL A   1      32.267  18.483  21.902  1.00  0.00    -0.203 F 
BRANCH  10  16
ATOM     16  O   UNL A   1      32.840  16.599  23.972  1.00  0.00    -0.494 OA
ATOM     17  C   UNL A   1      32.877  15.876  25.199  1.00  0.00     0.278 C 
ENDBRANCH  10  16
ENDBRANCH   8   9
BRANCH   7  18
ATOM     18  C   UNL A   1      33.046  24.512  25.506  1.00  0.00     0.120 A 
ATOM     19  N   UNL A   1      33.867  25.534  25.354  1.00  0.00    -0.236 NA
ATOM     20  S   UNL A   1      31.485  24.962  26.109  1.00  0.00    -0.114 S 
ATOM     21  C   UNL A   1      33.357  26.675  25.949  1.00  0.00     0.082 A 
ATOM     22  C   UNL A   1      32.061  26.554  26.445  1.00  0.00     0.055 A 
ATOM     23  C   UNL A   1      34.057  27.885  26.150  1.00  0.00     0.030 A 
ATOM     24  C   UNL A   1      31.436  27.614  27.126  1.00  0.00     0.021 A 
ATOM     25  C   UNL A   1      33.473  28.915  26.892  1.00  0.00     0.002 A 
ATOM     26  C   UNL A   1      32.173  28.782  27.365  1.00  0.00     0.002 A 
ENDBRANCH   7  18
ENDBRANCH   6   7
ENDBRANCH   5   6
ENDBRANCH   3   5
ENDBRANCH   2   3
ENDBRANCH   1   2
BRANCH   1  27
ATOM     27  C   UNL A   1      39.459  19.822  25.441  1.00  0.00     0.275 C 
BRANCH  27  28
ATOM     28  O   UNL A   1      40.440  19.430  26.406  1.00  0.00    -0.458 OA
BRANCH  28  29
ATOM     29  C   UNL A   1      41.737  19.545  26.044  1.00  0.00     0.338 C 
ATOM     30  O   UNL A   1      42.461  18.756  25.483  1.00  0.00    -0.246 OA
BRANCH  29  31
ATOM     31  C   UNL A   1      42.113  20.897  26.450  1.00  0.00     0.060 A 
ATOM     32  C   UNL A   1      42.151  21.214  27.810  1.00  0.00     0.016 A 
ATOM     33  C   UNL A   1      42.526  21.796  25.470  1.00  0.00     0.016 A 
ATOM     34  C   UNL A   1      42.630  22.452  28.204  1.00  0.00     0.010 A 
ATOM     35  C   UNL A   1      43.026  23.027  25.868  1.00  0.00     0.010 A 
ATOM     36  C   UNL A   1      43.073  23.356  27.233  1.00  0.00    -0.014 A 
BRANCH  36  37
ATOM     37  C   UNL A   1      43.522  24.696  27.642  1.00  0.00     0.031 A 
ATOM     38  C   UNL A   1      42.488  25.711  28.004  1.00  0.00     0.074 A 
ATOM     39  C   UNL A   1      44.838  24.966  27.681  1.00  0.00     0.049 A 
ATOM     40  N   UNL A   1      42.638  26.964  28.337  1.00  0.00    -0.248 NA
ATOM     41  C   UNL A   1      41.086  25.256  27.977  1.00  0.00     0.031 C 
ATOM     42  C   UNL A   1      45.902  24.012  27.365  1.00  0.00     0.029 A 
ATOM     43  N   UNL A   1      45.503  26.116  28.007  1.00  0.00    -0.354 N 
ATOM     44  C   UNL A   1      41.355  27.450  28.539  1.00  0.00     0.074 A 
ATOM     45  C   UNL A   1      40.434  26.373  28.261  1.00  0.00     0.031 C 
ATOM     46  C   UNL A   1      47.091  24.613  27.529  1.00  0.00     0.029 A 
ATOM     47  C   UNL A   1      46.868  26.001  27.922  1.00  0.00     0.049 A 
ATOM     48  H   UNL A   1      45.047  26.946  28.276  1.00  0.00     0.167 HD
ATOM     49  C   UNL A   1      40.992  28.690  28.935  1.00  0.00     0.037 A 
ATOM     50  C   UNL A   1      47.823  26.925  28.134  1.00  0.00     0.037 A 
ATOM     51  C   UNL A   1      41.940  29.736  29.211  1.00  0.00     0.049 A 
ATOM     52  C   UNL A   1      47.392  28.305  28.552  1.00  0.00     0.074 A 
ATOM     53  C   UNL A   1      41.703  31.033  29.621  1.00  0.00     0.029 A 
ATOM     54  N   UNL A   1      43.319  29.593  29.101  1.00  0.00    -0.354 N 
ATOM     55  N   UNL A   1      46.178  28.765  28.743  1.00  0.00    -0.248 NA
ATOM     56  C   UNL A   1      48.453  29.290  28.785  1.00  0.00     0.031 C 
ATOM     57  C   UNL A   1      42.933  31.689  29.713  1.00  0.00     0.029 A 
ATOM     58  C   UNL A   1      43.945  30.785  29.421  1.00  0.00     0.049 A 
ATOM     59  H   UNL A   1      43.782  28.766  28.836  1.00  0.00     0.167 HD
ATOM     60  C   UNL A   1      46.325  30.086  29.138  1.00  0.00     0.074 A 
ATOM     61  C   UNL A   1      47.752  30.347  29.174  1.00  0.00     0.031 C 
ATOM     62  C   UNL A   1      45.372  31.001  29.444  1.00  0.00     0.037 A 
BRANCH  49  63
ATOM     63  C   UNL A   1      39.525  28.980  29.061  1.00  0.00     0.064 A 
ATOM     64  C   UNL A   1      38.783  29.385  27.942  1.00  0.00     0.173 A 
ATOM     65  C   UNL A   1      38.851  28.870  30.287  1.00  0.00     0.173 A 
ATOM     66  F   UNL A   1      39.375  29.500  26.743  1.00  0.00    -0.203 F 
ATOM     67  C   UNL A   1      37.425  29.676  28.047  1.00  0.00     0.198 A 
ATOM     68  C   UNL A   1      37.486  29.132  30.382  1.00  0.00     0.198 A 
ATOM     69  F   UNL A   1      39.507  28.464  31.385  1.00  0.00    -0.203 F 
ATOM     70  F   UNL A   1      36.743  30.082  26.966  1.00  0.00    -0.200 F 
ATOM     71  C   UNL A   1      36.776  29.544  29.264  1.00  0.00     0.200 A 
ATOM     72  F   UNL A   1      36.854  28.971  31.554  1.00  0.00    -0.200 F 
ATOM     73  F   UNL A   1      35.465  29.805  29.360  1.00  0.00    -0.200 F 
ENDBRANCH  49  63
BRANCH  50  74
ATOM     74  C   UNL A   1      49.253  26.547  27.990  1.00  0.00     0.064 A 
ATOM     75  C   UNL A   1      50.061  26.299  29.110  1.00  0.00     0.173 A 
ATOM     76  C   UNL A   1      49.860  26.500  26.727  1.00  0.00     0.173 A 
ATOM     77  F   UNL A   1      49.530  26.336  30.341  1.00  0.00    -0.203 F 
ATOM     78  C   UNL A   1      51.425  26.049  28.975  1.00  0.00     0.198 A 
ATOM     79  C   UNL A   1      51.220  26.225  26.592  1.00  0.00     0.198 A 
ATOM     80  F   UNL A   1      49.128  26.713  25.624  1.00  0.00    -0.203 F 
ATOM     81  F   UNL A   1      52.182  25.861  30.065  1.00  0.00    -0.200 F 
ATOM     82  C   UNL A   1      52.004  26.011  27.715  1.00  0.00     0.200 A 
ATOM     83  F   UNL A   1      51.771  26.170  25.371  1.00  0.00    -0.200 F 
ATOM     84  F   UNL A   1      53.316  25.772  27.586  1.00  0.00    -0.200 F 
ENDBRANCH  50  74
BRANCH  62  85
ATOM     85  C   UNL A   1      45.841  32.363  29.865  1.00  0.00     0.064 A 
ATOM     86  C   UNL A   1      46.058  32.646  31.223  1.00  0.00     0.173 A 
ATOM     87  C   UNL A   1      45.998  33.403  28.940  1.00  0.00     0.173 A 
ATOM     88  F   UNL A   1      45.909  31.685  32.147  1.00  0.00    -0.203 F 
ATOM     89  C   UNL A   1      46.401  33.928  31.637  1.00  0.00     0.198 A 
ATOM     90  C   UNL A   1      46.374  34.677  29.356  1.00  0.00     0.198 A 
ATOM     91  F   UNL A   1      45.811  33.176  27.631  1.00  0.00    -0.203 F 
ATOM     92  F   UNL A   1      46.565  34.185  32.943  1.00  0.00    -0.200 F 
ATOM     93  C   UNL A   1      46.564  34.940  30.705  1.00  0.00     0.200 A 
ATOM     94  F   UNL A   1      46.556  35.647  28.451  1.00  0.00    -0.200 F 
ATOM     95  F   UNL A   1      46.908  36.171  31.105  1.00  0.00    -0.200 F 
ENDBRANCH  62  85
ENDBRANCH  36  37
ENDBRANCH  29  31
ENDBRANCH  28  29
ENDBRANCH  27  28
ENDBRANCH   1  27
TORSDOF 16
ENDMDL
MODEL 3
REMARK VINA RESULT:     -11.9      0.984      7.365
REMARK SMILES COc1ccc(/C=C(\CCC(=O)OCCOC(=O)c2ccc(-c3c4nc(c(-c5c(F)c(F)c(F)c(F)c5F)c5ccc([nH]5)c(-c5c(F)c(F)c(F)c(F)c5F)c5nc(c(-c6c(F)c(F)c(F)c(F)c6F)c6ccc3[nH]6)C=C5)C=C4)cc2)c2nc3ccccc3s2)cc1F
REMARK SMILES IDX 14 1 13 2 11 3 12 4 10 5 9 6 8 7 7 8 6 9 3 10 4 11 92 12
REMARK SMILES IDX 5 13 91 14 93 15 2 16 1 17 82 18 83 19 90 20 84 21 89 22
REMARK SMILES IDX 85 23 88 24 86 25 87 26 15 27 16 28 17 29 18 30 19 31 20 32
REMARK SMILES IDX 81 33 21 34 80 35 22 36 23 37 24 38 74 39 25 40 79 41 73 42
REMARK SMILES IDX 75 43 26 44 78 45 72 46 71 47 27 49 59 50 39 51 58 52 40 53
REMARK SMILES IDX 43 54 57 55 76 56 41 57 42 58 56 60 77 61 44 62 28 63 29 64
REMARK SMILES IDX 37 65 30 66 31 67 35 68 38 69 32 70 33 71 36 72 34 73 60 74
REMARK SMILES IDX 61 75 69 76 62 77 63 78 67 79 70 80 64 81 65 82 68 83 66 84
REMARK SMILES IDX 45 85 46 86 54 87 47 88 48 89 52 90 55 91 49 92 50 93 53 94
REMARK SMILES IDX 51 95
REMARK H PARENT 75 48 43 59
REMARK Flexibility Score: inf
ROOT
ATOM      1  C   UNL A   1      31.328  31.508  26.131  1.00  0.00     0.274 C 
ENDROOT
BRANCH   1   2
ATOM      2  O   UNL A   1      31.842  30.397  26.883  1.00  0.00    -0.462 OA
BRANCH   2   3
ATOM      3  C   UNL A   1      32.613  29.501  26.225  1.00  0.00     0.306 C 
ATOM      4  O   UNL A   1      33.289  29.734  25.233  1.00  0.00    -0.252 OA
BRANCH   3   5
ATOM      5  C   UNL A   1      32.586  28.165  26.924  1.00  0.00     0.127 C 
BRANCH   5   6
ATOM      6  C   UNL A   1      31.387  27.327  26.466  1.00  0.00     0.050 C 
BRANCH   6   7
ATOM      7  C   UNL A   1      31.670  26.403  25.292  1.00  0.00    -0.011 C 
ATOM      8  C   UNL A   1      31.228  26.611  24.026  1.00  0.00     0.015 C 
BRANCH   8   9
ATOM      9  C   UNL A   1      30.390  27.691  23.429  1.00  0.00    -0.022 A 
ATOM     10  C   UNL A   1      28.643  29.658  22.335  1.00  0.00     0.154 A 
ATOM     11  C   UNL A   1      30.016  29.783  22.197  1.00  0.00     0.050 A 
ATOM     12  C   UNL A   1      28.137  28.535  22.982  1.00  0.00     0.165 A 
ATOM     13  C   UNL A   1      30.872  28.811  22.733  1.00  0.00     0.012 A 
ATOM     14  C   UNL A   1      28.993  27.568  23.525  1.00  0.00     0.051 A 
ATOM     15  F   UNL A   1      26.813  28.340  23.075  1.00  0.00    -0.203 F 
BRANCH  10  16
ATOM     16  O   UNL A   1      27.885  30.623  21.733  1.00  0.00    -0.494 OA
ATOM     17  C   UNL A   1      28.425  31.932  21.889  1.00  0.00     0.278 C 
ENDBRANCH  10  16
ENDBRANCH   8   9
BRANCH   7  18
ATOM     18  C   UNL A   1      32.470  25.222  25.566  1.00  0.00     0.120 A 
ATOM     19  N   UNL A   1      33.763  25.133  25.320  1.00  0.00    -0.236 NA
ATOM     20  S   UNL A   1      31.739  23.707  25.983  1.00  0.00    -0.114 S 
ATOM     21  C   UNL A   1      34.161  23.811  25.215  1.00  0.00     0.082 A 
ATOM     22  C   UNL A   1      33.179  22.873  25.523  1.00  0.00     0.055 A 
ATOM     23  C   UNL A   1      35.421  23.361  24.763  1.00  0.00     0.030 A 
ATOM     24  C   UNL A   1      33.423  21.493  25.406  1.00  0.00     0.021 A 
ATOM     25  C   UNL A   1      35.647  21.996  24.570  1.00  0.00     0.002 A 
ATOM     26  C   UNL A   1      34.660  21.074  24.898  1.00  0.00     0.002 A 
ENDBRANCH   7  18
ENDBRANCH   6   7
ENDBRANCH   5   6
ENDBRANCH   3   5
ENDBRANCH   2   3
ENDBRANCH   1   2
BRANCH   1  27
ATOM     27  C   UNL A   1      31.602  32.806  26.894  1.00  0.00     0.275 C 
BRANCH  27  28
ATOM     28  O   UNL A   1      33.017  32.948  27.045  1.00  0.00    -0.458 OA
BRANCH  28  29
ATOM     29  C   UNL A   1      33.450  33.769  28.027  1.00  0.00     0.338 C 
ATOM     30  O   UNL A   1      33.002  34.823  28.415  1.00  0.00    -0.246 OA
BRANCH  29  31
ATOM     31  C   UNL A   1      34.611  33.086  28.592  1.00  0.00     0.060 A 
ATOM     32  C   UNL A   1      35.796  33.801  28.783  1.00  0.00     0.016 A 
ATOM     33  C   UNL A   1      34.466  31.769  29.022  1.00  0.00     0.016 A 
ATOM     34  C   UNL A   1      36.857  33.195  29.435  1.00  0.00     0.010 A 
ATOM     35  C   UNL A   1      35.521  31.171  29.695  1.00  0.00     0.010 A 
ATOM     36  C   UNL A   1      36.716  31.882  29.897  1.00  0.00    -0.014 A 
BRANCH  36  37
ATOM     37  C   UNL A   1      37.861  31.211  30.533  1.00  0.00     0.031 A 
ATOM     38  C   UNL A   1      38.159  31.521  31.964  1.00  0.00     0.074 A 
ATOM     39  C   UNL A   1      38.598  30.345  29.818  1.00  0.00     0.049 A 
ATOM     40  N   UNL A   1      39.141  31.102  32.715  1.00  0.00    -0.248 NA
ATOM     41  C   UNL A   1      37.229  32.441  32.642  1.00  0.00     0.031 C 
ATOM     42  C   UNL A   1      38.345  29.978  28.424  1.00  0.00     0.029 A 
ATOM     43  N   UNL A   1      39.701  29.615  30.164  1.00  0.00    -0.354 N 
ATOM     44  C   UNL A   1      38.958  31.720  33.943  1.00  0.00     0.074 A 
ATOM     45  C   UNL A   1      37.794  32.569  33.832  1.00  0.00     0.031 C 
ATOM     46  C   UNL A   1      39.260  29.076  28.036  1.00  0.00     0.029 A 
ATOM     47  C   UNL A   1      40.183  28.834  29.141  1.00  0.00     0.049 A 
ATOM     48  H   UNL A   1      40.111  29.645  31.058  1.00  0.00     0.167 HD
ATOM     49  C   UNL A   1      39.699  31.572  35.063  1.00  0.00     0.037 A 
ATOM     50  C   UNL A   1      41.256  28.024  29.113  1.00  0.00     0.037 A 
ATOM     51  C   UNL A   1      40.847  30.709  35.136  1.00  0.00     0.049 A 
ATOM     52  C   UNL A   1      42.079  27.895  30.366  1.00  0.00     0.074 A 
ATOM     53  C   UNL A   1      41.682  30.469  36.211  1.00  0.00     0.029 A 
ATOM     54  N   UNL A   1      41.320  29.941  34.078  1.00  0.00    -0.354 N 
ATOM     55  N   UNL A   1      41.906  28.479  31.528  1.00  0.00    -0.248 NA
ATOM     56  C   UNL A   1      43.238  26.997  30.309  1.00  0.00     0.031 C 
ATOM     57  C   UNL A   1      42.687  29.593  35.790  1.00  0.00     0.029 A 
ATOM     58  C   UNL A   1      42.446  29.237  34.470  1.00  0.00     0.049 A 
ATOM     59  H   UNL A   1      40.914  29.903  33.183  1.00  0.00     0.167 HD
ATOM     60  C   UNL A   1      42.920  28.009  32.349  1.00  0.00     0.074 A 
ATOM     61  C   UNL A   1      43.694  27.076  31.552  1.00  0.00     0.031 C 
ATOM     62  C   UNL A   1      43.188  28.317  33.643  1.00  0.00     0.037 A 
BRANCH  49  63
ATOM     63  C   UNL A   1      39.307  32.375  36.269  1.00  0.00     0.064 A 
ATOM     64  C   UNL A   1      38.342  31.888  37.162  1.00  0.00     0.173 A 
ATOM     65  C   UNL A   1      39.875  33.630  36.539  1.00  0.00     0.173 A 
ATOM     66  F   UNL A   1      37.771  30.691  36.957  1.00  0.00    -0.203 F 
ATOM     67  C   UNL A   1      37.953  32.630  38.275  1.00  0.00     0.198 A 
ATOM     68  C   UNL A   1      39.506  34.356  37.670  1.00  0.00     0.198 A 
ATOM     69  F   UNL A   1      40.820  34.132  35.731  1.00  0.00    -0.203 F 
ATOM     70  F   UNL A   1      37.012  32.153  39.102  1.00  0.00    -0.200 F 
ATOM     71  C   UNL A   1      38.540  33.860  38.531  1.00  0.00     0.200 A 
ATOM     72  F   UNL A   1      40.100  35.529  37.933  1.00  0.00    -0.200 F 
ATOM     73  F   UNL A   1      38.180  34.564  39.613  1.00  0.00    -0.200 F 
ENDBRANCH  49  63
BRANCH  50  74
ATOM     74  C   UNL A   1      41.566  27.264  27.874  1.00  0.00     0.064 A 
ATOM     75  C   UNL A   1      41.092  25.957  27.680  1.00  0.00     0.173 A 
ATOM     76  C   UNL A   1      42.408  27.803  26.891  1.00  0.00     0.173 A 
ATOM     77  F   UNL A   1      40.287  25.393  28.592  1.00  0.00    -0.203 F 
ATOM     78  C   UNL A   1      41.472  25.209  26.566  1.00  0.00     0.198 A 
ATOM     79  C   UNL A   1      42.767  27.063  25.766  1.00  0.00     0.198 A 
ATOM     80  F   UNL A   1      42.874  29.053  27.022  1.00  0.00    -0.203 F 
ATOM     81  F   UNL A   1      41.041  23.948  26.429  1.00  0.00    -0.200 F 
ATOM     82  C   UNL A   1      42.309  25.763  25.610  1.00  0.00     0.200 A 
ATOM     83  F   UNL A   1      43.560  27.609  24.833  1.00  0.00    -0.200 F 
ATOM     84  F   UNL A   1      42.675  25.044  24.540  1.00  0.00    -0.200 F 
ENDBRANCH  50  74
BRANCH  62  85
ATOM     85  C   UNL A   1      44.354  27.624  34.283  1.00  0.00     0.064 A 
ATOM     86  C   UNL A   1      45.631  28.206  34.240  1.00  0.00     0.173 A 
ATOM     87  C   UNL A   1      44.225  26.356  34.864  1.00  0.00     0.173 A 
ATOM     88  F   UNL A   1      45.807  29.413  33.683  1.00  0.00    -0.203 F 
ATOM     89  C   UNL A   1      46.739  27.532  34.744  1.00  0.00     0.198 A 
ATOM     90  C   UNL A   1      45.331  25.700  35.397  1.00  0.00     0.198 A 
ATOM     91  F   UNL A   1      43.023  25.766  34.937  1.00  0.00    -0.203 F 
ATOM     92  F   UNL A   1      47.955  28.090  34.658  1.00  0.00    -0.200 F 
ATOM     93  C   UNL A   1      46.587  26.284  35.327  1.00  0.00     0.200 A 
ATOM     94  F   UNL A   1      45.178  24.505  35.983  1.00  0.00    -0.200 F 
ATOM     95  F   UNL A   1      47.653  25.643  35.825  1.00  0.00    -0.200 F 
ENDBRANCH  62  85
ENDBRANCH  36  37
ENDBRANCH  29  31
ENDBRANCH  28  29
ENDBRANCH  27  28
ENDBRANCH   1  27
TORSDOF 16
ENDMDL
