MODEL 1
REMARK VINA RESULT:     -13.2      0.000      0.000
REMARK SMILES Nc1nccc(N2CCC[C@@](Cc3ccc(F)cc3F)(C(=O)OCCOC(=O)c3ccc(-c4c5nc(c(-c6c(F)c(F)c(F)c(F)c6F)c6ccc([nH]6)c(-c6c(F)c(F)c(F)c(F)c6F)c6nc(c(-c7c(F)c(F)c(F)c(F)c7F)c7ccc4[nH]7)C=C6)C=C5)cc3)C2)n1
REMARK SMILES IDX 24 1 23 2 21 3 22 4 11 5 7 6 8 7 92 8 9 9 10 10 6 11 2 12
REMARK SMILES IDX 3 13 93 14 4 15 5 16 1 17 12 20 13 21 14 22 19 23 15 24
REMARK SMILES IDX 18 25 20 26 16 27 17 28 25 29 26 30 27 31 28 32 29 33 30 34
REMARK SMILES IDX 91 35 31 36 90 37 32 38 33 39 34 40 84 41 35 42 89 43 83 44
REMARK SMILES IDX 85 45 36 46 88 47 82 48 81 49 37 51 69 52 49 53 68 54 50 55
REMARK SMILES IDX 53 56 67 57 86 58 51 59 52 60 66 62 87 63 54 64 38 65 39 66
REMARK SMILES IDX 47 67 40 68 41 69 45 70 48 71 42 72 43 73 46 74 44 75 70 76
REMARK SMILES IDX 71 77 79 78 72 79 73 80 77 81 80 82 74 83 75 84 78 85 76 86
REMARK SMILES IDX 55 87 56 88 64 89 57 90 58 91 62 92 65 93 59 94 60 95 63 96
REMARK SMILES IDX 61 97
REMARK H PARENT 1 18 1 19 85 50 53 61
REMARK Flexibility Score: inf
ROOT
ATOM      1  C   UNL A   1      32.992  29.399  24.619  1.00  0.00     0.274 C 
ENDROOT
BRANCH   1   2
ATOM      2  O   UNL A   1      33.150  28.020  25.017  1.00  0.00    -0.462 OA
BRANCH   2   3
ATOM      3  C   UNL A   1      32.934  27.090  24.048  1.00  0.00     0.314 C 
ATOM      4  O   UNL A   1      33.525  27.071  22.972  1.00  0.00    -0.252 OA
BRANCH   3   5
ATOM      5  C   UNL A   1      31.799  26.127  24.384  1.00  0.00     0.090 C 
ATOM      6  N   UNL A   1      31.436  23.746  24.876  1.00  0.00    -0.355 N 
ATOM      7  C   UNL A   1      30.781  23.944  26.166  1.00  0.00     0.118 C 
ATOM      8  C   UNL A   1      32.454  24.734  24.531  1.00  0.00     0.137 C 
ATOM      9  C   UNL A   1      30.145  25.337  26.195  1.00  0.00     0.023 C 
ATOM     10  C   UNL A   1      31.100  26.446  25.728  1.00  0.00     0.023 C 
BRANCH   6  11
ATOM     11  C   UNL A   1      31.766  22.430  24.552  1.00  0.00     0.134 A 
ATOM     12  C   UNL A   1      32.515  20.345  25.140  1.00  0.00     0.221 A 
ATOM     13  N   UNL A   1      32.592  19.928  23.873  1.00  0.00    -0.222 NA
ATOM     14  N   UNL A   1      32.129  21.569  25.522  1.00  0.00    -0.196 NA
ATOM     15  C   UNL A   1      32.230  20.812  22.931  1.00  0.00     0.119 A 
ATOM     16  C   UNL A   1      31.789  22.078  23.219  1.00  0.00     0.067 A 
BRANCH  12  17
ATOM     17  N   UNL A   1      32.851  19.440  26.105  1.00  0.00    -0.368 N 
ATOM     18  H   UNL A   1      33.267  18.584  25.854  1.00  0.00     0.159 HD
ATOM     19  H   UNL A   1      32.676  19.643  27.052  1.00  0.00     0.159 HD
ENDBRANCH  12  17
ENDBRANCH   6  11
BRANCH   5  20
ATOM     20  C   UNL A   1      30.838  26.097  23.160  1.00  0.00     0.059 C 
BRANCH  20  21
ATOM     21  C   UNL A   1      29.929  27.293  22.997  1.00  0.00    -0.011 A 
ATOM     22  C   UNL A   1      30.397  28.478  22.408  1.00  0.00     0.010 A 
ATOM     23  C   UNL A   1      28.595  27.239  23.421  1.00  0.00     0.129 A 
ATOM     24  C   UNL A   1      29.556  29.586  22.290  1.00  0.00     0.040 A 
ATOM     25  C   UNL A   1      27.748  28.333  23.296  1.00  0.00     0.078 A 
ATOM     26  F   UNL A   1      28.108  26.112  23.956  1.00  0.00    -0.207 F 
ATOM     27  C   UNL A   1      28.242  29.502  22.737  1.00  0.00     0.126 A 
ATOM     28  F   UNL A   1      27.439  30.567  22.620  1.00  0.00    -0.207 F 
ENDBRANCH  20  21
ENDBRANCH   5  20
ENDBRANCH   3   5
ENDBRANCH   2   3
ENDBRANCH   1   2
BRANCH   1  29
ATOM     29  C   UNL A   1      31.904  30.079  25.443  1.00  0.00     0.275 C 
BRANCH  29  30
ATOM     30  O   UNL A   1      32.352  30.195  26.803  1.00  0.00    -0.458 OA
BRANCH  30  31
ATOM     31  C   UNL A   1      32.974  31.353  27.121  1.00  0.00     0.338 C 
ATOM     32  O   UNL A   1      32.525  32.483  27.032  1.00  0.00    -0.246 OA
BRANCH  31  33
ATOM     33  C   UNL A   1      34.323  31.064  27.648  1.00  0.00     0.060 A 
ATOM     34  C   UNL A   1      34.698  29.756  27.949  1.00  0.00     0.016 A 
ATOM     35  C   UNL A   1      35.179  32.118  27.962  1.00  0.00     0.016 A 
ATOM     36  C   UNL A   1      35.867  29.504  28.663  1.00  0.00     0.010 A 
ATOM     37  C   UNL A   1      36.407  31.853  28.577  1.00  0.00     0.010 A 
ATOM     38  C   UNL A   1      36.748  30.547  28.975  1.00  0.00    -0.014 A 
BRANCH  38  39
ATOM     39  C   UNL A   1      37.993  30.299  29.758  1.00  0.00     0.031 A 
ATOM     40  C   UNL A   1      39.111  29.489  29.152  1.00  0.00     0.074 A 
ATOM     41  C   UNL A   1      38.146  30.793  31.003  1.00  0.00     0.049 A 
ATOM     42  N   UNL A   1      40.148  28.941  29.735  1.00  0.00    -0.248 NA
ATOM     43  C   UNL A   1      39.044  29.251  27.702  1.00  0.00     0.031 C 
ATOM     44  C   UNL A   1      37.188  31.646  31.705  1.00  0.00     0.029 A 
ATOM     45  N   UNL A   1      39.179  30.653  31.900  1.00  0.00    -0.354 N 
ATOM     46  C   UNL A   1      40.810  28.233  28.740  1.00  0.00     0.074 A 
ATOM     47  C   UNL A   1      40.072  28.434  27.512  1.00  0.00     0.031 C 
ATOM     48  C   UNL A   1      37.695  31.992  32.898  1.00  0.00     0.029 A 
ATOM     49  C   UNL A   1      38.967  31.305  33.089  1.00  0.00     0.049 A 
ATOM     50  H   UNL A   1      39.994  30.135  31.706  1.00  0.00     0.167 HD
ATOM     51  C   UNL A   1      41.928  27.477  28.847  1.00  0.00     0.037 A 
ATOM     52  C   UNL A   1      39.688  31.314  34.228  1.00  0.00     0.037 A 
ATOM     53  C   UNL A   1      42.707  27.343  30.050  1.00  0.00     0.049 A 
ATOM     54  C   UNL A   1      40.927  30.470  34.326  1.00  0.00     0.074 A 
ATOM     55  C   UNL A   1      43.848  26.587  30.260  1.00  0.00     0.029 A 
ATOM     56  N   UNL A   1      42.445  28.012  31.235  1.00  0.00    -0.354 N 
ATOM     57  N   UNL A   1      41.475  29.703  33.417  1.00  0.00    -0.248 NA
ATOM     58  C   UNL A   1      41.626  30.464  35.619  1.00  0.00     0.031 C 
ATOM     59  C   UNL A   1      44.269  26.789  31.579  1.00  0.00     0.029 A 
ATOM     60  C   UNL A   1      43.406  27.692  32.178  1.00  0.00     0.049 A 
ATOM     61  H   UNL A   1      41.687  28.622  31.383  1.00  0.00     0.167 HD
ATOM     62  C   UNL A   1      42.578  29.122  34.026  1.00  0.00     0.074 A 
ATOM     63  C   UNL A   1      42.638  29.642  35.375  1.00  0.00     0.031 C 
ATOM     64  C   UNL A   1      43.454  28.224  33.513  1.00  0.00     0.037 A 
BRANCH  51  65
ATOM     65  C   UNL A   1      42.372  26.706  27.641  1.00  0.00     0.064 A 
ATOM     66  C   UNL A   1      41.875  25.412  27.414  1.00  0.00     0.173 A 
ATOM     67  C   UNL A   1      43.332  27.207  26.754  1.00  0.00     0.173 A 
ATOM     68  F   UNL A   1      40.957  24.887  28.240  1.00  0.00    -0.203 F 
ATOM     69  C   UNL A   1      42.337  24.643  26.350  1.00  0.00     0.198 A 
ATOM     70  C   UNL A   1      43.776  26.443  25.677  1.00  0.00     0.198 A 
ATOM     71  F   UNL A   1      43.826  28.443  26.921  1.00  0.00    -0.203 F 
ATOM     72  F   UNL A   1      41.869  23.400  26.170  1.00  0.00    -0.200 F 
ATOM     73  C   UNL A   1      43.285  25.160  25.481  1.00  0.00     0.200 A 
ATOM     74  F   UNL A   1      44.678  26.950  24.825  1.00  0.00    -0.200 F 
ATOM     75  F   UNL A   1      43.726  24.422  24.453  1.00  0.00    -0.200 F 
ENDBRANCH  51  65
BRANCH  52  76
ATOM     76  C   UNL A   1      39.224  32.125  35.382  1.00  0.00     0.064 A 
ATOM     77  C   UNL A   1      39.570  33.478  35.513  1.00  0.00     0.173 A 
ATOM     78  C   UNL A   1      38.445  31.548  36.394  1.00  0.00     0.173 A 
ATOM     79  F   UNL A   1      40.310  34.075  34.568  1.00  0.00    -0.203 F 
ATOM     80  C   UNL A   1      39.177  34.216  36.627  1.00  0.00     0.198 A 
ATOM     81  C   UNL A   1      38.030  32.294  37.495  1.00  0.00     0.198 A 
ATOM     82  F   UNL A   1      38.066  30.264  36.297  1.00  0.00    -0.203 F 
ATOM     83  F   UNL A   1      39.551  35.497  36.744  1.00  0.00    -0.200 F 
ATOM     84  C   UNL A   1      38.406  33.625  37.616  1.00  0.00     0.200 A 
ATOM     85  F   UNL A   1      37.261  31.728  38.435  1.00  0.00    -0.200 F 
ATOM     86  F   UNL A   1      38.019  34.339  38.681  1.00  0.00    -0.200 F 
ENDBRANCH  52  76
BRANCH  64  87
ATOM     87  C   UNL A   1      44.561  27.754  34.405  1.00  0.00     0.064 A 
ATOM     88  C   UNL A   1      44.391  26.623  35.216  1.00  0.00     0.173 A 
ATOM     89  C   UNL A   1      45.763  28.467  34.506  1.00  0.00     0.173 A 
ATOM     90  F   UNL A   1      43.253  25.913  35.157  1.00  0.00    -0.203 F 
ATOM     91  C   UNL A   1      45.385  26.227  36.106  1.00  0.00     0.198 A 
ATOM     92  C   UNL A   1      46.762  28.057  35.384  1.00  0.00     0.198 A 
ATOM     93  F   UNL A   1      45.974  29.547  33.740  1.00  0.00    -0.203 F 
ATOM     94  F   UNL A   1      45.194  25.155  36.887  1.00  0.00    -0.200 F 
ATOM     95  C   UNL A   1      46.570  26.943  36.188  1.00  0.00     0.200 A 
ATOM     96  F   UNL A   1      47.914  28.740  35.451  1.00  0.00    -0.200 F 
ATOM     97  F   UNL A   1      47.529  26.557  37.041  1.00  0.00    -0.200 F 
ENDBRANCH  64  87
ENDBRANCH  38  39
ENDBRANCH  31  33
ENDBRANCH  30  31
ENDBRANCH  29  30
ENDBRANCH   1  29
TORSDOF 15
ENDMDL
MODEL 2
REMARK VINA RESULT:     -13.0      4.394      9.753
REMARK SMILES Nc1nccc(N2CCC[C@@](Cc3ccc(F)cc3F)(C(=O)OCCOC(=O)c3ccc(-c4c5nc(c(-c6c(F)c(F)c(F)c(F)c6F)c6ccc([nH]6)c(-c6c(F)c(F)c(F)c(F)c6F)c6nc(c(-c7c(F)c(F)c(F)c(F)c7F)c7ccc4[nH]7)C=C6)C=C5)cc3)C2)n1
REMARK SMILES IDX 24 1 23 2 21 3 22 4 11 5 7 6 8 7 92 8 9 9 10 10 6 11 2 12
REMARK SMILES IDX 3 13 93 14 4 15 5 16 1 17 12 20 13 21 14 22 19 23 15 24
REMARK SMILES IDX 18 25 20 26 16 27 17 28 25 29 26 30 27 31 28 32 29 33 30 34
REMARK SMILES IDX 91 35 31 36 90 37 32 38 33 39 34 40 84 41 35 42 89 43 83 44
REMARK SMILES IDX 85 45 36 46 88 47 82 48 81 49 37 51 69 52 49 53 68 54 50 55
REMARK SMILES IDX 53 56 67 57 86 58 51 59 52 60 66 62 87 63 54 64 38 65 39 66
REMARK SMILES IDX 47 67 40 68 41 69 45 70 48 71 42 72 43 73 46 74 44 75 70 76
REMARK SMILES IDX 71 77 79 78 72 79 73 80 77 81 80 82 74 83 75 84 78 85 76 86
REMARK SMILES IDX 55 87 56 88 64 89 57 90 58 91 62 92 65 93 59 94 60 95 63 96
REMARK SMILES IDX 61 97
REMARK H PARENT 1 18 1 19 85 50 53 61
REMARK Flexibility Score: inf
ROOT
ATOM      1  C   UNL A   1      35.490  21.837  26.352  1.00  0.00     0.274 C 
ENDROOT
BRANCH   1   2
ATOM      2  O   UNL A   1      35.073  23.085  25.757  1.00  0.00    -0.462 OA
BRANCH   2   3
ATOM      3  C   UNL A   1      33.739  23.350  25.800  1.00  0.00     0.314 C 
ATOM      4  O   UNL A   1      33.081  23.392  26.835  1.00  0.00    -0.252 OA
BRANCH   3   5
ATOM      5  C   UNL A   1      33.111  23.484  24.415  1.00  0.00     0.090 C 
ATOM      6  N   UNL A   1      32.019  25.173  23.001  1.00  0.00    -0.355 N 
ATOM      7  C   UNL A   1      32.926  25.046  21.865  1.00  0.00     0.118 C 
ATOM      8  C   UNL A   1      32.621  24.948  24.313  1.00  0.00     0.137 C 
ATOM      9  C   UNL A   1      33.558  23.651  21.883  1.00  0.00     0.023 C 
ATOM     10  C   UNL A   1      34.117  23.259  23.260  1.00  0.00     0.023 C 
BRANCH   6  11
ATOM     11  C   UNL A   1      31.116  26.235  22.948  1.00  0.00     0.134 A 
ATOM     12  C   UNL A   1      30.598  28.406  22.427  1.00  0.00     0.221 A 
ATOM     13  N   UNL A   1      29.407  28.351  23.031  1.00  0.00    -0.222 NA
ATOM     14  N   UNL A   1      31.477  27.398  22.373  1.00  0.00    -0.196 NA
ATOM     15  C   UNL A   1      29.081  27.180  23.600  1.00  0.00     0.119 A 
ATOM     16  C   UNL A   1      29.895  26.079  23.572  1.00  0.00     0.067 A 
BRANCH  12  17
ATOM     17  N   UNL A   1      30.922  29.583  21.818  1.00  0.00    -0.368 N 
ATOM     18  H   UNL A   1      30.586  29.779  20.914  1.00  0.00     0.159 HD
ATOM     19  H   UNL A   1      31.494  30.237  22.282  1.00  0.00     0.159 HD
ENDBRANCH  12  17
ENDBRANCH   6  11
BRANCH   5  20
ATOM     20  C   UNL A   1      31.873  22.542  24.373  1.00  0.00     0.059 C 
BRANCH  20  21
ATOM     21  C   UNL A   1      32.165  21.067  24.215  1.00  0.00    -0.011 A 
ATOM     22  C   UNL A   1      32.543  20.285  25.317  1.00  0.00     0.010 A 
ATOM     23  C   UNL A   1      32.051  20.448  22.963  1.00  0.00     0.129 A 
ATOM     24  C   UNL A   1      32.838  18.931  25.151  1.00  0.00     0.040 A 
ATOM     25  C   UNL A   1      32.331  19.098  22.793  1.00  0.00     0.078 A 
ATOM     26  F   UNL A   1      31.660  21.159  21.897  1.00  0.00    -0.207 F 
ATOM     27  C   UNL A   1      32.731  18.353  23.892  1.00  0.00     0.126 A 
ATOM     28  F   UNL A   1      33.013  17.052  23.739  1.00  0.00    -0.207 F 
ENDBRANCH  20  21
ENDBRANCH   5  20
ENDBRANCH   3   5
ENDBRANCH   2   3
ENDBRANCH   1   2
BRANCH   1  29
ATOM     29  C   UNL A   1      36.273  20.995  25.351  1.00  0.00     0.275 C 
BRANCH  29  30
ATOM     30  O   UNL A   1      37.491  21.679  25.017  1.00  0.00    -0.458 OA
BRANCH  30  31
ATOM     31  C   UNL A   1      38.587  21.303  25.714  1.00  0.00     0.338 C 
ATOM     32  O   UNL A   1      39.050  20.180  25.817  1.00  0.00    -0.246 OA
BRANCH  31  33
ATOM     33  C   UNL A   1      39.208  22.487  26.341  1.00  0.00     0.060 A 
ATOM     34  C   UNL A   1      38.692  23.760  26.109  1.00  0.00     0.016 A 
ATOM     35  C   UNL A   1      40.389  22.341  27.067  1.00  0.00     0.016 A 
ATOM     36  C   UNL A   1      39.405  24.892  26.497  1.00  0.00     0.010 A 
ATOM     37  C   UNL A   1      41.045  23.475  27.557  1.00  0.00     0.010 A 
ATOM     38  C   UNL A   1      40.587  24.768  27.240  1.00  0.00    -0.014 A 
BRANCH  38  39
ATOM     39  C   UNL A   1      41.375  25.968  27.645  1.00  0.00     0.031 A 
ATOM     40  C   UNL A   1      40.751  27.008  28.540  1.00  0.00     0.074 A 
ATOM     41  C   UNL A   1      42.646  26.141  27.232  1.00  0.00     0.049 A 
ATOM     42  N   UNL A   1      41.151  28.228  28.797  1.00  0.00    -0.248 NA
ATOM     43  C   UNL A   1      39.503  26.630  29.223  1.00  0.00     0.031 C 
ATOM     44  C   UNL A   1      43.413  25.198  26.417  1.00  0.00     0.029 A 
ATOM     45  N   UNL A   1      43.525  27.175  27.452  1.00  0.00    -0.354 N 
ATOM     46  C   UNL A   1      40.168  28.785  29.605  1.00  0.00     0.074 A 
ATOM     47  C   UNL A   1      39.161  27.768  29.814  1.00  0.00     0.031 C 
ATOM     48  C   UNL A   1      44.657  25.672  26.247  1.00  0.00     0.029 A 
ATOM     49  C   UNL A   1      44.746  26.996  26.851  1.00  0.00     0.049 A 
ATOM     50  H   UNL A   1      43.299  27.968  27.989  1.00  0.00     0.167 HD
ATOM     51  C   UNL A   1      40.110  30.037  30.118  1.00  0.00     0.037 A 
ATOM     52  C   UNL A   1      45.808  27.821  26.753  1.00  0.00     0.037 A 
ATOM     53  C   UNL A   1      41.149  31.023  29.977  1.00  0.00     0.049 A 
ATOM     54  C   UNL A   1      45.724  29.205  27.330  1.00  0.00     0.074 A 
ATOM     55  C   UNL A   1      41.175  32.324  30.448  1.00  0.00     0.029 A 
ATOM     56  N   UNL A   1      42.364  30.800  29.347  1.00  0.00    -0.354 N 
ATOM     57  N   UNL A   1      44.739  29.767  27.984  1.00  0.00    -0.248 NA
ATOM     58  C   UNL A   1      46.886  30.082  27.124  1.00  0.00     0.031 C 
ATOM     59  C   UNL A   1      42.403  32.895  30.092  1.00  0.00     0.029 A 
ATOM     60  C   UNL A   1      43.149  31.937  29.424  1.00  0.00     0.049 A 
ATOM     61  H   UNL A   1      42.628  29.959  28.910  1.00  0.00     0.167 HD
ATOM     62  C   UNL A   1      45.156  31.060  28.265  1.00  0.00     0.074 A 
ATOM     63  C   UNL A   1      46.496  31.195  27.731  1.00  0.00     0.031 C 
ATOM     64  C   UNL A   1      44.481  32.052  28.895  1.00  0.00     0.037 A 
BRANCH  51  65
ATOM     65  C   UNL A   1      38.870  30.436  30.859  1.00  0.00     0.064 A 
ATOM     66  C   UNL A   1      37.773  30.963  30.158  1.00  0.00     0.173 A 
ATOM     67  C   UNL A   1      38.788  30.366  32.255  1.00  0.00     0.173 A 
ATOM     68  F   UNL A   1      37.807  31.054  28.820  1.00  0.00    -0.203 F 
ATOM     69  C   UNL A   1      36.644  31.419  30.832  1.00  0.00     0.198 A 
ATOM     70  C   UNL A   1      37.648  30.803  32.925  1.00  0.00     0.198 A 
ATOM     71  F   UNL A   1      39.804  29.857  32.966  1.00  0.00    -0.203 F 
ATOM     72  F   UNL A   1      35.621  31.945  30.144  1.00  0.00    -0.200 F 
ATOM     73  C   UNL A   1      36.582  31.337  32.215  1.00  0.00     0.200 A 
ATOM     74  F   UNL A   1      37.578  30.706  34.260  1.00  0.00    -0.200 F 
ATOM     75  F   UNL A   1      35.492  31.772  32.864  1.00  0.00    -0.200 F 
ENDBRANCH  51  65
BRANCH  52  76
ATOM     76  C   UNL A   1      47.027  27.365  26.039  1.00  0.00     0.064 A 
ATOM     77  C   UNL A   1      48.085  26.744  26.720  1.00  0.00     0.173 A 
ATOM     78  C   UNL A   1      47.166  27.568  24.660  1.00  0.00     0.173 A 
ATOM     79  F   UNL A   1      47.997  26.525  28.040  1.00  0.00    -0.203 F 
ATOM     80  C   UNL A   1      49.248  26.369  26.052  1.00  0.00     0.198 A 
ATOM     81  C   UNL A   1      48.320  27.168  23.988  1.00  0.00     0.198 A 
ATOM     82  F   UNL A   1      46.168  28.131  23.963  1.00  0.00    -0.203 F 
ATOM     83  F   UNL A   1      50.258  25.811  26.733  1.00  0.00    -0.200 F 
ATOM     84  C   UNL A   1      49.364  26.580  24.687  1.00  0.00     0.200 A 
ATOM     85  F   UNL A   1      48.417  27.346  22.664  1.00  0.00    -0.200 F 
ATOM     86  F   UNL A   1      50.479  26.208  24.043  1.00  0.00    -0.200 F 
ENDBRANCH  52  76
BRANCH  64  87
ATOM     87  C   UNL A   1      45.179  33.366  29.057  1.00  0.00     0.064 A 
ATOM     88  C   UNL A   1      45.958  33.623  30.193  1.00  0.00     0.173 A 
ATOM     89  C   UNL A   1      45.018  34.393  28.118  1.00  0.00     0.173 A 
ATOM     90  F   UNL A   1      46.135  32.670  31.122  1.00  0.00    -0.203 F 
ATOM     91  C   UNL A   1      46.544  34.870  30.390  1.00  0.00     0.198 A 
ATOM     92  C   UNL A   1      45.621  35.634  28.309  1.00  0.00     0.198 A 
ATOM     93  F   UNL A   1      44.292  34.187  27.009  1.00  0.00    -0.203 F 
ATOM     94  F   UNL A   1      47.268  35.103  31.494  1.00  0.00    -0.200 F 
ATOM     95  C   UNL A   1      46.377  35.873  29.447  1.00  0.00     0.200 A 
ATOM     96  F   UNL A   1      45.472  36.598  27.388  1.00  0.00    -0.200 F 
ATOM     97  F   UNL A   1      46.947  37.072  29.634  1.00  0.00    -0.200 F 
ENDBRANCH  64  87
ENDBRANCH  38  39
ENDBRANCH  31  33
ENDBRANCH  30  31
ENDBRANCH  29  30
ENDBRANCH   1  29
TORSDOF 15
ENDMDL
MODEL 3
REMARK VINA RESULT:     -12.9      4.559      9.850
REMARK SMILES Nc1nccc(N2CCC[C@@](Cc3ccc(F)cc3F)(C(=O)OCCOC(=O)c3ccc(-c4c5nc(c(-c6c(F)c(F)c(F)c(F)c6F)c6ccc([nH]6)c(-c6c(F)c(F)c(F)c(F)c6F)c6nc(c(-c7c(F)c(F)c(F)c(F)c7F)c7ccc4[nH]7)C=C6)C=C5)cc3)C2)n1
REMARK SMILES IDX 24 1 23 2 21 3 22 4 11 5 7 6 8 7 92 8 9 9 10 10 6 11 2 12
REMARK SMILES IDX 3 13 93 14 4 15 5 16 1 17 12 20 13 21 14 22 19 23 15 24
REMARK SMILES IDX 18 25 20 26 16 27 17 28 25 29 26 30 27 31 28 32 29 33 30 34
REMARK SMILES IDX 91 35 31 36 90 37 32 38 33 39 34 40 84 41 35 42 89 43 83 44
REMARK SMILES IDX 85 45 36 46 88 47 82 48 81 49 37 51 69 52 49 53 68 54 50 55
REMARK SMILES IDX 53 56 67 57 86 58 51 59 52 60 66 62 87 63 54 64 38 65 39 66
REMARK SMILES IDX 47 67 40 68 41 69 45 70 48 71 42 72 43 73 46 74 44 75 70 76
REMARK SMILES IDX 71 77 79 78 72 79 73 80 77 81 80 82 74 83 75 84 78 85 76 86
REMARK SMILES IDX 55 87 56 88 64 89 57 90 58 91 62 92 65 93 59 94 60 95 63 96
REMARK SMILES IDX 61 97
REMARK H PARENT 1 18 1 19 85 50 53 61
REMARK Flexibility Score: inf
ROOT
ATOM      1  C   UNL A   1      35.725  21.454  26.126  1.00  0.00     0.274 C 
ENDROOT
BRANCH   1   2
ATOM      2  O   UNL A   1      35.203  22.732  25.702  1.00  0.00    -0.462 OA
BRANCH   2   3
ATOM      3  C   UNL A   1      33.853  22.882  25.779  1.00  0.00     0.314 C 
ATOM      4  O   UNL A   1      33.213  22.802  26.823  1.00  0.00    -0.252 OA
BRANCH   3   5
ATOM      5  C   UNL A   1      33.190  23.051  24.414  1.00  0.00     0.090 C 
ATOM      6  N   UNL A   1      32.019  24.760  23.092  1.00  0.00    -0.355 N 
ATOM      7  C   UNL A   1      32.903  24.704  21.932  1.00  0.00     0.118 C 
ATOM      8  C   UNL A   1      32.656  24.502  24.380  1.00  0.00     0.137 C 
ATOM      9  C   UNL A   1      33.576  23.329  21.882  1.00  0.00     0.023 C 
ATOM     10  C   UNL A   1      34.176  22.901  23.230  1.00  0.00     0.023 C 
BRANCH   6  11
ATOM     11  C   UNL A   1      31.084  25.796  23.100  1.00  0.00     0.134 A 
ATOM     12  C   UNL A   1      30.473  27.953  22.623  1.00  0.00     0.221 A 
ATOM     13  N   UNL A   1      29.324  27.862  23.299  1.00  0.00    -0.222 NA
ATOM     14  N   UNL A   1      31.376  26.971  22.510  1.00  0.00    -0.196 NA
ATOM     15  C   UNL A   1      29.067  26.681  23.881  1.00  0.00     0.119 A 
ATOM     16  C   UNL A   1      29.909  25.603  23.797  1.00  0.00     0.067 A 
BRANCH  12  17
ATOM     17  N   UNL A   1      30.726  29.141  22.001  1.00  0.00    -0.368 N 
ATOM     18  H   UNL A   1      30.530  29.246  21.042  1.00  0.00     0.159 HD
ATOM     19  H   UNL A   1      31.106  29.893  22.511  1.00  0.00     0.159 HD
ENDBRANCH  12  17
ENDBRANCH   6  11
BRANCH   5  20
ATOM     20  C   UNL A   1      31.980  22.074  24.361  1.00  0.00     0.059 C 
BRANCH  20  21
ATOM     21  C   UNL A   1      32.308  20.620  24.108  1.00  0.00    -0.011 A 
ATOM     22  C   UNL A   1      32.763  19.793  25.146  1.00  0.00     0.010 A 
ATOM     23  C   UNL A   1      32.153  20.066  22.830  1.00  0.00     0.129 A 
ATOM     24  C   UNL A   1      33.090  18.460  24.892  1.00  0.00     0.040 A 
ATOM     25  C   UNL A   1      32.465  18.738  22.572  1.00  0.00     0.078 A 
ATOM     26  F   UNL A   1      31.689  20.821  21.825  1.00  0.00    -0.207 F 
ATOM     27  C   UNL A   1      32.940  17.948  23.608  1.00  0.00     0.126 A 
ATOM     28  F   UNL A   1      33.254  16.668  23.370  1.00  0.00    -0.207 F 
ENDBRANCH  20  21
ENDBRANCH   5  20
ENDBRANCH   3   5
ENDBRANCH   2   3
ENDBRANCH   1   2
BRANCH   1  29
ATOM     29  C   UNL A   1      36.757  20.934  25.132  1.00  0.00     0.275 C 
BRANCH  29  30
ATOM     30  O   UNL A   1      37.891  21.816  25.131  1.00  0.00    -0.458 OA
BRANCH  30  31
ATOM     31  C   UNL A   1      38.886  21.495  25.989  1.00  0.00     0.338 C 
ATOM     32  O   UNL A   1      39.294  20.380  26.266  1.00  0.00    -0.246 OA
BRANCH  31  33
ATOM     33  C   UNL A   1      39.473  22.727  26.553  1.00  0.00     0.060 A 
ATOM     34  C   UNL A   1      39.001  23.978  26.158  1.00  0.00     0.016 A 
ATOM     35  C   UNL A   1      40.585  22.640  27.389  1.00  0.00     0.016 A 
ATOM     36  C   UNL A   1      39.700  25.135  26.498  1.00  0.00     0.010 A 
ATOM     37  C   UNL A   1      41.218  23.809  27.824  1.00  0.00     0.010 A 
ATOM     38  C   UNL A   1      40.811  25.070  27.349  1.00  0.00    -0.014 A 
BRANCH  38  39
ATOM     39  C   UNL A   1      41.583  26.295  27.706  1.00  0.00     0.031 A 
ATOM     40  C   UNL A   1      40.952  27.353  28.574  1.00  0.00     0.074 A 
ATOM     41  C   UNL A   1      42.847  26.475  27.272  1.00  0.00     0.049 A 
ATOM     42  N   UNL A   1      41.335  28.587  28.787  1.00  0.00    -0.248 NA
ATOM     43  C   UNL A   1      39.719  26.977  29.284  1.00  0.00     0.031 C 
ATOM     44  C   UNL A   1      43.620  25.520  26.478  1.00  0.00     0.029 A 
ATOM     45  N   UNL A   1      43.711  27.531  27.448  1.00  0.00    -0.354 N 
ATOM     46  C   UNL A   1      40.352  29.154  29.589  1.00  0.00     0.074 A 
ATOM     47  C   UNL A   1      39.365  28.127  29.842  1.00  0.00     0.031 C 
ATOM     48  C   UNL A   1      44.854  26.008  26.278  1.00  0.00     0.029 A 
ATOM     49  C   UNL A   1      44.928  27.352  26.839  1.00  0.00     0.049 A 
ATOM     50  H   UNL A   1      43.477  28.337  27.962  1.00  0.00     0.167 HD
ATOM     51  C   UNL A   1      40.279  30.421  30.062  1.00  0.00     0.037 A 
ATOM     52  C   UNL A   1      45.974  28.191  26.701  1.00  0.00     0.037 A 
ATOM     53  C   UNL A   1      41.300  31.418  29.877  1.00  0.00     0.049 A 
ATOM     54  C   UNL A   1      45.874  29.592  27.235  1.00  0.00     0.074 A 
ATOM     55  C   UNL A   1      41.310  32.734  30.306  1.00  0.00     0.029 A 
ATOM     56  N   UNL A   1      42.511  31.195  29.240  1.00  0.00    -0.354 N 
ATOM     57  N   UNL A   1      44.887  30.158  27.882  1.00  0.00    -0.248 NA
ATOM     58  C   UNL A   1      47.018  30.480  26.986  1.00  0.00     0.031 C 
ATOM     59  C   UNL A   1      42.523  33.313  29.917  1.00  0.00     0.029 A 
ATOM     60  C   UNL A   1      43.278  32.347  29.271  1.00  0.00     0.049 A 
ATOM     61  H   UNL A   1      42.784  30.345  28.827  1.00  0.00     0.167 HD
ATOM     62  C   UNL A   1      45.286  31.466  28.116  1.00  0.00     0.074 A 
ATOM     63  C   UNL A   1      46.616  31.606  27.562  1.00  0.00     0.031 C 
ATOM     64  C   UNL A   1      44.602  32.466  28.722  1.00  0.00     0.037 A 
BRANCH  51  65
ATOM     65  C   UNL A   1      39.041  30.822  30.805  1.00  0.00     0.064 A 
ATOM     66  C   UNL A   1      38.975  30.657  32.198  1.00  0.00     0.173 A 
ATOM     67  C   UNL A   1      37.903  31.300  30.144  1.00  0.00     0.173 A 
ATOM     68  F   UNL A   1      40.038  30.198  32.875  1.00  0.00    -0.203 F 
ATOM     69  C   UNL A   1      37.807  30.942  32.898  1.00  0.00     0.198 A 
ATOM     70  C   UNL A   1      36.743  31.605  30.851  1.00  0.00     0.198 A 
ATOM     71  F   UNL A   1      37.923  31.487  28.816  1.00  0.00    -0.203 F 
ATOM     72  F   UNL A   1      37.758  30.749  34.224  1.00  0.00    -0.200 F 
ATOM     73  C   UNL A   1      36.693  31.417  32.225  1.00  0.00     0.200 A 
ATOM     74  F   UNL A   1      35.671  32.083  30.203  1.00  0.00    -0.200 F 
ATOM     75  F   UNL A   1      35.569  31.696  32.901  1.00  0.00    -0.200 F 
ENDBRANCH  51  65
BRANCH  52  76
ATOM     76  C   UNL A   1      47.193  27.732  25.988  1.00  0.00     0.064 A 
ATOM     77  C   UNL A   1      47.269  27.745  24.587  1.00  0.00     0.173 A 
ATOM     78  C   UNL A   1      48.297  27.244  26.699  1.00  0.00     0.173 A 
ATOM     79  F   UNL A   1      46.240  28.207  23.863  1.00  0.00    -0.203 F 
ATOM     80  C   UNL A   1      48.394  27.261  23.924  1.00  0.00     0.198 A 
ATOM     81  C   UNL A   1      49.432  26.785  26.035  1.00  0.00     0.198 A 
ATOM     82  F   UNL A   1      48.280  27.239  28.040  1.00  0.00    -0.203 F 
ATOM     83  F   UNL A   1      48.427  27.252  22.585  1.00  0.00    -0.200 F 
ATOM     84  C   UNL A   1      49.476  26.783  24.648  1.00  0.00     0.200 A 
ATOM     85  F   UNL A   1      50.487  26.350  26.738  1.00  0.00    -0.200 F 
ATOM     86  F   UNL A   1      50.562  26.328  24.010  1.00  0.00    -0.200 F 
ENDBRANCH  52  76
BRANCH  64  87
ATOM     87  C   UNL A   1      45.279  33.796  28.834  1.00  0.00     0.064 A 
ATOM     88  C   UNL A   1      45.131  34.758  27.825  1.00  0.00     0.173 A 
ATOM     89  C   UNL A   1      46.130  34.089  29.908  1.00  0.00     0.173 A 
ATOM     90  F   UNL A   1      44.331  34.519  26.774  1.00  0.00    -0.203 F 
ATOM     91  C   UNL A   1      45.821  35.965  27.883  1.00  0.00     0.198 A 
ATOM     92  C   UNL A   1      46.805  35.305  29.972  1.00  0.00     0.198 A 
ATOM     93  F   UNL A   1      46.291  33.203  30.902  1.00  0.00    -0.203 F 
ATOM     94  F   UNL A   1      45.682  36.863  26.897  1.00  0.00    -0.200 F 
ATOM     95  C   UNL A   1      46.656  36.238  28.956  1.00  0.00     0.200 A 
ATOM     96  F   UNL A   1      47.598  35.575  31.018  1.00  0.00    -0.200 F 
ATOM     97  F   UNL A   1      47.315  37.404  29.014  1.00  0.00    -0.200 F 
ENDBRANCH  64  87
ENDBRANCH  38  39
ENDBRANCH  31  33
ENDBRANCH  30  31
ENDBRANCH  29  30
ENDBRANCH   1  29
TORSDOF 15
ENDMDL
