MODEL 1
REMARK VINA RESULT:     -12.8      0.000      0.000
REMARK SMILES Cc1cc(F)ccc1S(=O)(=O)N1CCO[C@H](CC(=O)OCCOC(=O)c2ccc(-c3c4nc(c(-c5c(F)c(F)c(F)c(F)c5F)c5ccc([nH]5)c(-c5c(F)c(F)c(F)c(F)c5F)c5nc(c(-c6c(F)c(F)c(F)c(F)c6F)c6ccc3[nH]6)C=C5)C=C4)cc2)C1
REMARK SMILES IDX 21 1 20 2 18 3 19 4 17 5 16 6 12 7 13 8 89 9 14 10 15 11
REMARK SMILES IDX 9 12 10 13 11 14 8 15 1 16 2 17 3 18 4 19 7 20 5 21 6 22
REMARK SMILES IDX 22 23 23 24 24 25 25 26 26 27 27 28 88 29 28 30 87 31 29 32
REMARK SMILES IDX 30 33 31 34 81 35 32 36 86 37 80 38 82 39 33 40 85 41 79 42
REMARK SMILES IDX 78 43 34 45 66 46 46 47 65 48 47 49 50 50 64 51 83 52 48 53
REMARK SMILES IDX 49 54 63 56 84 57 51 58 35 59 36 60 44 61 37 62 38 63 42 64
REMARK SMILES IDX 45 65 39 66 40 67 43 68 41 69 67 70 68 71 76 72 69 73 70 74
REMARK SMILES IDX 74 75 77 76 71 77 72 78 75 79 73 80 52 81 53 82 61 83 54 84
REMARK SMILES IDX 55 85 59 86 62 87 56 88 57 89 60 90 58 91
REMARK H PARENT 82 44 50 55
REMARK Flexibility Score: inf
ROOT
ATOM      1  C   UNL A   1      33.909  29.845  27.317  1.00  0.00     0.274 C 
ENDROOT
BRANCH   1   2
ATOM      2  O   UNL A   1      32.466  29.739  27.352  1.00  0.00    -0.462 OA
BRANCH   2   3
ATOM      3  C   UNL A   1      31.973  28.494  27.124  1.00  0.00     0.308 C 
ATOM      4  O   UNL A   1      31.265  27.877  27.918  1.00  0.00    -0.252 OA
BRANCH   3   5
ATOM      5  C   UNL A   1      32.380  27.869  25.806  1.00  0.00     0.156 C 
BRANCH   5   6
ATOM      6  C   UNL A   1      31.906  28.473  24.475  1.00  0.00     0.144 C 
ATOM      7  N   UNL A   1      32.658  26.604  23.031  1.00  0.00    -0.193 NA
ATOM      8  C   UNL A   1      33.650  27.464  22.353  1.00  0.00     0.131 C 
ATOM      9  C   UNL A   1      31.477  27.382  23.461  1.00  0.00     0.135 C 
ATOM     10  C   UNL A   1      34.026  28.625  23.295  1.00  0.00     0.177 C 
ATOM     11  O   UNL A   1      32.898  29.329  23.847  1.00  0.00    -0.375 OA
BRANCH   7  12
ATOM     12  S   UNL A   1      32.437  25.019  22.515  1.00  0.00     0.243 S 
ATOM     13  O   UNL A   1      33.048  24.856  21.213  1.00  0.00    -0.207 OA
ATOM     14  O   UNL A   1      31.051  24.678  22.750  1.00  0.00    -0.207 OA
BRANCH  12  15
ATOM     15  C   UNL A   1      33.432  24.051  23.657  1.00  0.00     0.085 A 
ATOM     16  C   UNL A   1      32.522  21.762  22.878  1.00  0.00     0.046 C 
ATOM     17  C   UNL A   1      33.442  22.639  23.673  1.00  0.00    -0.028 A 
ATOM     18  C   UNL A   1      34.314  21.988  24.565  1.00  0.00     0.044 A 
ATOM     19  C   UNL A   1      35.083  22.713  25.465  1.00  0.00     0.123 A 
ATOM     20  C   UNL A   1      34.213  24.772  24.580  1.00  0.00     0.025 A 
ATOM     21  F   UNL A   1      35.870  22.062  26.330  1.00  0.00    -0.207 F 
ATOM     22  C   UNL A   1      35.020  24.098  25.498  1.00  0.00     0.040 A 
ENDBRANCH  12  15
ENDBRANCH   7  12
ENDBRANCH   5   6
ENDBRANCH   3   5
ENDBRANCH   2   3
ENDBRANCH   1   2
BRANCH   1  23
ATOM     23  C   UNL A   1      34.415  31.147  27.945  1.00  0.00     0.275 C 
BRANCH  23  24
ATOM     24  O   UNL A   1      35.779  31.492  27.631  1.00  0.00    -0.458 OA
BRANCH  24  25
ATOM     25  C   UNL A   1      36.689  31.097  28.545  1.00  0.00     0.338 C 
ATOM     26  O   UNL A   1      37.299  31.800  29.334  1.00  0.00    -0.246 OA
BRANCH  25  27
ATOM     27  C   UNL A   1      37.221  29.757  28.276  1.00  0.00     0.060 A 
ATOM     28  C   UNL A   1      37.368  28.967  29.430  1.00  0.00     0.016 A 
ATOM     29  C   UNL A   1      38.105  29.660  27.201  1.00  0.00     0.016 A 
ATOM     30  C   UNL A   1      38.575  28.334  29.645  1.00  0.00     0.010 A 
ATOM     31  C   UNL A   1      39.301  29.016  27.414  1.00  0.00     0.010 A 
ATOM     32  C   UNL A   1      39.563  28.450  28.667  1.00  0.00    -0.014 A 
BRANCH  32  33
ATOM     33  C   UNL A   1      40.863  27.832  28.821  1.00  0.00     0.031 A 
ATOM     34  C   UNL A   1      40.916  26.385  28.568  1.00  0.00     0.074 A 
ATOM     35  C   UNL A   1      41.956  28.571  29.105  1.00  0.00     0.049 A 
ATOM     36  N   UNL A   1      41.812  25.587  29.031  1.00  0.00    -0.248 NA
ATOM     37  C   UNL A   1      39.859  25.700  27.823  1.00  0.00     0.031 C 
ATOM     38  C   UNL A   1      43.346  28.170  28.961  1.00  0.00     0.029 A 
ATOM     39  N   UNL A   1      42.028  29.831  29.724  1.00  0.00    -0.354 N 
ATOM     40  C   UNL A   1      41.648  24.386  28.377  1.00  0.00     0.074 A 
ATOM     41  C   UNL A   1      40.334  24.456  27.789  1.00  0.00     0.031 C 
ATOM     42  C   UNL A   1      44.119  28.993  29.689  1.00  0.00     0.029 A 
ATOM     43  C   UNL A   1      43.240  29.846  30.467  1.00  0.00     0.049 A 
ATOM     44  H   UNL A   1      41.369  30.559  29.656  1.00  0.00     0.167 HD
ATOM     45  C   UNL A   1      42.732  23.570  28.241  1.00  0.00     0.037 A 
ATOM     46  C   UNL A   1      43.223  29.886  31.841  1.00  0.00     0.037 A 
ATOM     47  C   UNL A   1      43.869  24.111  28.993  1.00  0.00     0.049 A 
ATOM     48  C   UNL A   1      43.642  28.595  32.503  1.00  0.00     0.074 A 
ATOM     49  C   UNL A   1      44.960  24.892  28.642  1.00  0.00     0.029 A 
ATOM     50  N   UNL A   1      43.772  24.196  30.370  1.00  0.00    -0.354 N 
ATOM     51  N   UNL A   1      43.983  27.522  31.849  1.00  0.00    -0.248 NA
ATOM     52  C   UNL A   1      43.622  28.390  33.950  1.00  0.00     0.031 C 
ATOM     53  C   UNL A   1      45.489  25.476  29.831  1.00  0.00     0.029 A 
ATOM     54  C   UNL A   1      44.736  25.034  30.902  1.00  0.00     0.049 A 
ATOM     55  H   UNL A   1      43.100  23.717  30.907  1.00  0.00     0.167 HD
ATOM     56  C   UNL A   1      44.259  26.521  32.731  1.00  0.00     0.074 A 
ATOM     57  C   UNL A   1      43.983  27.098  34.036  1.00  0.00     0.031 C 
ATOM     58  C   UNL A   1      44.712  25.300  32.331  1.00  0.00     0.037 A 
BRANCH  45  59
ATOM     59  C   UNL A   1      42.857  22.504  27.170  1.00  0.00     0.064 A 
ATOM     60  C   UNL A   1      42.097  21.319  27.265  1.00  0.00     0.173 A 
ATOM     61  C   UNL A   1      43.748  22.535  26.078  1.00  0.00     0.173 A 
ATOM     62  F   UNL A   1      41.120  21.186  28.171  1.00  0.00    -0.203 F 
ATOM     63  C   UNL A   1      42.307  20.218  26.429  1.00  0.00     0.198 A 
ATOM     64  C   UNL A   1      43.994  21.418  25.271  1.00  0.00     0.198 A 
ATOM     65  F   UNL A   1      44.368  23.658  25.705  1.00  0.00    -0.203 F 
ATOM     66  F   UNL A   1      41.563  19.116  26.586  1.00  0.00    -0.200 F 
ATOM     67  C   UNL A   1      43.284  20.254  25.456  1.00  0.00     0.200 A 
ATOM     68  F   UNL A   1      44.926  21.488  24.309  1.00  0.00    -0.200 F 
ATOM     69  F   UNL A   1      43.513  19.186  24.682  1.00  0.00    -0.200 F 
ENDBRANCH  45  59
BRANCH  46  70
ATOM     70  C   UNL A   1      42.163  30.788  32.382  1.00  0.00     0.064 A 
ATOM     71  C   UNL A   1      41.031  30.144  32.916  1.00  0.00     0.173 A 
ATOM     72  C   UNL A   1      42.628  31.942  33.009  1.00  0.00     0.173 A 
ATOM     73  F   UNL A   1      40.491  29.095  32.278  1.00  0.00    -0.203 F 
ATOM     74  C   UNL A   1      40.602  30.440  34.205  1.00  0.00     0.198 A 
ATOM     75  C   UNL A   1      42.256  32.165  34.324  1.00  0.00     0.198 A 
ATOM     76  F   UNL A   1      43.628  32.657  32.475  1.00  0.00    -0.203 F 
ATOM     77  F   UNL A   1      39.649  29.702  34.789  1.00  0.00    -0.200 F 
ATOM     78  C   UNL A   1      41.279  31.395  34.936  1.00  0.00     0.200 A 
ATOM     79  F   UNL A   1      42.945  33.050  35.044  1.00  0.00    -0.200 F 
ATOM     80  F   UNL A   1      41.036  31.530  36.246  1.00  0.00    -0.200 F 
ENDBRANCH  46  70
BRANCH  58  81
ATOM     81  C   UNL A   1      45.209  24.266  33.292  1.00  0.00     0.064 A 
ATOM     82  C   UNL A   1      46.525  24.284  33.785  1.00  0.00     0.173 A 
ATOM     83  C   UNL A   1      44.431  23.145  33.644  1.00  0.00     0.173 A 
ATOM     84  F   UNL A   1      47.388  25.241  33.415  1.00  0.00    -0.203 F 
ATOM     85  C   UNL A   1      46.997  23.297  34.647  1.00  0.00     0.198 A 
ATOM     86  C   UNL A   1      44.928  22.127  34.453  1.00  0.00     0.198 A 
ATOM     87  F   UNL A   1      43.164  23.007  33.231  1.00  0.00    -0.203 F 
ATOM     88  F   UNL A   1      48.235  23.396  35.152  1.00  0.00    -0.200 F 
ATOM     89  C   UNL A   1      46.202  22.216  34.976  1.00  0.00     0.200 A 
ATOM     90  F   UNL A   1      44.159  21.064  34.726  1.00  0.00    -0.200 F 
ATOM     91  F   UNL A   1      46.663  21.259  35.789  1.00  0.00    -0.200 F 
ENDBRANCH  58  81
ENDBRANCH  32  33
ENDBRANCH  25  27
ENDBRANCH  24  25
ENDBRANCH  23  24
ENDBRANCH   1  23
TORSDOF 14
ENDMDL
MODEL 2
REMARK VINA RESULT:     -12.5      4.499     10.147
REMARK SMILES Cc1cc(F)ccc1S(=O)(=O)N1CCO[C@H](CC(=O)OCCOC(=O)c2ccc(-c3c4nc(c(-c5c(F)c(F)c(F)c(F)c5F)c5ccc([nH]5)c(-c5c(F)c(F)c(F)c(F)c5F)c5nc(c(-c6c(F)c(F)c(F)c(F)c6F)c6ccc3[nH]6)C=C5)C=C4)cc2)C1
REMARK SMILES IDX 21 1 20 2 18 3 19 4 17 5 16 6 12 7 13 8 89 9 14 10 15 11
REMARK SMILES IDX 9 12 10 13 11 14 8 15 1 16 2 17 3 18 4 19 7 20 5 21 6 22
REMARK SMILES IDX 22 23 23 24 24 25 25 26 26 27 27 28 88 29 28 30 87 31 29 32
REMARK SMILES IDX 30 33 31 34 81 35 32 36 86 37 80 38 82 39 33 40 85 41 79 42
REMARK SMILES IDX 78 43 34 45 66 46 46 47 65 48 47 49 50 50 64 51 83 52 48 53
REMARK SMILES IDX 49 54 63 56 84 57 51 58 35 59 36 60 44 61 37 62 38 63 42 64
REMARK SMILES IDX 45 65 39 66 40 67 43 68 41 69 67 70 68 71 76 72 69 73 70 74
REMARK SMILES IDX 74 75 77 76 71 77 72 78 75 79 73 80 52 81 53 82 61 83 54 84
REMARK SMILES IDX 55 85 59 86 62 87 56 88 57 89 60 90 58 91
REMARK H PARENT 82 44 50 55
REMARK Flexibility Score: inf
ROOT
ATOM      1  C   UNL A   1      38.050  22.014  25.797  1.00  0.00     0.274 C 
ENDROOT
BRANCH   1   2
ATOM      2  O   UNL A   1      36.710  22.379  25.392  1.00  0.00    -0.462 OA
BRANCH   2   3
ATOM      3  C   UNL A   1      35.907  21.340  25.048  1.00  0.00     0.308 C 
ATOM      4  O   UNL A   1      36.293  20.178  24.935  1.00  0.00    -0.252 OA
BRANCH   3   5
ATOM      5  C   UNL A   1      34.463  21.704  24.767  1.00  0.00     0.156 C 
BRANCH   5   6
ATOM      6  C   UNL A   1      33.328  21.114  25.617  1.00  0.00     0.144 C 
ATOM      7  N   UNL A   1      32.196  23.263  26.110  1.00  0.00    -0.193 NA
ATOM      8  C   UNL A   1      32.498  23.147  27.551  1.00  0.00     0.131 C 
ATOM      9  C   UNL A   1      32.019  21.933  25.488  1.00  0.00     0.135 C 
ATOM     10  C   UNL A   1      33.740  22.250  27.726  1.00  0.00     0.177 C 
ATOM     11  O   UNL A   1      33.667  20.995  27.025  1.00  0.00    -0.375 OA
BRANCH   7  12
ATOM     12  S   UNL A   1      31.259  24.544  25.554  1.00  0.00     0.243 S 
ATOM     13  O   UNL A   1      30.009  24.567  26.283  1.00  0.00    -0.207 OA
ATOM     14  O   UNL A   1      31.295  24.509  24.108  1.00  0.00    -0.207 OA
BRANCH  12  15
ATOM     15  C   UNL A   1      32.168  26.003  26.081  1.00  0.00     0.085 A 
ATOM     16  C   UNL A   1      34.414  25.272  25.034  1.00  0.00     0.046 C 
ATOM     17  C   UNL A   1      33.515  26.247  25.733  1.00  0.00    -0.028 A 
ATOM     18  C   UNL A   1      34.102  27.457  26.144  1.00  0.00     0.044 A 
ATOM     19  C   UNL A   1      33.403  28.351  26.944  1.00  0.00     0.123 A 
ATOM     20  C   UNL A   1      31.476  26.916  26.898  1.00  0.00     0.025 A 
ATOM     21  F   UNL A   1      34.006  29.474  27.355  1.00  0.00    -0.207 F 
ATOM     22  C   UNL A   1      32.105  28.080  27.346  1.00  0.00     0.040 A 
ENDBRANCH  12  15
ENDBRANCH   7  12
ENDBRANCH   5   6
ENDBRANCH   3   5
ENDBRANCH   2   3
ENDBRANCH   1   2
BRANCH   1  23
ATOM     23  C   UNL A   1      38.914  23.233  26.130  1.00  0.00     0.275 C 
BRANCH  23  24
ATOM     24  O   UNL A   1      39.718  23.111  27.320  1.00  0.00    -0.458 OA
BRANCH  24  25
ATOM     25  C   UNL A   1      40.439  24.208  27.633  1.00  0.00     0.338 C 
ATOM     26  O   UNL A   1      41.550  24.246  28.134  1.00  0.00    -0.246 OA
BRANCH  25  27
ATOM     27  C   UNL A   1      39.624  25.426  27.693  1.00  0.00     0.060 A 
ATOM     28  C   UNL A   1      40.140  26.488  26.930  1.00  0.00     0.016 A 
ATOM     29  C   UNL A   1      38.948  25.644  28.894  1.00  0.00     0.016 A 
ATOM     30  C   UNL A   1      40.274  27.725  27.528  1.00  0.00     0.010 A 
ATOM     31  C   UNL A   1      39.072  26.882  29.481  1.00  0.00     0.010 A 
ATOM     32  C   UNL A   1      39.820  27.875  28.839  1.00  0.00    -0.014 A 
BRANCH  32  33
ATOM     33  C   UNL A   1      39.938  29.132  29.546  1.00  0.00     0.031 A 
ATOM     34  C   UNL A   1      38.916  30.141  29.231  1.00  0.00     0.074 A 
ATOM     35  C   UNL A   1      40.889  29.316  30.486  1.00  0.00     0.049 A 
ATOM     36  N   UNL A   1      39.053  31.408  29.399  1.00  0.00    -0.248 NA
ATOM     37  C   UNL A   1      37.655  29.774  28.586  1.00  0.00     0.031 C 
ATOM     38  C   UNL A   1      40.932  30.360  31.497  1.00  0.00     0.029 A 
ATOM     39  N   UNL A   1      42.116  28.647  30.635  1.00  0.00    -0.354 N 
ATOM     40  C   UNL A   1      37.808  31.969  29.217  1.00  0.00     0.074 A 
ATOM     41  C   UNL A   1      37.035  30.953  28.546  1.00  0.00     0.031 C 
ATOM     42  C   UNL A   1      42.182  30.455  31.978  1.00  0.00     0.029 A 
ATOM     43  C   UNL A   1      43.029  29.596  31.172  1.00  0.00     0.049 A 
ATOM     44  H   UNL A   1      42.306  27.707  30.413  1.00  0.00     0.167 HD
ATOM     45  C   UNL A   1      37.530  33.145  29.847  1.00  0.00     0.037 A 
ATOM     46  C   UNL A   1      44.097  30.043  30.431  1.00  0.00     0.037 A 
ATOM     47  C   UNL A   1      38.735  33.665  30.500  1.00  0.00     0.049 A 
ATOM     48  C   UNL A   1      43.966  31.471  29.957  1.00  0.00     0.074 A 
ATOM     49  C   UNL A   1      39.225  33.593  31.796  1.00  0.00     0.029 A 
ATOM     50  N   UNL A   1      39.809  34.036  29.711  1.00  0.00    -0.354 N 
ATOM     51  N   UNL A   1      42.936  32.227  30.207  1.00  0.00    -0.248 NA
ATOM     52  C   UNL A   1      44.946  32.123  29.090  1.00  0.00     0.031 C 
ATOM     53  C   UNL A   1      40.620  33.886  31.759  1.00  0.00     0.029 A 
ATOM     54  C   UNL A   1      40.971  34.160  30.450  1.00  0.00     0.049 A 
ATOM     55  H   UNL A   1      39.753  34.193  28.740  1.00  0.00     0.167 HD
ATOM     56  C   UNL A   1      43.103  33.436  29.602  1.00  0.00     0.074 A 
ATOM     57  C   UNL A   1      44.359  33.314  28.881  1.00  0.00     0.031 C 
ATOM     58  C   UNL A   1      42.210  34.456  29.751  1.00  0.00     0.037 A 
BRANCH  45  59
ATOM     59  C   UNL A   1      36.125  33.624  30.159  1.00  0.00     0.064 A 
ATOM     60  C   UNL A   1      35.299  34.104  29.120  1.00  0.00     0.173 A 
ATOM     61  C   UNL A   1      35.554  33.717  31.443  1.00  0.00     0.173 A 
ATOM     62  F   UNL A   1      35.646  33.972  27.833  1.00  0.00    -0.203 F 
ATOM     63  C   UNL A   1      34.078  34.741  29.360  1.00  0.00     0.198 A 
ATOM     64  C   UNL A   1      34.355  34.396  31.690  1.00  0.00     0.198 A 
ATOM     65  F   UNL A   1      36.091  33.103  32.501  1.00  0.00    -0.203 F 
ATOM     66  F   UNL A   1      33.352  35.192  28.328  1.00  0.00    -0.200 F 
ATOM     67  C   UNL A   1      33.624  34.922  30.650  1.00  0.00     0.200 A 
ATOM     68  F   UNL A   1      33.916  34.530  32.951  1.00  0.00    -0.200 F 
ATOM     69  F   UNL A   1      32.475  35.568  30.883  1.00  0.00    -0.200 F 
ENDBRANCH  45  59
BRANCH  46  70
ATOM     70  C   UNL A   1      44.742  28.961  29.630  1.00  0.00     0.064 A 
ATOM     71  C   UNL A   1      44.475  28.985  28.248  1.00  0.00     0.173 A 
ATOM     72  C   UNL A   1      46.015  28.586  30.054  1.00  0.00     0.173 A 
ATOM     73  F   UNL A   1      43.233  29.235  27.809  1.00  0.00    -0.203 F 
ATOM     74  C   UNL A   1      45.522  28.974  27.334  1.00  0.00     0.198 A 
ATOM     75  C   UNL A   1      47.056  28.671  29.145  1.00  0.00     0.198 A 
ATOM     76  F   UNL A   1      46.286  28.434  31.358  1.00  0.00    -0.203 F 
ATOM     77  F   UNL A   1      45.288  29.188  26.033  1.00  0.00    -0.200 F 
ATOM     78  C   UNL A   1      46.819  28.905  27.799  1.00  0.00     0.200 A 
ATOM     79  F   UNL A   1      48.308  28.657  29.601  1.00  0.00    -0.200 F 
ATOM     80  F   UNL A   1      47.842  29.127  26.963  1.00  0.00    -0.200 F 
ENDBRANCH  46  70
BRANCH  58  81
ATOM     81  C   UNL A   1      42.480  35.845  29.263  1.00  0.00     0.064 A 
ATOM     82  C   UNL A   1      41.934  36.326  28.061  1.00  0.00     0.173 A 
ATOM     83  C   UNL A   1      43.402  36.693  29.908  1.00  0.00     0.173 A 
ATOM     84  F   UNL A   1      41.140  35.555  27.304  1.00  0.00    -0.203 F 
ATOM     85  C   UNL A   1      42.220  37.605  27.588  1.00  0.00     0.198 A 
ATOM     86  C   UNL A   1      43.735  37.944  29.399  1.00  0.00     0.198 A 
ATOM     87  F   UNL A   1      43.997  36.344  31.057  1.00  0.00    -0.203 F 
ATOM     88  F   UNL A   1      41.617  38.050  26.476  1.00  0.00    -0.200 F 
ATOM     89  C   UNL A   1      43.125  38.411  28.253  1.00  0.00     0.200 A 
ATOM     90  F   UNL A   1      44.648  38.694  30.031  1.00  0.00    -0.200 F 
ATOM     91  F   UNL A   1      43.413  39.632  27.787  1.00  0.00    -0.200 F 
ENDBRANCH  58  81
ENDBRANCH  32  33
ENDBRANCH  25  27
ENDBRANCH  24  25
ENDBRANCH  23  24
ENDBRANCH   1  23
TORSDOF 14
ENDMDL
MODEL 3
REMARK VINA RESULT:     -12.5      1.179      1.976
REMARK SMILES Cc1cc(F)ccc1S(=O)(=O)N1CCO[C@H](CC(=O)OCCOC(=O)c2ccc(-c3c4nc(c(-c5c(F)c(F)c(F)c(F)c5F)c5ccc([nH]5)c(-c5c(F)c(F)c(F)c(F)c5F)c5nc(c(-c6c(F)c(F)c(F)c(F)c6F)c6ccc3[nH]6)C=C5)C=C4)cc2)C1
REMARK SMILES IDX 21 1 20 2 18 3 19 4 17 5 16 6 12 7 13 8 89 9 14 10 15 11
REMARK SMILES IDX 9 12 10 13 11 14 8 15 1 16 2 17 3 18 4 19 7 20 5 21 6 22
REMARK SMILES IDX 22 23 23 24 24 25 25 26 26 27 27 28 88 29 28 30 87 31 29 32
REMARK SMILES IDX 30 33 31 34 81 35 32 36 86 37 80 38 82 39 33 40 85 41 79 42
REMARK SMILES IDX 78 43 34 45 66 46 46 47 65 48 47 49 50 50 64 51 83 52 48 53
REMARK SMILES IDX 49 54 63 56 84 57 51 58 35 59 36 60 44 61 37 62 38 63 42 64
REMARK SMILES IDX 45 65 39 66 40 67 43 68 41 69 67 70 68 71 76 72 69 73 70 74
REMARK SMILES IDX 74 75 77 76 71 77 72 78 75 79 73 80 52 81 53 82 61 83 54 84
REMARK SMILES IDX 55 85 59 86 62 87 56 88 57 89 60 90 58 91
REMARK H PARENT 82 44 50 55
REMARK Flexibility Score: inf
ROOT
ATOM      1  C   UNL A   1      33.768  30.254  27.059  1.00  0.00     0.274 C 
ENDROOT
BRANCH   1   2
ATOM      2  O   UNL A   1      33.780  28.916  27.610  1.00  0.00    -0.462 OA
BRANCH   2   3
ATOM      3  C   UNL A   1      32.730  28.133  27.250  1.00  0.00     0.308 C 
ATOM      4  O   UNL A   1      31.662  28.089  27.858  1.00  0.00    -0.252 OA
BRANCH   3   5
ATOM      5  C   UNL A   1      32.963  27.260  26.034  1.00  0.00     0.156 C 
BRANCH   5   6
ATOM      6  C   UNL A   1      31.818  26.963  25.054  1.00  0.00     0.144 C 
ATOM      7  N   UNL A   1      31.865  24.497  25.299  1.00  0.00    -0.193 NA
ATOM      8  C   UNL A   1      32.283  24.318  23.894  1.00  0.00     0.131 C 
ATOM      9  C   UNL A   1      31.018  25.699  25.460  1.00  0.00     0.135 C 
ATOM     10  C   UNL A   1      32.994  25.602  23.421  1.00  0.00     0.177 C 
ATOM     11  O   UNL A   1      32.262  26.814  23.679  1.00  0.00    -0.375 OA
BRANCH   7  12
ATOM     12  S   UNL A   1      31.543  23.150  26.252  1.00  0.00     0.243 S 
ATOM     13  O   UNL A   1      30.278  22.575  25.846  1.00  0.00    -0.207 OA
ATOM     14  O   UNL A   1      31.801  23.522  27.626  1.00  0.00    -0.207 OA
BRANCH  12  15
ATOM     15  C   UNL A   1      32.806  21.967  25.767  1.00  0.00     0.085 A 
ATOM     16  C   UNL A   1      34.800  23.434  26.506  1.00  0.00     0.046 C 
ATOM     17  C   UNL A   1      34.186  22.166  25.995  1.00  0.00    -0.028 A 
ATOM     18  C   UNL A   1      35.077  21.139  25.635  1.00  0.00     0.044 A 
ATOM     19  C   UNL A   1      34.621  19.993  24.996  1.00  0.00     0.123 A 
ATOM     20  C   UNL A   1      32.361  20.803  25.111  1.00  0.00     0.025 A 
ATOM     21  F   UNL A   1      35.501  19.054  24.626  1.00  0.00    -0.207 F 
ATOM     22  C   UNL A   1      33.275  19.828  24.707  1.00  0.00     0.040 A 
ENDBRANCH  12  15
ENDBRANCH   7  12
ENDBRANCH   5   6
ENDBRANCH   3   5
ENDBRANCH   2   3
ENDBRANCH   1   2
BRANCH   1  23
ATOM     23  C   UNL A   1      34.462  31.269  27.970  1.00  0.00     0.275 C 
BRANCH  23  24
ATOM     24  O   UNL A   1      35.848  31.523  27.666  1.00  0.00    -0.458 OA
BRANCH  24  25
ATOM     25  C   UNL A   1      36.722  31.094  28.600  1.00  0.00     0.338 C 
ATOM     26  O   UNL A   1      37.311  31.768  29.429  1.00  0.00    -0.246 OA
BRANCH  25  27
ATOM     27  C   UNL A   1      37.250  29.755  28.313  1.00  0.00     0.060 A 
ATOM     28  C   UNL A   1      37.403  28.953  29.457  1.00  0.00     0.016 A 
ATOM     29  C   UNL A   1      38.127  29.669  27.231  1.00  0.00     0.016 A 
ATOM     30  C   UNL A   1      38.611  28.315  29.657  1.00  0.00     0.010 A 
ATOM     31  C   UNL A   1      39.323  29.021  27.429  1.00  0.00     0.010 A 
ATOM     32  C   UNL A   1      39.593  28.441  28.674  1.00  0.00    -0.014 A 
BRANCH  32  33
ATOM     33  C   UNL A   1      40.892  27.819  28.813  1.00  0.00     0.031 A 
ATOM     34  C   UNL A   1      40.939  26.372  28.556  1.00  0.00     0.074 A 
ATOM     35  C   UNL A   1      41.990  28.555  29.087  1.00  0.00     0.049 A 
ATOM     36  N   UNL A   1      41.838  25.571  29.007  1.00  0.00    -0.248 NA
ATOM     37  C   UNL A   1      39.873  25.692  27.821  1.00  0.00     0.031 C 
ATOM     38  C   UNL A   1      43.378  28.150  28.927  1.00  0.00     0.029 A 
ATOM     39  N   UNL A   1      42.072  29.813  29.708  1.00  0.00    -0.354 N 
ATOM     40  C   UNL A   1      41.664  24.372  28.353  1.00  0.00     0.074 A 
ATOM     41  C   UNL A   1      40.344  24.447  27.779  1.00  0.00     0.031 C 
ATOM     42  C   UNL A   1      44.160  28.970  29.649  1.00  0.00     0.029 A 
ATOM     43  C   UNL A   1      43.292  29.823  30.438  1.00  0.00     0.049 A 
ATOM     44  H   UNL A   1      41.414  30.543  29.649  1.00  0.00     0.167 HD
ATOM     45  C   UNL A   1      42.744  23.554  28.203  1.00  0.00     0.037 A 
ATOM     46  C   UNL A   1      43.290  29.860  31.812  1.00  0.00     0.037 A 
ATOM     47  C   UNL A   1      43.891  24.091  28.944  1.00  0.00     0.049 A 
ATOM     48  C   UNL A   1      43.712  28.567  32.466  1.00  0.00     0.074 A 
ATOM     49  C   UNL A   1      44.980  24.869  28.583  1.00  0.00     0.029 A 
ATOM     50  N   UNL A   1      43.809  24.172  30.322  1.00  0.00    -0.354 N 
ATOM     51  N   UNL A   1      44.044  27.494  31.806  1.00  0.00    -0.248 NA
ATOM     52  C   UNL A   1      43.707  28.358  33.913  1.00  0.00     0.031 C 
ATOM     53  C   UNL A   1      45.523  25.449  29.768  1.00  0.00     0.029 A 
ATOM     54  C   UNL A   1      44.780  25.006  30.846  1.00  0.00     0.049 A 
ATOM     55  H   UNL A   1      43.141  23.693  30.865  1.00  0.00     0.167 HD
ATOM     56  C   UNL A   1      44.327  26.491  32.683  1.00  0.00     0.074 A 
ATOM     57  C   UNL A   1      44.066  27.065  33.993  1.00  0.00     0.031 C 
ATOM     58  C   UNL A   1      44.772  25.269  32.275  1.00  0.00     0.037 A 
BRANCH  45  59
ATOM     59  C   UNL A   1      42.855  22.490  27.128  1.00  0.00     0.064 A 
ATOM     60  C   UNL A   1      42.086  21.311  27.223  1.00  0.00     0.173 A 
ATOM     61  C   UNL A   1      43.740  22.518  26.032  1.00  0.00     0.173 A 
ATOM     62  F   UNL A   1      41.113  21.183  28.135  1.00  0.00    -0.203 F 
ATOM     63  C   UNL A   1      42.283  20.211  26.383  1.00  0.00     0.198 A 
ATOM     64  C   UNL A   1      43.973  21.401  25.220  1.00  0.00     0.198 A 
ATOM     65  F   UNL A   1      44.367  23.637  25.658  1.00  0.00    -0.203 F 
ATOM     66  F   UNL A   1      41.531  19.114  26.542  1.00  0.00    -0.200 F 
ATOM     67  C   UNL A   1      43.255  20.242  25.405  1.00  0.00     0.200 A 
ATOM     68  F   UNL A   1      44.900  21.466  24.252  1.00  0.00    -0.200 F 
ATOM     69  F   UNL A   1      43.472  19.175  24.627  1.00  0.00    -0.200 F 
ENDBRANCH  45  59
BRANCH  46  70
ATOM     70  C   UNL A   1      42.238  30.763  32.367  1.00  0.00     0.064 A 
ATOM     71  C   UNL A   1      41.110  30.122  32.912  1.00  0.00     0.173 A 
ATOM     72  C   UNL A   1      42.712  31.915  32.990  1.00  0.00     0.173 A 
ATOM     73  F   UNL A   1      40.561  29.075  32.278  1.00  0.00    -0.203 F 
ATOM     74  C   UNL A   1      40.697  30.416  34.206  1.00  0.00     0.198 A 
ATOM     75  C   UNL A   1      42.355  32.137  34.310  1.00  0.00     0.198 A 
ATOM     76  F   UNL A   1      43.708  32.629  32.446  1.00  0.00    -0.203 F 
ATOM     77  F   UNL A   1      39.749  29.679  34.800  1.00  0.00    -0.200 F 
ATOM     78  C   UNL A   1      41.384  31.368  34.932  1.00  0.00     0.200 A 
ATOM     79  F   UNL A   1      43.055  33.019  35.024  1.00  0.00    -0.200 F 
ATOM     80  F   UNL A   1      41.156  31.502  36.245  1.00  0.00    -0.200 F 
ENDBRANCH  46  70
BRANCH  58  81
ATOM     81  C   UNL A   1      45.277  24.231  33.229  1.00  0.00     0.064 A 
ATOM     82  C   UNL A   1      44.486  23.139  33.622  1.00  0.00     0.173 A 
ATOM     83  C   UNL A   1      46.515  24.369  33.889  1.00  0.00     0.173 A 
ATOM     84  F   UNL A   1      43.242  22.980  33.146  1.00  0.00    -0.203 F 
ATOM     85  C   UNL A   1      44.943  22.197  34.541  1.00  0.00     0.198 A 
ATOM     86  C   UNL A   1      46.941  23.463  34.854  1.00  0.00     0.198 A 
ATOM     87  F   UNL A   1      47.355  25.375  33.608  1.00  0.00    -0.203 F 
ATOM     88  F   UNL A   1      44.184  21.130  34.828  1.00  0.00    -0.200 F 
ATOM     89  C   UNL A   1      46.167  22.362  35.162  1.00  0.00     0.200 A 
ATOM     90  F   UNL A   1      48.109  23.662  35.480  1.00  0.00    -0.200 F 
ATOM     91  F   UNL A   1      46.597  21.467  36.059  1.00  0.00    -0.200 F 
ENDBRANCH  58  81
ENDBRANCH  32  33
ENDBRANCH  25  27
ENDBRANCH  24  25
ENDBRANCH  23  24
ENDBRANCH   1  23
TORSDOF 14
ENDMDL
