MODEL 1
REMARK VINA RESULT:     -12.0      0.000      0.000
REMARK SMILES C[C@@H]1CCCN(C(=O)c2ccncc2/C=C/C(=O)OCCOC(=O)c2ccc(-c3c4nc(c(-c5c(F)c(F)c(F)c(F)c5F)c5ccc([nH]5)c(-c5c(F)c(F)c(F)c(F)c5F)c5nc(c(-c6c(F)c(F)c(F)c(F)c6F)c6ccc3[nH]6)C=C5)C=C4)cc2)[C@@H]1C
REMARK SMILES IDX 20 1 19 2 17 3 18 4 16 5 15 6 14 7 9 8 10 9 11 10 13 11
REMARK SMILES IDX 12 12 7 13 8 14 6 15 1 16 2 17 3 18 88 19 4 20 89 21 5 22
REMARK SMILES IDX 21 23 22 24 23 25 24 26 25 27 26 28 87 29 27 30 86 31 28 32
REMARK SMILES IDX 29 33 30 34 80 35 31 36 85 37 79 38 81 39 32 40 84 41 78 42
REMARK SMILES IDX 77 43 33 45 65 46 45 47 64 48 46 49 49 50 63 51 82 52 47 53
REMARK SMILES IDX 48 54 62 56 83 57 50 58 34 59 35 60 43 61 36 62 37 63 41 64
REMARK SMILES IDX 44 65 38 66 39 67 42 68 40 69 66 70 67 71 75 72 68 73 69 74
REMARK SMILES IDX 73 75 76 76 70 77 71 78 74 79 72 80 51 81 52 82 60 83 53 84
REMARK SMILES IDX 54 85 58 86 61 87 55 88 56 89 59 90 57 91
REMARK H PARENT 81 44 49 55
REMARK Flexibility Score: inf
ROOT
ATOM      1  C   UNL A   1      31.552  29.683  24.164  1.00  0.00     0.275 C 
ENDROOT
BRANCH   1   2
ATOM      2  O   UNL A   1      30.247  29.161  23.847  1.00  0.00    -0.459 OA
BRANCH   2   3
ATOM      3  C   UNL A   1      30.231  27.979  23.190  1.00  0.00     0.330 C 
ATOM      4  O   UNL A   1      30.422  27.813  21.994  1.00  0.00    -0.247 OA
BRANCH   3   5
ATOM      5  C   UNL A   1      30.025  26.825  24.089  1.00  0.00     0.094 C 
ATOM      6  C   UNL A   1      30.958  25.927  24.444  1.00  0.00     0.018 C 
BRANCH   6   7
ATOM      7  C   UNL A   1      30.634  24.774  25.302  1.00  0.00     0.006 A 
ATOM      8  C   UNL A   1      31.152  23.488  25.103  1.00  0.00     0.050 A 
ATOM      9  C   UNL A   1      30.871  22.452  26.000  1.00  0.00     0.034 A 
ATOM     10  C   UNL A   1      29.998  22.715  27.036  1.00  0.00     0.112 A 
ATOM     11  C   UNL A   1      29.751  24.909  26.371  1.00  0.00     0.119 A 
ATOM     12  N   UNL A   1      29.417  23.916  27.232  1.00  0.00    -0.264 NA
BRANCH   8  13
ATOM     13  C   UNL A   1      32.081  23.225  23.988  1.00  0.00     0.254 C 
ATOM     14  O   UNL A   1      31.548  22.887  22.935  1.00  0.00    -0.269 OA
BRANCH  13  15
ATOM     15  N   UNL A   1      33.458  23.345  24.207  1.00  0.00    -0.336 N 
ATOM     16  C   UNL A   1      34.226  22.473  27.079  1.00  0.00     0.010 C 
ATOM     17  C   UNL A   1      35.114  22.434  25.828  1.00  0.00     0.008 C 
ATOM     18  C   UNL A   1      35.927  23.731  25.695  1.00  0.00     0.007 C 
ATOM     19  C   UNL A   1      34.318  22.176  24.519  1.00  0.00     0.085 C 
ATOM     20  C   UNL A   1      35.049  24.917  25.312  1.00  0.00     0.022 C 
ATOM     21  C   UNL A   1      33.669  20.788  24.543  1.00  0.00     0.031 C 
ATOM     22  C   UNL A   1      34.195  24.612  24.086  1.00  0.00     0.120 C 
ENDBRANCH  13  15
ENDBRANCH   8  13
ENDBRANCH   6   7
ENDBRANCH   3   5
ENDBRANCH   2   3
ENDBRANCH   1   2
BRANCH   1  23
ATOM     23  C   UNL A   1      31.662  30.049  25.647  1.00  0.00     0.275 C 
BRANCH  23  24
ATOM     24  O   UNL A   1      33.030  30.081  26.096  1.00  0.00    -0.458 OA
BRANCH  24  25
ATOM     25  C   UNL A   1      33.348  31.124  26.898  1.00  0.00     0.338 C 
ATOM     26  O   UNL A   1      32.669  32.107  27.140  1.00  0.00    -0.246 OA
BRANCH  25  27
ATOM     27  C   UNL A   1      34.634  30.864  27.570  1.00  0.00     0.060 A 
ATOM     28  C   UNL A   1      34.920  29.548  27.947  1.00  0.00     0.016 A 
ATOM     29  C   UNL A   1      35.513  31.901  27.891  1.00  0.00     0.016 A 
ATOM     30  C   UNL A   1      36.086  29.264  28.657  1.00  0.00     0.010 A 
ATOM     31  C   UNL A   1      36.683  31.614  28.605  1.00  0.00     0.010 A 
ATOM     32  C   UNL A   1      36.970  30.296  29.000  1.00  0.00    -0.014 A 
BRANCH  32  33
ATOM     33  C   UNL A   1      38.176  29.994  29.810  1.00  0.00     0.031 A 
ATOM     34  C   UNL A   1      39.230  29.070  29.270  1.00  0.00     0.074 A 
ATOM     35  C   UNL A   1      38.331  30.562  31.018  1.00  0.00     0.049 A 
ATOM     36  N   UNL A   1      40.331  28.646  29.840  1.00  0.00    -0.248 NA
ATOM     37  C   UNL A   1      39.018  28.554  27.911  1.00  0.00     0.031 C 
ATOM     38  C   UNL A   1      37.390  31.498  31.634  1.00  0.00     0.029 A 
ATOM     39  N   UNL A   1      39.333  30.431  31.946  1.00  0.00    -0.354 N 
ATOM     40  C   UNL A   1      40.937  27.808  28.913  1.00  0.00     0.074 A 
ATOM     41  C   UNL A   1      40.071  27.764  27.754  1.00  0.00     0.031 C 
ATOM     42  C   UNL A   1      37.861  31.857  32.840  1.00  0.00     0.029 A 
ATOM     43  C   UNL A   1      39.112  31.149  33.097  1.00  0.00     0.049 A 
ATOM     44  H   UNL A   1      40.133  29.876  31.802  1.00  0.00     0.167 HD
ATOM     45  C   UNL A   1      42.112  27.143  29.021  1.00  0.00     0.037 A 
ATOM     46  C   UNL A   1      39.828  31.207  34.235  1.00  0.00     0.037 A 
ATOM     47  C   UNL A   1      42.976  27.196  30.172  1.00  0.00     0.049 A 
ATOM     48  C   UNL A   1      41.101  30.413  34.350  1.00  0.00     0.074 A 
ATOM     49  C   UNL A   1      44.197  26.574  30.364  1.00  0.00     0.029 A 
ATOM     50  N   UNL A   1      42.705  27.911  31.330  1.00  0.00    -0.354 N 
ATOM     51  N   UNL A   1      41.675  29.637  33.464  1.00  0.00    -0.248 NA
ATOM     52  C   UNL A   1      41.823  30.500  35.628  1.00  0.00     0.031 C 
ATOM     53  C   UNL A   1      44.644  26.877  31.656  1.00  0.00     0.029 A 
ATOM     54  C   UNL A   1      43.725  27.726  32.250  1.00  0.00     0.049 A 
ATOM     55  H   UNL A   1      41.907  28.468  31.476  1.00  0.00     0.167 HD
ATOM     56  C   UNL A   1      42.834  29.163  34.063  1.00  0.00     0.074 A 
ATOM     57  C   UNL A   1      42.890  29.749  35.386  1.00  0.00     0.031 C 
ATOM     58  C   UNL A   1      43.769  28.319  33.562  1.00  0.00     0.037 A 
BRANCH  45  59
ATOM     59  C   UNL A   1      42.525  26.277  27.868  1.00  0.00     0.064 A 
ATOM     60  C   UNL A   1      42.033  24.972  27.713  1.00  0.00     0.173 A 
ATOM     61  C   UNL A   1      43.392  26.773  26.883  1.00  0.00     0.173 A 
ATOM     62  F   UNL A   1      41.211  24.447  28.633  1.00  0.00    -0.203 F 
ATOM     63  C   UNL A   1      42.413  24.189  26.626  1.00  0.00     0.198 A 
ATOM     64  C   UNL A   1      43.749  25.997  25.784  1.00  0.00     0.198 A 
ATOM     65  F   UNL A   1      43.886  28.017  26.981  1.00  0.00    -0.203 F 
ATOM     66  F   UNL A   1      41.962  22.931  26.518  1.00  0.00    -0.200 F 
ATOM     67  C   UNL A   1      43.265  24.704  25.660  1.00  0.00     0.200 A 
ATOM     68  F   UNL A   1      44.564  26.499  24.846  1.00  0.00    -0.200 F 
ATOM     69  F   UNL A   1      43.623  23.951  24.611  1.00  0.00    -0.200 F 
ENDBRANCH  45  59
BRANCH  46  70
ATOM     70  C   UNL A   1      39.348  32.044  35.366  1.00  0.00     0.064 A 
ATOM     71  C   UNL A   1      38.524  31.506  36.363  1.00  0.00     0.173 A 
ATOM     72  C   UNL A   1      39.699  33.398  35.465  1.00  0.00     0.173 A 
ATOM     73  F   UNL A   1      38.140  30.223  36.295  1.00  0.00    -0.203 F 
ATOM     74  C   UNL A   1      38.057  32.297  37.412  1.00  0.00     0.198 A 
ATOM     75  C   UNL A   1      39.254  34.180  36.528  1.00  0.00     0.198 A 
ATOM     76  F   UNL A   1      40.482  33.960  34.533  1.00  0.00    -0.203 F 
ATOM     77  F   UNL A   1      37.234  31.771  38.329  1.00  0.00    -0.200 F 
ATOM     78  C   UNL A   1      38.427  33.631  37.497  1.00  0.00     0.200 A 
ATOM     79  F   UNL A   1      39.621  35.465  36.612  1.00  0.00    -0.200 F 
ATOM     80  F   UNL A   1      37.980  34.389  38.507  1.00  0.00    -0.200 F 
ENDBRANCH  46  70
BRANCH  58  81
ATOM     81  C   UNL A   1      44.947  28.000  34.435  1.00  0.00     0.064 A 
ATOM     82  C   UNL A   1      44.952  26.883  35.283  1.00  0.00     0.173 A 
ATOM     83  C   UNL A   1      46.100  28.797  34.389  1.00  0.00     0.173 A 
ATOM     84  F   UNL A   1      43.866  26.100  35.374  1.00  0.00    -0.203 F 
ATOM     85  C   UNL A   1      46.062  26.588  36.071  1.00  0.00     0.198 A 
ATOM     86  C   UNL A   1      47.218  28.484  35.158  1.00  0.00     0.198 A 
ATOM     87  F   UNL A   1      46.149  29.873  33.589  1.00  0.00    -0.203 F 
ATOM     88  F   UNL A   1      46.029  25.541  36.905  1.00  0.00    -0.200 F 
ATOM     89  C   UNL A   1      47.196  27.384  36.002  1.00  0.00     0.200 A 
ATOM     90  F   UNL A   1      48.318  29.247  35.081  1.00  0.00    -0.200 F 
ATOM     91  F   UNL A   1      48.266  27.094  36.754  1.00  0.00    -0.200 F 
ENDBRANCH  58  81
ENDBRANCH  32  33
ENDBRANCH  25  27
ENDBRANCH  24  25
ENDBRANCH  23  24
ENDBRANCH   1  23
TORSDOF 14
ENDMDL
MODEL 2
REMARK VINA RESULT:     -12.0      2.095      3.835
REMARK SMILES C[C@@H]1CCCN(C(=O)c2ccncc2/C=C/C(=O)OCCOC(=O)c2ccc(-c3c4nc(c(-c5c(F)c(F)c(F)c(F)c5F)c5ccc([nH]5)c(-c5c(F)c(F)c(F)c(F)c5F)c5nc(c(-c6c(F)c(F)c(F)c(F)c6F)c6ccc3[nH]6)C=C5)C=C4)cc2)[C@@H]1C
REMARK SMILES IDX 20 1 19 2 17 3 18 4 16 5 15 6 14 7 9 8 10 9 11 10 13 11
REMARK SMILES IDX 12 12 7 13 8 14 6 15 1 16 2 17 3 18 88 19 4 20 89 21 5 22
REMARK SMILES IDX 21 23 22 24 23 25 24 26 25 27 26 28 87 29 27 30 86 31 28 32
REMARK SMILES IDX 29 33 30 34 80 35 31 36 85 37 79 38 81 39 32 40 84 41 78 42
REMARK SMILES IDX 77 43 33 45 65 46 45 47 64 48 46 49 49 50 63 51 82 52 47 53
REMARK SMILES IDX 48 54 62 56 83 57 50 58 34 59 35 60 43 61 36 62 37 63 41 64
REMARK SMILES IDX 44 65 38 66 39 67 42 68 40 69 66 70 67 71 75 72 68 73 69 74
REMARK SMILES IDX 73 75 76 76 70 77 71 78 74 79 72 80 51 81 52 82 60 83 53 84
REMARK SMILES IDX 54 85 58 86 61 87 55 88 56 89 59 90 57 91
REMARK H PARENT 81 44 49 55
REMARK Flexibility Score: inf
ROOT
ATOM      1  C   UNL A   1      32.947  31.820  27.559  1.00  0.00     0.275 C 
ENDROOT
BRANCH   1   2
ATOM      2  O   UNL A   1      34.219  31.167  27.735  1.00  0.00    -0.459 OA
BRANCH   2   3
ATOM      3  C   UNL A   1      34.308  29.911  27.240  1.00  0.00     0.330 C 
ATOM      4  O   UNL A   1      35.125  29.062  27.563  1.00  0.00    -0.247 OA
BRANCH   3   5
ATOM      5  C   UNL A   1      33.233  29.597  26.275  1.00  0.00     0.094 C 
ATOM      6  C   UNL A   1      32.478  28.487  26.272  1.00  0.00     0.018 C 
BRANCH   6   7
ATOM      7  C   UNL A   1      31.470  28.242  25.226  1.00  0.00     0.006 A 
ATOM      8  C   UNL A   1      30.905  26.986  24.970  1.00  0.00     0.050 A 
ATOM      9  C   UNL A   1      29.891  26.832  24.019  1.00  0.00     0.034 A 
ATOM     10  C   UNL A   1      29.529  27.939  23.279  1.00  0.00     0.112 A 
ATOM     11  C   UNL A   1      31.034  29.277  24.402  1.00  0.00     0.119 A 
ATOM     12  N   UNL A   1      30.090  29.155  23.436  1.00  0.00    -0.264 NA
BRANCH   8  13
ATOM     13  C   UNL A   1      31.308  25.814  25.770  1.00  0.00     0.254 C 
ATOM     14  O   UNL A   1      31.103  25.912  26.976  1.00  0.00    -0.269 OA
BRANCH  13  15
ATOM     15  N   UNL A   1      31.901  24.722  25.126  1.00  0.00    -0.336 N 
ATOM     16  C   UNL A   1      33.373  25.596  22.544  1.00  0.00     0.010 C 
ATOM     17  C   UNL A   1      33.691  24.383  23.427  1.00  0.00     0.008 C 
ATOM     18  C   UNL A   1      32.950  23.134  22.926  1.00  0.00     0.007 C 
ATOM     19  C   UNL A   1      33.369  24.617  24.929  1.00  0.00     0.085 C 
ATOM     20  C   UNL A   1      31.450  23.218  23.187  1.00  0.00     0.022 C 
ATOM     21  C   UNL A   1      34.256  25.724  25.508  1.00  0.00     0.031 C 
ATOM     22  C   UNL A   1      31.150  23.553  24.644  1.00  0.00     0.120 C 
ENDBRANCH  13  15
ENDBRANCH   8  13
ENDBRANCH   6   7
ENDBRANCH   3   5
ENDBRANCH   2   3
ENDBRANCH   1   2
BRANCH   1  23
ATOM     23  C   UNL A   1      33.121  33.320  27.300  1.00  0.00     0.275 C 
BRANCH  23  24
ATOM     24  O   UNL A   1      32.291  34.118  28.165  1.00  0.00    -0.458 OA
BRANCH  24  25
ATOM     25  C   UNL A   1      32.934  35.108  28.828  1.00  0.00     0.338 C 
ATOM     26  O   UNL A   1      32.617  36.283  28.894  1.00  0.00    -0.246 OA
BRANCH  25  27
ATOM     27  C   UNL A   1      34.062  34.546  29.593  1.00  0.00     0.060 A 
ATOM     28  C   UNL A   1      35.350  34.711  29.075  1.00  0.00     0.016 A 
ATOM     29  C   UNL A   1      33.856  33.807  30.760  1.00  0.00     0.016 A 
ATOM     30  C   UNL A   1      36.440  34.129  29.719  1.00  0.00     0.010 A 
ATOM     31  C   UNL A   1      34.952  33.222  31.405  1.00  0.00     0.010 A 
ATOM     32  C   UNL A   1      36.248  33.371  30.882  1.00  0.00    -0.014 A 
BRANCH  32  33
ATOM     33  C   UNL A   1      37.406  32.703  31.526  1.00  0.00     0.031 A 
ATOM     34  C   UNL A   1      38.095  31.562  30.834  1.00  0.00     0.074 A 
ATOM     35  C   UNL A   1      37.846  33.132  32.722  1.00  0.00     0.049 A 
ATOM     36  N   UNL A   1      39.090  30.820  31.251  1.00  0.00    -0.248 NA
ATOM     37  C   UNL A   1      37.597  31.207  29.498  1.00  0.00     0.031 C 
ATOM     38  C   UNL A   1      37.278  34.250  33.476  1.00  0.00     0.029 A 
ATOM     39  N   UNL A   1      38.869  32.676  33.514  1.00  0.00    -0.354 N 
ATOM     40  C   UNL A   1      39.332  29.907  30.233  1.00  0.00     0.074 A 
ATOM     41  C   UNL A   1      38.365  30.171  29.189  1.00  0.00     0.031 C 
ATOM     42  C   UNL A   1      37.961  34.392  34.623  1.00  0.00     0.029 A 
ATOM     43  C   UNL A   1      38.987  33.355  34.703  1.00  0.00     0.049 A 
ATOM     44  H   UNL A   1      39.463  31.935  33.256  1.00  0.00     0.167 HD
ATOM     45  C   UNL A   1      40.280  28.941  30.175  1.00  0.00     0.037 A 
ATOM     46  C   UNL A   1      39.813  33.146  35.745  1.00  0.00     0.037 A 
ATOM     47  C   UNL A   1      41.248  28.686  31.211  1.00  0.00     0.049 A 
ATOM     48  C   UNL A   1      40.820  32.030  35.678  1.00  0.00     0.074 A 
ATOM     49  C   UNL A   1      42.262  27.744  31.233  1.00  0.00     0.029 A 
ATOM     50  N   UNL A   1      41.317  29.375  32.413  1.00  0.00    -0.354 N 
ATOM     51  N   UNL A   1      41.053  31.182  34.706  1.00  0.00    -0.248 NA
ATOM     52  C   UNL A   1      41.676  31.838  36.858  1.00  0.00     0.031 C 
ATOM     53  C   UNL A   1      42.916  27.834  32.466  1.00  0.00     0.029 A 
ATOM     54  C   UNL A   1      42.341  28.863  33.194  1.00  0.00     0.049 A 
ATOM     55  H   UNL A   1      40.727  30.119  32.673  1.00  0.00     0.167 HD
ATOM     56  C   UNL A   1      42.094  30.374  35.143  1.00  0.00     0.074 A 
ATOM     57  C   UNL A   1      42.457  30.841  36.465  1.00  0.00     0.031 C 
ATOM     58  C   UNL A   1      42.694  29.340  34.506  1.00  0.00     0.037 A 
BRANCH  45  59
ATOM     59  C   UNL A   1      40.305  28.067  28.956  1.00  0.00     0.064 A 
ATOM     60  C   UNL A   1      41.041  28.416  27.814  1.00  0.00     0.173 A 
ATOM     61  C   UNL A   1      39.618  26.844  28.947  1.00  0.00     0.173 A 
ATOM     62  F   UNL A   1      41.706  29.580  27.768  1.00  0.00    -0.203 F 
ATOM     63  C   UNL A   1      41.068  27.583  26.699  1.00  0.00     0.198 A 
ATOM     64  C   UNL A   1      39.668  26.002  27.839  1.00  0.00     0.198 A 
ATOM     65  F   UNL A   1      38.904  26.461  30.016  1.00  0.00    -0.203 F 
ATOM     66  F   UNL A   1      41.745  27.955  25.602  1.00  0.00    -0.200 F 
ATOM     67  C   UNL A   1      40.388  26.375  26.714  1.00  0.00     0.200 A 
ATOM     68  F   UNL A   1      39.018  24.830  27.860  1.00  0.00    -0.200 F 
ATOM     69  F   UNL A   1      40.421  25.571  25.642  1.00  0.00    -0.200 F 
ENDBRANCH  45  59
BRANCH  46  70
ATOM     70  C   UNL A   1      39.714  34.011  36.949  1.00  0.00     0.064 A 
ATOM     71  C   UNL A   1      38.935  33.630  38.050  1.00  0.00     0.173 A 
ATOM     72  C   UNL A   1      40.391  35.238  37.019  1.00  0.00     0.173 A 
ATOM     73  F   UNL A   1      38.248  32.479  38.018  1.00  0.00    -0.203 F 
ATOM     74  C   UNL A   1      38.826  34.452  39.171  1.00  0.00     0.198 A 
ATOM     75  C   UNL A   1      40.302  36.045  38.150  1.00  0.00     0.198 A 
ATOM     76  F   UNL A   1      41.145  35.648  35.989  1.00  0.00    -0.203 F 
ATOM     77  F   UNL A   1      38.040  34.086  40.192  1.00  0.00    -0.200 F 
ATOM     78  C   UNL A   1      39.514  35.655  39.223  1.00  0.00     0.200 A 
ATOM     79  F   UNL A   1      40.976  37.201  38.200  1.00  0.00    -0.200 F 
ATOM     80  F   UNL A   1      39.411  36.442  40.301  1.00  0.00    -0.200 F 
ENDBRANCH  46  70
BRANCH  58  81
ATOM     81  C   UNL A   1      43.827  28.659  35.217  1.00  0.00     0.064 A 
ATOM     82  C   UNL A   1      45.159  29.060  35.030  1.00  0.00     0.173 A 
ATOM     83  C   UNL A   1      43.574  27.623  36.128  1.00  0.00     0.173 A 
ATOM     84  F   UNL A   1      45.453  30.035  34.156  1.00  0.00    -0.203 F 
ATOM     85  C   UNL A   1      46.197  28.433  35.713  1.00  0.00     0.198 A 
ATOM     86  C   UNL A   1      44.612  27.016  36.830  1.00  0.00     0.198 A 
ATOM     87  F   UNL A   1      42.318  27.207  36.348  1.00  0.00    -0.203 F 
ATOM     88  F   UNL A   1      47.465  28.804  35.488  1.00  0.00    -0.200 F 
ATOM     89  C   UNL A   1      45.922  27.418  36.618  1.00  0.00     0.200 A 
ATOM     90  F   UNL A   1      44.345  26.044  37.712  1.00  0.00    -0.200 F 
ATOM     91  F   UNL A   1      46.923  26.822  37.281  1.00  0.00    -0.200 F 
ENDBRANCH  58  81
ENDBRANCH  32  33
ENDBRANCH  25  27
ENDBRANCH  24  25
ENDBRANCH  23  24
ENDBRANCH   1  23
TORSDOF 14
ENDMDL
MODEL 3
REMARK VINA RESULT:     -12.0      1.984      7.936
REMARK SMILES C[C@@H]1CCCN(C(=O)c2ccncc2/C=C/C(=O)OCCOC(=O)c2ccc(-c3c4nc(c(-c5c(F)c(F)c(F)c(F)c5F)c5ccc([nH]5)c(-c5c(F)c(F)c(F)c(F)c5F)c5nc(c(-c6c(F)c(F)c(F)c(F)c6F)c6ccc3[nH]6)C=C5)C=C4)cc2)[C@@H]1C
REMARK SMILES IDX 20 1 19 2 17 3 18 4 16 5 15 6 14 7 9 8 10 9 11 10 13 11
REMARK SMILES IDX 12 12 7 13 8 14 6 15 1 16 2 17 3 18 88 19 4 20 89 21 5 22
REMARK SMILES IDX 21 23 22 24 23 25 24 26 25 27 26 28 87 29 27 30 86 31 28 32
REMARK SMILES IDX 29 33 30 34 80 35 31 36 85 37 79 38 81 39 32 40 84 41 78 42
REMARK SMILES IDX 77 43 33 45 65 46 45 47 64 48 46 49 49 50 63 51 82 52 47 53
REMARK SMILES IDX 48 54 62 56 83 57 50 58 34 59 35 60 43 61 36 62 37 63 41 64
REMARK SMILES IDX 44 65 38 66 39 67 42 68 40 69 66 70 67 71 75 72 68 73 69 74
REMARK SMILES IDX 73 75 76 76 70 77 71 78 74 79 72 80 51 81 52 82 60 83 53 84
REMARK SMILES IDX 54 85 58 86 61 87 55 88 56 89 59 90 57 91
REMARK H PARENT 81 44 49 55
REMARK Flexibility Score: inf
ROOT
ATOM      1  C   UNL A   1      32.725  31.973  27.625  1.00  0.00     0.275 C 
ENDROOT
BRANCH   1   2
ATOM      2  O   UNL A   1      34.019  31.352  27.750  1.00  0.00    -0.459 OA
BRANCH   2   3
ATOM      3  C   UNL A   1      34.120  30.100  27.250  1.00  0.00     0.330 C 
ATOM      4  O   UNL A   1      34.961  29.266  27.553  1.00  0.00    -0.247 OA
BRANCH   3   5
ATOM      5  C   UNL A   1      33.032  29.767  26.309  1.00  0.00     0.094 C 
ATOM      6  C   UNL A   1      32.548  28.538  26.066  1.00  0.00     0.018 C 
BRANCH   6   7
ATOM      7  C   UNL A   1      31.497  28.307  25.060  1.00  0.00     0.006 A 
ATOM      8  C   UNL A   1      30.879  27.066  24.854  1.00  0.00     0.050 A 
ATOM      9  C   UNL A   1      29.829  26.928  23.940  1.00  0.00     0.034 A 
ATOM     10  C   UNL A   1      29.483  28.030  23.185  1.00  0.00     0.112 A 
ATOM     11  C   UNL A   1      31.072  29.338  24.225  1.00  0.00     0.119 A 
ATOM     12  N   UNL A   1      30.092  29.228  23.293  1.00  0.00    -0.264 NA
BRANCH   8  13
ATOM     13  C   UNL A   1      31.265  25.899  25.669  1.00  0.00     0.254 C 
ATOM     14  O   UNL A   1      31.085  26.025  26.876  1.00  0.00    -0.269 OA
BRANCH  13  15
ATOM     15  N   UNL A   1      31.819  24.781  25.036  1.00  0.00    -0.336 N 
ATOM     16  C   UNL A   1      33.286  25.571  22.424  1.00  0.00     0.010 C 
ATOM     17  C   UNL A   1      33.578  24.362  23.323  1.00  0.00     0.008 C 
ATOM     18  C   UNL A   1      32.795  23.128  22.850  1.00  0.00     0.007 C 
ATOM     19  C   UNL A   1      33.281  24.629  24.824  1.00  0.00     0.085 C 
ATOM     20  C   UNL A   1      31.302  23.260  23.126  1.00  0.00     0.022 C 
ATOM     21  C   UNL A   1      34.206  25.719  25.376  1.00  0.00     0.031 C 
ATOM     22  C   UNL A   1      31.028  23.626  24.581  1.00  0.00     0.120 C 
ENDBRANCH  13  15
ENDBRANCH   8  13
ENDBRANCH   6   7
ENDBRANCH   3   5
ENDBRANCH   2   3
ENDBRANCH   1   2
BRANCH   1  23
ATOM     23  C   UNL A   1      32.849  33.453  27.253  1.00  0.00     0.275 C 
BRANCH  23  24
ATOM     24  O   UNL A   1      32.291  34.314  28.264  1.00  0.00    -0.458 OA
BRANCH  24  25
ATOM     25  C   UNL A   1      33.143  35.237  28.769  1.00  0.00     0.338 C 
ATOM     26  O   UNL A   1      33.018  36.450  28.750  1.00  0.00    -0.246 OA
BRANCH  25  27
ATOM     27  C   UNL A   1      34.243  34.564  29.481  1.00  0.00     0.060 A 
ATOM     28  C   UNL A   1      35.515  34.596  28.900  1.00  0.00     0.016 A 
ATOM     29  C   UNL A   1      34.022  33.850  30.661  1.00  0.00     0.016 A 
ATOM     30  C   UNL A   1      36.571  33.907  29.492  1.00  0.00     0.010 A 
ATOM     31  C   UNL A   1      35.083  33.157  31.255  1.00  0.00     0.010 A 
ATOM     32  C   UNL A   1      36.361  33.174  30.668  1.00  0.00    -0.014 A 
BRANCH  32  33
ATOM     33  C   UNL A   1      37.475  32.392  31.258  1.00  0.00     0.031 A 
ATOM     34  C   UNL A   1      37.973  32.717  32.637  1.00  0.00     0.074 A 
ATOM     35  C   UNL A   1      38.026  31.381  30.563  1.00  0.00     0.049 A 
ATOM     36  N   UNL A   1      38.963  32.184  33.308  1.00  0.00    -0.248 NA
ATOM     37  C   UNL A   1      37.265  33.786  33.355  1.00  0.00     0.031 C 
ATOM     38  C   UNL A   1      37.607  30.952  29.228  1.00  0.00     0.029 A 
ATOM     39  N   UNL A   1      39.059  30.536  30.881  1.00  0.00    -0.354 N 
ATOM     40  C   UNL A   1      39.001  32.856  34.522  1.00  0.00     0.074 A 
ATOM     41  C   UNL A   1      37.952  33.853  34.487  1.00  0.00     0.031 C 
ATOM     42  C   UNL A   1      38.378  29.923  28.841  1.00  0.00     0.029 A 
ATOM     43  C   UNL A   1      39.366  29.646  29.880  1.00  0.00     0.049 A 
ATOM     44  H   UNL A   1      39.534  30.565  31.742  1.00  0.00     0.167 HD
ATOM     45  C   UNL A   1      39.834  32.654  35.572  1.00  0.00     0.037 A 
ATOM     46  C   UNL A   1      40.350  28.730  29.805  1.00  0.00     0.037 A 
ATOM     47  C   UNL A   1      40.871  31.655  35.607  1.00  0.00     0.049 A 
ATOM     48  C   UNL A   1      41.297  28.564  30.962  1.00  0.00     0.074 A 
ATOM     49  C   UNL A   1      41.751  31.360  36.635  1.00  0.00     0.029 A 
ATOM     50  N   UNL A   1      41.172  30.792  34.564  1.00  0.00    -0.354 N 
ATOM     51  N   UNL A   1      41.316  29.192  32.112  1.00  0.00    -0.248 NA
ATOM     52  C   UNL A   1      42.363  27.564  30.807  1.00  0.00     0.031 C 
ATOM     53  C   UNL A   1      42.612  30.347  36.197  1.00  0.00     0.029 A 
ATOM     54  C   UNL A   1      42.239  29.979  34.915  1.00  0.00     0.049 A 
ATOM     55  H   UNL A   1      40.697  30.759  33.702  1.00  0.00     0.167 HD
ATOM     56  C   UNL A   1      42.376  28.649  32.827  1.00  0.00     0.074 A 
ATOM     57  C   UNL A   1      42.969  27.631  31.985  1.00  0.00     0.031 C 
ATOM     58  C   UNL A   1      42.817  28.967  34.068  1.00  0.00     0.037 A 
BRANCH  45  59
ATOM     59  C   UNL A   1      39.674  33.548  36.766  1.00  0.00     0.064 A 
ATOM     60  C   UNL A   1      40.335  34.781  36.856  1.00  0.00     0.173 A 
ATOM     61  C   UNL A   1      38.814  33.185  37.813  1.00  0.00     0.173 A 
ATOM     62  F   UNL A   1      41.177  35.170  35.887  1.00  0.00    -0.203 F 
ATOM     63  C   UNL A   1      40.159  35.607  37.963  1.00  0.00     0.198 A 
ATOM     64  C   UNL A   1      38.621  34.024  38.907  1.00  0.00     0.198 A 
ATOM     65  F   UNL A   1      38.153  32.017  37.772  1.00  0.00    -0.203 F 
ATOM     66  F   UNL A   1      40.832  36.764  38.049  1.00  0.00    -0.200 F 
ATOM     67  C   UNL A   1      39.298  35.231  38.984  1.00  0.00     0.200 A 
ATOM     68  F   UNL A   1      37.780  33.664  39.886  1.00  0.00    -0.200 F 
ATOM     69  F   UNL A   1      39.125  36.031  40.045  1.00  0.00    -0.200 F 
ENDBRANCH  45  59
BRANCH  46  70
ATOM     70  C   UNL A   1      40.494  27.903  28.578  1.00  0.00     0.064 A 
ATOM     71  C   UNL A   1      39.877  26.649  28.476  1.00  0.00     0.173 A 
ATOM     72  C   UNL A   1      41.259  28.348  27.490  1.00  0.00     0.173 A 
ATOM     73  F   UNL A   1      39.159  26.170  29.502  1.00  0.00    -0.203 F 
ATOM     74  C   UNL A   1      40.031  25.865  27.333  1.00  0.00     0.198 A 
ATOM     75  C   UNL A   1      41.389  27.575  26.338  1.00  0.00     0.198 A 
ATOM     76  F   UNL A   1      41.873  29.538  27.542  1.00  0.00    -0.203 F 
ATOM     77  F   UNL A   1      39.466  24.650  27.277  1.00  0.00    -0.200 F 
ATOM     78  C   UNL A   1      40.780  26.331  26.264  1.00  0.00     0.200 A 
ATOM     79  F   UNL A   1      42.106  28.033  25.304  1.00  0.00    -0.200 F 
ATOM     80  F   UNL A   1      40.925  25.577  25.165  1.00  0.00    -0.200 F 
ENDBRANCH  46  70
BRANCH  58  81
ATOM     81  C   UNL A   1      43.979  28.186  34.606  1.00  0.00     0.064 A 
ATOM     82  C   UNL A   1      43.798  26.970  35.282  1.00  0.00     0.173 A 
ATOM     83  C   UNL A   1      45.292  28.636  34.403  1.00  0.00     0.173 A 
ATOM     84  F   UNL A   1      42.561  26.506  35.515  1.00  0.00    -0.203 F 
ATOM     85  C   UNL A   1      44.888  26.245  35.756  1.00  0.00     0.198 A 
ATOM     86  C   UNL A   1      46.382  27.895  34.854  1.00  0.00     0.198 A 
ATOM     87  F   UNL A   1      45.520  29.789  33.756  1.00  0.00    -0.203 F 
ATOM     88  F   UNL A   1      44.690  25.108  36.436  1.00  0.00    -0.200 F 
ATOM     89  C   UNL A   1      46.179  26.704  35.535  1.00  0.00     0.200 A 
ATOM     90  F   UNL A   1      47.628  28.334  34.630  1.00  0.00    -0.200 F 
ATOM     91  F   UNL A   1      47.227  26.001  35.984  1.00  0.00    -0.200 F 
ENDBRANCH  58  81
ENDBRANCH  32  33
ENDBRANCH  25  27
ENDBRANCH  24  25
ENDBRANCH  23  24
ENDBRANCH   1  23
TORSDOF 14
ENDMDL
