MODEL 1
REMARK VINA RESULT:      -9.7      0.000      0.000
REMARK SMILES O=C(OCCOC(=O)[C@H]1C[C@H]1c1ccc(C2CC2)cc1)c1ccc(-c2c3nc(c(-c4c(F)c(F)c(F)c(F)c4F)c4ccc([nH]4)c(-c4c(F)c(F)c(F)c(F)c4F)c4nc(c(-c5c(F)c(F)c(F)c(F)c5F)c5ccc2[nH]5)C=C4)C=C3)cc1
REMARK SMILES IDX 4 1 3 2 2 3 1 4 21 5 22 6 83 7 23 8 82 9 24 10 25 11 26 12
REMARK SMILES IDX 76 13 27 14 81 15 75 16 77 17 28 18 80 19 74 20 73 21 29 23
REMARK SMILES IDX 61 24 41 25 60 26 42 27 45 28 59 29 78 30 43 31 44 32 58 34
REMARK SMILES IDX 79 35 46 36 30 37 31 38 39 39 32 40 33 41 37 42 40 43 34 44
REMARK SMILES IDX 35 45 38 46 36 47 62 48 63 49 71 50 64 51 65 52 69 53 72 54
REMARK SMILES IDX 66 55 67 56 70 57 68 58 47 59 48 60 56 61 49 62 50 63 54 64
REMARK SMILES IDX 57 65 51 66 52 67 55 68 53 69 5 70 6 71 7 72 8 73 9 74 10 75
REMARK SMILES IDX 11 76 12 77 13 78 20 79 14 80 19 81 15 82 16 83 17 84 18 85
REMARK H PARENT 77 22 45 33
REMARK Flexibility Score: inf
ROOT
ATOM      1  C   UNL A   1      34.760  33.421  28.003  1.00  0.00     0.275 C 
ENDROOT
BRANCH   1   2
ATOM      2  O   UNL A   1      34.178  32.136  28.268  1.00  0.00    -0.458 OA
BRANCH   2   3
ATOM      3  C   UNL A   1      34.630  30.898  27.966  1.00  0.00     0.338 C 
ATOM      4  O   UNL A   1      33.913  30.163  27.286  1.00  0.00    -0.246 OA
BRANCH   3   5
ATOM      5  C   UNL A   1      35.903  30.312  28.499  1.00  0.00     0.060 A 
ATOM      6  C   UNL A   1      36.111  29.725  29.750  1.00  0.00     0.016 A 
ATOM      7  C   UNL A   1      37.011  30.401  27.641  1.00  0.00     0.016 A 
ATOM      8  C   UNL A   1      37.355  29.180  30.103  1.00  0.00     0.010 A 
ATOM      9  C   UNL A   1      38.249  29.845  27.979  1.00  0.00     0.010 A 
ATOM     10  C   UNL A   1      38.432  29.224  29.216  1.00  0.00    -0.014 A 
BRANCH  10  11
ATOM     11  C   UNL A   1      39.778  28.736  29.610  1.00  0.00     0.031 A 
ATOM     12  C   UNL A   1      40.597  29.565  30.559  1.00  0.00     0.074 A 
ATOM     13  C   UNL A   1      40.275  27.594  29.099  1.00  0.00     0.049 A 
ATOM     14  N   UNL A   1      41.812  29.363  31.001  1.00  0.00    -0.248 NA
ATOM     15  C   UNL A   1      39.973  30.799  31.066  1.00  0.00     0.031 C 
ATOM     16  C   UNL A   1      39.580  26.718  28.157  1.00  0.00     0.029 A 
ATOM     17  N   UNL A   1      41.488  26.976  29.285  1.00  0.00    -0.354 N 
ATOM     18  C   UNL A   1      42.097  30.446  31.820  1.00  0.00     0.074 A 
ATOM     19  C   UNL A   1      40.955  31.329  31.778  1.00  0.00     0.031 C 
ATOM     20  C   UNL A   1      40.378  25.687  27.833  1.00  0.00     0.029 A 
ATOM     21  C   UNL A   1      41.648  25.832  28.538  1.00  0.00     0.049 A 
ATOM     22  H   UNL A   1      42.178  27.319  29.896  1.00  0.00     0.167 HD
ATOM     23  C   UNL A   1      43.205  30.669  32.565  1.00  0.00     0.037 A 
ATOM     24  C   UNL A   1      42.704  25.001  28.433  1.00  0.00     0.037 A 
ATOM     25  C   UNL A   1      44.317  29.765  32.636  1.00  0.00     0.049 A 
ATOM     26  C   UNL A   1      43.929  25.282  29.266  1.00  0.00     0.074 A 
ATOM     27  C   UNL A   1      45.448  29.848  33.428  1.00  0.00     0.029 A 
ATOM     28  N   UNL A   1      44.438  28.610  31.877  1.00  0.00    -0.354 N 
ATOM     29  N   UNL A   1      44.143  26.254  30.118  1.00  0.00    -0.248 NA
ATOM     30  C   UNL A   1      45.056  24.348  29.129  1.00  0.00     0.031 C 
ATOM     31  C   UNL A   1      46.273  28.763  33.116  1.00  0.00     0.029 A 
ATOM     32  C   UNL A   1      45.642  27.988  32.157  1.00  0.00     0.049 A 
ATOM     33  H   UNL A   1      43.767  28.282  31.236  1.00  0.00     0.167 HD
ATOM     34  C   UNL A   1      45.414  26.039  30.633  1.00  0.00     0.074 A 
ATOM     35  C   UNL A   1      45.916  24.831  30.015  1.00  0.00     0.031 C 
ATOM     36  C   UNL A   1      46.108  26.777  31.532  1.00  0.00     0.037 A 
BRANCH  23  37
ATOM     37  C   UNL A   1      43.258  31.936  33.363  1.00  0.00     0.064 A 
ATOM     38  C   UNL A   1      43.853  33.100  32.855  1.00  0.00     0.173 A 
ATOM     39  C   UNL A   1      42.691  31.992  34.644  1.00  0.00     0.173 A 
ATOM     40  F   UNL A   1      44.424  33.092  31.641  1.00  0.00    -0.203 F 
ATOM     41  C   UNL A   1      43.902  34.268  33.612  1.00  0.00     0.198 A 
ATOM     42  C   UNL A   1      42.719  33.169  35.389  1.00  0.00     0.198 A 
ATOM     43  F   UNL A   1      42.109  30.905  35.175  1.00  0.00    -0.203 F 
ATOM     44  F   UNL A   1      44.517  35.354  33.124  1.00  0.00    -0.200 F 
ATOM     45  C   UNL A   1      43.331  34.303  34.875  1.00  0.00     0.200 A 
ATOM     46  F   UNL A   1      42.160  33.204  36.606  1.00  0.00    -0.200 F 
ATOM     47  F   UNL A   1      43.375  35.428  35.600  1.00  0.00    -0.200 F 
ENDBRANCH  23  37
BRANCH  24  48
ATOM     48  C   UNL A   1      42.662  23.827  27.517  1.00  0.00     0.064 A 
ATOM     49  C   UNL A   1      42.274  22.561  27.978  1.00  0.00     0.173 A 
ATOM     50  C   UNL A   1      43.058  23.936  26.176  1.00  0.00     0.173 A 
ATOM     51  F   UNL A   1      41.905  22.398  29.257  1.00  0.00    -0.203 F 
ATOM     52  C   UNL A   1      42.315  21.444  27.144  1.00  0.00     0.198 A 
ATOM     53  C   UNL A   1      43.072  22.824  25.334  1.00  0.00     0.198 A 
ATOM     54  F   UNL A   1      43.435  25.123  25.681  1.00  0.00    -0.203 F 
ATOM     55  F   UNL A   1      41.994  20.237  27.627  1.00  0.00    -0.200 F 
ATOM     56  C   UNL A   1      42.713  21.577  25.822  1.00  0.00     0.200 A 
ATOM     57  F   UNL A   1      43.445  22.958  24.054  1.00  0.00    -0.200 F 
ATOM     58  F   UNL A   1      42.759  20.502  25.023  1.00  0.00    -0.200 F 
ENDBRANCH  24  48
BRANCH  36  59
ATOM     59  C   UNL A   1      47.477  26.297  31.905  1.00  0.00     0.064 A 
ATOM     60  C   UNL A   1      47.670  25.411  32.974  1.00  0.00     0.173 A 
ATOM     61  C   UNL A   1      48.595  26.668  31.143  1.00  0.00     0.173 A 
ATOM     62  F   UNL A   1      46.633  25.042  33.741  1.00  0.00    -0.203 F 
ATOM     63  C   UNL A   1      48.937  24.919  33.272  1.00  0.00     0.198 A 
ATOM     64  C   UNL A   1      49.855  26.152  31.427  1.00  0.00     0.198 A 
ATOM     65  F   UNL A   1      48.458  27.510  30.107  1.00  0.00    -0.203 F 
ATOM     66  F   UNL A   1      49.105  24.097  34.317  1.00  0.00    -0.200 F 
ATOM     67  C   UNL A   1      50.026  25.281  32.492  1.00  0.00     0.200 A 
ATOM     68  F   UNL A   1      50.903  26.492  30.664  1.00  0.00    -0.200 F 
ATOM     69  F   UNL A   1      51.242  24.792  32.770  1.00  0.00    -0.200 F 
ENDBRANCH  36  59
ENDBRANCH  10  11
ENDBRANCH   3   5
ENDBRANCH   2   3
ENDBRANCH   1   2
BRANCH   1  70
ATOM     70  C   UNL A   1      34.167  34.541  28.852  1.00  0.00     0.274 C 
BRANCH  70  71
ATOM     71  O   UNL A   1      33.633  34.068  30.098  1.00  0.00    -0.462 OA
BRANCH  71  72
ATOM     72  C   UNL A   1      34.028  34.721  31.232  1.00  0.00     0.309 C 
ATOM     73  O   UNL A   1      34.079  35.929  31.381  1.00  0.00    -0.252 OA
BRANCH  72  74
ATOM     74  C   UNL A   1      34.519  33.742  32.235  1.00  0.00     0.107 C 
ATOM     75  C   UNL A   1      34.799  32.327  31.791  1.00  0.00     0.025 C 
ATOM     76  C   UNL A   1      35.910  33.160  32.373  1.00  0.00     0.034 C 
BRANCH  76  77
ATOM     77  C   UNL A   1      37.128  33.585  31.579  1.00  0.00    -0.044 A 
ATOM     78  C   UNL A   1      37.333  33.319  30.221  1.00  0.00     0.004 A 
ATOM     79  C   UNL A   1      38.207  34.186  32.242  1.00  0.00     0.004 A 
ATOM     80  C   UNL A   1      38.530  33.674  29.570  1.00  0.00     0.004 A 
ATOM     81  C   UNL A   1      39.384  34.576  31.591  1.00  0.00     0.004 A 
ATOM     82  C   UNL A   1      39.582  34.328  30.230  1.00  0.00    -0.045 A 
BRANCH  82  83
ATOM     83  C   UNL A   1      40.845  34.717  29.482  1.00  0.00     0.019 C 
ATOM     84  C   UNL A   1      42.078  35.149  30.241  1.00  0.00     0.009 C 
ATOM     85  C   UNL A   1      42.083  33.851  29.489  1.00  0.00     0.009 C 
ENDBRANCH  82  83
ENDBRANCH  76  77
ENDBRANCH  72  74
ENDBRANCH  71  72
ENDBRANCH  70  71
ENDBRANCH   1  70
TORSDOF 13
ENDMDL
MODEL 2
REMARK VINA RESULT:      -9.6      2.316      3.240
REMARK SMILES O=C(OCCOC(=O)[C@H]1C[C@H]1c1ccc(C2CC2)cc1)c1ccc(-c2c3nc(c(-c4c(F)c(F)c(F)c(F)c4F)c4ccc([nH]4)c(-c4c(F)c(F)c(F)c(F)c4F)c4nc(c(-c5c(F)c(F)c(F)c(F)c5F)c5ccc2[nH]5)C=C4)C=C3)cc1
REMARK SMILES IDX 4 1 3 2 2 3 1 4 21 5 22 6 83 7 23 8 82 9 24 10 25 11 26 12
REMARK SMILES IDX 76 13 27 14 81 15 75 16 77 17 28 18 80 19 74 20 73 21 29 23
REMARK SMILES IDX 61 24 41 25 60 26 42 27 45 28 59 29 78 30 43 31 44 32 58 34
REMARK SMILES IDX 79 35 46 36 30 37 31 38 39 39 32 40 33 41 37 42 40 43 34 44
REMARK SMILES IDX 35 45 38 46 36 47 62 48 63 49 71 50 64 51 65 52 69 53 72 54
REMARK SMILES IDX 66 55 67 56 70 57 68 58 47 59 48 60 56 61 49 62 50 63 54 64
REMARK SMILES IDX 57 65 51 66 52 67 55 68 53 69 5 70 6 71 7 72 8 73 9 74 10 75
REMARK SMILES IDX 11 76 12 77 13 78 20 79 14 80 19 81 15 82 16 83 17 84 18 85
REMARK H PARENT 77 22 45 33
REMARK Flexibility Score: inf
ROOT
ATOM      1  C   UNL A   1      33.149  34.159  28.256  1.00  0.00     0.275 C 
ENDROOT
BRANCH   1   2
ATOM      2  O   UNL A   1      33.840  33.258  27.378  1.00  0.00    -0.458 OA
BRANCH   2   3
ATOM      3  C   UNL A   1      33.980  31.915  27.445  1.00  0.00     0.338 C 
ATOM      4  O   UNL A   1      33.083  31.209  26.985  1.00  0.00    -0.246 OA
BRANCH   3   5
ATOM      5  C   UNL A   1      35.107  31.219  28.147  1.00  0.00     0.060 A 
ATOM      6  C   UNL A   1      35.132  29.905  28.622  1.00  0.00     0.016 A 
ATOM      7  C   UNL A   1      36.249  32.005  28.375  1.00  0.00     0.016 A 
ATOM      8  C   UNL A   1      36.278  29.371  29.231  1.00  0.00     0.010 A 
ATOM      9  C   UNL A   1      37.400  31.475  28.967  1.00  0.00     0.010 A 
ATOM     10  C   UNL A   1      37.427  30.147  29.399  1.00  0.00    -0.014 A 
BRANCH  10  11
ATOM     11  C   UNL A   1      38.612  29.626  30.125  1.00  0.00     0.031 A 
ATOM     12  C   UNL A   1      38.873  30.110  31.523  1.00  0.00     0.074 A 
ATOM     13  C   UNL A   1      39.462  28.766  29.531  1.00  0.00     0.049 A 
ATOM     14  N   UNL A   1      39.868  29.832  32.326  1.00  0.00    -0.248 NA
ATOM     15  C   UNL A   1      37.891  31.050  32.091  1.00  0.00     0.031 C 
ATOM     16  C   UNL A   1      39.322  28.242  28.174  1.00  0.00     0.029 A 
ATOM     17  N   UNL A   1      40.623  28.190  29.985  1.00  0.00    -0.354 N 
ATOM     18  C   UNL A   1      39.637  30.570  33.478  1.00  0.00     0.074 A 
ATOM     19  C   UNL A   1      38.440  31.348  33.257  1.00  0.00     0.031 C 
ATOM     20  C   UNL A   1      40.361  27.437  27.896  1.00  0.00     0.029 A 
ATOM     21  C   UNL A   1      41.249  27.394  29.053  1.00  0.00     0.049 A 
ATOM     22  H   UNL A   1      40.976  28.333  30.893  1.00  0.00     0.167 HD
ATOM     23  C   UNL A   1      40.347  30.577  34.630  1.00  0.00     0.037 A 
ATOM     24  C   UNL A   1      42.409  26.712  29.128  1.00  0.00     0.037 A 
ATOM     25  C   UNL A   1      41.511  29.767  34.857  1.00  0.00     0.049 A 
ATOM     26  C   UNL A   1      43.185  26.748  30.420  1.00  0.00     0.074 A 
ATOM     27  C   UNL A   1      42.252  29.628  36.016  1.00  0.00     0.029 A 
ATOM     28  N   UNL A   1      42.106  28.963  33.896  1.00  0.00    -0.354 N 
ATOM     29  N   UNL A   1      42.898  27.367  31.539  1.00  0.00    -0.248 NA
ATOM     30  C   UNL A   1      44.441  25.985  30.464  1.00  0.00     0.031 C 
ATOM     31  C   UNL A   1      43.322  28.770  35.743  1.00  0.00     0.029 A 
ATOM     32  C   UNL A   1      43.227  28.349  34.426  1.00  0.00     0.049 A 
ATOM     33  H   UNL A   1      41.779  28.846  32.975  1.00  0.00     0.167 HD
ATOM     34  C   UNL A   1      43.921  27.054  32.423  1.00  0.00     0.074 A 
ATOM     35  C   UNL A   1      44.826  26.171  31.719  1.00  0.00     0.031 C 
ATOM     36  C   UNL A   1      44.102  27.464  33.701  1.00  0.00     0.037 A 
BRANCH  23  37
ATOM     37  C   UNL A   1      39.877  31.481  35.728  1.00  0.00     0.064 A 
ATOM     38  C   UNL A   1      40.529  32.690  36.013  1.00  0.00     0.173 A 
ATOM     39  C   UNL A   1      38.751  31.144  36.492  1.00  0.00     0.173 A 
ATOM     40  F   UNL A   1      41.621  33.049  35.321  1.00  0.00    -0.203 F 
ATOM     41  C   UNL A   1      40.084  33.517  37.042  1.00  0.00     0.198 A 
ATOM     42  C   UNL A   1      38.294  31.986  37.503  1.00  0.00     0.198 A 
ATOM     43  F   UNL A   1      38.093  29.998  36.257  1.00  0.00    -0.203 F 
ATOM     44  F   UNL A   1      40.751  34.645  37.327  1.00  0.00    -0.200 F 
ATOM     45  C   UNL A   1      38.966  33.167  37.782  1.00  0.00     0.200 A 
ATOM     46  F   UNL A   1      37.208  31.650  38.213  1.00  0.00    -0.200 F 
ATOM     47  F   UNL A   1      38.537  33.965  38.769  1.00  0.00    -0.200 F 
ENDBRANCH  23  37
BRANCH  24  48
ATOM     48  C   UNL A   1      42.914  25.936  27.961  1.00  0.00     0.064 A 
ATOM     49  C   UNL A   1      43.790  26.513  27.031  1.00  0.00     0.173 A 
ATOM     50  C   UNL A   1      42.491  24.619  27.725  1.00  0.00     0.173 A 
ATOM     51  F   UNL A   1      44.209  27.775  27.200  1.00  0.00    -0.203 F 
ATOM     52  C   UNL A   1      44.197  25.816  25.894  1.00  0.00     0.198 A 
ATOM     53  C   UNL A   1      42.921  23.913  26.602  1.00  0.00     0.198 A 
ATOM     54  F   UNL A   1      41.658  24.016  28.584  1.00  0.00    -0.203 F 
ATOM     55  F   UNL A   1      44.988  26.414  24.992  1.00  0.00    -0.200 F 
ATOM     56  C   UNL A   1      43.764  24.516  25.681  1.00  0.00     0.200 A 
ATOM     57  F   UNL A   1      42.510  22.653  26.405  1.00  0.00    -0.200 F 
ATOM     58  F   UNL A   1      44.149  23.851  24.583  1.00  0.00    -0.200 F 
ENDBRANCH  24  48
BRANCH  36  59
ATOM     59  C   UNL A   1      45.315  26.960  34.421  1.00  0.00     0.064 A 
ATOM     60  C   UNL A   1      45.298  25.735  35.103  1.00  0.00     0.173 A 
ATOM     61  C   UNL A   1      46.524  27.669  34.366  1.00  0.00     0.173 A 
ATOM     62  F   UNL A   1      44.160  25.030  35.196  1.00  0.00    -0.203 F 
ATOM     63  C   UNL A   1      46.447  25.243  35.713  1.00  0.00     0.198 A 
ATOM     64  C   UNL A   1      47.677  27.160  34.953  1.00  0.00     0.198 A 
ATOM     65  F   UNL A   1      46.589  28.844  33.719  1.00  0.00    -0.203 F 
ATOM     66  F   UNL A   1      46.402  24.085  36.387  1.00  0.00    -0.200 F 
ATOM     67  C   UNL A   1      47.638  25.949  35.628  1.00  0.00     0.200 A 
ATOM     68  F   UNL A   1      48.830  27.838  34.859  1.00  0.00    -0.200 F 
ATOM     69  F   UNL A   1      48.748  25.465  36.201  1.00  0.00    -0.200 F 
ENDBRANCH  36  59
ENDBRANCH  10  11
ENDBRANCH   3   5
ENDBRANCH   2   3
ENDBRANCH   1   2
BRANCH   1  70
ATOM     70  C   UNL A   1      34.054  34.796  29.306  1.00  0.00     0.274 C 
BRANCH  70  71
ATOM     71  O   UNL A   1      33.514  34.702  30.632  1.00  0.00    -0.462 OA
BRANCH  71  72
ATOM     72  C   UNL A   1      34.155  33.871  31.508  1.00  0.00     0.309 C 
ATOM     73  O   UNL A   1      34.403  32.693  31.324  1.00  0.00    -0.252 OA
BRANCH  72  74
ATOM     74  C   UNL A   1      34.397  34.578  32.792  1.00  0.00     0.107 C 
ATOM     75  C   UNL A   1      34.913  33.786  33.969  1.00  0.00     0.025 C 
ATOM     76  C   UNL A   1      35.724  34.934  33.428  1.00  0.00     0.034 C 
BRANCH  76  77
ATOM     77  C   UNL A   1      37.086  34.756  32.790  1.00  0.00    -0.044 A 
ATOM     78  C   UNL A   1      37.314  34.576  31.422  1.00  0.00     0.004 A 
ATOM     79  C   UNL A   1      38.219  34.636  33.608  1.00  0.00     0.004 A 
ATOM     80  C   UNL A   1      38.605  34.334  30.913  1.00  0.00     0.004 A 
ATOM     81  C   UNL A   1      39.510  34.432  33.103  1.00  0.00     0.004 A 
ATOM     82  C   UNL A   1      39.741  34.273  31.735  1.00  0.00    -0.045 A 
BRANCH  82  83
ATOM     83  C   UNL A   1      41.117  34.035  31.139  1.00  0.00     0.019 C 
ATOM     84  C   UNL A   1      42.140  33.212  31.887  1.00  0.00     0.009 C 
ATOM     85  C   UNL A   1      41.545  32.684  30.615  1.00  0.00     0.009 C 
ENDBRANCH  82  83
ENDBRANCH  76  77
ENDBRANCH  72  74
ENDBRANCH  71  72
ENDBRANCH  70  71
ENDBRANCH   1  70
TORSDOF 13
ENDMDL
MODEL 3
REMARK VINA RESULT:      -9.5      4.067     10.732
REMARK SMILES O=C(OCCOC(=O)[C@H]1C[C@H]1c1ccc(C2CC2)cc1)c1ccc(-c2c3nc(c(-c4c(F)c(F)c(F)c(F)c4F)c4ccc([nH]4)c(-c4c(F)c(F)c(F)c(F)c4F)c4nc(c(-c5c(F)c(F)c(F)c(F)c5F)c5ccc2[nH]5)C=C4)C=C3)cc1
REMARK SMILES IDX 4 1 3 2 2 3 1 4 21 5 22 6 83 7 23 8 82 9 24 10 25 11 26 12
REMARK SMILES IDX 76 13 27 14 81 15 75 16 77 17 28 18 80 19 74 20 73 21 29 23
REMARK SMILES IDX 61 24 41 25 60 26 42 27 45 28 59 29 78 30 43 31 44 32 58 34
REMARK SMILES IDX 79 35 46 36 30 37 31 38 39 39 32 40 33 41 37 42 40 43 34 44
REMARK SMILES IDX 35 45 38 46 36 47 62 48 63 49 71 50 64 51 65 52 69 53 72 54
REMARK SMILES IDX 66 55 67 56 70 57 68 58 47 59 48 60 56 61 49 62 50 63 54 64
REMARK SMILES IDX 57 65 51 66 52 67 55 68 53 69 5 70 6 71 7 72 8 73 9 74 10 75
REMARK SMILES IDX 11 76 12 77 13 78 20 79 14 80 19 81 15 82 16 83 17 84 18 85
REMARK H PARENT 77 22 45 33
REMARK Flexibility Score: inf
ROOT
ATOM      1  C   UNL A   1      40.525  20.432  26.492  1.00  0.00     0.275 C 
ENDROOT
BRANCH   1   2
ATOM      2  O   UNL A   1      39.958  21.583  27.134  1.00  0.00    -0.458 OA
BRANCH   2   3
ATOM      3  C   UNL A   1      39.394  22.688  26.598  1.00  0.00     0.338 C 
ATOM      4  O   UNL A   1      38.571  22.546  25.694  1.00  0.00    -0.246 OA
BRANCH   3   5
ATOM      5  C   UNL A   1      39.787  24.091  26.950  1.00  0.00     0.060 A 
ATOM      6  C   UNL A   1      40.331  25.061  26.104  1.00  0.00     0.016 A 
ATOM      7  C   UNL A   1      39.613  24.443  28.299  1.00  0.00     0.016 A 
ATOM      8  C   UNL A   1      40.619  26.355  26.565  1.00  0.00     0.010 A 
ATOM      9  C   UNL A   1      39.882  25.735  28.762  1.00  0.00     0.010 A 
ATOM     10  C   UNL A   1      40.386  26.708  27.896  1.00  0.00    -0.014 A 
BRANCH  10  11
ATOM     11  C   UNL A   1      40.771  28.041  28.421  1.00  0.00     0.031 A 
ATOM     12  C   UNL A   1      42.217  28.302  28.740  1.00  0.00     0.074 A 
ATOM     13  C   UNL A   1      39.842  28.990  28.646  1.00  0.00     0.049 A 
ATOM     14  N   UNL A   1      42.775  29.369  29.251  1.00  0.00    -0.248 NA
ATOM     15  C   UNL A   1      43.162  27.207  28.462  1.00  0.00     0.031 C 
ATOM     16  C   UNL A   1      38.409  28.845  28.393  1.00  0.00     0.029 A 
ATOM     17  N   UNL A   1      39.957  30.261  29.153  1.00  0.00    -0.354 N 
ATOM     18  C   UNL A   1      44.124  29.066  29.369  1.00  0.00     0.074 A 
ATOM     19  C   UNL A   1      44.298  27.703  28.924  1.00  0.00     0.031 C 
ATOM     20  C   UNL A   1      37.775  29.971  28.760  1.00  0.00     0.029 A 
ATOM     21  C   UNL A   1      38.754  30.917  29.284  1.00  0.00     0.049 A 
ATOM     22  H   UNL A   1      40.819  30.666  29.401  1.00  0.00     0.167 HD
ATOM     23  C   UNL A   1      45.133  29.867  29.783  1.00  0.00     0.037 A 
ATOM     24  C   UNL A   1      38.479  32.142  29.775  1.00  0.00     0.037 A 
ATOM     25  C   UNL A   1      44.957  31.235  30.181  1.00  0.00     0.049 A 
ATOM     26  C   UNL A   1      39.622  33.006  30.242  1.00  0.00     0.074 A 
ATOM     27  C   UNL A   1      45.922  32.162  30.531  1.00  0.00     0.029 A 
ATOM     28  N   UNL A   1      43.728  31.869  30.286  1.00  0.00    -0.354 N 
ATOM     29  N   UNL A   1      40.906  32.745  30.247  1.00  0.00    -0.248 NA
ATOM     30  C   UNL A   1      39.281  34.338  30.763  1.00  0.00     0.031 C 
ATOM     31  C   UNL A   1      45.271  33.347  30.889  1.00  0.00     0.029 A 
ATOM     32  C   UNL A   1      43.906  33.168  30.729  1.00  0.00     0.049 A 
ATOM     33  H   UNL A   1      42.859  31.457  30.076  1.00  0.00     0.167 HD
ATOM     34  C   UNL A   1      41.526  33.880  30.749  1.00  0.00     0.074 A 
ATOM     35  C   UNL A   1      40.480  34.844  31.017  1.00  0.00     0.031 C 
ATOM     36  C   UNL A   1      42.843  34.107  30.976  1.00  0.00     0.037 A 
BRANCH  23  37
ATOM     37  C   UNL A   1      46.511  29.280  29.819  1.00  0.00     0.064 A 
ATOM     38  C   UNL A   1      47.379  29.376  28.721  1.00  0.00     0.173 A 
ATOM     39  C   UNL A   1      46.977  28.632  30.972  1.00  0.00     0.173 A 
ATOM     40  F   UNL A   1      46.974  29.973  27.590  1.00  0.00    -0.203 F 
ATOM     41  C   UNL A   1      48.655  28.820  28.767  1.00  0.00     0.198 A 
ATOM     42  C   UNL A   1      48.262  28.098  31.023  1.00  0.00     0.198 A 
ATOM     43  F   UNL A   1      46.184  28.515  32.049  1.00  0.00    -0.203 F 
ATOM     44  F   UNL A   1      49.450  28.882  27.690  1.00  0.00    -0.200 F 
ATOM     45  C   UNL A   1      49.096  28.187  29.919  1.00  0.00     0.200 A 
ATOM     46  F   UNL A   1      48.691  27.493  32.140  1.00  0.00    -0.200 F 
ATOM     47  F   UNL A   1      50.325  27.655  29.963  1.00  0.00    -0.200 F 
ENDBRANCH  23  37
BRANCH  24  48
ATOM     48  C   UNL A   1      37.075  32.634  29.853  1.00  0.00     0.064 A 
ATOM     49  C   UNL A   1      36.505  33.369  28.804  1.00  0.00     0.173 A 
ATOM     50  C   UNL A   1      36.293  32.423  30.998  1.00  0.00     0.173 A 
ATOM     51  F   UNL A   1      37.217  33.616  27.695  1.00  0.00    -0.203 F 
ATOM     52  C   UNL A   1      35.220  33.902  28.910  1.00  0.00     0.198 A 
ATOM     53  C   UNL A   1      34.998  32.932  31.092  1.00  0.00     0.198 A 
ATOM     54  F   UNL A   1      36.786  31.722  32.029  1.00  0.00    -0.203 F 
ATOM     55  F   UNL A   1      34.723  34.650  27.916  1.00  0.00    -0.200 F 
ATOM     56  C   UNL A   1      34.467  33.682  30.054  1.00  0.00     0.200 A 
ATOM     57  F   UNL A   1      34.268  32.707  32.194  1.00  0.00    -0.200 F 
ATOM     58  F   UNL A   1      33.236  34.201  30.158  1.00  0.00    -0.200 F 
ENDBRANCH  24  48
BRANCH  36  59
ATOM     59  C   UNL A   1      43.225  35.444  31.533  1.00  0.00     0.064 A 
ATOM     60  C   UNL A   1      43.607  36.499  30.692  1.00  0.00     0.173 A 
ATOM     61  C   UNL A   1      43.138  35.694  32.910  1.00  0.00     0.173 A 
ATOM     62  F   UNL A   1      43.720  36.301  29.370  1.00  0.00    -0.203 F 
ATOM     63  C   UNL A   1      43.896  37.756  31.213  1.00  0.00     0.198 A 
ATOM     64  C   UNL A   1      43.401  36.960  33.424  1.00  0.00     0.198 A 
ATOM     65  F   UNL A   1      42.771  34.716  33.753  1.00  0.00    -0.203 F 
ATOM     66  F   UNL A   1      44.290  38.743  30.396  1.00  0.00    -0.200 F 
ATOM     67  C   UNL A   1      43.783  37.988  32.576  1.00  0.00     0.200 A 
ATOM     68  F   UNL A   1      43.278  37.185  34.739  1.00  0.00    -0.200 F 
ATOM     69  F   UNL A   1      44.045  39.205  33.074  1.00  0.00    -0.200 F 
ENDBRANCH  36  59
ENDBRANCH  10  11
ENDBRANCH   3   5
ENDBRANCH   2   3
ENDBRANCH   1   2
BRANCH   1  70
ATOM     70  C   UNL A   1      42.047  20.375  26.581  1.00  0.00     0.274 C 
BRANCH  70  71
ATOM     71  O   UNL A   1      42.686  20.655  25.326  1.00  0.00    -0.462 OA
BRANCH  71  72
ATOM     72  C   UNL A   1      44.028  20.909  25.355  1.00  0.00     0.309 C 
ATOM     73  O   UNL A   1      44.883  20.189  25.840  1.00  0.00    -0.252 OA
BRANCH  72  74
ATOM     74  C   UNL A   1      44.298  22.269  24.820  1.00  0.00     0.107 C 
ATOM     75  C   UNL A   1      43.170  23.271  24.785  1.00  0.00     0.025 C 
ATOM     76  C   UNL A   1      44.410  23.570  25.586  1.00  0.00     0.034 C 
BRANCH  76  77
ATOM     77  C   UNL A   1      44.406  23.712  27.094  1.00  0.00    -0.044 A 
ATOM     78  C   UNL A   1      43.296  23.497  27.917  1.00  0.00     0.004 A 
ATOM     79  C   UNL A   1      45.545  24.210  27.741  1.00  0.00     0.004 A 
ATOM     80  C   UNL A   1      43.349  23.729  29.305  1.00  0.00     0.004 A 
ATOM     81  C   UNL A   1      45.615  24.407  29.127  1.00  0.00     0.004 A 
ATOM     82  C   UNL A   1      44.513  24.173  29.952  1.00  0.00    -0.045 A 
BRANCH  82  83
ATOM     83  C   UNL A   1      44.531  24.385  31.456  1.00  0.00     0.019 C 
ATOM     84  C   UNL A   1      45.645  25.177  32.099  1.00  0.00     0.009 C 
ATOM     85  C   UNL A   1      44.252  25.732  32.082  1.00  0.00     0.009 C 
ENDBRANCH  82  83
ENDBRANCH  76  77
ENDBRANCH  72  74
ENDBRANCH  71  72
ENDBRANCH  70  71
ENDBRANCH   1  70
TORSDOF 13
ENDMDL
