MODEL 1
REMARK VINA RESULT:     -11.2      0.000      0.000
REMARK SMILES C=C(C)C[N@H+](C)[C@H](C(=O)OCCOC(=O)c1ccc(-c2c3nc(c(-c4c(F)c(F)c(F)c(F)c4F)c4ccc([nH]4)c(-c4c(F)c(F)c(F)c(F)c4F)c4nc(c(-c5c(F)c(F)c(F)c(F)c5F)c5ccc2[nH]5)C=C4)C=C3)cc1)c1cc(C)c(OC)c(C)c1
REMARK SMILES IDX 11 1 10 2 8 3 9 4 7 5 5 6 6 7 4 9 2 10 1 11 3 12 79 13 80 14
REMARK SMILES IDX 88 15 81 16 86 17 82 18 83 19 87 20 84 21 85 22 12 23 13 24
REMARK SMILES IDX 14 25 15 26 16 27 17 28 78 29 18 30 77 31 19 32 20 33 21 34
REMARK SMILES IDX 71 35 22 36 76 37 70 38 72 39 23 40 75 41 69 42 68 43 24 45
REMARK SMILES IDX 56 46 36 47 55 48 37 49 40 50 54 51 73 52 38 53 39 54 53 56
REMARK SMILES IDX 74 57 41 58 25 59 26 60 34 61 27 62 28 63 32 64 35 65 29 66
REMARK SMILES IDX 30 67 33 68 31 69 57 70 58 71 66 72 59 73 60 74 64 75 67 76
REMARK SMILES IDX 61 77 62 78 65 79 63 80 42 81 43 82 51 83 44 84 45 85 49 86
REMARK SMILES IDX 52 87 46 88 47 89 50 90 48 91
REMARK H PARENT 5 8 72 44 40 55
REMARK Flexibility Score: inf
ROOT
ATOM      1  C   UNL A   1      32.948  29.367  24.319  1.00  0.00     0.274 C 
ENDROOT
BRANCH   1   2
ATOM      2  O   UNL A   1      33.536  28.145  24.821  1.00  0.00    -0.457 OA
BRANCH   2   3
ATOM      3  C   UNL A   1      33.147  26.981  24.224  1.00  0.00     0.370 C 
ATOM      4  O   UNL A   1      33.128  26.820  23.005  1.00  0.00    -0.245 OA
BRANCH   3   5
ATOM      5  C   UNL A   1      32.788  25.845  25.227  1.00  0.00     0.326 C 
BRANCH   5   6
ATOM      6  N   UNL A   1      31.332  25.450  25.147  1.00  0.00    -0.318 N 
ATOM      7  C   UNL A   1      30.482  26.647  25.137  1.00  0.00     0.334 C 
ATOM      8  H   UNL A   1      31.147  24.891  25.980  1.00  0.00     0.349 HD
BRANCH   6   9
ATOM      9  C   UNL A   1      31.006  24.589  24.000  1.00  0.00     0.294 C 
BRANCH   9  10
ATOM     10  C   UNL A   1      31.226  23.105  24.148  1.00  0.00    -0.026 C 
ATOM     11  C   UNL A   1      31.794  22.367  23.178  1.00  0.00     0.013 C 
ATOM     12  C   UNL A   1      30.702  22.469  25.405  1.00  0.00     0.045 C 
ENDBRANCH   9  10
ENDBRANCH   6   9
ENDBRANCH   5   6
BRANCH   5  13
ATOM     13  C   UNL A   1      33.750  24.654  25.306  1.00  0.00     0.022 A 
ATOM     14  C   UNL A   1      33.786  23.827  26.431  1.00  0.00     0.017 A 
ATOM     15  C   UNL A   1      34.720  24.420  24.321  1.00  0.00     0.017 A 
ATOM     16  C   UNL A   1      34.619  22.706  26.514  1.00  0.00    -0.008 A 
ATOM     17  C   UNL A   1      35.649  23.356  24.416  1.00  0.00    -0.008 A 
ATOM     18  C   UNL A   1      34.393  21.754  27.659  1.00  0.00     0.048 C 
ATOM     19  C   UNL A   1      35.554  22.457  25.496  1.00  0.00     0.124 A 
ATOM     20  C   UNL A   1      36.710  23.292  23.355  1.00  0.00     0.048 C 
BRANCH  19  21
ATOM     21  O   UNL A   1      36.360  21.380  25.747  1.00  0.00    -0.496 OA
ATOM     22  C   UNL A   1      36.176  20.191  25.001  1.00  0.00     0.278 C 
ENDBRANCH  19  21
ENDBRANCH   5  13
ENDBRANCH   3   5
ENDBRANCH   2   3
ENDBRANCH   1   2
BRANCH   1  23
ATOM     23  C   UNL A   1      31.887  29.890  25.289  1.00  0.00     0.275 C 
BRANCH  23  24
ATOM     24  O   UNL A   1      32.429  29.871  26.618  1.00  0.00    -0.458 OA
BRANCH  24  25
ATOM     25  C   UNL A   1      32.948  31.043  27.063  1.00  0.00     0.338 C 
ATOM     26  O   UNL A   1      32.368  32.112  27.111  1.00  0.00    -0.246 OA
BRANCH  25  27
ATOM     27  C   UNL A   1      34.321  30.810  27.597  1.00  0.00     0.060 A 
ATOM     28  C   UNL A   1      34.796  29.521  27.855  1.00  0.00     0.016 A 
ATOM     29  C   UNL A   1      35.110  31.906  27.960  1.00  0.00     0.016 A 
ATOM     30  C   UNL A   1      35.966  29.337  28.594  1.00  0.00     0.010 A 
ATOM     31  C   UNL A   1      36.346  31.707  28.593  1.00  0.00     0.010 A 
ATOM     32  C   UNL A   1      36.781  30.420  28.952  1.00  0.00    -0.014 A 
BRANCH  32  33
ATOM     33  C   UNL A   1      38.069  30.221  29.685  1.00  0.00     0.031 A 
ATOM     34  C   UNL A   1      39.176  29.389  29.084  1.00  0.00     0.074 A 
ATOM     35  C   UNL A   1      38.263  30.756  30.910  1.00  0.00     0.049 A 
ATOM     36  N   UNL A   1      40.197  28.815  29.671  1.00  0.00    -0.248 NA
ATOM     37  C   UNL A   1      39.120  29.161  27.631  1.00  0.00     0.031 C 
ATOM     38  C   UNL A   1      37.338  31.646  31.612  1.00  0.00     0.029 A 
ATOM     39  N   UNL A   1      39.309  30.612  31.794  1.00  0.00    -0.354 N 
ATOM     40  C   UNL A   1      40.853  28.094  28.681  1.00  0.00     0.074 A 
ATOM     41  C   UNL A   1      40.134  28.325  27.446  1.00  0.00     0.031 C 
ATOM     42  C   UNL A   1      37.865  31.995  32.792  1.00  0.00     0.029 A 
ATOM     43  C   UNL A   1      39.099  31.248  32.994  1.00  0.00     0.049 A 
ATOM     44  H   UNL A   1      40.126  30.104  31.586  1.00  0.00     0.167 HD
ATOM     45  C   UNL A   1      41.944  27.297  28.802  1.00  0.00     0.037 A 
ATOM     46  C   UNL A   1      39.763  31.180  34.163  1.00  0.00     0.037 A 
ATOM     47  C   UNL A   1      42.703  27.132  30.017  1.00  0.00     0.049 A 
ATOM     48  C   UNL A   1      40.945  30.263  34.288  1.00  0.00     0.074 A 
ATOM     49  C   UNL A   1      43.824  26.348  30.237  1.00  0.00     0.029 A 
ATOM     50  N   UNL A   1      42.434  27.784  31.210  1.00  0.00    -0.354 N 
ATOM     51  N   UNL A   1      41.487  29.487  33.384  1.00  0.00    -0.248 NA
ATOM     52  C   UNL A   1      41.585  30.188  35.609  1.00  0.00     0.031 C 
ATOM     53  C   UNL A   1      44.217  26.507  31.570  1.00  0.00     0.029 A 
ATOM     54  C   UNL A   1      43.366  27.419  32.168  1.00  0.00     0.049 A 
ATOM     55  H   UNL A   1      41.690  28.413  31.354  1.00  0.00     0.167 HD
ATOM     56  C   UNL A   1      42.537  28.841  34.018  1.00  0.00     0.074 A 
ATOM     57  C   UNL A   1      42.567  29.326  35.382  1.00  0.00     0.031 C 
ATOM     58  C   UNL A   1      43.394  27.920  33.517  1.00  0.00     0.037 A 
BRANCH  45  59
ATOM     59  C   UNL A   1      42.375  26.500  27.607  1.00  0.00     0.064 A 
ATOM     60  C   UNL A   1      43.375  26.945  26.732  1.00  0.00     0.173 A 
ATOM     61  C   UNL A   1      41.831  25.223  27.386  1.00  0.00     0.173 A 
ATOM     62  F   UNL A   1      43.920  28.160  26.893  1.00  0.00    -0.203 F 
ATOM     63  C   UNL A   1      43.810  26.146  25.676  1.00  0.00     0.198 A 
ATOM     64  C   UNL A   1      42.285  24.417  26.345  1.00  0.00     0.198 A 
ATOM     65  F   UNL A   1      40.878  24.745  28.201  1.00  0.00    -0.203 F 
ATOM     66  F   UNL A   1      44.751  26.599  24.836  1.00  0.00    -0.200 F 
ATOM     67  C   UNL A   1      43.272  24.880  25.489  1.00  0.00     0.200 A 
ATOM     68  F   UNL A   1      41.773  23.190  26.177  1.00  0.00    -0.200 F 
ATOM     69  F   UNL A   1      43.705  24.107  24.484  1.00  0.00    -0.200 F 
ENDBRANCH  45  59
BRANCH  46  70
ATOM     70  C   UNL A   1      39.264  31.943  35.337  1.00  0.00     0.064 A 
ATOM     71  C   UNL A   1      39.634  33.279  35.538  1.00  0.00     0.173 A 
ATOM     72  C   UNL A   1      38.395  31.356  36.269  1.00  0.00     0.173 A 
ATOM     73  F   UNL A   1      40.486  33.873  34.690  1.00  0.00    -0.203 F 
ATOM     74  C   UNL A   1      39.155  33.997  36.632  1.00  0.00     0.198 A 
ATOM     75  C   UNL A   1      37.891  32.085  37.343  1.00  0.00     0.198 A 
ATOM     76  F   UNL A   1      38.013  30.079  36.121  1.00  0.00    -0.203 F 
ATOM     77  F   UNL A   1      39.553  35.263  36.824  1.00  0.00    -0.200 F 
ATOM     78  C   UNL A   1      38.277  33.404  37.526  1.00  0.00     0.200 A 
ATOM     79  F   UNL A   1      37.027  31.513  38.192  1.00  0.00    -0.200 F 
ATOM     80  F   UNL A   1      37.805  34.101  38.569  1.00  0.00    -0.200 F 
ENDBRANCH  46  70
BRANCH  58  81
ATOM     81  C   UNL A   1      44.467  27.416  34.432  1.00  0.00     0.064 A 
ATOM     82  C   UNL A   1      44.287  26.263  35.209  1.00  0.00     0.173 A 
ATOM     83  C   UNL A   1      45.698  28.082  34.514  1.00  0.00     0.173 A 
ATOM     84  F   UNL A   1      43.119  25.604  35.178  1.00  0.00    -0.203 F 
ATOM     85  C   UNL A   1      45.297  25.805  36.051  1.00  0.00     0.198 A 
ATOM     86  C   UNL A   1      46.714  27.609  35.339  1.00  0.00     0.198 A 
ATOM     87  F   UNL A   1      45.917  29.189  33.787  1.00  0.00    -0.203 F 
ATOM     88  F   UNL A   1      45.091  24.725  36.815  1.00  0.00    -0.200 F 
ATOM     89  C   UNL A   1      46.510  26.475  36.111  1.00  0.00     0.200 A 
ATOM     90  F   UNL A   1      47.888  28.254  35.392  1.00  0.00    -0.200 F 
ATOM     91  F   UNL A   1      47.481  26.033  36.921  1.00  0.00    -0.200 F 
ENDBRANCH  58  81
ENDBRANCH  32  33
ENDBRANCH  25  27
ENDBRANCH  24  25
ENDBRANCH  23  24
ENDBRANCH   1  23
TORSDOF 16
ENDMDL
MODEL 2
REMARK VINA RESULT:     -11.1      1.053      2.372
REMARK SMILES C=C(C)C[N@H+](C)[C@H](C(=O)OCCOC(=O)c1ccc(-c2c3nc(c(-c4c(F)c(F)c(F)c(F)c4F)c4ccc([nH]4)c(-c4c(F)c(F)c(F)c(F)c4F)c4nc(c(-c5c(F)c(F)c(F)c(F)c5F)c5ccc2[nH]5)C=C4)C=C3)cc1)c1cc(C)c(OC)c(C)c1
REMARK SMILES IDX 11 1 10 2 8 3 9 4 7 5 5 6 6 7 4 9 2 10 1 11 3 12 79 13 80 14
REMARK SMILES IDX 88 15 81 16 86 17 82 18 83 19 87 20 84 21 85 22 12 23 13 24
REMARK SMILES IDX 14 25 15 26 16 27 17 28 78 29 18 30 77 31 19 32 20 33 21 34
REMARK SMILES IDX 71 35 22 36 76 37 70 38 72 39 23 40 75 41 69 42 68 43 24 45
REMARK SMILES IDX 56 46 36 47 55 48 37 49 40 50 54 51 73 52 38 53 39 54 53 56
REMARK SMILES IDX 74 57 41 58 25 59 26 60 34 61 27 62 28 63 32 64 35 65 29 66
REMARK SMILES IDX 30 67 33 68 31 69 57 70 58 71 66 72 59 73 60 74 64 75 67 76
REMARK SMILES IDX 61 77 62 78 65 79 63 80 42 81 43 82 51 83 44 84 45 85 49 86
REMARK SMILES IDX 52 87 46 88 47 89 50 90 48 91
REMARK H PARENT 5 8 72 44 40 55
REMARK Flexibility Score: inf
ROOT
ATOM      1  C   UNL A   1      31.918  28.154  27.301  1.00  0.00     0.274 C 
ENDROOT
BRANCH   1   2
ATOM      2  O   UNL A   1      32.352  27.179  26.326  1.00  0.00    -0.457 OA
BRANCH   2   3
ATOM      3  C   UNL A   1      31.457  26.207  25.982  1.00  0.00     0.370 C 
ATOM      4  O   UNL A   1      30.348  26.096  26.501  1.00  0.00    -0.245 OA
BRANCH   3   5
ATOM      5  C   UNL A   1      31.938  25.286  24.822  1.00  0.00     0.326 C 
BRANCH   5   6
ATOM      6  N   UNL A   1      32.265  26.065  23.570  1.00  0.00    -0.318 N 
ATOM      7  C   UNL A   1      32.641  25.149  22.486  1.00  0.00     0.334 C 
ATOM      8  H   UNL A   1      33.051  26.669  23.813  1.00  0.00     0.349 HD
BRANCH   6   9
ATOM      9  C   UNL A   1      31.188  26.961  23.122  1.00  0.00     0.294 C 
BRANCH   9  10
ATOM     10  C   UNL A   1      31.476  28.440  23.074  1.00  0.00    -0.026 C 
ATOM     11  C   UNL A   1      32.728  28.922  22.987  1.00  0.00     0.013 C 
ATOM     12  C   UNL A   1      30.295  29.360  23.213  1.00  0.00     0.045 C 
ENDBRANCH   9  10
ENDBRANCH   6   9
ENDBRANCH   5   6
BRANCH   5  13
ATOM     13  C   UNL A   1      32.973  24.209  25.170  1.00  0.00     0.022 A 
ATOM     14  C   UNL A   1      34.328  24.525  25.304  1.00  0.00     0.017 A 
ATOM     15  C   UNL A   1      32.634  22.851  25.241  1.00  0.00     0.017 A 
ATOM     16  C   UNL A   1      35.289  23.576  25.666  1.00  0.00    -0.008 A 
ATOM     17  C   UNL A   1      33.595  21.847  25.505  1.00  0.00    -0.008 A 
ATOM     18  C   UNL A   1      36.664  24.078  26.022  1.00  0.00     0.048 C 
ATOM     19  C   UNL A   1      34.924  22.224  25.779  1.00  0.00     0.124 A 
ATOM     20  C   UNL A   1      33.119  20.423  25.433  1.00  0.00     0.048 C 
BRANCH  19  21
ATOM     21  O   UNL A   1      35.977  21.395  26.053  1.00  0.00    -0.496 OA
ATOM     22  C   UNL A   1      36.564  20.651  25.001  1.00  0.00     0.278 C 
ENDBRANCH  19  21
ENDBRANCH   5  13
ENDBRANCH   3   5
ENDBRANCH   2   3
ENDBRANCH   1   2
BRANCH   1  23
ATOM     23  C   UNL A   1      31.762  29.530  26.651  1.00  0.00     0.275 C 
BRANCH  23  24
ATOM     24  O   UNL A   1      33.065  30.040  26.332  1.00  0.00    -0.458 OA
BRANCH  24  25
ATOM     25  C   UNL A   1      33.477  31.108  27.059  1.00  0.00     0.338 C 
ATOM     26  O   UNL A   1      32.824  32.107  27.301  1.00  0.00    -0.246 OA
BRANCH  25  27
ATOM     27  C   UNL A   1      34.829  30.835  27.626  1.00  0.00     0.060 A 
ATOM     28  C   UNL A   1      35.242  29.536  27.941  1.00  0.00     0.016 A 
ATOM     29  C   UNL A   1      35.661  31.907  27.962  1.00  0.00     0.016 A 
ATOM     30  C   UNL A   1      36.390  29.328  28.706  1.00  0.00     0.010 A 
ATOM     31  C   UNL A   1      36.877  31.678  28.623  1.00  0.00     0.010 A 
ATOM     32  C   UNL A   1      37.248  30.387  29.037  1.00  0.00    -0.014 A 
BRANCH  32  33
ATOM     33  C   UNL A   1      38.514  30.159  29.800  1.00  0.00     0.031 A 
ATOM     34  C   UNL A   1      39.598  29.270  29.241  1.00  0.00     0.074 A 
ATOM     35  C   UNL A   1      38.705  30.718  31.014  1.00  0.00     0.049 A 
ATOM     36  N   UNL A   1      40.586  28.674  29.863  1.00  0.00    -0.248 NA
ATOM     37  C   UNL A   1      39.560  29.007  27.794  1.00  0.00     0.031 C 
ATOM     38  C   UNL A   1      37.802  31.661  31.676  1.00  0.00     0.029 A 
ATOM     39  N   UNL A   1      39.728  30.557  31.922  1.00  0.00    -0.354 N 
ATOM     40  C   UNL A   1      41.232  27.902  28.904  1.00  0.00     0.074 A 
ATOM     41  C   UNL A   1      40.545  28.129  27.650  1.00  0.00     0.031 C 
ATOM     42  C   UNL A   1      38.320  32.020  32.857  1.00  0.00     0.029 A 
ATOM     43  C   UNL A   1      39.521  31.232  33.101  1.00  0.00     0.049 A 
ATOM     44  H   UNL A   1      40.530  30.014  31.743  1.00  0.00     0.167 HD
ATOM     45  C   UNL A   1      42.289  27.069  29.066  1.00  0.00     0.037 A 
ATOM     46  C   UNL A   1      40.161  31.170  34.284  1.00  0.00     0.037 A 
ATOM     47  C   UNL A   1      43.019  26.907  30.299  1.00  0.00     0.049 A 
ATOM     48  C   UNL A   1      41.304  30.213  34.455  1.00  0.00     0.074 A 
ATOM     49  C   UNL A   1      44.105  26.087  30.560  1.00  0.00     0.029 A 
ATOM     50  N   UNL A   1      42.753  27.599  31.470  1.00  0.00    -0.354 N 
ATOM     51  N   UNL A   1      41.832  29.393  33.581  1.00  0.00    -0.248 NA
ATOM     52  C   UNL A   1      41.917  30.148  35.789  1.00  0.00     0.031 C 
ATOM     53  C   UNL A   1      44.480  26.266  31.896  1.00  0.00     0.029 A 
ATOM     54  C   UNL A   1      43.653  27.225  32.455  1.00  0.00     0.049 A 
ATOM     55  H   UNL A   1      42.032  28.260  31.584  1.00  0.00     0.167 HD
ATOM     56  C   UNL A   1      42.845  28.724  34.252  1.00  0.00     0.074 A 
ATOM     57  C   UNL A   1      42.870  29.244  35.603  1.00  0.00     0.031 C 
ATOM     58  C   UNL A   1      43.676  27.760  33.790  1.00  0.00     0.037 A 
BRANCH  45  59
ATOM     59  C   UNL A   1      42.711  26.225  27.900  1.00  0.00     0.064 A 
ATOM     60  C   UNL A   1      42.110  24.992  27.612  1.00  0.00     0.173 A 
ATOM     61  C   UNL A   1      43.681  26.706  27.004  1.00  0.00     0.173 A 
ATOM     62  F   UNL A   1      41.186  24.483  28.441  1.00  0.00    -0.203 F 
ATOM     63  C   UNL A   1      42.469  24.269  26.476  1.00  0.00     0.198 A 
ATOM     64  C   UNL A   1      44.019  25.994  25.857  1.00  0.00     0.198 A 
ATOM     65  F   UNL A   1      44.280  27.886  27.227  1.00  0.00    -0.203 F 
ATOM     66  F   UNL A   1      41.898  23.081  26.232  1.00  0.00    -0.200 F 
ATOM     67  C   UNL A   1      43.415  24.774  25.595  1.00  0.00     0.200 A 
ATOM     68  F   UNL A   1      44.922  26.491  25.001  1.00  0.00    -0.200 F 
ATOM     69  F   UNL A   1      43.744  24.085  24.494  1.00  0.00    -0.200 F 
ENDBRANCH  45  59
BRANCH  46  70
ATOM     70  C   UNL A   1      39.670  31.981  35.428  1.00  0.00     0.064 A 
ATOM     71  C   UNL A   1      38.692  31.482  36.298  1.00  0.00     0.173 A 
ATOM     72  C   UNL A   1      40.181  33.263  35.683  1.00  0.00     0.173 A 
ATOM     73  F   UNL A   1      38.153  30.274  36.078  1.00  0.00    -0.203 F 
ATOM     74  C   UNL A   1      38.241  32.239  37.379  1.00  0.00     0.198 A 
ATOM     75  C   UNL A   1      39.755  34.003  36.782  1.00  0.00     0.198 A 
ATOM     76  F   UNL A   1      41.118  33.785  34.878  1.00  0.00    -0.203 F 
ATOM     77  F   UNL A   1      37.278  31.755  38.175  1.00  0.00    -0.200 F 
ATOM     78  C   UNL A   1      38.780  33.492  37.626  1.00  0.00     0.200 A 
ATOM     79  F   UNL A   1      40.293  35.206  37.027  1.00  0.00    -0.200 F 
ATOM     80  F   UNL A   1      38.357  34.212  38.674  1.00  0.00    -0.200 F 
ENDBRANCH  46  70
BRANCH  58  81
ATOM     81  C   UNL A   1      44.712  27.240  34.738  1.00  0.00     0.064 A 
ATOM     82  C   UNL A   1      44.474  26.112  35.539  1.00  0.00     0.173 A 
ATOM     83  C   UNL A   1      45.964  27.862  34.829  1.00  0.00     0.173 A 
ATOM     84  F   UNL A   1      43.284  25.496  35.500  1.00  0.00    -0.203 F 
ATOM     85  C   UNL A   1      45.451  25.639  36.411  1.00  0.00     0.198 A 
ATOM     86  C   UNL A   1      46.947  27.373  35.686  1.00  0.00     0.198 A 
ATOM     87  F   UNL A   1      46.237  28.943  34.081  1.00  0.00    -0.203 F 
ATOM     88  F   UNL A   1      45.191  24.586  37.197  1.00  0.00    -0.200 F 
ATOM     89  C   UNL A   1      46.686  26.267  36.480  1.00  0.00     0.200 A 
ATOM     90  F   UNL A   1      48.142  27.976  35.747  1.00  0.00    -0.200 F 
ATOM     91  F   UNL A   1      47.625  25.809  37.320  1.00  0.00    -0.200 F 
ENDBRANCH  58  81
ENDBRANCH  32  33
ENDBRANCH  25  27
ENDBRANCH  24  25
ENDBRANCH  23  24
ENDBRANCH   1  23
TORSDOF 16
ENDMDL
MODEL 3
REMARK VINA RESULT:     -11.0      0.980      1.957
REMARK SMILES C=C(C)C[N@H+](C)[C@H](C(=O)OCCOC(=O)c1ccc(-c2c3nc(c(-c4c(F)c(F)c(F)c(F)c4F)c4ccc([nH]4)c(-c4c(F)c(F)c(F)c(F)c4F)c4nc(c(-c5c(F)c(F)c(F)c(F)c5F)c5ccc2[nH]5)C=C4)C=C3)cc1)c1cc(C)c(OC)c(C)c1
REMARK SMILES IDX 11 1 10 2 8 3 9 4 7 5 5 6 6 7 4 9 2 10 1 11 3 12 79 13 80 14
REMARK SMILES IDX 88 15 81 16 86 17 82 18 83 19 87 20 84 21 85 22 12 23 13 24
REMARK SMILES IDX 14 25 15 26 16 27 17 28 78 29 18 30 77 31 19 32 20 33 21 34
REMARK SMILES IDX 71 35 22 36 76 37 70 38 72 39 23 40 75 41 69 42 68 43 24 45
REMARK SMILES IDX 56 46 36 47 55 48 37 49 40 50 54 51 73 52 38 53 39 54 53 56
REMARK SMILES IDX 74 57 41 58 25 59 26 60 34 61 27 62 28 63 32 64 35 65 29 66
REMARK SMILES IDX 30 67 33 68 31 69 57 70 58 71 66 72 59 73 60 74 64 75 67 76
REMARK SMILES IDX 61 77 62 78 65 79 63 80 42 81 43 82 51 83 44 84 45 85 49 86
REMARK SMILES IDX 52 87 46 88 47 89 50 90 48 91
REMARK H PARENT 5 8 72 44 40 55
REMARK Flexibility Score: inf
ROOT
ATOM      1  C   UNL A   1      31.771  28.215  26.539  1.00  0.00     0.274 C 
ENDROOT
BRANCH   1   2
ATOM      2  O   UNL A   1      32.497  27.132  25.913  1.00  0.00    -0.457 OA
BRANCH   2   3
ATOM      3  C   UNL A   1      31.925  25.894  25.964  1.00  0.00     0.370 C 
ATOM      4  O   UNL A   1      31.137  25.549  26.842  1.00  0.00    -0.245 OA
BRANCH   3   5
ATOM      5  C   UNL A   1      32.307  24.972  24.768  1.00  0.00     0.326 C 
BRANCH   5   6
ATOM      6  N   UNL A   1      32.403  25.732  23.467  1.00  0.00    -0.318 N 
ATOM      7  C   UNL A   1      33.252  25.004  22.516  1.00  0.00     0.334 C 
ATOM      8  H   UNL A   1      32.823  26.633  23.699  1.00  0.00     0.349 HD
BRANCH   6   9
ATOM      9  C   UNL A   1      31.103  26.037  22.852  1.00  0.00     0.294 C 
BRANCH   9  10
ATOM     10  C   UNL A   1      30.618  27.464  22.898  1.00  0.00    -0.026 C 
ATOM     11  C   UNL A   1      29.378  27.784  23.309  1.00  0.00     0.013 C 
ATOM     12  C   UNL A   1      31.564  28.512  22.383  1.00  0.00     0.045 C 
ENDBRANCH   9  10
ENDBRANCH   6   9
ENDBRANCH   5   6
BRANCH   5  13
ATOM     13  C   UNL A   1      33.454  23.979  24.992  1.00  0.00     0.022 A 
ATOM     14  C   UNL A   1      33.228  22.600  24.984  1.00  0.00     0.017 A 
ATOM     15  C   UNL A   1      34.743  24.403  25.341  1.00  0.00     0.017 A 
ATOM     16  C   UNL A   1      34.260  21.669  25.138  1.00  0.00    -0.008 A 
ATOM     17  C   UNL A   1      35.792  23.490  25.605  1.00  0.00    -0.008 A 
ATOM     18  C   UNL A   1      33.939  20.223  24.864  1.00  0.00     0.048 C 
ATOM     19  C   UNL A   1      35.558  22.111  25.442  1.00  0.00     0.124 A 
ATOM     20  C   UNL A   1      37.089  24.075  26.086  1.00  0.00     0.048 C 
BRANCH  19  21
ATOM     21  O   UNL A   1      36.447  21.093  25.651  1.00  0.00    -0.496 OA
ATOM     22  C   UNL A   1      37.499  20.894  24.724  1.00  0.00     0.278 C 
ENDBRANCH  19  21
ENDBRANCH   5  13
ENDBRANCH   3   5
ENDBRANCH   2   3
ENDBRANCH   1   2
BRANCH   1  23
ATOM     23  C   UNL A   1      31.874  29.487  25.696  1.00  0.00     0.275 C 
BRANCH  23  24
ATOM     24  O   UNL A   1      33.160  30.084  25.917  1.00  0.00    -0.458 OA
BRANCH  24  25
ATOM     25  C   UNL A   1      33.193  31.109  26.805  1.00  0.00     0.338 C 
ATOM     26  O   UNL A   1      32.340  31.967  26.942  1.00  0.00    -0.246 OA
BRANCH  25  27
ATOM     27  C   UNL A   1      34.390  30.970  27.684  1.00  0.00     0.060 A 
ATOM     28  C   UNL A   1      35.252  32.046  27.921  1.00  0.00     0.016 A 
ATOM     29  C   UNL A   1      34.728  29.711  28.188  1.00  0.00     0.016 A 
ATOM     30  C   UNL A   1      36.494  31.834  28.520  1.00  0.00     0.010 A 
ATOM     31  C   UNL A   1      35.924  29.532  28.899  1.00  0.00     0.010 A 
ATOM     32  C   UNL A   1      36.845  30.583  29.049  1.00  0.00    -0.014 A 
BRANCH  32  33
ATOM     33  C   UNL A   1      38.148  30.369  29.751  1.00  0.00     0.031 A 
ATOM     34  C   UNL A   1      39.226  29.515  29.128  1.00  0.00     0.074 A 
ATOM     35  C   UNL A   1      38.380  30.907  30.968  1.00  0.00     0.049 A 
ATOM     36  N   UNL A   1      40.252  28.929  29.694  1.00  0.00    -0.248 NA
ATOM     37  C   UNL A   1      39.130  29.280  27.679  1.00  0.00     0.031 C 
ATOM     38  C   UNL A   1      37.487  31.816  31.687  1.00  0.00     0.029 A 
ATOM     39  N   UNL A   1      39.445  30.751  31.827  1.00  0.00    -0.354 N 
ATOM     40  C   UNL A   1      40.872  28.191  28.692  1.00  0.00     0.074 A 
ATOM     41  C   UNL A   1      40.127  28.427  27.474  1.00  0.00     0.031 C 
ATOM     42  C   UNL A   1      38.048  32.163  32.852  1.00  0.00     0.029 A 
ATOM     43  C   UNL A   1      39.275  31.398  33.028  1.00  0.00     0.049 A 
ATOM     44  H   UNL A   1      40.249  30.230  31.602  1.00  0.00     0.167 HD
ATOM     45  C   UNL A   1      41.953  27.378  28.791  1.00  0.00     0.037 A 
ATOM     46  C   UNL A   1      39.967  31.326  34.180  1.00  0.00     0.037 A 
ATOM     47  C   UNL A   1      42.739  27.208  29.988  1.00  0.00     0.049 A 
ATOM     48  C   UNL A   1      41.137  30.392  34.282  1.00  0.00     0.074 A 
ATOM     49  C   UNL A   1      43.853  26.408  30.185  1.00  0.00     0.029 A 
ATOM     50  N   UNL A   1      42.510  27.871  31.183  1.00  0.00    -0.354 N 
ATOM     51  N   UNL A   1      41.644  29.602  33.369  1.00  0.00    -0.248 NA
ATOM     52  C   UNL A   1      41.809  30.314  35.587  1.00  0.00     0.031 C 
ATOM     53  C   UNL A   1      44.282  26.569  31.506  1.00  0.00     0.029 A 
ATOM     54  C   UNL A   1      43.460  27.498  32.120  1.00  0.00     0.049 A 
ATOM     55  H   UNL A   1      41.780  28.513  31.342  1.00  0.00     0.167 HD
ATOM     56  C   UNL A   1      42.699  28.943  33.981  1.00  0.00     0.074 A 
ATOM     57  C   UNL A   1      42.771  29.435  35.341  1.00  0.00     0.031 C 
ATOM     58  C   UNL A   1      43.530  28.006  33.465  1.00  0.00     0.037 A 
BRANCH  45  59
ATOM     59  C   UNL A   1      42.342  26.567  27.590  1.00  0.00     0.064 A 
ATOM     60  C   UNL A   1      43.358  26.970  26.714  1.00  0.00     0.173 A 
ATOM     61  C   UNL A   1      41.738  25.318  27.366  1.00  0.00     0.173 A 
ATOM     62  F   UNL A   1      43.960  28.157  26.878  1.00  0.00    -0.203 F 
ATOM     63  C   UNL A   1      43.751  26.156  25.652  1.00  0.00     0.198 A 
ATOM     64  C   UNL A   1      42.149  24.497  26.320  1.00  0.00     0.198 A 
ATOM     65  F   UNL A   1      40.767  24.882  28.182  1.00  0.00    -0.203 F 
ATOM     66  F   UNL A   1      44.709  26.569  24.811  1.00  0.00    -0.200 F 
ATOM     67  C   UNL A   1      43.154  24.917  25.462  1.00  0.00     0.200 A 
ATOM     68  F   UNL A   1      41.580  23.296  26.148  1.00  0.00    -0.200 F 
ATOM     69  F   UNL A   1      43.546  24.130  24.451  1.00  0.00    -0.200 F 
ENDBRANCH  45  59
BRANCH  46  70
ATOM     70  C   UNL A   1      39.509  32.104  35.362  1.00  0.00     0.064 A 
ATOM     71  C   UNL A   1      39.936  33.421  35.566  1.00  0.00     0.173 A 
ATOM     72  C   UNL A   1      38.623  31.549  36.298  1.00  0.00     0.173 A 
ATOM     73  F   UNL A   1      40.806  33.984  34.714  1.00  0.00    -0.203 F 
ATOM     74  C   UNL A   1      39.497  34.154  36.667  1.00  0.00     0.198 A 
ATOM     75  C   UNL A   1      38.158  32.294  37.378  1.00  0.00     0.198 A 
ATOM     76  F   UNL A   1      38.186  30.290  36.146  1.00  0.00    -0.203 F 
ATOM     77  F   UNL A   1      39.949  35.401  36.862  1.00  0.00    -0.200 F 
ATOM     78  C   UNL A   1      38.601  33.594  37.565  1.00  0.00     0.200 A 
ATOM     79  F   UNL A   1      37.277  31.754  38.232  1.00  0.00    -0.200 F 
ATOM     80  F   UNL A   1      38.166  34.306  38.614  1.00  0.00    -0.200 F 
ENDBRANCH  46  70
BRANCH  58  81
ATOM     81  C   UNL A   1      44.617  27.490  34.356  1.00  0.00     0.064 A 
ATOM     82  C   UNL A   1      45.857  28.138  34.451  1.00  0.00     0.173 A 
ATOM     83  C   UNL A   1      44.406  26.349  35.142  1.00  0.00     0.173 A 
ATOM     84  F   UNL A   1      46.110  29.223  33.704  1.00  0.00    -0.203 F 
ATOM     85  C   UNL A   1      46.855  27.648  35.289  1.00  0.00     0.198 A 
ATOM     86  C   UNL A   1      45.397  25.874  35.995  1.00  0.00     0.198 A 
ATOM     87  F   UNL A   1      43.234  25.697  35.085  1.00  0.00    -0.203 F 
ATOM     88  F   UNL A   1      48.047  28.257  35.335  1.00  0.00    -0.200 F 
ATOM     89  C   UNL A   1      46.623  26.521  36.063  1.00  0.00     0.200 A 
ATOM     90  F   UNL A   1      45.169  24.789  36.748  1.00  0.00    -0.200 F 
ATOM     91  F   UNL A   1      47.584  26.051  36.870  1.00  0.00    -0.200 F 
ENDBRANCH  58  81
ENDBRANCH  32  33
ENDBRANCH  25  27
ENDBRANCH  24  25
ENDBRANCH  23  24
ENDBRANCH   1  23
TORSDOF 16
ENDMDL
