MODEL 1
REMARK VINA RESULT:     -10.9      0.000      0.000
REMARK SMILES C[N@@H+](CC(=O)OCCOC(=O)c1ccc(-c2c3nc(c(-c4c(F)c(F)c(F)c(F)c4F)c4ccc([nH]4)c(-c4c(F)c(F)c(F)c(F)c4F)c4nc(c(-c5c(F)c(F)c(F)c(F)c5F)c5ccc2[nH]5)C=C4)C=C3)cc1)Cc1nc(-c2ccsc2)no1
REMARK SMILES IDX 7 1 6 2 4 3 5 4 3 5 2 6 1 7 75 9 76 10 77 11 85 12 78 13
REMARK SMILES IDX 84 14 79 15 80 16 83 17 81 18 82 19 8 20 9 21 10 22 11 23
REMARK SMILES IDX 12 24 13 25 74 26 14 27 73 28 15 29 16 30 17 31 67 32 18 33
REMARK SMILES IDX 72 34 66 35 68 36 19 37 71 38 65 39 64 40 20 42 52 43 32 44
REMARK SMILES IDX 51 45 33 46 36 47 50 48 69 49 34 50 35 51 49 53 70 54 37 55
REMARK SMILES IDX 21 56 22 57 30 58 23 59 24 60 28 61 31 62 25 63 26 64 29 65
REMARK SMILES IDX 27 66 53 67 54 68 62 69 55 70 56 71 60 72 63 73 57 74 58 75
REMARK SMILES IDX 61 76 59 77 38 78 39 79 47 80 40 81 41 82 45 83 48 84 42 85
REMARK SMILES IDX 43 86 46 87 44 88
REMARK H PARENT 2 8 68 41 36 52
REMARK Flexibility Score: inf
ROOT
ATOM      1  C   UNL A   1      46.439  24.086  26.271  1.00  0.00     0.274 C 
ENDROOT
BRANCH   1   2
ATOM      2  O   UNL A   1      46.369  22.672  25.999  1.00  0.00    -0.458 OA
BRANCH   2   3
ATOM      3  C   UNL A   1      45.141  22.113  26.095  1.00  0.00     0.361 C 
ATOM      4  O   UNL A   1      44.291  22.470  26.910  1.00  0.00    -0.245 OA
BRANCH   3   5
ATOM      5  C   UNL A   1      44.844  20.980  25.124  1.00  0.00     0.386 C 
BRANCH   5   6
ATOM      6  N   UNL A   1      44.845  19.588  25.575  1.00  0.00    -0.320 N 
ATOM      7  C   UNL A   1      46.057  18.825  25.376  1.00  0.00     0.333 C 
ATOM      8  H   UNL A   1      44.900  19.757  26.579  1.00  0.00     0.348 HD
BRANCH   6   9
ATOM      9  C   UNL A   1      43.579  18.852  25.541  1.00  0.00     0.364 C 
BRANCH   9  10
ATOM     10  C   UNL A   1      42.353  19.483  26.108  1.00  0.00     0.282 A 
ATOM     11  N   UNL A   1      41.378  20.166  25.547  1.00  0.00    -0.186 NA
ATOM     12  O   UNL A   1      42.194  19.332  27.461  1.00  0.00    -0.333 OA
ATOM     13  C   UNL A   1      40.671  20.590  26.644  1.00  0.00     0.203 A 
ATOM     14  N   UNL A   1      41.061  20.068  27.814  1.00  0.00    -0.057 NA
BRANCH  13  15
ATOM     15  C   UNL A   1      39.690  21.664  26.496  1.00  0.00     0.033 A 
ATOM     16  C   UNL A   1      39.891  22.971  27.037  1.00  0.00     0.024 A 
ATOM     17  C   UNL A   1      38.534  21.585  25.752  1.00  0.00     0.077 A 
ATOM     18  C   UNL A   1      38.886  23.840  26.673  1.00  0.00     0.065 A 
ATOM     19  S   UNL A   1      37.694  23.076  25.710  1.00  0.00    -0.152 S 
ENDBRANCH  13  15
ENDBRANCH   9  10
ENDBRANCH   6   9
ENDBRANCH   5   6
ENDBRANCH   3   5
ENDBRANCH   2   3
ENDBRANCH   1   2
BRANCH   1  20
ATOM     20  C   UNL A   1      46.321  24.923  24.999  1.00  0.00     0.275 C 
BRANCH  20  21
ATOM     21  O   UNL A   1      45.341  25.968  25.141  1.00  0.00    -0.458 OA
BRANCH  21  22
ATOM     22  C   UNL A   1      44.081  25.521  25.301  1.00  0.00     0.338 C 
ATOM     23  O   UNL A   1      43.473  24.728  24.601  1.00  0.00    -0.246 OA
BRANCH  22  24
ATOM     24  C   UNL A   1      43.417  26.142  26.439  1.00  0.00     0.060 A 
ATOM     25  C   UNL A   1      42.428  25.458  27.144  1.00  0.00     0.016 A 
ATOM     26  C   UNL A   1      43.693  27.489  26.689  1.00  0.00     0.016 A 
ATOM     27  C   UNL A   1      41.716  26.132  28.133  1.00  0.00     0.010 A 
ATOM     28  C   UNL A   1      43.013  28.146  27.705  1.00  0.00     0.010 A 
ATOM     29  C   UNL A   1      42.029  27.467  28.437  1.00  0.00    -0.014 A 
BRANCH  29  30
ATOM     30  C   UNL A   1      41.445  28.111  29.631  1.00  0.00     0.031 A 
ATOM     31  C   UNL A   1      40.225  28.970  29.539  1.00  0.00     0.074 A 
ATOM     32  C   UNL A   1      42.099  27.949  30.795  1.00  0.00     0.049 A 
ATOM     33  N   UNL A   1      39.642  29.666  30.480  1.00  0.00    -0.248 NA
ATOM     34  C   UNL A   1      39.579  29.069  28.222  1.00  0.00     0.031 C 
ATOM     35  C   UNL A   1      43.315  27.150  30.968  1.00  0.00     0.029 A 
ATOM     36  N   UNL A   1      41.847  28.453  32.042  1.00  0.00    -0.354 N 
ATOM     37  C   UNL A   1      38.566  30.295  29.873  1.00  0.00     0.074 A 
ATOM     38  C   UNL A   1      38.582  29.909  28.476  1.00  0.00     0.031 C 
ATOM     39  C   UNL A   1      43.700  27.211  32.251  1.00  0.00     0.029 A 
ATOM     40  C   UNL A   1      42.783  28.083  32.974  1.00  0.00     0.049 A 
ATOM     41  H   UNL A   1      41.073  29.023  32.249  1.00  0.00     0.167 HD
ATOM     42  C   UNL A   1      37.652  31.118  30.441  1.00  0.00     0.037 A 
ATOM     43  C   UNL A   1      42.900  28.427  34.268  1.00  0.00     0.037 A 
ATOM     44  C   UNL A   1      37.653  31.491  31.832  1.00  0.00     0.049 A 
ATOM     45  C   UNL A   1      41.877  29.343  34.866  1.00  0.00     0.074 A 
ATOM     46  C   UNL A   1      36.754  32.291  32.515  1.00  0.00     0.029 A 
ATOM     47  N   UNL A   1      38.612  31.092  32.754  1.00  0.00    -0.354 N 
ATOM     48  N   UNL A   1      40.844  29.907  34.291  1.00  0.00    -0.248 NA
ATOM     49  C   UNL A   1      42.036  29.672  36.287  1.00  0.00     0.031 C 
ATOM     50  C   UNL A   1      37.184  32.401  33.843  1.00  0.00     0.029 A 
ATOM     51  C   UNL A   1      38.336  31.644  33.995  1.00  0.00     0.049 A 
ATOM     52  H   UNL A   1      39.375  30.503  32.555  1.00  0.00     0.167 HD
ATOM     53  C   UNL A   1      40.223  30.655  35.277  1.00  0.00     0.074 A 
ATOM     54  C   UNL A   1      40.988  30.457  36.494  1.00  0.00     0.031 C 
ATOM     55  C   UNL A   1      39.122  31.440  35.184  1.00  0.00     0.037 A 
BRANCH  42  56
ATOM     56  C   UNL A   1      36.579  31.682  29.559  1.00  0.00     0.064 A 
ATOM     57  C   UNL A   1      35.536  30.880  29.072  1.00  0.00     0.173 A 
ATOM     58  C   UNL A   1      36.562  33.049  29.244  1.00  0.00     0.173 A 
ATOM     59  F   UNL A   1      35.515  29.566  29.336  1.00  0.00    -0.203 F 
ATOM     60  C   UNL A   1      34.519  31.427  28.292  1.00  0.00     0.198 A 
ATOM     61  C   UNL A   1      35.534  33.594  28.480  1.00  0.00     0.198 A 
ATOM     62  F   UNL A   1      37.535  33.857  29.689  1.00  0.00    -0.203 F 
ATOM     63  F   UNL A   1      33.545  30.639  27.817  1.00  0.00    -0.200 F 
ATOM     64  C   UNL A   1      34.516  32.783  28.002  1.00  0.00     0.200 A 
ATOM     65  F   UNL A   1      35.528  34.906  28.206  1.00  0.00    -0.200 F 
ATOM     66  F   UNL A   1      33.532  33.308  27.259  1.00  0.00    -0.200 F 
ENDBRANCH  42  56
BRANCH  43  67
ATOM     67  C   UNL A   1      44.028  27.885  35.060  1.00  0.00     0.064 A 
ATOM     68  C   UNL A   1      45.246  28.571  35.132  1.00  0.00     0.173 A 
ATOM     69  C   UNL A   1      43.887  26.711  35.814  1.00  0.00     0.173 A 
ATOM     70  F   UNL A   1      45.427  29.691  34.417  1.00  0.00    -0.203 F 
ATOM     71  C   UNL A   1      46.287  28.101  35.930  1.00  0.00     0.198 A 
ATOM     72  C   UNL A   1      44.920  26.254  36.629  1.00  0.00     0.198 A 
ATOM     73  F   UNL A   1      42.732  26.029  35.785  1.00  0.00    -0.203 F 
ATOM     74  F   UNL A   1      47.449  28.765  35.970  1.00  0.00    -0.200 F 
ATOM     75  C   UNL A   1      46.120  26.948  36.684  1.00  0.00     0.200 A 
ATOM     76  F   UNL A   1      44.748  25.150  37.369  1.00  0.00    -0.200 F 
ATOM     77  F   UNL A   1      47.114  26.507  37.466  1.00  0.00    -0.200 F 
ENDBRANCH  43  67
BRANCH  55  78
ATOM     78  C   UNL A   1      38.692  32.136  36.437  1.00  0.00     0.064 A 
ATOM     79  C   UNL A   1      37.857  31.501  37.368  1.00  0.00     0.173 A 
ATOM     80  C   UNL A   1      39.126  33.439  36.714  1.00  0.00     0.173 A 
ATOM     81  F   UNL A   1      37.403  30.261  37.133  1.00  0.00    -0.203 F 
ATOM     82  C   UNL A   1      37.454  32.159  38.526  1.00  0.00     0.198 A 
ATOM     83  C   UNL A   1      38.736  34.087  37.881  1.00  0.00     0.198 A 
ATOM     84  F   UNL A   1      39.924  34.083  35.850  1.00  0.00    -0.203 F 
ATOM     85  F   UNL A   1      36.622  31.552  39.384  1.00  0.00    -0.200 F 
ATOM     86  C   UNL A   1      37.896  33.449  38.783  1.00  0.00     0.200 A 
ATOM     87  F   UNL A   1      39.165  35.331  38.131  1.00  0.00    -0.200 F 
ATOM     88  F   UNL A   1      37.503  34.082  39.897  1.00  0.00    -0.200 F 
ENDBRANCH  55  78
ENDBRANCH  29  30
ENDBRANCH  22  24
ENDBRANCH  21  22
ENDBRANCH  20  21
ENDBRANCH   1  20
TORSDOF 15
ENDMDL
MODEL 2
REMARK VINA RESULT:     -10.7      5.291     10.068
REMARK SMILES C[N@@H+](CC(=O)OCCOC(=O)c1ccc(-c2c3nc(c(-c4c(F)c(F)c(F)c(F)c4F)c4ccc([nH]4)c(-c4c(F)c(F)c(F)c(F)c4F)c4nc(c(-c5c(F)c(F)c(F)c(F)c5F)c5ccc2[nH]5)C=C4)C=C3)cc1)Cc1nc(-c2ccsc2)no1
REMARK SMILES IDX 7 1 6 2 4 3 5 4 3 5 2 6 1 7 75 9 76 10 77 11 85 12 78 13
REMARK SMILES IDX 84 14 79 15 80 16 83 17 81 18 82 19 8 20 9 21 10 22 11 23
REMARK SMILES IDX 12 24 13 25 74 26 14 27 73 28 15 29 16 30 17 31 67 32 18 33
REMARK SMILES IDX 72 34 66 35 68 36 19 37 71 38 65 39 64 40 20 42 52 43 32 44
REMARK SMILES IDX 51 45 33 46 36 47 50 48 69 49 34 50 35 51 49 53 70 54 37 55
REMARK SMILES IDX 21 56 22 57 30 58 23 59 24 60 28 61 31 62 25 63 26 64 29 65
REMARK SMILES IDX 27 66 53 67 54 68 62 69 55 70 56 71 60 72 63 73 57 74 58 75
REMARK SMILES IDX 61 76 59 77 38 78 39 79 47 80 40 81 41 82 45 83 48 84 42 85
REMARK SMILES IDX 43 86 46 87 44 88
REMARK H PARENT 2 8 68 41 36 52
REMARK Flexibility Score: inf
ROOT
ATOM      1  C   UNL A   1      31.739  28.778  27.250  1.00  0.00     0.274 C 
ENDROOT
BRANCH   1   2
ATOM      2  O   UNL A   1      31.157  27.743  26.433  1.00  0.00    -0.458 OA
BRANCH   2   3
ATOM      3  C   UNL A   1      31.759  26.533  26.498  1.00  0.00     0.361 C 
ATOM      4  O   UNL A   1      31.190  25.507  26.873  1.00  0.00    -0.245 OA
BRANCH   3   5
ATOM      5  C   UNL A   1      33.221  26.490  26.081  1.00  0.00     0.386 C 
BRANCH   5   6
ATOM      6  N   UNL A   1      33.597  26.160  24.706  1.00  0.00    -0.320 N 
ATOM      7  C   UNL A   1      34.443  25.003  24.507  1.00  0.00     0.333 C 
ATOM      8  H   UNL A   1      32.702  25.785  24.392  1.00  0.00     0.348 HD
BRANCH   6   9
ATOM      9  C   UNL A   1      33.730  27.256  23.744  1.00  0.00     0.364 C 
BRANCH   9  10
ATOM     10  C   UNL A   1      32.505  27.819  23.108  1.00  0.00     0.282 A 
ATOM     11  N   UNL A   1      32.024  29.043  23.059  1.00  0.00    -0.186 NA
ATOM     12  O   UNL A   1      31.725  26.909  22.444  1.00  0.00    -0.333 OA
ATOM     13  C   UNL A   1      30.803  28.837  22.470  1.00  0.00     0.203 A 
ATOM     14  N   UNL A   1      30.589  27.598  22.010  1.00  0.00    -0.057 NA
BRANCH  13  15
ATOM     15  C   UNL A   1      29.789  29.890  22.527  1.00  0.00     0.033 A 
ATOM     16  C   UNL A   1      29.077  30.338  21.373  1.00  0.00     0.024 A 
ATOM     17  C   UNL A   1      29.334  30.490  23.681  1.00  0.00     0.077 A 
ATOM     18  C   UNL A   1      28.097  31.252  21.694  1.00  0.00     0.065 A 
ATOM     19  S   UNL A   1      28.058  31.589  23.372  1.00  0.00    -0.152 S 
ENDBRANCH  13  15
ENDBRANCH   9  10
ENDBRANCH   6   9
ENDBRANCH   5   6
ENDBRANCH   3   5
ENDBRANCH   2   3
ENDBRANCH   1   2
BRANCH   1  20
ATOM     20  C   UNL A   1      31.806  30.118  26.518  1.00  0.00     0.275 C 
BRANCH  20  21
ATOM     21  O   UNL A   1      33.165  30.567  26.359  1.00  0.00    -0.458 OA
BRANCH  21  22
ATOM     22  C   UNL A   1      33.540  31.505  27.250  1.00  0.00     0.338 C 
ATOM     23  O   UNL A   1      32.981  32.557  27.512  1.00  0.00    -0.246 OA
BRANCH  22  24
ATOM     24  C   UNL A   1      34.799  31.171  27.901  1.00  0.00     0.060 A 
ATOM     25  C   UNL A   1      35.800  32.131  28.048  1.00  0.00     0.016 A 
ATOM     26  C   UNL A   1      35.024  29.828  28.220  1.00  0.00     0.016 A 
ATOM     27  C   UNL A   1      37.041  31.743  28.544  1.00  0.00     0.010 A 
ATOM     28  C   UNL A   1      36.248  29.452  28.755  1.00  0.00     0.010 A 
ATOM     29  C   UNL A   1      37.258  30.409  28.928  1.00  0.00    -0.014 A 
BRANCH  29  30
ATOM     30  C   UNL A   1      38.482  30.040  29.666  1.00  0.00     0.031 A 
ATOM     31  C   UNL A   1      39.465  29.060  29.110  1.00  0.00     0.074 A 
ATOM     32  C   UNL A   1      38.642  30.571  30.891  1.00  0.00     0.049 A 
ATOM     33  N   UNL A   1      40.542  28.575  29.671  1.00  0.00    -0.248 NA
ATOM     34  C   UNL A   1      39.204  28.550  27.756  1.00  0.00     0.031 C 
ATOM     35  C   UNL A   1      37.715  31.514  31.522  1.00  0.00     0.029 A 
ATOM     36  N   UNL A   1      39.623  30.386  31.827  1.00  0.00    -0.354 N 
ATOM     37  C   UNL A   1      41.087  27.696  28.746  1.00  0.00     0.074 A 
ATOM     38  C   UNL A   1      40.213  27.704  27.590  1.00  0.00     0.031 C 
ATOM     39  C   UNL A   1      38.177  31.833  32.740  1.00  0.00     0.029 A 
ATOM     40  C   UNL A   1      39.404  31.086  32.986  1.00  0.00     0.049 A 
ATOM     41  H   UNL A   1      40.407  29.810  31.683  1.00  0.00     0.167 HD
ATOM     42  C   UNL A   1      42.216  26.957  28.863  1.00  0.00     0.037 A 
ATOM     43  C   UNL A   1      40.107  31.107  34.131  1.00  0.00     0.037 A 
ATOM     44  C   UNL A   1      43.070  26.962  30.022  1.00  0.00     0.049 A 
ATOM     45  C   UNL A   1      41.347  30.274  34.231  1.00  0.00     0.074 A 
ATOM     46  C   UNL A   1      44.255  26.276  30.228  1.00  0.00     0.029 A 
ATOM     47  N   UNL A   1      42.825  27.690  31.179  1.00  0.00    -0.354 N 
ATOM     48  N   UNL A   1      41.872  29.471  33.339  1.00  0.00    -0.248 NA
ATOM     49  C   UNL A   1      42.091  30.348  35.494  1.00  0.00     0.031 C 
ATOM     50  C   UNL A   1      44.710  26.565  31.520  1.00  0.00     0.029 A 
ATOM     51  C   UNL A   1      43.826  27.456  32.109  1.00  0.00     0.049 A 
ATOM     52  H   UNL A   1      42.054  28.286  31.318  1.00  0.00     0.167 HD
ATOM     53  C   UNL A   1      43.009  28.943  33.926  1.00  0.00     0.074 A 
ATOM     54  C   UNL A   1      43.109  29.535  35.246  1.00  0.00     0.031 C 
ATOM     55  C   UNL A   1      43.891  28.047  33.420  1.00  0.00     0.037 A 
BRANCH  42  56
ATOM     56  C   UNL A   1      42.588  26.069  27.714  1.00  0.00     0.064 A 
ATOM     57  C   UNL A   1      43.517  26.476  26.746  1.00  0.00     0.173 A 
ATOM     58  C   UNL A   1      42.053  24.776  27.611  1.00  0.00     0.173 A 
ATOM     59  F   UNL A   1      44.048  27.707  26.795  1.00  0.00    -0.203 F 
ATOM     60  C   UNL A   1      43.891  25.623  25.710  1.00  0.00     0.198 A 
ATOM     61  C   UNL A   1      42.442  23.920  26.584  1.00  0.00     0.198 A 
ATOM     62  F   UNL A   1      41.163  24.339  28.514  1.00  0.00    -0.203 F 
ATOM     63  F   UNL A   1      44.763  26.040  24.782  1.00  0.00    -0.200 F 
ATOM     64  C   UNL A   1      43.358  24.345  25.633  1.00  0.00     0.200 A 
ATOM     65  F   UNL A   1      41.932  22.682  26.516  1.00  0.00    -0.200 F 
ATOM     66  F   UNL A   1      43.725  23.523  24.641  1.00  0.00    -0.200 F 
ENDBRANCH  42  56
BRANCH  43  67
ATOM     67  C   UNL A   1      39.638  31.956  35.250  1.00  0.00     0.064 A 
ATOM     68  C   UNL A   1      40.077  33.280  35.377  1.00  0.00     0.173 A 
ATOM     69  C   UNL A   1      38.692  31.486  36.172  1.00  0.00     0.173 A 
ATOM     70  F   UNL A   1      40.991  33.766  34.523  1.00  0.00    -0.203 F 
ATOM     71  C   UNL A   1      39.588  34.104  36.388  1.00  0.00     0.198 A 
ATOM     72  C   UNL A   1      38.186  32.317  37.168  1.00  0.00     0.198 A 
ATOM     73  F   UNL A   1      38.233  30.228  36.080  1.00  0.00    -0.203 F 
ATOM     74  F   UNL A   1      40.035  35.361  36.499  1.00  0.00    -0.200 F 
ATOM     75  C   UNL A   1      38.637  33.624  37.277  1.00  0.00     0.200 A 
ATOM     76  F   UNL A   1      37.255  31.855  38.014  1.00  0.00    -0.200 F 
ATOM     77  F   UNL A   1      38.153  34.422  38.237  1.00  0.00    -0.200 F 
ENDBRANCH  43  67
BRANCH  55  78
ATOM     78  C   UNL A   1      45.032  27.661  34.307  1.00  0.00     0.064 A 
ATOM     79  C   UNL A   1      44.939  26.560  35.170  1.00  0.00     0.173 A 
ATOM     80  C   UNL A   1      46.230  28.390  34.286  1.00  0.00     0.173 A 
ATOM     81  F   UNL A   1      43.805  25.847  35.236  1.00  0.00    -0.203 F 
ATOM     82  C   UNL A   1      46.003  26.214  35.999  1.00  0.00     0.198 A 
ATOM     83  C   UNL A   1      47.297  28.030  35.102  1.00  0.00     0.198 A 
ATOM     84  F   UNL A   1      46.360  29.451  33.476  1.00  0.00    -0.203 F 
ATOM     85  F   UNL A   1      45.881  25.184  36.847  1.00  0.00    -0.200 F 
ATOM     86  C   UNL A   1      47.181  26.947  35.962  1.00  0.00     0.200 A 
ATOM     87  F   UNL A   1      48.435  28.735  35.064  1.00  0.00    -0.200 F 
ATOM     88  F   UNL A   1      48.202  26.615  36.763  1.00  0.00    -0.200 F 
ENDBRANCH  55  78
ENDBRANCH  29  30
ENDBRANCH  22  24
ENDBRANCH  21  22
ENDBRANCH  20  21
ENDBRANCH   1  20
TORSDOF 15
ENDMDL
MODEL 3
REMARK VINA RESULT:     -10.6      4.980      9.613
REMARK SMILES C[N@@H+](CC(=O)OCCOC(=O)c1ccc(-c2c3nc(c(-c4c(F)c(F)c(F)c(F)c4F)c4ccc([nH]4)c(-c4c(F)c(F)c(F)c(F)c4F)c4nc(c(-c5c(F)c(F)c(F)c(F)c5F)c5ccc2[nH]5)C=C4)C=C3)cc1)Cc1nc(-c2ccsc2)no1
REMARK SMILES IDX 7 1 6 2 4 3 5 4 3 5 2 6 1 7 75 9 76 10 77 11 85 12 78 13
REMARK SMILES IDX 84 14 79 15 80 16 83 17 81 18 82 19 8 20 9 21 10 22 11 23
REMARK SMILES IDX 12 24 13 25 74 26 14 27 73 28 15 29 16 30 17 31 67 32 18 33
REMARK SMILES IDX 72 34 66 35 68 36 19 37 71 38 65 39 64 40 20 42 52 43 32 44
REMARK SMILES IDX 51 45 33 46 36 47 50 48 69 49 34 50 35 51 49 53 70 54 37 55
REMARK SMILES IDX 21 56 22 57 30 58 23 59 24 60 28 61 31 62 25 63 26 64 29 65
REMARK SMILES IDX 27 66 53 67 54 68 62 69 55 70 56 71 60 72 63 73 57 74 58 75
REMARK SMILES IDX 61 76 59 77 38 78 39 79 47 80 40 81 41 82 45 83 48 84 42 85
REMARK SMILES IDX 43 86 46 87 44 88
REMARK H PARENT 2 8 68 41 36 52
REMARK Flexibility Score: inf
ROOT
ATOM      1  C   UNL A   1      31.375  29.135  25.003  1.00  0.00     0.274 C 
ENDROOT
BRANCH   1   2
ATOM      2  O   UNL A   1      30.380  29.345  23.981  1.00  0.00    -0.458 OA
BRANCH   2   3
ATOM      3  C   UNL A   1      30.083  28.268  23.218  1.00  0.00     0.361 C 
ATOM      4  O   UNL A   1      30.275  28.218  22.003  1.00  0.00    -0.245 OA
BRANCH   3   5
ATOM      5  C   UNL A   1      29.473  27.080  23.947  1.00  0.00     0.386 C 
BRANCH   5   6
ATOM      6  N   UNL A   1      30.300  25.940  24.343  1.00  0.00    -0.320 N 
ATOM      7  C   UNL A   1      30.278  24.773  23.489  1.00  0.00     0.333 C 
ATOM      8  H   UNL A   1      31.212  26.326  24.098  1.00  0.00     0.348 HD
BRANCH   6   9
ATOM      9  C   UNL A   1      30.528  25.717  25.772  1.00  0.00     0.364 C 
BRANCH   9  10
ATOM     10  C   UNL A   1      31.648  24.830  26.202  1.00  0.00     0.282 A 
ATOM     11  N   UNL A   1      32.880  24.697  25.760  1.00  0.00    -0.186 NA
ATOM     12  O   UNL A   1      31.359  23.997  27.250  1.00  0.00    -0.333 OA
ATOM     13  C   UNL A   1      33.313  23.609  26.475  1.00  0.00     0.203 A 
ATOM     14  N   UNL A   1      32.482  23.186  27.436  1.00  0.00    -0.057 NA
BRANCH  13  15
ATOM     15  C   UNL A   1      34.524  22.906  26.053  1.00  0.00     0.033 A 
ATOM     16  C   UNL A   1      35.820  23.507  26.098  1.00  0.00     0.024 A 
ATOM     17  C   UNL A   1      34.581  21.584  25.670  1.00  0.00     0.077 A 
ATOM     18  C   UNL A   1      36.814  22.615  25.761  1.00  0.00     0.065 A 
ATOM     19  S   UNL A   1      36.185  21.073  25.364  1.00  0.00    -0.152 S 
ENDBRANCH  13  15
ENDBRANCH   9  10
ENDBRANCH   6   9
ENDBRANCH   5   6
ENDBRANCH   3   5
ENDBRANCH   2   3
ENDBRANCH   1   2
BRANCH   1  20
ATOM     20  C   UNL A   1      31.756  30.434  25.711  1.00  0.00     0.275 C 
BRANCH  20  21
ATOM     21  O   UNL A   1      33.135  30.428  26.124  1.00  0.00    -0.458 OA
BRANCH  21  22
ATOM     22  C   UNL A   1      33.431  31.349  27.061  1.00  0.00     0.338 C 
ATOM     23  O   UNL A   1      32.816  32.367  27.332  1.00  0.00    -0.246 OA
BRANCH  22  24
ATOM     24  C   UNL A   1      34.674  31.045  27.756  1.00  0.00     0.060 A 
ATOM     25  C   UNL A   1      35.615  32.046  27.999  1.00  0.00     0.016 A 
ATOM     26  C   UNL A   1      34.953  29.701  28.020  1.00  0.00     0.016 A 
ATOM     27  C   UNL A   1      36.850  31.695  28.535  1.00  0.00     0.010 A 
ATOM     28  C   UNL A   1      36.169  29.360  28.597  1.00  0.00     0.010 A 
ATOM     29  C   UNL A   1      37.118  30.356  28.865  1.00  0.00    -0.014 A 
BRANCH  29  30
ATOM     30  C   UNL A   1      38.325  30.011  29.643  1.00  0.00     0.031 A 
ATOM     31  C   UNL A   1      39.346  29.053  29.120  1.00  0.00     0.074 A 
ATOM     32  C   UNL A   1      38.432  30.544  30.873  1.00  0.00     0.049 A 
ATOM     33  N   UNL A   1      40.414  28.590  29.716  1.00  0.00    -0.248 NA
ATOM     34  C   UNL A   1      39.142  28.540  27.757  1.00  0.00     0.031 C 
ATOM     35  C   UNL A   1      37.465  31.467  31.474  1.00  0.00     0.029 A 
ATOM     36  N   UNL A   1      39.385  30.379  31.841  1.00  0.00    -0.354 N 
ATOM     37  C   UNL A   1      41.007  27.724  28.810  1.00  0.00     0.074 A 
ATOM     38  C   UNL A   1      40.173  27.715  27.625  1.00  0.00     0.031 C 
ATOM     39  C   UNL A   1      37.879  31.793  32.706  1.00  0.00     0.029 A 
ATOM     40  C   UNL A   1      39.112  31.072  32.993  1.00  0.00     0.049 A 
ATOM     41  H   UNL A   1      40.185  29.819  31.723  1.00  0.00     0.167 HD
ATOM     42  C   UNL A   1      42.147  27.009  28.964  1.00  0.00     0.037 A 
ATOM     43  C   UNL A   1      39.775  31.106  34.161  1.00  0.00     0.037 A 
ATOM     44  C   UNL A   1      42.962  27.030  30.150  1.00  0.00     0.049 A 
ATOM     45  C   UNL A   1      41.029  30.299  34.303  1.00  0.00     0.074 A 
ATOM     46  C   UNL A   1      44.153  26.369  30.396  1.00  0.00     0.029 A 
ATOM     47  N   UNL A   1      42.663  27.751  31.299  1.00  0.00    -0.354 N 
ATOM     48  N   UNL A   1      41.600  29.508  33.428  1.00  0.00    -0.248 NA
ATOM     49  C   UNL A   1      41.728  30.386  35.590  1.00  0.00     0.031 C 
ATOM     50  C   UNL A   1      44.559  26.665  31.703  1.00  0.00     0.029 A 
ATOM     51  C   UNL A   1      43.636  27.536  32.262  1.00  0.00     0.049 A 
ATOM     52  H   UNL A   1      41.875  28.330  31.413  1.00  0.00     0.167 HD
ATOM     53  C   UNL A   1      42.728  29.004  34.052  1.00  0.00     0.074 A 
ATOM     54  C   UNL A   1      42.771  29.595  35.376  1.00  0.00     0.031 C 
ATOM     55  C   UNL A   1      43.645  28.127  33.575  1.00  0.00     0.037 A 
BRANCH  42  56
ATOM     56  C   UNL A   1      42.576  26.130  27.827  1.00  0.00     0.064 A 
ATOM     57  C   UNL A   1      42.024  24.855  27.639  1.00  0.00     0.173 A 
ATOM     58  C   UNL A   1      43.506  26.591  26.883  1.00  0.00     0.173 A 
ATOM     59  F   UNL A   1      41.140  24.366  28.521  1.00  0.00    -0.203 F 
ATOM     60  C   UNL A   1      42.396  24.068  26.551  1.00  0.00     0.198 A 
ATOM     61  C   UNL A   1      43.861  25.809  25.787  1.00  0.00     0.198 A 
ATOM     62  F   UNL A   1      44.059  27.806  27.017  1.00  0.00    -0.203 F 
ATOM     63  F   UNL A   1      41.874  22.843  26.404  1.00  0.00    -0.200 F 
ATOM     64  C   UNL A   1      43.309  24.547  25.624  1.00  0.00     0.200 A 
ATOM     65  F   UNL A   1      44.738  26.277  24.888  1.00  0.00    -0.200 F 
ATOM     66  F   UNL A   1      43.659  23.792  24.574  1.00  0.00    -0.200 F 
ENDBRANCH  42  56
BRANCH  43  67
ATOM     67  C   UNL A   1      39.252  31.944  35.265  1.00  0.00     0.064 A 
ATOM     68  C   UNL A   1      38.486  31.378  36.291  1.00  0.00     0.173 A 
ATOM     69  C   UNL A   1      39.565  33.308  35.352  1.00  0.00     0.173 A 
ATOM     70  F   UNL A   1      38.154  30.079  36.240  1.00  0.00    -0.203 F 
ATOM     71  C   UNL A   1      38.048  32.147  37.366  1.00  0.00     0.198 A 
ATOM     72  C   UNL A   1      39.146  34.072  36.439  1.00  0.00     0.198 A 
ATOM     73  F   UNL A   1      40.307  33.889  34.397  1.00  0.00    -0.203 F 
ATOM     74  F   UNL A   1      37.303  31.588  38.328  1.00  0.00    -0.200 F 
ATOM     75  C   UNL A   1      38.386  33.491  37.443  1.00  0.00     0.200 A 
ATOM     76  F   UNL A   1      39.489  35.364  36.518  1.00  0.00    -0.200 F 
ATOM     77  F   UNL A   1      37.981  34.226  38.487  1.00  0.00    -0.200 F 
ENDBRANCH  43  67
BRANCH  55  78
ATOM     78  C   UNL A   1      44.764  27.764  34.500  1.00  0.00     0.064 A 
ATOM     79  C   UNL A   1      44.666  26.658  35.356  1.00  0.00     0.173 A 
ATOM     80  C   UNL A   1      45.944  28.519  34.522  1.00  0.00     0.173 A 
ATOM     81  F   UNL A   1      43.546  25.920  35.382  1.00  0.00    -0.203 F 
ATOM     82  C   UNL A   1      45.708  26.333  36.220  1.00  0.00     0.198 A 
ATOM     83  C   UNL A   1      46.991  28.180  35.373  1.00  0.00     0.198 A 
ATOM     84  F   UNL A   1      46.079  29.586  33.719  1.00  0.00    -0.203 F 
ATOM     85  F   UNL A   1      45.580  25.297  37.061  1.00  0.00    -0.200 F 
ATOM     86  C   UNL A   1      46.870  27.092  36.225  1.00  0.00     0.200 A 
ATOM     87  F   UNL A   1      48.113  28.911  35.376  1.00  0.00    -0.200 F 
ATOM     88  F   UNL A   1      47.870  26.780  37.060  1.00  0.00    -0.200 F 
ENDBRANCH  55  78
ENDBRANCH  29  30
ENDBRANCH  22  24
ENDBRANCH  21  22
ENDBRANCH  20  21
ENDBRANCH   1  20
TORSDOF 15
ENDMDL
