MODEL 1
REMARK VINA RESULT:     -11.7      0.000      0.000
REMARK SMILES CC[C@@H]1CCCN1C(=O)N1CC[C@@H](C(=O)OCCOC(=O)c2ccc(-c3c4nc(c(-c5c(F)c(F)c(F)c(F)c5F)c5ccc([nH]5)c(-c5c(F)c(F)c(F)c(F)c5F)c5nc(c(-c6c(F)c(F)c(F)c(F)c6F)c6ccc3[nH]6)C=C5)C=C4)cc2)[C@@H]1C
REMARK SMILES IDX 17 1 16 2 14 3 15 4 13 5 10 6 11 7 85 8 12 9 86 10 8 11 9 12
REMARK SMILES IDX 7 13 3 14 4 15 5 16 6 17 2 18 1 19 18 20 19 21 20 22 21 23
REMARK SMILES IDX 22 24 23 25 84 26 24 27 83 28 25 29 26 30 27 31 77 32 28 33
REMARK SMILES IDX 82 34 76 35 78 36 29 37 81 38 75 39 74 40 30 42 62 43 42 44
REMARK SMILES IDX 61 45 43 46 46 47 60 48 79 49 44 50 45 51 59 53 80 54 47 55
REMARK SMILES IDX 31 56 32 57 40 58 33 59 34 60 38 61 41 62 35 63 36 64 39 65
REMARK SMILES IDX 37 66 63 67 64 68 72 69 65 70 66 71 70 72 73 73 67 74 68 75
REMARK SMILES IDX 71 76 69 77 48 78 49 79 57 80 50 81 51 82 55 83 58 84 52 85
REMARK SMILES IDX 53 86 56 87 54 88
REMARK H PARENT 78 41 46 52
REMARK Flexibility Score: inf
ROOT
ATOM      1  C   UNL A   1      31.011  29.429  24.434  1.00  0.00     0.274 C 
ENDROOT
BRANCH   1   2
ATOM      2  O   UNL A   1      30.722  28.031  24.221  1.00  0.00    -0.462 OA
BRANCH   2   3
ATOM      3  C   UNL A   1      31.221  27.474  23.081  1.00  0.00     0.311 C 
ATOM      4  O   UNL A   1      30.649  27.460  22.000  1.00  0.00    -0.252 OA
BRANCH   3   5
ATOM      5  C   UNL A   1      32.643  26.995  23.317  1.00  0.00     0.123 C 
ATOM      6  N   UNL A   1      32.948  24.649  23.780  1.00  0.00    -0.321 N 
ATOM      7  C   UNL A   1      32.615  24.819  22.384  1.00  0.00     0.122 C 
ATOM      8  C   UNL A   1      32.744  25.953  24.450  1.00  0.00     0.098 C 
ATOM      9  C   UNL A   1      33.115  26.224  22.090  1.00  0.00     0.039 C 
ATOM     10  C   UNL A   1      33.909  26.270  25.384  1.00  0.00     0.032 C 
BRANCH   6  11
ATOM     11  C   UNL A   1      32.728  23.499  24.494  1.00  0.00     0.320 C 
ATOM     12  O   UNL A   1      31.676  23.395  25.134  1.00  0.00    -0.248 OA
BRANCH  11  13
ATOM     13  N   UNL A   1      33.679  22.496  24.554  1.00  0.00    -0.322 N 
ATOM     14  C   UNL A   1      34.992  22.370  25.248  1.00  0.00     0.086 C 
ATOM     15  C   UNL A   1      35.383  20.899  24.978  1.00  0.00     0.027 C 
ATOM     16  C   UNL A   1      34.061  20.176  25.013  1.00  0.00     0.024 C 
ATOM     17  C   UNL A   1      33.150  21.150  24.290  1.00  0.00     0.122 C 
BRANCH  14  18
ATOM     18  C   UNL A   1      36.193  23.219  24.820  1.00  0.00     0.022 C 
ATOM     19  C   UNL A   1      36.645  22.911  23.396  1.00  0.00     0.006 C 
ENDBRANCH  14  18
ENDBRANCH  11  13
ENDBRANCH   6  11
ENDBRANCH   3   5
ENDBRANCH   2   3
ENDBRANCH   1   2
BRANCH   1  20
ATOM     20  C   UNL A   1      31.517  29.624  25.859  1.00  0.00     0.275 C 
BRANCH  20  21
ATOM     21  O   UNL A   1      32.817  30.245  25.818  1.00  0.00    -0.458 OA
BRANCH  21  22
ATOM     22  C   UNL A   1      33.076  31.133  26.802  1.00  0.00     0.338 C 
ATOM     23  O   UNL A   1      32.366  32.063  27.161  1.00  0.00    -0.246 OA
BRANCH  22  24
ATOM     24  C   UNL A   1      34.386  30.846  27.421  1.00  0.00     0.060 A 
ATOM     25  C   UNL A   1      34.768  29.540  27.726  1.00  0.00     0.016 A 
ATOM     26  C   UNL A   1      35.209  31.910  27.795  1.00  0.00     0.016 A 
ATOM     27  C   UNL A   1      35.900  29.307  28.509  1.00  0.00     0.010 A 
ATOM     28  C   UNL A   1      36.414  31.661  28.460  1.00  0.00     0.010 A 
ATOM     29  C   UNL A   1      36.763  30.359  28.861  1.00  0.00    -0.014 A 
BRANCH  29  30
ATOM     30  C   UNL A   1      38.023  30.107  29.628  1.00  0.00     0.031 A 
ATOM     31  C   UNL A   1      39.121  29.246  29.049  1.00  0.00     0.074 A 
ATOM     32  C   UNL A   1      38.187  30.622  30.865  1.00  0.00     0.049 A 
ATOM     33  N   UNL A   1      40.170  28.729  29.643  1.00  0.00    -0.248 NA
ATOM     34  C   UNL A   1      39.020  28.904  27.621  1.00  0.00     0.031 C 
ATOM     35  C   UNL A   1      37.230  31.482  31.564  1.00  0.00     0.029 A 
ATOM     36  N   UNL A   1      39.224  30.494  31.760  1.00  0.00    -0.354 N 
ATOM     37  C   UNL A   1      40.802  27.942  28.689  1.00  0.00     0.074 A 
ATOM     38  C   UNL A   1      40.034  28.062  27.468  1.00  0.00     0.031 C 
ATOM     39  C   UNL A   1      37.741  31.843  32.749  1.00  0.00     0.029 A 
ATOM     40  C   UNL A   1      39.013  31.159  32.945  1.00  0.00     0.049 A 
ATOM     41  H   UNL A   1      40.040  29.976  31.571  1.00  0.00     0.167 HD
ATOM     42  C   UNL A   1      41.918  27.185  28.821  1.00  0.00     0.037 A 
ATOM     43  C   UNL A   1      39.727  31.180  34.087  1.00  0.00     0.037 A 
ATOM     44  C   UNL A   1      42.740  27.135  30.001  1.00  0.00     0.049 A 
ATOM     45  C   UNL A   1      40.971  30.349  34.199  1.00  0.00     0.074 A 
ATOM     46  C   UNL A   1      43.923  26.440  30.201  1.00  0.00     0.029 A 
ATOM     47  N   UNL A   1      42.482  27.823  31.176  1.00  0.00    -0.354 N 
ATOM     48  N   UNL A   1      41.528  29.571  33.304  1.00  0.00    -0.248 NA
ATOM     49  C   UNL A   1      41.671  30.375  35.491  1.00  0.00     0.031 C 
ATOM     50  C   UNL A   1      44.365  26.686  31.504  1.00  0.00     0.029 A 
ATOM     51  C   UNL A   1      43.475  27.560  32.105  1.00  0.00     0.049 A 
ATOM     52  H   UNL A   1      41.707  28.411  31.327  1.00  0.00     0.167 HD
ATOM     53  C   UNL A   1      42.636  29.013  33.924  1.00  0.00     0.074 A 
ATOM     54  C   UNL A   1      42.694  29.565  35.261  1.00  0.00     0.031 C 
ATOM     55  C   UNL A   1      43.520  28.113  33.432  1.00  0.00     0.037 A 
BRANCH  42  56
ATOM     56  C   UNL A   1      42.324  26.316  27.666  1.00  0.00     0.064 A 
ATOM     57  C   UNL A   1      43.316  26.706  26.758  1.00  0.00     0.173 A 
ATOM     58  C   UNL A   1      41.773  25.031  27.531  1.00  0.00     0.173 A 
ATOM     59  F   UNL A   1      43.866  27.926  26.841  1.00  0.00    -0.203 F 
ATOM     60  C   UNL A   1      43.738  25.842  25.748  1.00  0.00     0.198 A 
ATOM     61  C   UNL A   1      42.213  24.163  26.535  1.00  0.00     0.198 A 
ATOM     62  F   UNL A   1      40.827  24.610  28.383  1.00  0.00    -0.203 F 
ATOM     63  F   UNL A   1      44.675  26.240  24.877  1.00  0.00    -0.200 F 
ATOM     64  C   UNL A   1      43.194  24.570  25.645  1.00  0.00     0.200 A 
ATOM     65  F   UNL A   1      41.695  22.931  26.446  1.00  0.00    -0.200 F 
ATOM     66  F   UNL A   1      43.616  23.735  24.686  1.00  0.00    -0.200 F 
ENDBRANCH  42  56
BRANCH  43  67
ATOM     67  C   UNL A   1      39.243  31.976  35.246  1.00  0.00     0.064 A 
ATOM     68  C   UNL A   1      39.539  33.342  35.356  1.00  0.00     0.173 A 
ATOM     69  C   UNL A   1      38.481  31.388  36.265  1.00  0.00     0.173 A 
ATOM     70  F   UNL A   1      40.291  33.941  34.420  1.00  0.00    -0.203 F 
ATOM     71  C   UNL A   1      39.100  34.085  36.448  1.00  0.00     0.198 A 
ATOM     72  C   UNL A   1      38.015  32.139  37.341  1.00  0.00     0.198 A 
ATOM     73  F   UNL A   1      38.174  30.083  36.206  1.00  0.00    -0.203 F 
ATOM     74  F   UNL A   1      39.434  35.379  36.553  1.00  0.00    -0.200 F 
ATOM     75  C   UNL A   1      38.331  33.486  37.436  1.00  0.00     0.200 A 
ATOM     76  F   UNL A   1      37.262  31.559  38.284  1.00  0.00    -0.200 F 
ATOM     77  F   UNL A   1      37.903  34.204  38.482  1.00  0.00    -0.200 F 
ENDBRANCH  43  67
BRANCH  55  78
ATOM     78  C   UNL A   1      44.628  27.679  34.341  1.00  0.00     0.064 A 
ATOM     79  C   UNL A   1      44.498  26.548  35.159  1.00  0.00     0.173 A 
ATOM     80  C   UNL A   1      45.837  28.388  34.381  1.00  0.00     0.173 A 
ATOM     81  F   UNL A   1      43.352  25.850  35.168  1.00  0.00    -0.203 F 
ATOM     82  C   UNL A   1      45.534  26.153  36.001  1.00  0.00     0.198 A 
ATOM     83  C   UNL A   1      46.879  27.978  35.209  1.00  0.00     0.198 A 
ATOM     84  F   UNL A   1      46.009  29.476  33.615  1.00  0.00    -0.203 F 
ATOM     85  F   UNL A   1      45.374  25.094  36.806  1.00  0.00    -0.200 F 
ATOM     86  C   UNL A   1      46.724  26.866  36.022  1.00  0.00     0.200 A 
ATOM     87  F   UNL A   1      48.031  28.663  35.223  1.00  0.00    -0.200 F 
ATOM     88  F   UNL A   1      47.719  26.485  36.834  1.00  0.00    -0.200 F 
ENDBRANCH  55  78
ENDBRANCH  29  30
ENDBRANCH  22  24
ENDBRANCH  21  22
ENDBRANCH  20  21
ENDBRANCH   1  20
TORSDOF 14
ENDMDL
MODEL 2
REMARK VINA RESULT:     -11.6      0.251      1.654
REMARK SMILES CC[C@@H]1CCCN1C(=O)N1CC[C@@H](C(=O)OCCOC(=O)c2ccc(-c3c4nc(c(-c5c(F)c(F)c(F)c(F)c5F)c5ccc([nH]5)c(-c5c(F)c(F)c(F)c(F)c5F)c5nc(c(-c6c(F)c(F)c(F)c(F)c6F)c6ccc3[nH]6)C=C5)C=C4)cc2)[C@@H]1C
REMARK SMILES IDX 17 1 16 2 14 3 15 4 13 5 10 6 11 7 85 8 12 9 86 10 8 11 9 12
REMARK SMILES IDX 7 13 3 14 4 15 5 16 6 17 2 18 1 19 18 20 19 21 20 22 21 23
REMARK SMILES IDX 22 24 23 25 84 26 24 27 83 28 25 29 26 30 27 31 77 32 28 33
REMARK SMILES IDX 82 34 76 35 78 36 29 37 81 38 75 39 74 40 30 42 62 43 42 44
REMARK SMILES IDX 61 45 43 46 46 47 60 48 79 49 44 50 45 51 59 53 80 54 47 55
REMARK SMILES IDX 31 56 32 57 40 58 33 59 34 60 38 61 41 62 35 63 36 64 39 65
REMARK SMILES IDX 37 66 63 67 64 68 72 69 65 70 66 71 70 72 73 73 67 74 68 75
REMARK SMILES IDX 71 76 69 77 48 78 49 79 57 80 50 81 51 82 55 83 58 84 52 85
REMARK SMILES IDX 53 86 56 87 54 88
REMARK H PARENT 78 41 46 52
REMARK Flexibility Score: inf
ROOT
ATOM      1  C   UNL A   1      31.088  29.644  24.293  1.00  0.00     0.274 C 
ENDROOT
BRANCH   1   2
ATOM      2  O   UNL A   1      30.693  28.268  24.116  1.00  0.00    -0.462 OA
BRANCH   2   3
ATOM      3  C   UNL A   1      31.222  27.616  23.042  1.00  0.00     0.311 C 
ATOM      4  O   UNL A   1      30.653  27.456  21.971  1.00  0.00    -0.252 OA
BRANCH   3   5
ATOM      5  C   UNL A   1      32.666  27.239  23.323  1.00  0.00     0.123 C 
ATOM      6  N   UNL A   1      33.118  24.924  23.824  1.00  0.00    -0.321 N 
ATOM      7  C   UNL A   1      32.814  25.056  22.418  1.00  0.00     0.122 C 
ATOM      8  C   UNL A   1      32.806  26.218  24.472  1.00  0.00     0.098 C 
ATOM      9  C   UNL A   1      33.224  26.490  22.121  1.00  0.00     0.039 C 
ATOM     10  C   UNL A   1      33.919  26.625  25.434  1.00  0.00     0.032 C 
BRANCH   6  11
ATOM     11  C   UNL A   1      32.957  23.769  24.546  1.00  0.00     0.320 C 
ATOM     12  O   UNL A   1      31.934  23.640  25.229  1.00  0.00    -0.248 OA
BRANCH  11  13
ATOM     13  N   UNL A   1      33.935  22.792  24.568  1.00  0.00    -0.322 N 
ATOM     14  C   UNL A   1      35.276  22.699  25.209  1.00  0.00     0.086 C 
ATOM     15  C   UNL A   1      35.694  21.240  24.922  1.00  0.00     0.027 C 
ATOM     16  C   UNL A   1      34.394  20.482  25.008  1.00  0.00     0.024 C 
ATOM     17  C   UNL A   1      33.431  21.432  24.322  1.00  0.00     0.122 C 
BRANCH  14  18
ATOM     18  C   UNL A   1      36.437  23.579  24.736  1.00  0.00     0.022 C 
ATOM     19  C   UNL A   1      37.540  23.700  25.783  1.00  0.00     0.006 C 
ENDBRANCH  14  18
ENDBRANCH  11  13
ENDBRANCH   6  11
ENDBRANCH   3   5
ENDBRANCH   2   3
ENDBRANCH   1   2
BRANCH   1  20
ATOM     20  C   UNL A   1      31.402  29.890  25.765  1.00  0.00     0.275 C 
BRANCH  20  21
ATOM     21  O   UNL A   1      32.788  30.265  25.896  1.00  0.00    -0.458 OA
BRANCH  21  22
ATOM     22  C   UNL A   1      33.064  31.164  26.865  1.00  0.00     0.338 C 
ATOM     23  O   UNL A   1      32.365  32.105  27.218  1.00  0.00    -0.246 OA
BRANCH  22  24
ATOM     24  C   UNL A   1      34.378  30.876  27.474  1.00  0.00     0.060 A 
ATOM     25  C   UNL A   1      34.773  29.567  27.748  1.00  0.00     0.016 A 
ATOM     26  C   UNL A   1      35.192  31.939  27.871  1.00  0.00     0.016 A 
ATOM     27  C   UNL A   1      35.910  29.328  28.522  1.00  0.00     0.010 A 
ATOM     28  C   UNL A   1      36.401  31.687  28.527  1.00  0.00     0.010 A 
ATOM     29  C   UNL A   1      36.764  30.379  28.896  1.00  0.00    -0.014 A 
BRANCH  29  30
ATOM     30  C   UNL A   1      38.027  30.122  29.655  1.00  0.00     0.031 A 
ATOM     31  C   UNL A   1      39.119  29.259  29.067  1.00  0.00     0.074 A 
ATOM     32  C   UNL A   1      38.202  30.635  30.891  1.00  0.00     0.049 A 
ATOM     33  N   UNL A   1      40.170  28.738  29.653  1.00  0.00    -0.248 NA
ATOM     34  C   UNL A   1      39.007  28.919  27.639  1.00  0.00     0.031 C 
ATOM     35  C   UNL A   1      37.252  31.497  31.598  1.00  0.00     0.029 A 
ATOM     36  N   UNL A   1      39.244  30.503  31.780  1.00  0.00    -0.354 N 
ATOM     37  C   UNL A   1      40.794  27.950  28.693  1.00  0.00     0.074 A 
ATOM     38  C   UNL A   1      40.017  28.074  27.478  1.00  0.00     0.031 C 
ATOM     39  C   UNL A   1      37.773  31.854  32.780  1.00  0.00     0.029 A 
ATOM     40  C   UNL A   1      39.044  31.166  32.967  1.00  0.00     0.049 A 
ATOM     41  H   UNL A   1      40.057  29.982  31.584  1.00  0.00     0.167 HD
ATOM     42  C   UNL A   1      41.908  27.189  28.817  1.00  0.00     0.037 A 
ATOM     43  C   UNL A   1      39.766  31.183  34.104  1.00  0.00     0.037 A 
ATOM     44  C   UNL A   1      42.738  27.134  29.992  1.00  0.00     0.049 A 
ATOM     45  C   UNL A   1      41.008  30.347  34.206  1.00  0.00     0.074 A 
ATOM     46  C   UNL A   1      43.919  26.435  30.182  1.00  0.00     0.029 A 
ATOM     47  N   UNL A   1      42.489  27.822  31.169  1.00  0.00    -0.354 N 
ATOM     48  N   UNL A   1      41.556  29.569  33.307  1.00  0.00    -0.248 NA
ATOM     49  C   UNL A   1      41.717  30.369  35.494  1.00  0.00     0.031 C 
ATOM     50  C   UNL A   1      44.371  26.677  31.483  1.00  0.00     0.029 A 
ATOM     51  C   UNL A   1      43.488  27.554  32.091  1.00  0.00     0.049 A 
ATOM     52  H   UNL A   1      41.718  28.411  31.327  1.00  0.00     0.167 HD
ATOM     53  C   UNL A   1      42.667  29.007  33.918  1.00  0.00     0.074 A 
ATOM     54  C   UNL A   1      42.736  29.557  35.255  1.00  0.00     0.031 C 
ATOM     55  C   UNL A   1      43.544  28.104  33.418  1.00  0.00     0.037 A 
BRANCH  42  56
ATOM     56  C   UNL A   1      42.303  26.321  27.658  1.00  0.00     0.064 A 
ATOM     57  C   UNL A   1      43.331  26.681  26.778  1.00  0.00     0.173 A 
ATOM     58  C   UNL A   1      41.702  25.062  27.491  1.00  0.00     0.173 A 
ATOM     59  F   UNL A   1      43.930  27.876  26.892  1.00  0.00    -0.203 F 
ATOM     60  C   UNL A   1      43.739  25.815  25.765  1.00  0.00     0.198 A 
ATOM     61  C   UNL A   1      42.128  24.191  26.492  1.00  0.00     0.198 A 
ATOM     62  F   UNL A   1      40.720  24.668  28.316  1.00  0.00    -0.203 F 
ATOM     63  F   UNL A   1      44.711  26.186  24.920  1.00  0.00    -0.200 F 
ATOM     64  C   UNL A   1      43.144  24.568  25.630  1.00  0.00     0.200 A 
ATOM     65  F   UNL A   1      41.560  22.982  26.373  1.00  0.00    -0.200 F 
ATOM     66  F   UNL A   1      43.553  23.730  24.668  1.00  0.00    -0.200 F 
ENDBRANCH  42  56
BRANCH  43  67
ATOM     67  C   UNL A   1      39.292  31.979  35.267  1.00  0.00     0.064 A 
ATOM     68  C   UNL A   1      38.504  31.394  36.268  1.00  0.00     0.173 A 
ATOM     69  C   UNL A   1      39.613  33.337  35.398  1.00  0.00     0.173 A 
ATOM     70  F   UNL A   1      38.147  30.104  36.170  1.00  0.00    -0.203 F 
ATOM     71  C   UNL A   1      38.048  32.141  37.350  1.00  0.00     0.198 A 
ATOM     72  C   UNL A   1      39.182  34.077  36.497  1.00  0.00     0.198 A 
ATOM     73  F   UNL A   1      40.362  33.944  34.464  1.00  0.00    -0.203 F 
ATOM     74  F   UNL A   1      37.259  31.570  38.271  1.00  0.00    -0.200 F 
ATOM     75  C   UNL A   1      38.393  33.480  37.468  1.00  0.00     0.200 A 
ATOM     76  F   UNL A   1      39.530  35.365  36.612  1.00  0.00    -0.200 F 
ATOM     77  F   UNL A   1      37.959  34.196  38.513  1.00  0.00    -0.200 F 
ENDBRANCH  43  67
BRANCH  55  78
ATOM     78  C   UNL A   1      44.657  27.666  34.319  1.00  0.00     0.064 A 
ATOM     79  C   UNL A   1      45.876  28.357  34.358  1.00  0.00     0.173 A 
ATOM     80  C   UNL A   1      44.498  26.559  35.165  1.00  0.00     0.173 A 
ATOM     81  F   UNL A   1      46.080  29.411  33.553  1.00  0.00    -0.203 F 
ATOM     82  C   UNL A   1      46.906  27.942  35.198  1.00  0.00     0.198 A 
ATOM     83  C   UNL A   1      45.522  26.159  36.019  1.00  0.00     0.198 A 
ATOM     84  F   UNL A   1      43.348  25.867  35.165  1.00  0.00    -0.203 F 
ATOM     85  F   UNL A   1      48.078  28.591  35.189  1.00  0.00    -0.200 F 
ATOM     86  C   UNL A   1      46.726  26.847  36.031  1.00  0.00     0.200 A 
ATOM     87  F   UNL A   1      45.345  25.105  36.828  1.00  0.00    -0.200 F 
ATOM     88  F   UNL A   1      47.719  26.448  36.837  1.00  0.00    -0.200 F 
ENDBRANCH  55  78
ENDBRANCH  29  30
ENDBRANCH  22  24
ENDBRANCH  21  22
ENDBRANCH  20  21
ENDBRANCH   1  20
TORSDOF 14
ENDMDL
MODEL 3
REMARK VINA RESULT:     -11.5      0.957      1.770
REMARK SMILES CC[C@@H]1CCCN1C(=O)N1CC[C@@H](C(=O)OCCOC(=O)c2ccc(-c3c4nc(c(-c5c(F)c(F)c(F)c(F)c5F)c5ccc([nH]5)c(-c5c(F)c(F)c(F)c(F)c5F)c5nc(c(-c6c(F)c(F)c(F)c(F)c6F)c6ccc3[nH]6)C=C5)C=C4)cc2)[C@@H]1C
REMARK SMILES IDX 17 1 16 2 14 3 15 4 13 5 10 6 11 7 85 8 12 9 86 10 8 11 9 12
REMARK SMILES IDX 7 13 3 14 4 15 5 16 6 17 2 18 1 19 18 20 19 21 20 22 21 23
REMARK SMILES IDX 22 24 23 25 84 26 24 27 83 28 25 29 26 30 27 31 77 32 28 33
REMARK SMILES IDX 82 34 76 35 78 36 29 37 81 38 75 39 74 40 30 42 62 43 42 44
REMARK SMILES IDX 61 45 43 46 46 47 60 48 79 49 44 50 45 51 59 53 80 54 47 55
REMARK SMILES IDX 31 56 32 57 40 58 33 59 34 60 38 61 41 62 35 63 36 64 39 65
REMARK SMILES IDX 37 66 63 67 64 68 72 69 65 70 66 71 70 72 73 73 67 74 68 75
REMARK SMILES IDX 71 76 69 77 48 78 49 79 57 80 50 81 51 82 55 83 58 84 52 85
REMARK SMILES IDX 53 86 56 87 54 88
REMARK H PARENT 78 41 46 52
REMARK Flexibility Score: inf
ROOT
ATOM      1  C   UNL A   1      32.433  29.174  24.372  1.00  0.00     0.274 C 
ENDROOT
BRANCH   1   2
ATOM      2  O   UNL A   1      31.541  28.419  23.525  1.00  0.00    -0.462 OA
BRANCH   2   3
ATOM      3  C   UNL A   1      31.954  27.172  23.162  1.00  0.00     0.311 C 
ATOM      4  O   UNL A   1      33.105  26.872  22.876  1.00  0.00    -0.252 OA
BRANCH   3   5
ATOM      5  C   UNL A   1      30.808  26.185  23.297  1.00  0.00     0.123 C 
ATOM      6  N   UNL A   1      30.723  24.869  25.315  1.00  0.00    -0.321 N 
ATOM      7  C   UNL A   1      30.356  26.233  25.620  1.00  0.00     0.122 C 
ATOM      8  C   UNL A   1      31.241  24.846  23.928  1.00  0.00     0.098 C 
ATOM      9  C   UNL A   1      29.798  26.733  24.297  1.00  0.00     0.039 C 
ATOM     10  C   UNL A   1      30.664  23.663  23.155  1.00  0.00     0.032 C 
BRANCH   6  11
ATOM     11  C   UNL A   1      31.238  23.984  26.227  1.00  0.00     0.320 C 
ATOM     12  O   UNL A   1      30.566  23.713  27.229  1.00  0.00    -0.248 OA
BRANCH  11  13
ATOM     13  N   UNL A   1      32.503  23.445  26.072  1.00  0.00    -0.322 N 
ATOM     14  C   UNL A   1      33.874  23.952  26.361  1.00  0.00     0.086 C 
ATOM     15  C   UNL A   1      34.761  22.718  26.084  1.00  0.00     0.027 C 
ATOM     16  C   UNL A   1      33.908  21.564  26.546  1.00  0.00     0.024 C 
ATOM     17  C   UNL A   1      32.532  21.975  26.059  1.00  0.00     0.122 C 
BRANCH  14  18
ATOM     18  C   UNL A   1      34.475  25.104  25.550  1.00  0.00     0.022 C 
ATOM     19  C   UNL A   1      34.034  26.470  26.066  1.00  0.00     0.006 C 
ENDBRANCH  14  18
ENDBRANCH  11  13
ENDBRANCH   6  11
ENDBRANCH   3   5
ENDBRANCH   2   3
ENDBRANCH   1   2
BRANCH   1  20
ATOM     20  C   UNL A   1      31.611  30.021  25.337  1.00  0.00     0.275 C 
BRANCH  20  21
ATOM     21  O   UNL A   1      32.252  30.020  26.628  1.00  0.00    -0.458 OA
BRANCH  21  22
ATOM     22  C   UNL A   1      32.832  31.182  26.997  1.00  0.00     0.338 C 
ATOM     23  O   UNL A   1      32.369  32.309  26.877  1.00  0.00    -0.246 OA
BRANCH  22  24
ATOM     24  C   UNL A   1      34.164  30.928  27.584  1.00  0.00     0.060 A 
ATOM     25  C   UNL A   1      34.606  29.629  27.832  1.00  0.00     0.016 A 
ATOM     26  C   UNL A   1      34.948  32.012  27.985  1.00  0.00     0.016 A 
ATOM     27  C   UNL A   1      35.761  29.416  28.586  1.00  0.00     0.010 A 
ATOM     28  C   UNL A   1      36.174  31.789  28.620  1.00  0.00     0.010 A 
ATOM     29  C   UNL A   1      36.585  30.489  28.964  1.00  0.00    -0.014 A 
BRANCH  29  30
ATOM     30  C   UNL A   1      37.867  30.263  29.701  1.00  0.00     0.031 A 
ATOM     31  C   UNL A   1      38.972  29.433  29.091  1.00  0.00     0.074 A 
ATOM     32  C   UNL A   1      38.047  30.773  30.937  1.00  0.00     0.049 A 
ATOM     33  N   UNL A   1      40.047  28.937  29.657  1.00  0.00    -0.248 NA
ATOM     34  C   UNL A   1      38.847  29.098  27.663  1.00  0.00     0.031 C 
ATOM     35  C   UNL A   1      37.087  31.605  31.665  1.00  0.00     0.029 A 
ATOM     36  N   UNL A   1      39.107  30.665  31.808  1.00  0.00    -0.354 N 
ATOM     37  C   UNL A   1      40.676  28.172  28.683  1.00  0.00     0.074 A 
ATOM     38  C   UNL A   1      39.877  28.281  27.480  1.00  0.00     0.031 C 
ATOM     39  C   UNL A   1      37.616  31.970  32.840  1.00  0.00     0.029 A 
ATOM     40  C   UNL A   1      38.908  31.316  33.002  1.00  0.00     0.049 A 
ATOM     41  H   UNL A   1      39.931  30.168  31.596  1.00  0.00     0.167 HD
ATOM     42  C   UNL A   1      41.812  27.441  28.784  1.00  0.00     0.037 A 
ATOM     43  C   UNL A   1      39.648  31.347  34.128  1.00  0.00     0.037 A 
ATOM     44  C   UNL A   1      42.662  27.402  29.944  1.00  0.00     0.049 A 
ATOM     45  C   UNL A   1      40.914  30.545  34.204  1.00  0.00     0.074 A 
ATOM     46  C   UNL A   1      43.865  26.735  30.112  1.00  0.00     0.029 A 
ATOM     47  N   UNL A   1      42.414  28.077  31.130  1.00  0.00    -0.354 N 
ATOM     48  N   UNL A   1      41.468  29.786  33.292  1.00  0.00    -0.248 NA
ATOM     49  C   UNL A   1      41.643  30.579  35.481  1.00  0.00     0.031 C 
ATOM     50  C   UNL A   1      44.331  26.983  31.407  1.00  0.00     0.029 A 
ATOM     51  C   UNL A   1      43.435  27.831  32.034  1.00  0.00     0.049 A 
ATOM     52  H   UNL A   1      41.629  28.644  31.303  1.00  0.00     0.167 HD
ATOM     53  C   UNL A   1      42.604  29.252  33.882  1.00  0.00     0.074 A 
ATOM     54  C   UNL A   1      42.679  29.795  35.221  1.00  0.00     0.031 C 
ATOM     55  C   UNL A   1      43.497  28.376  33.363  1.00  0.00     0.037 A 
BRANCH  42  56
ATOM     56  C   UNL A   1      42.212  26.590  27.613  1.00  0.00     0.064 A 
ATOM     57  C   UNL A   1      43.185  27.002  26.695  1.00  0.00     0.173 A 
ATOM     58  C   UNL A   1      41.675  25.299  27.473  1.00  0.00     0.173 A 
ATOM     59  F   UNL A   1      43.721  28.229  26.783  1.00  0.00    -0.203 F 
ATOM     60  C   UNL A   1      43.603  26.155  25.670  1.00  0.00     0.198 A 
ATOM     61  C   UNL A   1      42.111  24.448  26.461  1.00  0.00     0.198 A 
ATOM     62  F   UNL A   1      40.747  24.857  28.334  1.00  0.00    -0.203 F 
ATOM     63  F   UNL A   1      44.522  26.575  24.789  1.00  0.00    -0.200 F 
ATOM     64  C   UNL A   1      43.074  24.877  25.561  1.00  0.00     0.200 A 
ATOM     65  F   UNL A   1      41.608  23.210  26.366  1.00  0.00    -0.200 F 
ATOM     66  F   UNL A   1      43.492  24.057  24.587  1.00  0.00    -0.200 F 
ENDBRANCH  42  56
BRANCH  43  67
ATOM     67  C   UNL A   1      39.172  32.123  35.303  1.00  0.00     0.064 A 
ATOM     68  C   UNL A   1      39.452  33.491  35.424  1.00  0.00     0.173 A 
ATOM     69  C   UNL A   1      38.434  31.513  36.327  1.00  0.00     0.173 A 
ATOM     70  F   UNL A   1      40.181  34.111  34.483  1.00  0.00    -0.203 F 
ATOM     71  C   UNL A   1      39.020  34.216  36.531  1.00  0.00     0.198 A 
ATOM     72  C   UNL A   1      37.975  32.246  37.418  1.00  0.00     0.198 A 
ATOM     73  F   UNL A   1      38.143  30.205  36.258  1.00  0.00    -0.203 F 
ATOM     74  F   UNL A   1      39.338  35.513  36.646  1.00  0.00    -0.200 F 
ATOM     75  C   UNL A   1      38.275  33.596  37.524  1.00  0.00     0.200 A 
ATOM     76  F   UNL A   1      37.246  31.645  38.367  1.00  0.00    -0.200 F 
ATOM     77  F   UNL A   1      37.854  34.296  38.585  1.00  0.00    -0.200 F 
ENDBRANCH  43  67
BRANCH  55  78
ATOM     78  C   UNL A   1      44.636  27.963  34.244  1.00  0.00     0.064 A 
ATOM     79  C   UNL A   1      45.831  28.696  34.278  1.00  0.00     0.173 A 
ATOM     80  C   UNL A   1      44.526  26.839  35.074  1.00  0.00     0.173 A 
ATOM     81  F   UNL A   1      45.988  29.768  33.487  1.00  0.00    -0.203 F 
ATOM     82  C   UNL A   1      46.885  28.304  35.099  1.00  0.00     0.198 A 
ATOM     83  C   UNL A   1      45.575  26.462  35.910  1.00  0.00     0.198 A 
ATOM     84  F   UNL A   1      43.401  26.108  35.077  1.00  0.00    -0.203 F 
ATOM     85  F   UNL A   1      48.034  28.994  35.086  1.00  0.00    -0.200 F 
ATOM     86  C   UNL A   1      46.754  27.191  35.917  1.00  0.00     0.200 A 
ATOM     87  F   UNL A   1      45.445  25.391  36.704  1.00  0.00    -0.200 F 
ATOM     88  F   UNL A   1      47.770  26.815  36.705  1.00  0.00    -0.200 F 
ENDBRANCH  55  78
ENDBRANCH  29  30
ENDBRANCH  22  24
ENDBRANCH  21  22
ENDBRANCH  20  21
ENDBRANCH   1  20
TORSDOF 14
ENDMDL
