MODEL 1
REMARK VINA RESULT:     -12.3      0.000      0.000
REMARK SMILES C[C@@H](SCC(=O)N1c2ccccc2SC[C@H]1c1ccccc1)C(=O)OCCOC(=O)c1ccc(-c2c3nc(c(-c4c(F)c(F)c(F)c(F)c4F)c4ccc([nH]4)c(-c4c(F)c(F)c(F)c(F)c4F)c4nc(c(-c5c(F)c(F)c(F)c(F)c5F)c5ccc2[nH]5)C=C4)C=C3)cc1
REMARK SMILES IDX 25 1 23 2 24 3 2 4 1 5 3 6 4 7 5 8 6 9 7 10 8 11 16 12 9 13
REMARK SMILES IDX 13 14 15 15 10 16 12 17 14 18 11 19 17 20 18 21 22 22 19 23
REMARK SMILES IDX 21 24 20 25 26 26 27 27 28 28 29 29 30 30 31 31 32 32 93 33
REMARK SMILES IDX 33 34 92 35 34 36 35 37 36 38 86 39 37 40 91 41 85 42 87 43
REMARK SMILES IDX 38 44 90 45 84 46 83 47 39 49 71 50 51 51 70 52 52 53 55 54
REMARK SMILES IDX 69 55 88 56 53 57 54 58 68 60 89 61 56 62 40 63 41 64 49 65
REMARK SMILES IDX 42 66 43 67 47 68 50 69 44 70 45 71 48 72 46 73 72 74 73 75
REMARK SMILES IDX 81 76 74 77 75 78 79 79 82 80 76 81 77 82 80 83 78 84 57 85
REMARK SMILES IDX 58 86 66 87 59 88 60 89 64 90 67 91 61 92 62 93 65 94 63 95
REMARK H PARENT 87 48 55 59
REMARK Flexibility Score: inf
ROOT
ATOM      1  O   UNL A   1      34.539  32.090  29.452  1.00  0.00    -0.461 OA
ENDROOT
BRANCH   1   2
ATOM      2  C   UNL A   1      33.975  32.296  28.231  1.00  0.00     0.318 C 
ATOM      3  O   UNL A   1      33.398  33.334  27.920  1.00  0.00    -0.251 OA
BRANCH   2   4
ATOM      4  C   UNL A   1      34.146  31.142  27.251  1.00  0.00     0.154 C 
ATOM      5  C   UNL A   1      35.163  30.112  27.712  1.00  0.00     0.032 C 
BRANCH   4   6
ATOM      6  S   UNL A   1      32.527  30.369  26.898  1.00  0.00    -0.137 SA
BRANCH   6   7
ATOM      7  C   UNL A   1      32.957  28.851  25.965  1.00  0.00     0.170 C 
BRANCH   7   8
ATOM      8  C   UNL A   1      31.903  27.744  25.886  1.00  0.00     0.237 C 
ATOM      9  O   UNL A   1      30.996  27.647  26.716  1.00  0.00    -0.274 OA
BRANCH   8  10
ATOM     10  N   UNL A   1      31.926  26.967  24.714  1.00  0.00    -0.302 N 
ATOM     11  C   UNL A   1      32.992  25.962  24.588  1.00  0.00     0.058 A 
ATOM     12  C   UNL A   1      31.519  27.634  23.452  1.00  0.00     0.131 C 
ATOM     13  C   UNL A   1      33.643  25.472  25.739  1.00  0.00     0.027 A 
ATOM     14  C   UNL A   1      33.419  25.435  23.343  1.00  0.00     0.031 A 
ATOM     15  C   UNL A   1      31.255  26.641  22.314  1.00  0.00     0.105 C 
ATOM     16  C   UNL A   1      34.660  24.506  25.660  1.00  0.00     0.002 A 
ATOM     17  C   UNL A   1      34.436  24.464  23.277  1.00  0.00     0.017 A 
ATOM     18  S   UNL A   1      32.792  25.922  21.746  1.00  0.00    -0.121 SA
ATOM     19  C   UNL A   1      35.052  23.997  24.429  1.00  0.00     0.001 A 
BRANCH  12  20
ATOM     20  C   UNL A   1      30.261  28.494  23.489  1.00  0.00    -0.024 A 
ATOM     21  C   UNL A   1      28.995  28.008  23.135  1.00  0.00     0.006 A 
ATOM     22  C   UNL A   1      30.406  29.873  23.716  1.00  0.00     0.006 A 
ATOM     23  C   UNL A   1      27.893  28.866  23.089  1.00  0.00     0.000 A 
ATOM     24  C   UNL A   1      29.311  30.734  23.633  1.00  0.00     0.000 A 
ATOM     25  C   UNL A   1      28.050  30.226  23.341  1.00  0.00     0.000 A 
ENDBRANCH  12  20
ENDBRANCH   8  10
ENDBRANCH   7   8
ENDBRANCH   6   7
ENDBRANCH   4   6
ENDBRANCH   2   4
ENDBRANCH   1   2
BRANCH   1  26
ATOM     26  C   UNL A   1      34.606  33.249  30.311  1.00  0.00     0.274 C 
BRANCH  26  27
ATOM     27  C   UNL A   1      34.708  32.892  31.801  1.00  0.00     0.275 C 
BRANCH  27  28
ATOM     28  O   UNL A   1      35.344  31.619  32.021  1.00  0.00    -0.458 OA
BRANCH  28  29
ATOM     29  C   UNL A   1      36.491  31.657  32.743  1.00  0.00     0.338 C 
ATOM     30  O   UNL A   1      36.612  31.947  33.918  1.00  0.00    -0.246 OA
BRANCH  29  31
ATOM     31  C   UNL A   1      37.598  31.148  31.918  1.00  0.00     0.060 A 
ATOM     32  C   UNL A   1      37.593  31.317  30.534  1.00  0.00     0.016 A 
ATOM     33  C   UNL A   1      38.681  30.529  32.552  1.00  0.00     0.016 A 
ATOM     34  C   UNL A   1      38.673  30.841  29.787  1.00  0.00     0.010 A 
ATOM     35  C   UNL A   1      39.747  30.037  31.809  1.00  0.00     0.010 A 
ATOM     36  C   UNL A   1      39.750  30.194  30.421  1.00  0.00    -0.014 A 
BRANCH  36  37
ATOM     37  C   UNL A   1      40.931  29.760  29.647  1.00  0.00     0.031 A 
ATOM     38  C   UNL A   1      41.030  28.369  29.108  1.00  0.00     0.074 A 
ATOM     39  C   UNL A   1      41.934  30.637  29.475  1.00  0.00     0.049 A 
ATOM     40  N   UNL A   1      41.959  27.846  28.348  1.00  0.00    -0.248 NA
ATOM     41  C   UNL A   1      39.951  27.439  29.473  1.00  0.00     0.031 C 
ATOM     42  C   UNL A   1      41.957  31.996  30.014  1.00  0.00     0.029 A 
ATOM     43  N   UNL A   1      43.120  30.521  28.799  1.00  0.00    -0.354 N 
ATOM     44  C   UNL A   1      41.564  26.535  28.119  1.00  0.00     0.074 A 
ATOM     45  C   UNL A   1      40.344  26.324  28.873  1.00  0.00     0.031 C 
ATOM     46  C   UNL A   1      43.085  32.603  29.619  1.00  0.00     0.029 A 
ATOM     47  C   UNL A   1      43.872  31.667  28.821  1.00  0.00     0.049 A 
ATOM     48  H   UNL A   1      43.403  29.696  28.343  1.00  0.00     0.167 HD
ATOM     49  C   UNL A   1      42.157  25.607  27.331  1.00  0.00     0.037 A 
ATOM     50  C   UNL A   1      45.059  31.935  28.248  1.00  0.00     0.037 A 
ATOM     51  C   UNL A   1      43.393  25.825  26.618  1.00  0.00     0.049 A 
ATOM     52  C   UNL A   1      45.722  30.873  27.416  1.00  0.00     0.074 A 
ATOM     53  C   UNL A   1      44.065  24.964  25.770  1.00  0.00     0.029 A 
ATOM     54  N   UNL A   1      44.154  26.985  26.691  1.00  0.00    -0.354 N 
ATOM     55  N   UNL A   1      45.301  29.665  27.129  1.00  0.00    -0.248 NA
ATOM     56  C   UNL A   1      47.019  31.217  26.822  1.00  0.00     0.031 C 
ATOM     57  C   UNL A   1      45.258  25.579  25.375  1.00  0.00     0.029 A 
ATOM     58  C   UNL A   1      45.305  26.849  25.928  1.00  0.00     0.049 A 
ATOM     59  H   UNL A   1      43.912  27.787  27.208  1.00  0.00     0.167 HD
ATOM     60  C   UNL A   1      46.273  29.105  26.313  1.00  0.00     0.074 A 
ATOM     61  C   UNL A   1      47.291  30.121  26.126  1.00  0.00     0.031 C 
ATOM     62  C   UNL A   1      46.322  27.861  25.773  1.00  0.00     0.037 A 
BRANCH  49  63
ATOM     63  C   UNL A   1      41.474  24.277  27.192  1.00  0.00     0.064 A 
ATOM     64  C   UNL A   1      40.257  24.149  26.500  1.00  0.00     0.173 A 
ATOM     65  C   UNL A   1      42.053  23.109  27.711  1.00  0.00     0.173 A 
ATOM     66  F   UNL A   1      39.655  25.232  25.987  1.00  0.00    -0.203 F 
ATOM     67  C   UNL A   1      39.634  22.911  26.361  1.00  0.00     0.198 A 
ATOM     68  C   UNL A   1      41.443  21.867  27.542  1.00  0.00     0.198 A 
ATOM     69  F   UNL A   1      43.219  23.167  28.371  1.00  0.00    -0.203 F 
ATOM     70  F   UNL A   1      38.452  22.824  25.737  1.00  0.00    -0.200 F 
ATOM     71  C   UNL A   1      40.231  21.771  26.875  1.00  0.00     0.200 A 
ATOM     72  F   UNL A   1      42.030  20.763  28.022  1.00  0.00    -0.200 F 
ATOM     73  F   UNL A   1      39.637  20.578  26.729  1.00  0.00    -0.200 F 
ENDBRANCH  49  63
BRANCH  50  74
ATOM     74  C   UNL A   1      45.648  33.288  28.399  1.00  0.00     0.064 A 
ATOM     75  C   UNL A   1      46.569  33.557  29.421  1.00  0.00     0.173 A 
ATOM     76  C   UNL A   1      45.358  34.318  27.492  1.00  0.00     0.173 A 
ATOM     77  F   UNL A   1      46.865  32.608  30.321  1.00  0.00    -0.203 F 
ATOM     78  C   UNL A   1      47.178  34.803  29.529  1.00  0.00     0.198 A 
ATOM     79  C   UNL A   1      45.989  35.555  27.585  1.00  0.00     0.198 A 
ATOM     80  F   UNL A   1      44.488  34.108  26.493  1.00  0.00    -0.203 F 
ATOM     81  F   UNL A   1      48.040  35.041  30.528  1.00  0.00    -0.200 F 
ATOM     82  C   UNL A   1      46.897  35.799  28.605  1.00  0.00     0.200 A 
ATOM     83  F   UNL A   1      45.728  36.508  26.679  1.00  0.00    -0.200 F 
ATOM     84  F   UNL A   1      47.502  36.991  28.696  1.00  0.00    -0.200 F 
ENDBRANCH  50  74
BRANCH  62  85
ATOM     85  C   UNL A   1      47.526  27.527  24.936  1.00  0.00     0.064 A 
ATOM     86  C   UNL A   1      48.659  26.915  25.494  1.00  0.00     0.173 A 
ATOM     87  C   UNL A   1      47.536  27.792  23.558  1.00  0.00     0.173 A 
ATOM     88  F   UNL A   1      48.706  26.654  26.809  1.00  0.00    -0.203 F 
ATOM     89  C   UNL A   1      49.769  26.612  24.711  1.00  0.00     0.198 A 
ATOM     90  C   UNL A   1      48.635  27.453  22.771  1.00  0.00     0.198 A 
ATOM     91  F   UNL A   1      46.477  28.369  22.970  1.00  0.00    -0.203 F 
ATOM     92  F   UNL A   1      50.861  26.081  25.278  1.00  0.00    -0.200 F 
ATOM     93  C   UNL A   1      49.753  26.873  23.350  1.00  0.00     0.200 A 
ATOM     94  F   UNL A   1      48.610  27.691  21.453  1.00  0.00    -0.200 F 
ATOM     95  F   UNL A   1      50.820  26.574  22.596  1.00  0.00    -0.200 F 
ENDBRANCH  62  85
ENDBRANCH  36  37
ENDBRANCH  29  31
ENDBRANCH  28  29
ENDBRANCH  27  28
ENDBRANCH  26  27
ENDBRANCH   1  26
TORSDOF 16
ENDMDL
MODEL 2
REMARK VINA RESULT:     -12.2      4.718      7.674
REMARK SMILES C[C@@H](SCC(=O)N1c2ccccc2SC[C@H]1c1ccccc1)C(=O)OCCOC(=O)c1ccc(-c2c3nc(c(-c4c(F)c(F)c(F)c(F)c4F)c4ccc([nH]4)c(-c4c(F)c(F)c(F)c(F)c4F)c4nc(c(-c5c(F)c(F)c(F)c(F)c5F)c5ccc2[nH]5)C=C4)C=C3)cc1
REMARK SMILES IDX 25 1 23 2 24 3 2 4 1 5 3 6 4 7 5 8 6 9 7 10 8 11 16 12 9 13
REMARK SMILES IDX 13 14 15 15 10 16 12 17 14 18 11 19 17 20 18 21 22 22 19 23
REMARK SMILES IDX 21 24 20 25 26 26 27 27 28 28 29 29 30 30 31 31 32 32 93 33
REMARK SMILES IDX 33 34 92 35 34 36 35 37 36 38 86 39 37 40 91 41 85 42 87 43
REMARK SMILES IDX 38 44 90 45 84 46 83 47 39 49 71 50 51 51 70 52 52 53 55 54
REMARK SMILES IDX 69 55 88 56 53 57 54 58 68 60 89 61 56 62 40 63 41 64 49 65
REMARK SMILES IDX 42 66 43 67 47 68 50 69 44 70 45 71 48 72 46 73 72 74 73 75
REMARK SMILES IDX 81 76 74 77 75 78 79 79 82 80 76 81 77 82 80 83 78 84 57 85
REMARK SMILES IDX 58 86 66 87 59 88 60 89 64 90 67 91 61 92 62 93 65 94 63 95
REMARK H PARENT 87 48 55 59
REMARK Flexibility Score: inf
ROOT
ATOM      1  O   UNL A   1      32.253  31.005  27.270  1.00  0.00    -0.461 OA
ENDROOT
BRANCH   1   2
ATOM      2  C   UNL A   1      32.354  30.118  26.242  1.00  0.00     0.318 C 
ATOM      3  O   UNL A   1      31.427  29.855  25.483  1.00  0.00    -0.251 OA
BRANCH   2   4
ATOM      4  C   UNL A   1      33.735  29.495  26.077  1.00  0.00     0.154 C 
ATOM      5  C   UNL A   1      34.327  28.998  27.385  1.00  0.00     0.032 C 
BRANCH   4   6
ATOM      6  S   UNL A   1      33.682  28.167  24.822  1.00  0.00    -0.137 SA
BRANCH   6   7
ATOM      7  C   UNL A   1      33.612  26.626  25.813  1.00  0.00     0.170 C 
BRANCH   7   8
ATOM      8  C   UNL A   1      32.230  26.066  26.158  1.00  0.00     0.237 C 
ATOM      9  O   UNL A   1      31.452  26.664  26.904  1.00  0.00    -0.274 OA
BRANCH   8  10
ATOM     10  N   UNL A   1      31.837  24.931  25.428  1.00  0.00    -0.302 N 
ATOM     11  C   UNL A   1      32.528  23.665  25.719  1.00  0.00     0.058 A 
ATOM     12  C   UNL A   1      31.446  25.138  24.011  1.00  0.00     0.131 C 
ATOM     13  C   UNL A   1      33.182  23.484  26.955  1.00  0.00     0.027 A 
ATOM     14  C   UNL A   1      32.576  22.580  24.807  1.00  0.00     0.031 A 
ATOM     15  C   UNL A   1      30.724  23.926  23.410  1.00  0.00     0.105 C 
ATOM     16  C   UNL A   1      33.847  22.287  27.271  1.00  0.00     0.002 A 
ATOM     17  C   UNL A   1      33.241  21.384  25.139  1.00  0.00     0.017 A 
ATOM     18  S   UNL A   1      31.872  22.575  23.169  1.00  0.00    -0.121 SA
ATOM     19  C   UNL A   1      33.869  21.234  26.366  1.00  0.00     0.001 A 
BRANCH  12  20
ATOM     20  C   UNL A   1      30.517  26.309  23.706  1.00  0.00    -0.024 A 
ATOM     21  C   UNL A   1      29.157  26.310  24.046  1.00  0.00     0.006 A 
ATOM     22  C   UNL A   1      31.003  27.347  22.895  1.00  0.00     0.006 A 
ATOM     23  C   UNL A   1      28.329  27.365  23.652  1.00  0.00     0.000 A 
ATOM     24  C   UNL A   1      30.165  28.380  22.472  1.00  0.00     0.000 A 
ATOM     25  C   UNL A   1      28.833  28.399  22.869  1.00  0.00     0.000 A 
ENDBRANCH  12  20
ENDBRANCH   8  10
ENDBRANCH   7   8
ENDBRANCH   6   7
ENDBRANCH   4   6
ENDBRANCH   2   4
ENDBRANCH   1   2
BRANCH   1  26
ATOM     26  C   UNL A   1      31.750  32.312  26.918  1.00  0.00     0.274 C 
BRANCH  26  27
ATOM     27  C   UNL A   1      32.731  33.446  27.249  1.00  0.00     0.275 C 
BRANCH  27  28
ATOM     28  O   UNL A   1      32.195  34.375  28.209  1.00  0.00    -0.458 OA
BRANCH  28  29
ATOM     29  C   UNL A   1      33.090  35.247  28.738  1.00  0.00     0.338 C 
ATOM     30  O   UNL A   1      32.972  36.453  28.839  1.00  0.00    -0.246 OA
BRANCH  29  31
ATOM     31  C   UNL A   1      34.211  34.492  29.322  1.00  0.00     0.060 A 
ATOM     32  C   UNL A   1      35.505  34.640  28.827  1.00  0.00     0.016 A 
ATOM     33  C   UNL A   1      33.962  33.656  30.416  1.00  0.00     0.016 A 
ATOM     34  C   UNL A   1      36.547  33.926  29.423  1.00  0.00     0.010 A 
ATOM     35  C   UNL A   1      34.993  32.930  30.998  1.00  0.00     0.010 A 
ATOM     36  C   UNL A   1      36.293  33.064  30.506  1.00  0.00    -0.014 A 
BRANCH  36  37
ATOM     37  C   UNL A   1      37.401  32.367  31.192  1.00  0.00     0.031 A 
ATOM     38  C   UNL A   1      38.117  31.228  30.539  1.00  0.00     0.074 A 
ATOM     39  C   UNL A   1      37.722  32.758  32.437  1.00  0.00     0.049 A 
ATOM     40  N   UNL A   1      39.155  30.556  30.967  1.00  0.00    -0.248 NA
ATOM     41  C   UNL A   1      37.598  30.779  29.239  1.00  0.00     0.031 C 
ATOM     42  C   UNL A   1      37.043  33.818  33.181  1.00  0.00     0.029 A 
ATOM     43  N   UNL A   1      38.698  32.316  33.291  1.00  0.00    -0.354 N 
ATOM     44  C   UNL A   1      39.433  29.623  29.979  1.00  0.00     0.074 A 
ATOM     45  C   UNL A   1      38.415  29.773  28.958  1.00  0.00     0.031 C 
ATOM     46  C   UNL A   1      37.644  33.970  34.369  1.00  0.00     0.029 A 
ATOM     47  C   UNL A   1      38.733  33.004  34.477  1.00  0.00     0.049 A 
ATOM     48  H   UNL A   1      39.312  31.578  33.074  1.00  0.00     0.167 HD
ATOM     49  C   UNL A   1      40.460  28.742  29.923  1.00  0.00     0.037 A 
ATOM     50  C   UNL A   1      39.562  32.874  35.528  1.00  0.00     0.037 A 
ATOM     51  C   UNL A   1      41.442  28.581  30.968  1.00  0.00     0.049 A 
ATOM     52  C   UNL A   1      40.666  31.857  35.463  1.00  0.00     0.074 A 
ATOM     53  C   UNL A   1      42.539  27.739  31.001  1.00  0.00     0.029 A 
ATOM     54  N   UNL A   1      41.430  29.264  32.177  1.00  0.00    -0.354 N 
ATOM     55  N   UNL A   1      40.980  31.038  34.489  1.00  0.00    -0.248 NA
ATOM     56  C   UNL A   1      41.536  31.753  36.642  1.00  0.00     0.031 C 
ATOM     57  C   UNL A   1      43.156  27.872  32.251  1.00  0.00     0.029 A 
ATOM     58  C   UNL A   1      42.481  28.840  32.976  1.00  0.00     0.049 A 
ATOM     59  H   UNL A   1      40.771  29.951  32.430  1.00  0.00     0.167 HD
ATOM     60  C   UNL A   1      42.088  30.328  34.927  1.00  0.00     0.074 A 
ATOM     61  C   UNL A   1      42.410  30.838  36.246  1.00  0.00     0.031 C 
ATOM     62  C   UNL A   1      42.773  29.340  34.299  1.00  0.00     0.037 A 
BRANCH  49  63
ATOM     63  C   UNL A   1      40.578  27.891  28.691  1.00  0.00     0.064 A 
ATOM     64  C   UNL A   1      39.917  26.655  28.591  1.00  0.00     0.173 A 
ATOM     65  C   UNL A   1      41.317  28.326  27.580  1.00  0.00     0.173 A 
ATOM     66  F   UNL A   1      39.201  26.186  29.623  1.00  0.00    -0.203 F 
ATOM     67  C   UNL A   1      40.017  25.876  27.440  1.00  0.00     0.198 A 
ATOM     68  C   UNL A   1      41.388  27.559  26.419  1.00  0.00     0.198 A 
ATOM     69  F   UNL A   1      41.960  29.502  27.613  1.00  0.00    -0.203 F 
ATOM     70  F   UNL A   1      39.415  24.680  27.388  1.00  0.00    -0.200 F 
ATOM     71  C   UNL A   1      40.746  26.332  26.353  1.00  0.00     0.200 A 
ATOM     72  F   UNL A   1      42.077  28.009  25.361  1.00  0.00    -0.200 F 
ATOM     73  F   UNL A   1      40.830  25.587  25.242  1.00  0.00    -0.200 F 
ENDBRANCH  49  63
BRANCH  50  74
ATOM     74  C   UNL A   1      39.404  33.782  36.691  1.00  0.00     0.064 A 
ATOM     75  C   UNL A   1      38.667  33.383  37.814  1.00  0.00     0.173 A 
ATOM     76  C   UNL A   1      40.039  35.032  36.735  1.00  0.00     0.173 A 
ATOM     77  F   UNL A   1      38.028  32.204  37.811  1.00  0.00    -0.203 F 
ATOM     78  C   UNL A   1      38.570  34.200  38.937  1.00  0.00     0.198 A 
ATOM     79  C   UNL A   1      39.966  35.835  37.870  1.00  0.00     0.198 A 
ATOM     80  F   UNL A   1      40.763  35.455  35.688  1.00  0.00    -0.203 F 
ATOM     81  F   UNL A   1      37.841  33.805  39.990  1.00  0.00    -0.200 F 
ATOM     82  C   UNL A   1      39.229  35.421  38.970  1.00  0.00     0.200 A 
ATOM     83  F   UNL A   1      40.618  37.006  37.904  1.00  0.00    -0.200 F 
ATOM     84  F   UNL A   1      39.155  36.195  40.060  1.00  0.00    -0.200 F 
ENDBRANCH  50  74
BRANCH  62  85
ATOM     85  C   UNL A   1      43.935  28.736  35.039  1.00  0.00     0.064 A 
ATOM     86  C   UNL A   1      45.218  29.300  34.972  1.00  0.00     0.173 A 
ATOM     87  C   UNL A   1      43.758  27.602  35.847  1.00  0.00     0.173 A 
ATOM     88  F   UNL A   1      45.444  30.376  34.203  1.00  0.00    -0.203 F 
ATOM     89  C   UNL A   1      46.287  28.732  35.660  1.00  0.00     0.198 A 
ATOM     90  C   UNL A   1      44.823  27.059  36.563  1.00  0.00     0.198 A 
ATOM     91  F   UNL A   1      42.551  27.026  35.953  1.00  0.00    -0.203 F 
ATOM     92  F   UNL A   1      47.515  29.255  35.534  1.00  0.00    -0.200 F 
ATOM     93  C   UNL A   1      46.087  27.618  36.461  1.00  0.00     0.200 A 
ATOM     94  F   UNL A   1      44.624  25.993  37.349  1.00  0.00    -0.200 F 
ATOM     95  F   UNL A   1      47.117  27.077  37.128  1.00  0.00    -0.200 F 
ENDBRANCH  62  85
ENDBRANCH  36  37
ENDBRANCH  29  31
ENDBRANCH  28  29
ENDBRANCH  27  28
ENDBRANCH  26  27
ENDBRANCH   1  26
TORSDOF 16
ENDMDL
MODEL 3
REMARK VINA RESULT:     -12.2      4.622      9.463
REMARK SMILES C[C@@H](SCC(=O)N1c2ccccc2SC[C@H]1c1ccccc1)C(=O)OCCOC(=O)c1ccc(-c2c3nc(c(-c4c(F)c(F)c(F)c(F)c4F)c4ccc([nH]4)c(-c4c(F)c(F)c(F)c(F)c4F)c4nc(c(-c5c(F)c(F)c(F)c(F)c5F)c5ccc2[nH]5)C=C4)C=C3)cc1
REMARK SMILES IDX 25 1 23 2 24 3 2 4 1 5 3 6 4 7 5 8 6 9 7 10 8 11 16 12 9 13
REMARK SMILES IDX 13 14 15 15 10 16 12 17 14 18 11 19 17 20 18 21 22 22 19 23
REMARK SMILES IDX 21 24 20 25 26 26 27 27 28 28 29 29 30 30 31 31 32 32 93 33
REMARK SMILES IDX 33 34 92 35 34 36 35 37 36 38 86 39 37 40 91 41 85 42 87 43
REMARK SMILES IDX 38 44 90 45 84 46 83 47 39 49 71 50 51 51 70 52 52 53 55 54
REMARK SMILES IDX 69 55 88 56 53 57 54 58 68 60 89 61 56 62 40 63 41 64 49 65
REMARK SMILES IDX 42 66 43 67 47 68 50 69 44 70 45 71 48 72 46 73 72 74 73 75
REMARK SMILES IDX 81 76 74 77 75 78 79 79 82 80 76 81 77 82 80 83 78 84 57 85
REMARK SMILES IDX 58 86 66 87 59 88 60 89 64 90 67 91 61 92 62 93 65 94 63 95
REMARK H PARENT 87 48 55 59
REMARK Flexibility Score: inf
ROOT
ATOM      1  O   UNL A   1      31.886  31.151  26.059  1.00  0.00    -0.461 OA
ENDROOT
BRANCH   1   2
ATOM      2  C   UNL A   1      32.409  30.090  26.733  1.00  0.00     0.318 C 
ATOM      3  O   UNL A   1      31.756  29.388  27.499  1.00  0.00    -0.251 OA
BRANCH   2   4
ATOM      4  C   UNL A   1      33.877  29.811  26.434  1.00  0.00     0.154 C 
ATOM      5  C   UNL A   1      34.713  29.606  27.687  1.00  0.00     0.032 C 
BRANCH   4   6
ATOM      6  S   UNL A   1      34.030  28.392  25.292  1.00  0.00    -0.137 SA
BRANCH   6   7
ATOM      7  C   UNL A   1      33.301  29.005  23.726  1.00  0.00     0.170 C 
BRANCH   7   8
ATOM      8  C   UNL A   1      32.993  27.976  22.636  1.00  0.00     0.237 C 
ATOM      9  O   UNL A   1      33.841  27.625  21.813  1.00  0.00    -0.274 OA
BRANCH   8  10
ATOM     10  N   UNL A   1      31.751  27.327  22.749  1.00  0.00    -0.302 N 
ATOM     11  C   UNL A   1      30.541  28.156  22.649  1.00  0.00     0.058 A 
ATOM     12  C   UNL A   1      31.669  26.180  23.689  1.00  0.00     0.131 C 
ATOM     13  C   UNL A   1      30.593  29.411  22.009  1.00  0.00     0.027 A 
ATOM     14  C   UNL A   1      29.283  27.759  23.170  1.00  0.00     0.031 A 
ATOM     15  C   UNL A   1      30.400  25.342  23.495  1.00  0.00     0.105 C 
ATOM     16  C   UNL A   1      29.457  30.228  21.888  1.00  0.00     0.002 A 
ATOM     17  C   UNL A   1      28.151  28.586  23.037  1.00  0.00     0.017 A 
ATOM     18  S   UNL A   1      28.964  26.248  24.060  1.00  0.00    -0.121 SA
ATOM     19  C   UNL A   1      28.234  29.812  22.395  1.00  0.00     0.001 A 
BRANCH  12  20
ATOM     20  C   UNL A   1      32.798  25.156  23.643  1.00  0.00    -0.024 A 
ATOM     21  C   UNL A   1      32.977  24.268  22.574  1.00  0.00     0.006 A 
ATOM     22  C   UNL A   1      33.578  24.976  24.797  1.00  0.00     0.006 A 
ATOM     23  C   UNL A   1      33.965  23.281  22.629  1.00  0.00     0.000 A 
ATOM     24  C   UNL A   1      34.539  23.967  24.865  1.00  0.00     0.000 A 
ATOM     25  C   UNL A   1      34.747  23.133  23.772  1.00  0.00     0.000 A 
ENDBRANCH  12  20
ENDBRANCH   8  10
ENDBRANCH   7   8
ENDBRANCH   6   7
ENDBRANCH   4   6
ENDBRANCH   2   4
ENDBRANCH   1   2
BRANCH   1  26
ATOM     26  C   UNL A   1      31.445  32.254  26.880  1.00  0.00     0.274 C 
BRANCH  26  27
ATOM     27  C   UNL A   1      32.567  33.251  27.205  1.00  0.00     0.275 C 
BRANCH  27  28
ATOM     28  O   UNL A   1      32.250  34.090  28.331  1.00  0.00    -0.458 OA
BRANCH  28  29
ATOM     29  C   UNL A   1      33.201  34.997  28.668  1.00  0.00     0.338 C 
ATOM     30  O   UNL A   1      33.100  36.209  28.654  1.00  0.00    -0.246 OA
BRANCH  29  31
ATOM     31  C   UNL A   1      34.373  34.289  29.207  1.00  0.00     0.060 A 
ATOM     32  C   UNL A   1      35.653  34.555  28.721  1.00  0.00     0.016 A 
ATOM     33  C   UNL A   1      34.188  33.374  30.249  1.00  0.00     0.016 A 
ATOM     34  C   UNL A   1      36.744  33.881  29.274  1.00  0.00     0.010 A 
ATOM     35  C   UNL A   1      35.269  32.689  30.787  1.00  0.00     0.010 A 
ATOM     36  C   UNL A   1      36.555  32.942  30.304  1.00  0.00    -0.014 A 
BRANCH  36  37
ATOM     37  C   UNL A   1      37.711  32.285  30.947  1.00  0.00     0.031 A 
ATOM     38  C   UNL A   1      38.177  32.702  32.306  1.00  0.00     0.074 A 
ATOM     39  C   UNL A   1      38.361  31.329  30.261  1.00  0.00     0.049 A 
ATOM     40  N   UNL A   1      39.126  32.185  33.045  1.00  0.00    -0.248 NA
ATOM     41  C   UNL A   1      37.496  33.854  32.914  1.00  0.00     0.031 C 
ATOM     42  C   UNL A   1      38.019  30.896  28.907  1.00  0.00     0.029 A 
ATOM     43  N   UNL A   1      39.433  30.550  30.607  1.00  0.00    -0.354 N 
ATOM     44  C   UNL A   1      39.138  32.928  34.216  1.00  0.00     0.074 A 
ATOM     45  C   UNL A   1      38.146  33.972  34.064  1.00  0.00     0.031 C 
ATOM     46  C   UNL A   1      38.844  29.902  28.547  1.00  0.00     0.029 A 
ATOM     47  C   UNL A   1      39.784  29.648  29.635  1.00  0.00     0.049 A 
ATOM     48  H   UNL A   1      39.905  30.631  31.467  1.00  0.00     0.167 HD
ATOM     49  C   UNL A   1      39.894  32.733  35.323  1.00  0.00     0.037 A 
ATOM     50  C   UNL A   1      40.750  28.713  29.631  1.00  0.00     0.037 A 
ATOM     51  C   UNL A   1      40.905  31.711  35.441  1.00  0.00     0.049 A 
ATOM     52  C   UNL A   1      41.608  28.547  30.854  1.00  0.00     0.074 A 
ATOM     53  C   UNL A   1      41.707  31.408  36.527  1.00  0.00     0.029 A 
ATOM     54  N   UNL A   1      41.266  30.835  34.425  1.00  0.00    -0.354 N 
ATOM     55  N   UNL A   1      41.557  29.193  31.994  1.00  0.00    -0.248 NA
ATOM     56  C   UNL A   1      42.652  27.517  30.791  1.00  0.00     0.031 C 
ATOM     57  C   UNL A   1      42.591  30.391  36.149  1.00  0.00     0.029 A 
ATOM     58  C   UNL A   1      42.302  30.015  34.847  1.00  0.00     0.049 A 
ATOM     59  H   UNL A   1      40.848  30.802  33.534  1.00  0.00     0.167 HD
ATOM     60  C   UNL A   1      42.551  28.643  32.790  1.00  0.00     0.074 A 
ATOM     61  C   UNL A   1      43.169  27.588  32.010  1.00  0.00     0.031 C 
ATOM     62  C   UNL A   1      42.924  28.985  34.049  1.00  0.00     0.037 A 
BRANCH  49  63
ATOM     63  C   UNL A   1      39.651  33.641  36.496  1.00  0.00     0.064 A 
ATOM     64  C   UNL A   1      38.814  33.255  37.557  1.00  0.00     0.173 A 
ATOM     65  C   UNL A   1      40.291  34.886  36.591  1.00  0.00     0.173 A 
ATOM     66  F   UNL A   1      38.172  32.078  37.517  1.00  0.00    -0.203 F 
ATOM     67  C   UNL A   1      38.604  34.093  38.649  1.00  0.00     0.198 A 
ATOM     68  C   UNL A   1      40.104  35.708  37.700  1.00  0.00     0.198 A 
ATOM     69  F   UNL A   1      41.111  35.302  35.614  1.00  0.00    -0.203 F 
ATOM     70  F   UNL A   1      37.764  33.722  39.625  1.00  0.00    -0.200 F 
ATOM     71  C   UNL A   1      39.254  35.315  38.724  1.00  0.00     0.200 A 
ATOM     72  F   UNL A   1      40.748  36.880  37.781  1.00  0.00    -0.200 F 
ATOM     73  F   UNL A   1      39.060  36.115  39.781  1.00  0.00    -0.200 F 
ENDBRANCH  49  63
BRANCH  50  74
ATOM     74  C   UNL A   1      40.898  27.829  28.449  1.00  0.00     0.064 A 
ATOM     75  C   UNL A   1      40.199  26.616  28.372  1.00  0.00     0.173 A 
ATOM     76  C   UNL A   1      41.678  28.205  27.346  1.00  0.00     0.173 A 
ATOM     77  F   UNL A   1      39.453  26.207  29.408  1.00  0.00    -0.203 F 
ATOM     78  C   UNL A   1      40.277  25.813  27.238  1.00  0.00     0.198 A 
ATOM     79  C   UNL A   1      41.733  27.415  26.201  1.00  0.00     0.198 A 
ATOM     80  F   UNL A   1      42.360  29.360  27.369  1.00  0.00    -0.203 F 
ATOM     81  F   UNL A   1      39.616  24.648  27.198  1.00  0.00    -0.200 F 
ATOM     82  C   UNL A   1      41.034  26.218  26.148  1.00  0.00     0.200 A 
ATOM     83  F   UNL A   1      42.451  27.818  25.144  1.00  0.00    -0.200 F 
ATOM     84  F   UNL A   1      41.089  25.456  25.047  1.00  0.00    -0.200 F 
ENDBRANCH  50  74
BRANCH  62  85
ATOM     85  C   UNL A   1      44.063  28.215  34.658  1.00  0.00     0.064 A 
ATOM     86  C   UNL A   1      45.387  28.671  34.566  1.00  0.00     0.173 A 
ATOM     87  C   UNL A   1      43.827  27.026  35.364  1.00  0.00     0.173 A 
ATOM     88  F   UNL A   1      45.669  29.794  33.889  1.00  0.00    -0.203 F 
ATOM     89  C   UNL A   1      46.434  27.949  35.131  1.00  0.00     0.198 A 
ATOM     90  C   UNL A   1      44.874  26.325  35.960  1.00  0.00     0.198 A 
ATOM     91  F   UNL A   1      42.580  26.547  35.490  1.00  0.00    -0.203 F 
ATOM     92  F   UNL A   1      47.697  28.375  34.980  1.00  0.00    -0.200 F 
ATOM     93  C   UNL A   1      46.177  26.782  35.834  1.00  0.00     0.200 A 
ATOM     94  F   UNL A   1      44.620  25.208  36.654  1.00  0.00    -0.200 F 
ATOM     95  F   UNL A   1      47.186  26.092  36.383  1.00  0.00    -0.200 F 
ENDBRANCH  62  85
ENDBRANCH  36  37
ENDBRANCH  29  31
ENDBRANCH  28  29
ENDBRANCH  27  28
ENDBRANCH  26  27
ENDBRANCH   1  26
TORSDOF 16
ENDMDL
