MODEL 1
REMARK VINA RESULT:     -12.1      0.000      0.000
REMARK SMILES C[C@](NC(=O)/C=C/c1ccco1)(C(=O)OCCOC(=O)c1ccc(-c2c3nc(c(-c4c(F)c(F)c(F)c(F)c4F)c4ccc([nH]4)c(-c4c(F)c(F)c(F)c(F)c4F)c4nc(c(-c5c(F)c(F)c(F)c(F)c5F)c5ccc2[nH]5)C=C4)C=C3)cc1)C(F)(F)F
REMARK SMILES IDX 16 1 15 2 13 3 14 4 2 5 1 6 84 7 85 8 86 9 87 10 3 11 4 12
REMARK SMILES IDX 5 14 6 15 7 16 8 17 9 18 12 19 10 20 11 21 17 22 18 23 19 24
REMARK SMILES IDX 20 25 21 26 22 27 83 28 23 29 82 30 24 31 25 32 26 33 76 34
REMARK SMILES IDX 27 35 81 36 75 37 77 38 28 39 80 40 74 41 73 42 29 44 61 45
REMARK SMILES IDX 41 46 60 47 42 48 45 49 59 50 78 51 43 52 44 53 58 55 79 56
REMARK SMILES IDX 46 57 30 58 31 59 39 60 32 61 33 62 37 63 40 64 34 65 35 66
REMARK SMILES IDX 38 67 36 68 62 69 63 70 71 71 64 72 65 73 69 74 72 75 66 76
REMARK SMILES IDX 67 77 70 78 68 79 47 80 48 81 56 82 49 83 50 84 54 85 57 86
REMARK SMILES IDX 51 87 52 88 55 89 53 90
REMARK H PARENT 3 13 77 43 45 54
REMARK Flexibility Score: inf
ROOT
ATOM      1  C   UNL A   1      31.491  28.699  24.625  1.00  0.00     0.274 C 
ENDROOT
BRANCH   1   2
ATOM      2  O   UNL A   1      32.345  27.685  25.203  1.00  0.00    -0.460 OA
BRANCH   2   3
ATOM      3  C   UNL A   1      31.831  26.899  26.194  1.00  0.00     0.341 C 
ATOM      4  O   UNL A   1      31.403  27.336  27.257  1.00  0.00    -0.249 OA
BRANCH   3   5
ATOM      5  C   UNL A   1      31.856  25.405  25.833  1.00  0.00     0.231 C 
ATOM      6  C   UNL A   1      31.399  25.231  24.376  1.00  0.00     0.058 C 
BRANCH   5   7
ATOM      7  C   UNL A   1      33.335  24.998  25.896  1.00  0.00     0.422 C 
ATOM      8  F   UNL A   1      33.557  24.101  26.884  1.00  0.00    -0.168 F 
ATOM      9  F   UNL A   1      33.716  24.399  24.739  1.00  0.00    -0.168 F 
ATOM     10  F   UNL A   1      34.174  26.038  26.086  1.00  0.00    -0.168 F 
ENDBRANCH   5   7
BRANCH   5  11
ATOM     11  N   UNL A   1      31.066  24.598  26.827  1.00  0.00    -0.329 N 
ATOM     12  C   UNL A   1      30.522  23.357  26.760  1.00  0.00     0.245 C 
ATOM     13  H   UNL A   1      30.915  25.056  27.685  1.00  0.00     0.165 HD
ATOM     14  O   UNL A   1      29.760  22.951  27.629  1.00  0.00    -0.270 OA
BRANCH  12  15
ATOM     15  C   UNL A   1      30.910  22.501  25.639  1.00  0.00     0.075 C 
ATOM     16  C   UNL A   1      31.876  21.590  25.803  1.00  0.00     0.053 C 
BRANCH  16  17
ATOM     17  C   UNL A   1      32.134  20.679  24.749  1.00  0.00     0.126 A 
ATOM     18  C   UNL A   1      32.300  20.921  23.395  1.00  0.00     0.050 A 
ATOM     19  O   UNL A   1      32.269  19.324  24.951  1.00  0.00    -0.465 OA
ATOM     20  C   UNL A   1      32.528  19.676  22.760  1.00  0.00     0.042 A 
ATOM     21  C   UNL A   1      32.520  18.736  23.758  1.00  0.00     0.195 A 
ENDBRANCH  16  17
ENDBRANCH  12  15
ENDBRANCH   5  11
ENDBRANCH   3   5
ENDBRANCH   2   3
ENDBRANCH   1   2
BRANCH   1  22
ATOM     22  C   UNL A   1      31.642  30.016  25.380  1.00  0.00     0.275 C 
BRANCH  22  23
ATOM     23  O   UNL A   1      32.953  30.057  25.965  1.00  0.00    -0.458 OA
BRANCH  23  24
ATOM     24  C   UNL A   1      33.159  31.032  26.876  1.00  0.00     0.338 C 
ATOM     25  O   UNL A   1      32.390  31.902  27.236  1.00  0.00    -0.246 OA
BRANCH  24  26
ATOM     26  C   UNL A   1      34.487  30.827  27.464  1.00  0.00     0.060 A 
ATOM     27  C   UNL A   1      34.848  29.542  27.867  1.00  0.00     0.016 A 
ATOM     28  C   UNL A   1      35.324  31.911  27.715  1.00  0.00     0.016 A 
ATOM     29  C   UNL A   1      36.000  29.341  28.614  1.00  0.00     0.010 A 
ATOM     30  C   UNL A   1      36.535  31.689  28.373  1.00  0.00     0.010 A 
ATOM     31  C   UNL A   1      36.869  30.409  28.856  1.00  0.00    -0.014 A 
BRANCH  31  32
ATOM     32  C   UNL A   1      38.114  30.211  29.640  1.00  0.00     0.031 A 
ATOM     33  C   UNL A   1      39.206  29.347  29.083  1.00  0.00     0.074 A 
ATOM     34  C   UNL A   1      38.255  30.773  30.855  1.00  0.00     0.049 A 
ATOM     35  N   UNL A   1      40.214  28.785  29.697  1.00  0.00    -0.248 NA
ATOM     36  C   UNL A   1      39.138  29.059  27.642  1.00  0.00     0.031 C 
ATOM     37  C   UNL A   1      37.305  31.690  31.484  1.00  0.00     0.029 A 
ATOM     38  N   UNL A   1      39.251  30.633  31.789  1.00  0.00    -0.354 N 
ATOM     39  C   UNL A   1      40.852  28.011  28.738  1.00  0.00     0.074 A 
ATOM     40  C   UNL A   1      40.132  28.195  27.494  1.00  0.00     0.031 C 
ATOM     41  C   UNL A   1      37.763  32.035  32.695  1.00  0.00     0.029 A 
ATOM     42  C   UNL A   1      38.984  31.287  32.966  1.00  0.00     0.049 A 
ATOM     43  H   UNL A   1      40.074  30.116  31.630  1.00  0.00     0.167 HD
ATOM     44  C   UNL A   1      41.929  27.205  28.896  1.00  0.00     0.037 A 
ATOM     45  C   UNL A   1      39.613  31.236  34.155  1.00  0.00     0.037 A 
ATOM     46  C   UNL A   1      42.670  27.089  30.124  1.00  0.00     0.049 A 
ATOM     47  C   UNL A   1      40.805  30.338  34.314  1.00  0.00     0.074 A 
ATOM     48  C   UNL A   1      43.790  26.322  30.390  1.00  0.00     0.029 A 
ATOM     49  N   UNL A   1      42.370  27.779  31.290  1.00  0.00    -0.354 N 
ATOM     50  N   UNL A   1      41.356  29.539  33.434  1.00  0.00    -0.248 NA
ATOM     51  C   UNL A   1      41.446  30.316  35.635  1.00  0.00     0.031 C 
ATOM     52  C   UNL A   1      44.154  26.529  31.726  1.00  0.00     0.029 A 
ATOM     53  C   UNL A   1      43.281  27.452  32.281  1.00  0.00     0.049 A 
ATOM     54  H   UNL A   1      41.622  28.409  31.397  1.00  0.00     0.167 HD
ATOM     55  C   UNL A   1      42.409  28.920  34.089  1.00  0.00     0.074 A 
ATOM     56  C   UNL A   1      42.429  29.448  35.438  1.00  0.00     0.031 C 
ATOM     57  C   UNL A   1      43.278  27.993  33.616  1.00  0.00     0.037 A 
BRANCH  44  58
ATOM     58  C   UNL A   1      42.326  26.349  27.732  1.00  0.00     0.064 A 
ATOM     59  C   UNL A   1      41.727  25.107  27.476  1.00  0.00     0.173 A 
ATOM     60  C   UNL A   1      43.327  26.789  26.851  1.00  0.00     0.173 A 
ATOM     61  F   UNL A   1      40.779  24.633  28.298  1.00  0.00    -0.203 F 
ATOM     62  C   UNL A   1      42.138  24.324  26.400  1.00  0.00     0.198 A 
ATOM     63  C   UNL A   1      43.716  26.016  25.761  1.00  0.00     0.198 A 
ATOM     64  F   UNL A   1      43.930  27.971  27.050  1.00  0.00    -0.203 F 
ATOM     65  F   UNL A   1      41.588  23.118  26.203  1.00  0.00    -0.200 F 
ATOM     66  C   UNL A   1      43.127  24.781  25.540  1.00  0.00     0.200 A 
ATOM     67  F   UNL A   1      44.667  26.464  24.929  1.00  0.00    -0.200 F 
ATOM     68  F   UNL A   1      43.521  24.026  24.506  1.00  0.00    -0.200 F 
ENDBRANCH  44  58
BRANCH  45  69
ATOM     69  C   UNL A   1      39.067  32.018  35.293  1.00  0.00     0.064 A 
ATOM     70  C   UNL A   1      38.296  31.404  36.286  1.00  0.00     0.173 A 
ATOM     71  C   UNL A   1      39.368  33.381  35.444  1.00  0.00     0.173 A 
ATOM     72  F   UNL A   1      37.966  30.109  36.173  1.00  0.00    -0.203 F 
ATOM     73  C   UNL A   1      37.852  32.123  37.394  1.00  0.00     0.198 A 
ATOM     74  C   UNL A   1      38.944  34.091  36.563  1.00  0.00     0.198 A 
ATOM     75  F   UNL A   1      40.107  34.012  34.519  1.00  0.00    -0.203 F 
ATOM     76  F   UNL A   1      37.102  31.517  38.325  1.00  0.00    -0.200 F 
ATOM     77  C   UNL A   1      38.186  33.461  37.538  1.00  0.00     0.200 A 
ATOM     78  F   UNL A   1      39.286  35.379  36.706  1.00  0.00    -0.200 F 
ATOM     79  F   UNL A   1      37.779  34.144  38.617  1.00  0.00    -0.200 F 
ENDBRANCH  45  69
BRANCH  57  80
ATOM     80  C   UNL A   1      44.335  27.508  34.560  1.00  0.00     0.064 A 
ATOM     81  C   UNL A   1      45.550  28.190  34.708  1.00  0.00     0.173 A 
ATOM     82  C   UNL A   1      44.106  26.378  35.359  1.00  0.00     0.173 A 
ATOM     83  F   UNL A   1      45.815  29.266  33.952  1.00  0.00    -0.203 F 
ATOM     84  C   UNL A   1      46.507  27.750  35.616  1.00  0.00     0.198 A 
ATOM     85  C   UNL A   1      45.059  25.952  36.279  1.00  0.00     0.198 A 
ATOM     86  F   UNL A   1      42.956  25.695  35.252  1.00  0.00    -0.203 F 
ATOM     87  F   UNL A   1      47.676  28.398  35.723  1.00  0.00    -0.200 F 
ATOM     88  C   UNL A   1      46.259  26.636  36.405  1.00  0.00     0.200 A 
ATOM     89  F   UNL A   1      44.814  24.879  37.045  1.00  0.00    -0.200 F 
ATOM     90  F   UNL A   1      47.180  26.217  37.284  1.00  0.00    -0.200 F 
ENDBRANCH  57  80
ENDBRANCH  31  32
ENDBRANCH  24  26
ENDBRANCH  23  24
ENDBRANCH  22  23
ENDBRANCH   1  22
TORSDOF 15
ENDMDL
MODEL 2
REMARK VINA RESULT:     -12.0      1.736      2.984
REMARK SMILES C[C@](NC(=O)/C=C/c1ccco1)(C(=O)OCCOC(=O)c1ccc(-c2c3nc(c(-c4c(F)c(F)c(F)c(F)c4F)c4ccc([nH]4)c(-c4c(F)c(F)c(F)c(F)c4F)c4nc(c(-c5c(F)c(F)c(F)c(F)c5F)c5ccc2[nH]5)C=C4)C=C3)cc1)C(F)(F)F
REMARK SMILES IDX 16 1 15 2 13 3 14 4 2 5 1 6 84 7 85 8 86 9 87 10 3 11 4 12
REMARK SMILES IDX 5 14 6 15 7 16 8 17 9 18 12 19 10 20 11 21 17 22 18 23 19 24
REMARK SMILES IDX 20 25 21 26 22 27 83 28 23 29 82 30 24 31 25 32 26 33 76 34
REMARK SMILES IDX 27 35 81 36 75 37 77 38 28 39 80 40 74 41 73 42 29 44 61 45
REMARK SMILES IDX 41 46 60 47 42 48 45 49 59 50 78 51 43 52 44 53 58 55 79 56
REMARK SMILES IDX 46 57 30 58 31 59 39 60 32 61 33 62 37 63 40 64 34 65 35 66
REMARK SMILES IDX 38 67 36 68 62 69 63 70 71 71 64 72 65 73 69 74 72 75 66 76
REMARK SMILES IDX 67 77 70 78 68 79 47 80 48 81 56 82 49 83 50 84 54 85 57 86
REMARK SMILES IDX 51 87 52 88 55 89 53 90
REMARK H PARENT 3 13 77 43 45 54
REMARK Flexibility Score: inf
ROOT
ATOM      1  C   UNL A   1      31.708  28.689  27.477  1.00  0.00     0.274 C 
ENDROOT
BRANCH   1   2
ATOM      2  O   UNL A   1      32.587  27.653  26.979  1.00  0.00    -0.460 OA
BRANCH   2   3
ATOM      3  C   UNL A   1      32.022  26.551  26.405  1.00  0.00     0.341 C 
ATOM      4  O   UNL A   1      31.051  25.965  26.869  1.00  0.00    -0.249 OA
BRANCH   3   5
ATOM      5  C   UNL A   1      32.746  26.121  25.119  1.00  0.00     0.231 C 
ATOM      6  C   UNL A   1      33.345  27.362  24.438  1.00  0.00     0.058 C 
BRANCH   5   7
ATOM      7  C   UNL A   1      33.921  25.249  25.587  1.00  0.00     0.422 C 
ATOM      8  F   UNL A   1      34.929  26.005  26.079  1.00  0.00    -0.168 F 
ATOM      9  F   UNL A   1      33.533  24.422  26.590  1.00  0.00    -0.168 F 
ATOM     10  F   UNL A   1      34.430  24.463  24.615  1.00  0.00    -0.168 F 
ENDBRANCH   5   7
BRANCH   5  11
ATOM     11  N   UNL A   1      31.836  25.312  24.235  1.00  0.00    -0.329 N 
ATOM     12  C   UNL A   1      30.649  25.604  23.646  1.00  0.00     0.245 C 
ATOM     13  H   UNL A   1      32.162  24.402  24.049  1.00  0.00     0.165 HD
ATOM     14  O   UNL A   1      29.981  24.734  23.101  1.00  0.00    -0.270 OA
BRANCH  12  15
ATOM     15  C   UNL A   1      30.212  27.000  23.644  1.00  0.00     0.075 C 
ATOM     16  C   UNL A   1      30.343  27.735  22.533  1.00  0.00     0.053 C 
BRANCH  16  17
ATOM     17  C   UNL A   1      29.783  29.036  22.513  1.00  0.00     0.126 A 
ATOM     18  C   UNL A   1      29.620  29.943  23.548  1.00  0.00     0.050 A 
ATOM     19  O   UNL A   1      29.293  29.618  21.365  1.00  0.00    -0.465 OA
ATOM     20  C   UNL A   1      29.002  31.099  23.013  1.00  0.00     0.042 A 
ATOM     21  C   UNL A   1      28.843  30.857  21.673  1.00  0.00     0.195 A 
ENDBRANCH  16  17
ENDBRANCH  12  15
ENDBRANCH   5  11
ENDBRANCH   3   5
ENDBRANCH   2   3
ENDBRANCH   1   2
BRANCH   1  22
ATOM     22  C   UNL A   1      31.721  29.894  26.542  1.00  0.00     0.275 C 
BRANCH  22  23
ATOM     23  O   UNL A   1      33.080  30.332  26.385  1.00  0.00    -0.458 OA
BRANCH  23  24
ATOM     24  C   UNL A   1      33.433  31.419  27.104  1.00  0.00     0.338 C 
ATOM     25  O   UNL A   1      32.780  32.420  27.327  1.00  0.00    -0.246 OA
BRANCH  24  26
ATOM     26  C   UNL A   1      34.759  31.169  27.678  1.00  0.00     0.060 A 
ATOM     27  C   UNL A   1      35.098  29.864  28.031  1.00  0.00     0.016 A 
ATOM     28  C   UNL A   1      35.616  32.228  27.967  1.00  0.00     0.016 A 
ATOM     29  C   UNL A   1      36.249  29.615  28.766  1.00  0.00     0.010 A 
ATOM     30  C   UNL A   1      36.825  31.961  28.611  1.00  0.00     0.010 A 
ATOM     31  C   UNL A   1      37.138  30.657  29.045  1.00  0.00    -0.014 A 
BRANCH  31  32
ATOM     32  C   UNL A   1      38.381  30.409  29.815  1.00  0.00     0.031 A 
ATOM     33  C   UNL A   1      39.441  29.518  29.238  1.00  0.00     0.074 A 
ATOM     34  C   UNL A   1      38.549  30.948  31.038  1.00  0.00     0.049 A 
ATOM     35  N   UNL A   1      40.435  28.916  29.836  1.00  0.00    -0.248 NA
ATOM     36  C   UNL A   1      39.353  29.254  27.793  1.00  0.00     0.031 C 
ATOM     37  C   UNL A   1      37.634  31.885  31.687  1.00  0.00     0.029 A 
ATOM     38  N   UNL A   1      39.547  30.763  31.962  1.00  0.00    -0.354 N 
ATOM     39  C   UNL A   1      41.041  28.135  28.861  1.00  0.00     0.074 A 
ATOM     40  C   UNL A   1      40.318  28.360  27.626  1.00  0.00     0.031 C 
ATOM     41  C   UNL A   1      38.111  32.198  32.899  1.00  0.00     0.029 A 
ATOM     42  C   UNL A   1      39.310  31.408  33.150  1.00  0.00     0.049 A 
ATOM     43  H   UNL A   1      40.352  30.223  31.789  1.00  0.00     0.167 HD
ATOM     44  C   UNL A   1      42.092  27.294  28.999  1.00  0.00     0.037 A 
ATOM     45  C   UNL A   1      39.946  31.319  34.333  1.00  0.00     0.037 A 
ATOM     46  C   UNL A   1      42.839  27.135  30.219  1.00  0.00     0.049 A 
ATOM     47  C   UNL A   1      41.109  30.382  34.470  1.00  0.00     0.074 A 
ATOM     48  C   UNL A   1      43.935  26.330  30.465  1.00  0.00     0.029 A 
ATOM     49  N   UNL A   1      42.570  27.818  31.398  1.00  0.00    -0.354 N 
ATOM     50  N   UNL A   1      41.628  29.578  33.574  1.00  0.00    -0.248 NA
ATOM     51  C   UNL A   1      41.759  30.320  35.785  1.00  0.00     0.031 C 
ATOM     52  C   UNL A   1      44.316  26.506  31.801  1.00  0.00     0.029 A 
ATOM     53  C   UNL A   1      43.477  27.448  32.376  1.00  0.00     0.049 A 
ATOM     54  H   UNL A   1      41.842  28.470  31.519  1.00  0.00     0.167 HD
ATOM     55  C   UNL A   1      42.666  28.916  34.211  1.00  0.00     0.074 A 
ATOM     56  C   UNL A   1      42.713  29.424  35.568  1.00  0.00     0.031 C 
ATOM     57  C   UNL A   1      43.501  27.969  33.719  1.00  0.00     0.037 A 
BRANCH  44  58
ATOM     58  C   UNL A   1      42.453  26.442  27.819  1.00  0.00     0.064 A 
ATOM     59  C   UNL A   1      41.858  25.194  27.586  1.00  0.00     0.173 A 
ATOM     60  C   UNL A   1      43.415  26.893  26.901  1.00  0.00     0.173 A 
ATOM     61  F   UNL A   1      40.948  24.709  28.444  1.00  0.00    -0.203 F 
ATOM     62  C   UNL A   1      42.235  24.416  26.494  1.00  0.00     0.198 A 
ATOM     63  C   UNL A   1      43.768  26.125  25.796  1.00  0.00     0.198 A 
ATOM     64  F   UNL A   1      44.012  28.082  27.076  1.00  0.00    -0.203 F 
ATOM     65  F   UNL A   1      41.692  23.204  26.318  1.00  0.00    -0.200 F 
ATOM     66  C   UNL A   1      43.185  24.883  25.597  1.00  0.00     0.200 A 
ATOM     67  F   UNL A   1      44.681  26.583  24.927  1.00  0.00    -0.200 F 
ATOM     68  F   UNL A   1      43.547  24.133  24.548  1.00  0.00    -0.200 F 
ENDBRANCH  44  58
BRANCH  45  69
ATOM     69  C   UNL A   1      39.434  32.102  35.486  1.00  0.00     0.064 A 
ATOM     70  C   UNL A   1      38.538  31.537  36.400  1.00  0.00     0.173 A 
ATOM     71  C   UNL A   1      39.889  33.407  35.733  1.00  0.00     0.173 A 
ATOM     72  F   UNL A   1      38.060  30.301  36.193  1.00  0.00    -0.203 F 
ATOM     73  C   UNL A   1      38.120  32.246  37.525  1.00  0.00     0.198 A 
ATOM     74  C   UNL A   1      39.490  34.104  36.870  1.00  0.00     0.198 A 
ATOM     75  F   UNL A   1      40.752  33.989  34.887  1.00  0.00    -0.203 F 
ATOM     76  F   UNL A   1      37.250  31.690  38.378  1.00  0.00    -0.200 F 
ATOM     77  C   UNL A   1      38.606  33.523  37.766  1.00  0.00     0.200 A 
ATOM     78  F   UNL A   1      39.977  35.330  37.107  1.00  0.00    -0.200 F 
ATOM     79  F   UNL A   1      38.223  34.192  38.861  1.00  0.00    -0.200 F 
ENDBRANCH  45  69
BRANCH  57  80
ATOM     80  C   UNL A   1      44.549  27.437  34.648  1.00  0.00     0.064 A 
ATOM     81  C   UNL A   1      45.787  28.076  34.793  1.00  0.00     0.173 A 
ATOM     82  C   UNL A   1      44.289  26.305  35.434  1.00  0.00     0.173 A 
ATOM     83  F   UNL A   1      46.082  29.152  34.049  1.00  0.00    -0.203 F 
ATOM     84  C   UNL A   1      46.737  27.592  35.688  1.00  0.00     0.198 A 
ATOM     85  C   UNL A   1      45.235  25.835  36.340  1.00  0.00     0.198 A 
ATOM     86  F   UNL A   1      43.116  25.663  35.329  1.00  0.00    -0.203 F 
ATOM     87  F   UNL A   1      47.928  28.199  35.792  1.00  0.00    -0.200 F 
ATOM     88  C   UNL A   1      46.457  26.477  36.465  1.00  0.00     0.200 A 
ATOM     89  F   UNL A   1      44.960  24.762  37.095  1.00  0.00    -0.200 F 
ATOM     90  F   UNL A   1      47.371  26.016  37.330  1.00  0.00    -0.200 F 
ENDBRANCH  57  80
ENDBRANCH  31  32
ENDBRANCH  24  26
ENDBRANCH  23  24
ENDBRANCH  22  23
ENDBRANCH   1  22
TORSDOF 15
ENDMDL
MODEL 3
REMARK VINA RESULT:     -11.9      4.414      9.758
REMARK SMILES C[C@](NC(=O)/C=C/c1ccco1)(C(=O)OCCOC(=O)c1ccc(-c2c3nc(c(-c4c(F)c(F)c(F)c(F)c4F)c4ccc([nH]4)c(-c4c(F)c(F)c(F)c(F)c4F)c4nc(c(-c5c(F)c(F)c(F)c(F)c5F)c5ccc2[nH]5)C=C4)C=C3)cc1)C(F)(F)F
REMARK SMILES IDX 16 1 15 2 13 3 14 4 2 5 1 6 84 7 85 8 86 9 87 10 3 11 4 12
REMARK SMILES IDX 5 14 6 15 7 16 8 17 9 18 12 19 10 20 11 21 17 22 18 23 19 24
REMARK SMILES IDX 20 25 21 26 22 27 83 28 23 29 82 30 24 31 25 32 26 33 76 34
REMARK SMILES IDX 27 35 81 36 75 37 77 38 28 39 80 40 74 41 73 42 29 44 61 45
REMARK SMILES IDX 41 46 60 47 42 48 45 49 59 50 78 51 43 52 44 53 58 55 79 56
REMARK SMILES IDX 46 57 30 58 31 59 39 60 32 61 33 62 37 63 40 64 34 65 35 66
REMARK SMILES IDX 38 67 36 68 62 69 63 70 71 71 64 72 65 73 69 74 72 75 66 76
REMARK SMILES IDX 67 77 70 78 68 79 47 80 48 81 56 82 49 83 50 84 54 85 57 86
REMARK SMILES IDX 51 87 52 88 55 89 53 90
REMARK H PARENT 3 13 77 43 45 54
REMARK Flexibility Score: inf
ROOT
ATOM      1  C   UNL A   1      35.396  20.753  25.178  1.00  0.00     0.274 C 
ENDROOT
BRANCH   1   2
ATOM      2  O   UNL A   1      34.341  21.423  24.450  1.00  0.00    -0.460 OA
BRANCH   2   3
ATOM      3  C   UNL A   1      33.449  22.178  25.158  1.00  0.00     0.341 C 
ATOM      4  O   UNL A   1      32.779  21.745  26.088  1.00  0.00    -0.249 OA
BRANCH   3   5
ATOM      5  C   UNL A   1      33.374  23.627  24.652  1.00  0.00     0.231 C 
ATOM      6  C   UNL A   1      32.053  24.257  25.123  1.00  0.00     0.058 C 
BRANCH   5   7
ATOM      7  C   UNL A   1      34.510  24.368  25.372  1.00  0.00     0.422 C 
ATOM      8  F   UNL A   1      34.838  23.757  26.533  1.00  0.00    -0.168 F 
ATOM      9  F   UNL A   1      35.633  24.377  24.610  1.00  0.00    -0.168 F 
ATOM     10  F   UNL A   1      34.223  25.658  25.650  1.00  0.00    -0.168 F 
ENDBRANCH   5   7
BRANCH   5  11
ATOM     11  N   UNL A   1      33.590  23.690  23.165  1.00  0.00    -0.329 N 
ATOM     12  C   UNL A   1      33.216  24.600  22.231  1.00  0.00     0.245 C 
ATOM     13  H   UNL A   1      34.097  22.928  22.801  1.00  0.00     0.165 HD
ATOM     14  O   UNL A   1      33.346  24.372  21.035  1.00  0.00    -0.270 OA
BRANCH  12  15
ATOM     15  C   UNL A   1      32.694  25.885  22.700  1.00  0.00     0.075 C 
ATOM     16  C   UNL A   1      31.683  26.469  22.045  1.00  0.00     0.053 C 
BRANCH  16  17
ATOM     17  C   UNL A   1      31.103  27.635  22.600  1.00  0.00     0.126 A 
ATOM     18  C   UNL A   1      31.434  28.321  23.757  1.00  0.00     0.050 A 
ATOM     19  O   UNL A   1      30.050  28.298  22.008  1.00  0.00    -0.465 OA
ATOM     20  C   UNL A   1      30.548  29.420  23.876  1.00  0.00     0.042 A 
ATOM     21  C   UNL A   1      29.737  29.371  22.771  1.00  0.00     0.195 A 
ENDBRANCH  16  17
ENDBRANCH  12  15
ENDBRANCH   5  11
ENDBRANCH   3   5
ENDBRANCH   2   3
ENDBRANCH   1   2
BRANCH   1  22
ATOM     22  C   UNL A   1      36.762  21.211  24.678  1.00  0.00     0.275 C 
BRANCH  22  23
ATOM     23  O   UNL A   1      37.408  21.947  25.729  1.00  0.00    -0.458 OA
BRANCH  23  24
ATOM     24  C   UNL A   1      38.687  21.603  25.987  1.00  0.00     0.338 C 
ATOM     25  O   UNL A   1      39.255  20.561  25.723  1.00  0.00    -0.246 OA
BRANCH  24  26
ATOM     26  C   UNL A   1      39.355  22.763  26.587  1.00  0.00     0.060 A 
ATOM     27  C   UNL A   1      38.975  24.039  26.174  1.00  0.00     0.016 A 
ATOM     28  C   UNL A   1      40.420  22.589  27.466  1.00  0.00     0.016 A 
ATOM     29  C   UNL A   1      39.718  25.147  26.555  1.00  0.00     0.010 A 
ATOM     30  C   UNL A   1      41.100  23.715  27.933  1.00  0.00     0.010 A 
ATOM     31  C   UNL A   1      40.775  25.001  27.458  1.00  0.00    -0.014 A 
BRANCH  31  32
ATOM     32  C   UNL A   1      41.572  26.176  27.890  1.00  0.00     0.031 A 
ATOM     33  C   UNL A   1      40.922  27.243  28.719  1.00  0.00     0.074 A 
ATOM     34  C   UNL A   1      42.859  26.306  27.516  1.00  0.00     0.049 A 
ATOM     35  N   UNL A   1      41.307  28.473  28.939  1.00  0.00    -0.248 NA
ATOM     36  C   UNL A   1      39.653  26.881  29.369  1.00  0.00     0.031 C 
ATOM     37  C   UNL A   1      43.633  25.313  26.773  1.00  0.00     0.029 A 
ATOM     38  N   UNL A   1      43.737  27.345  27.698  1.00  0.00    -0.354 N 
ATOM     39  C   UNL A   1      40.290  29.057  29.682  1.00  0.00     0.074 A 
ATOM     40  C   UNL A   1      39.282  28.039  29.897  1.00  0.00     0.031 C 
ATOM     41  C   UNL A   1      44.870  25.785  26.565  1.00  0.00     0.029 A 
ATOM     42  C   UNL A   1      44.943  27.150  27.072  1.00  0.00     0.049 A 
ATOM     43  H   UNL A   1      43.524  28.149  28.225  1.00  0.00     0.167 HD
ATOM     44  C   UNL A   1      40.205  30.334  30.122  1.00  0.00     0.037 A 
ATOM     45  C   UNL A   1      45.967  27.999  26.865  1.00  0.00     0.037 A 
ATOM     46  C   UNL A   1      41.248  31.312  29.956  1.00  0.00     0.049 A 
ATOM     47  C   UNL A   1      45.857  29.411  27.359  1.00  0.00     0.074 A 
ATOM     48  C   UNL A   1      41.279  32.627  30.382  1.00  0.00     0.029 A 
ATOM     49  N   UNL A   1      42.459  31.067  29.323  1.00  0.00    -0.354 N 
ATOM     50  N   UNL A   1      44.860  29.989  27.984  1.00  0.00    -0.248 NA
ATOM     51  C   UNL A   1      47.000  30.295  27.099  1.00  0.00     0.031 C 
ATOM     52  C   UNL A   1      42.499  33.186  29.985  1.00  0.00     0.029 A 
ATOM     53  C   UNL A   1      43.243  32.208  29.343  1.00  0.00     0.049 A 
ATOM     54  H   UNL A   1      42.723  30.208  28.921  1.00  0.00     0.167 HD
ATOM     55  C   UNL A   1      45.253  31.302  28.195  1.00  0.00     0.074 A 
ATOM     56  C   UNL A   1      46.587  31.431  27.645  1.00  0.00     0.031 C 
ATOM     57  C   UNL A   1      44.568  32.310  28.787  1.00  0.00     0.037 A 
BRANCH  44  58
ATOM     58  C   UNL A   1      38.920  30.756  30.768  1.00  0.00     0.064 A 
ATOM     59  C   UNL A   1      38.737  30.734  32.158  1.00  0.00     0.173 A 
ATOM     60  C   UNL A   1      37.851  31.198  29.972  1.00  0.00     0.173 A 
ATOM     61  F   UNL A   1      39.721  30.302  32.961  1.00  0.00    -0.203 F 
ATOM     62  C   UNL A   1      37.521  31.108  32.725  1.00  0.00     0.198 A 
ATOM     63  C   UNL A   1      36.647  31.598  30.544  1.00  0.00     0.198 A 
ATOM     64  F   UNL A   1      37.975  31.242  28.637  1.00  0.00    -0.203 F 
ATOM     65  F   UNL A   1      37.350  31.030  34.052  1.00  0.00    -0.200 F 
ATOM     66  C   UNL A   1      36.479  31.545  31.919  1.00  0.00     0.200 A 
ATOM     67  F   UNL A   1      35.644  32.026  29.763  1.00  0.00    -0.200 F 
ATOM     68  F   UNL A   1      35.310  31.904  32.466  1.00  0.00    -0.200 F 
ENDBRANCH  44  58
BRANCH  45  69
ATOM     69  C   UNL A   1      47.147  27.530  26.096  1.00  0.00     0.064 A 
ATOM     70  C   UNL A   1      47.187  27.639  24.701  1.00  0.00     0.173 A 
ATOM     71  C   UNL A   1      48.285  27.031  26.749  1.00  0.00     0.173 A 
ATOM     72  F   UNL A   1      46.116  28.091  24.033  1.00  0.00    -0.203 F 
ATOM     73  C   UNL A   1      48.327  27.273  23.988  1.00  0.00     0.198 A 
ATOM     74  C   UNL A   1      49.430  26.689  26.037  1.00  0.00     0.198 A 
ATOM     75  F   UNL A   1      48.294  26.912  28.085  1.00  0.00    -0.203 F 
ATOM     76  F   UNL A   1      48.338  27.371  22.651  1.00  0.00    -0.200 F 
ATOM     77  C   UNL A   1      49.451  26.810  24.656  1.00  0.00     0.200 A 
ATOM     78  F   UNL A   1      50.520  26.260  26.690  1.00  0.00    -0.200 F 
ATOM     79  F   UNL A   1      50.555  26.482  23.969  1.00  0.00    -0.200 F 
ENDBRANCH  45  69
BRANCH  57  80
ATOM     80  C   UNL A   1      45.259  33.635  28.887  1.00  0.00     0.064 A 
ATOM     81  C   UNL A   1      46.103  33.938  29.964  1.00  0.00     0.173 A 
ATOM     82  C   UNL A   1      45.112  34.589  27.870  1.00  0.00     0.173 A 
ATOM     83  F   UNL A   1      46.258  33.060  30.967  1.00  0.00    -0.203 F 
ATOM     84  C   UNL A   1      46.768  35.158  30.025  1.00  0.00     0.198 A 
ATOM     85  C   UNL A   1      45.794  35.800  27.926  1.00  0.00     0.198 A 
ATOM     86  F   UNL A   1      44.316  34.340  26.819  1.00  0.00    -0.203 F 
ATOM     87  F   UNL A   1      47.548  35.443  31.078  1.00  0.00    -0.200 F 
ATOM     88  C   UNL A   1      46.619  36.085  29.004  1.00  0.00     0.200 A 
ATOM     89  F   UNL A   1      45.654  36.692  26.934  1.00  0.00    -0.200 F 
ATOM     90  F   UNL A   1      47.265  37.258  29.062  1.00  0.00    -0.200 F 
ENDBRANCH  57  80
ENDBRANCH  31  32
ENDBRANCH  24  26
ENDBRANCH  23  24
ENDBRANCH  22  23
ENDBRANCH   1  22
TORSDOF 15
ENDMDL
