MODEL 1
REMARK VINA RESULT:     -11.3      0.000      0.000
REMARK SMILES O=C(CCCCc1nc(C[C@H]2CCCO2)no1)OCCOC(=O)c1ccc(-c2c3nc(c(-c4c(F)c(F)c(F)c(F)c4F)c4ccc([nH]4)c(-c4c(F)c(F)c(F)c(F)c4F)c4nc(c(-c5c(F)c(F)c(F)c(F)c5F)c5ccc2[nH]5)C=C4)C=C3)cc1
REMARK SMILES IDX 1 1 2 2 3 3 4 4 5 5 6 6 7 7 8 8 17 9 9 10 16 11 10 12 11 13
REMARK SMILES IDX 12 14 15 15 13 16 14 17 18 18 19 19 20 20 21 21 22 22 23 23
REMARK SMILES IDX 24 24 25 25 86 26 26 27 85 28 27 29 28 30 29 31 79 32 30 33
REMARK SMILES IDX 84 34 78 35 80 36 31 37 83 38 77 39 76 40 32 42 64 43 44 44
REMARK SMILES IDX 63 45 45 46 48 47 62 48 81 49 46 50 47 51 61 53 82 54 49 55
REMARK SMILES IDX 33 56 34 57 42 58 35 59 36 60 40 61 43 62 37 63 38 64 41 65
REMARK SMILES IDX 39 66 65 67 66 68 74 69 67 70 68 71 72 72 75 73 69 74 70 75
REMARK SMILES IDX 73 76 71 77 50 78 51 79 59 80 52 81 53 82 57 83 60 84 54 85
REMARK SMILES IDX 55 86 58 87 56 88
REMARK H PARENT 80 41 48 52
REMARK Flexibility Score: inf
ROOT
ATOM      1  O   UNL A   1      47.045  18.944  25.480  1.00  0.00    -0.252 OA
ATOM      2  C   UNL A   1      46.173  19.715  25.090  1.00  0.00     0.305 C 
ENDROOT
BRANCH   2   3
ATOM      3  C   UNL A   1      44.837  19.203  24.592  1.00  0.00     0.123 C 
BRANCH   3   4
ATOM      4  C   UNL A   1      43.937  18.639  25.685  1.00  0.00     0.012 C 
BRANCH   4   5
ATOM      5  C   UNL A   1      42.517  19.226  25.741  1.00  0.00     0.010 C 
BRANCH   5   6
ATOM      6  C   UNL A   1      42.292  20.436  26.657  1.00  0.00     0.100 C 
BRANCH   6   7
ATOM      7  C   UNL A   1      40.978  21.091  26.491  1.00  0.00     0.226 A 
ATOM      8  N   UNL A   1      39.867  20.639  25.964  1.00  0.00    -0.196 NA
ATOM      9  O   UNL A   1      40.885  22.383  26.928  1.00  0.00    -0.339 OA
ATOM     10  C   UNL A   1      39.038  21.726  26.068  1.00  0.00     0.174 A 
ATOM     11  N   UNL A   1      39.589  22.805  26.638  1.00  0.00    -0.062 NA
BRANCH  10  12
ATOM     12  C   UNL A   1      37.650  21.708  25.560  1.00  0.00     0.113 C 
BRANCH  12  13
ATOM     13  C   UNL A   1      37.202  23.063  25.007  1.00  0.00     0.126 C 
ATOM     14  C   UNL A   1      36.692  23.023  23.573  1.00  0.00     0.035 C 
ATOM     15  O   UNL A   1      36.084  23.518  25.801  1.00  0.00    -0.378 OA
ATOM     16  C   UNL A   1      35.235  22.675  23.751  1.00  0.00     0.031 C 
ATOM     17  C   UNL A   1      34.884  23.418  25.021  1.00  0.00     0.160 C 
ENDBRANCH  12  13
ENDBRANCH  10  12
ENDBRANCH   6   7
ENDBRANCH   5   6
ENDBRANCH   4   5
ENDBRANCH   3   4
ENDBRANCH   2   3
BRANCH   2  18
ATOM     18  O   UNL A   1      46.427  21.042  24.966  1.00  0.00    -0.462 OA
BRANCH  18  19
ATOM     19  C   UNL A   1      45.440  22.029  25.309  1.00  0.00     0.274 C 
BRANCH  19  20
ATOM     20  C   UNL A   1      45.089  22.968  24.151  1.00  0.00     0.275 C 
BRANCH  20  21
ATOM     21  O   UNL A   1      44.108  23.946  24.536  1.00  0.00    -0.458 OA
BRANCH  21  22
ATOM     22  C   UNL A   1      44.645  25.113  24.976  1.00  0.00     0.338 C 
ATOM     23  O   UNL A   1      45.706  25.596  24.628  1.00  0.00    -0.246 OA
BRANCH  22  24
ATOM     24  C   UNL A   1      43.696  25.828  25.859  1.00  0.00     0.060 A 
ATOM     25  C   UNL A   1      44.052  27.124  26.251  1.00  0.00     0.016 A 
ATOM     26  C   UNL A   1      42.525  25.243  26.351  1.00  0.00     0.016 A 
ATOM     27  C   UNL A   1      43.289  27.802  27.199  1.00  0.00     0.010 A 
ATOM     28  C   UNL A   1      41.756  25.928  27.302  1.00  0.00     0.010 A 
ATOM     29  C   UNL A   1      42.167  27.189  27.770  1.00  0.00    -0.014 A 
BRANCH  29  30
ATOM     30  C   UNL A   1      41.565  27.803  28.979  1.00  0.00     0.031 A 
ATOM     31  C   UNL A   1      42.261  27.628  30.303  1.00  0.00     0.074 A 
ATOM     32  C   UNL A   1      40.472  28.580  28.897  1.00  0.00     0.049 A 
ATOM     33  N   UNL A   1      42.006  28.188  31.459  1.00  0.00    -0.248 NA
ATOM     34  C   UNL A   1      43.401  26.698  30.325  1.00  0.00     0.031 C 
ATOM     35  C   UNL A   1      39.713  28.848  27.679  1.00  0.00     0.029 A 
ATOM     36  N   UNL A   1      39.822  29.304  29.868  1.00  0.00    -0.354 N 
ATOM     37  C   UNL A   1      42.961  27.693  32.337  1.00  0.00     0.074 A 
ATOM     38  C   UNL A   1      43.771  26.751  31.596  1.00  0.00     0.031 C 
ATOM     39  C   UNL A   1      38.703  29.687  27.972  1.00  0.00     0.029 A 
ATOM     40  C   UNL A   1      38.744  30.011  29.398  1.00  0.00     0.049 A 
ATOM     41  H   UNL A   1      40.101  29.313  30.812  1.00  0.00     0.167 HD
ATOM     42  C   UNL A   1      43.162  28.009  33.638  1.00  0.00     0.037 A 
ATOM     43  C   UNL A   1      37.897  30.836  30.043  1.00  0.00     0.037 A 
ATOM     44  C   UNL A   1      42.363  28.944  34.383  1.00  0.00     0.049 A 
ATOM     45  C   UNL A   1      38.108  31.127  31.508  1.00  0.00     0.074 A 
ATOM     46  C   UNL A   1      42.512  29.353  35.697  1.00  0.00     0.029 A 
ATOM     47  N   UNL A   1      41.253  29.606  33.881  1.00  0.00    -0.354 N 
ATOM     48  N   UNL A   1      39.059  30.715  32.309  1.00  0.00    -0.248 NA
ATOM     49  C   UNL A   1      37.129  32.016  32.152  1.00  0.00     0.031 C 
ATOM     50  C   UNL A   1      41.464  30.228  36.004  1.00  0.00     0.029 A 
ATOM     51  C   UNL A   1      40.691  30.399  34.868  1.00  0.00     0.049 A 
ATOM     52  H   UNL A   1      40.916  29.524  32.960  1.00  0.00     0.167 HD
ATOM     53  C   UNL A   1      38.818  31.322  33.535  1.00  0.00     0.074 A 
ATOM     54  C   UNL A   1      37.632  32.136  33.372  1.00  0.00     0.031 C 
ATOM     55  C   UNL A   1      39.520  31.219  34.690  1.00  0.00     0.037 A 
BRANCH  42  56
ATOM     56  C   UNL A   1      44.292  27.322  34.345  1.00  0.00     0.064 A 
ATOM     57  C   UNL A   1      45.614  27.777  34.230  1.00  0.00     0.173 A 
ATOM     58  C   UNL A   1      44.047  26.209  35.162  1.00  0.00     0.173 A 
ATOM     59  F   UNL A   1      45.900  28.828  33.449  1.00  0.00    -0.203 F 
ATOM     60  C   UNL A   1      46.654  27.127  34.890  1.00  0.00     0.198 A 
ATOM     61  C   UNL A   1      45.086  25.576  35.839  1.00  0.00     0.198 A 
ATOM     62  F   UNL A   1      42.799  25.736  35.305  1.00  0.00    -0.203 F 
ATOM     63  F   UNL A   1      47.915  27.551  34.730  1.00  0.00    -0.200 F 
ATOM     64  C   UNL A   1      46.388  26.030  35.697  1.00  0.00     0.200 A 
ATOM     65  F   UNL A   1      44.826  24.522  36.625  1.00  0.00    -0.200 F 
ATOM     66  F   UNL A   1      47.389  25.406  36.331  1.00  0.00    -0.200 F 
ENDBRANCH  42  56
BRANCH  43  67
ATOM     67  C   UNL A   1      36.780  31.480  29.307  1.00  0.00     0.064 A 
ATOM     68  C   UNL A   1      36.792  32.856  29.036  1.00  0.00     0.173 A 
ATOM     69  C   UNL A   1      35.662  30.742  28.894  1.00  0.00     0.173 A 
ATOM     70  F   UNL A   1      37.827  33.607  29.437  1.00  0.00    -0.203 F 
ATOM     71  C   UNL A   1      35.717  33.472  28.397  1.00  0.00     0.198 A 
ATOM     72  C   UNL A   1      34.599  31.355  28.235  1.00  0.00     0.198 A 
ATOM     73  F   UNL A   1      35.601  29.425  29.137  1.00  0.00    -0.203 F 
ATOM     74  F   UNL A   1      35.732  34.796  28.195  1.00  0.00    -0.200 F 
ATOM     75  C   UNL A   1      34.624  32.720  27.994  1.00  0.00     0.200 A 
ATOM     76  F   UNL A   1      33.546  30.626  27.844  1.00  0.00    -0.200 F 
ATOM     77  F   UNL A   1      33.588  33.315  27.387  1.00  0.00    -0.200 F 
ENDBRANCH  43  67
BRANCH  55  78
ATOM     78  C   UNL A   1      39.055  32.039  35.859  1.00  0.00     0.064 A 
ATOM     79  C   UNL A   1      38.234  31.499  36.859  1.00  0.00     0.173 A 
ATOM     80  C   UNL A   1      39.472  33.372  36.000  1.00  0.00     0.173 A 
ATOM     81  F   UNL A   1      37.798  30.235  36.765  1.00  0.00    -0.203 F 
ATOM     82  C   UNL A   1      37.825  32.272  37.944  1.00  0.00     0.198 A 
ATOM     83  C   UNL A   1      39.084  34.133  37.099  1.00  0.00     0.198 A 
ATOM     84  F   UNL A   1      40.265  33.934  35.076  1.00  0.00    -0.203 F 
ATOM     85  F   UNL A   1      37.003  31.749  38.864  1.00  0.00    -0.200 F 
ATOM     86  C   UNL A   1      38.255  33.585  38.066  1.00  0.00     0.200 A 
ATOM     87  F   UNL A   1      39.511  35.397  37.223  1.00  0.00    -0.200 F 
ATOM     88  F   UNL A   1      37.865  34.324  39.114  1.00  0.00    -0.200 F 
ENDBRANCH  55  78
ENDBRANCH  29  30
ENDBRANCH  22  24
ENDBRANCH  21  22
ENDBRANCH  20  21
ENDBRANCH  19  20
ENDBRANCH  18  19
ENDBRANCH   2  18
TORSDOF 17
ENDMDL
MODEL 2
REMARK VINA RESULT:     -11.0      4.424      9.759
REMARK SMILES O=C(CCCCc1nc(C[C@H]2CCCO2)no1)OCCOC(=O)c1ccc(-c2c3nc(c(-c4c(F)c(F)c(F)c(F)c4F)c4ccc([nH]4)c(-c4c(F)c(F)c(F)c(F)c4F)c4nc(c(-c5c(F)c(F)c(F)c(F)c5F)c5ccc2[nH]5)C=C4)C=C3)cc1
REMARK SMILES IDX 1 1 2 2 3 3 4 4 5 5 6 6 7 7 8 8 17 9 9 10 16 11 10 12 11 13
REMARK SMILES IDX 12 14 15 15 13 16 14 17 18 18 19 19 20 20 21 21 22 22 23 23
REMARK SMILES IDX 24 24 25 25 86 26 26 27 85 28 27 29 28 30 29 31 79 32 30 33
REMARK SMILES IDX 84 34 78 35 80 36 31 37 83 38 77 39 76 40 32 42 64 43 44 44
REMARK SMILES IDX 63 45 45 46 48 47 62 48 81 49 46 50 47 51 61 53 82 54 49 55
REMARK SMILES IDX 33 56 34 57 42 58 35 59 36 60 40 61 43 62 37 63 38 64 41 65
REMARK SMILES IDX 39 66 65 67 66 68 74 69 67 70 68 71 72 72 75 73 69 74 70 75
REMARK SMILES IDX 73 76 71 77 50 78 51 79 59 80 52 81 53 82 57 83 60 84 54 85
REMARK SMILES IDX 55 86 58 87 56 88
REMARK H PARENT 80 41 48 52
REMARK Flexibility Score: inf
ROOT
ATOM      1  O   UNL A   1      31.423  27.696  27.718  1.00  0.00    -0.252 OA
ATOM      2  C   UNL A   1      31.825  28.074  26.622  1.00  0.00     0.305 C 
ENDROOT
BRANCH   2   3
ATOM      3  C   UNL A   1      31.865  27.136  25.433  1.00  0.00     0.123 C 
BRANCH   3   4
ATOM      4  C   UNL A   1      30.509  26.552  25.052  1.00  0.00     0.012 C 
BRANCH   4   5
ATOM      5  C   UNL A   1      30.409  25.020  25.111  1.00  0.00     0.010 C 
BRANCH   5   6
ATOM      6  C   UNL A   1      31.020  24.229  23.946  1.00  0.00     0.100 C 
BRANCH   6   7
ATOM      7  C   UNL A   1      31.539  22.897  24.319  1.00  0.00     0.226 A 
ATOM      8  N   UNL A   1      32.440  22.146  23.736  1.00  0.00    -0.196 NA
ATOM      9  O   UNL A   1      30.993  22.324  25.434  1.00  0.00    -0.339 OA
ATOM     10  C   UNL A   1      32.441  21.030  24.532  1.00  0.00     0.174 A 
ATOM     11  N   UNL A   1      31.594  21.074  25.569  1.00  0.00    -0.062 NA
BRANCH  10  12
ATOM     12  C   UNL A   1      33.295  19.858  24.244  1.00  0.00     0.113 C 
BRANCH  12  13
ATOM     13  C   UNL A   1      32.494  18.564  24.082  1.00  0.00     0.126 C 
ATOM     14  C   UNL A   1      32.937  17.688  22.918  1.00  0.00     0.035 C 
ATOM     15  O   UNL A   1      32.701  17.764  25.267  1.00  0.00    -0.378 OA
ATOM     16  C   UNL A   1      34.043  16.863  23.527  1.00  0.00     0.031 C 
ATOM     17  C   UNL A   1      33.535  16.644  24.936  1.00  0.00     0.160 C 
ENDBRANCH  12  13
ENDBRANCH  10  12
ENDBRANCH   6   7
ENDBRANCH   5   6
ENDBRANCH   4   5
ENDBRANCH   3   4
ENDBRANCH   2   3
BRANCH   2  18
ATOM     18  O   UNL A   1      32.373  29.306  26.473  1.00  0.00    -0.462 OA
BRANCH  18  19
ATOM     19  C   UNL A   1      31.667  30.365  25.805  1.00  0.00     0.274 C 
BRANCH  19  20
ATOM     20  C   UNL A   1      31.786  31.719  26.512  1.00  0.00     0.275 C 
BRANCH  20  21
ATOM     21  O   UNL A   1      32.660  31.651  27.652  1.00  0.00    -0.458 OA
BRANCH  21  22
ATOM     22  C   UNL A   1      33.527  32.693  27.736  1.00  0.00     0.338 C 
ATOM     23  O   UNL A   1      33.241  33.874  27.700  1.00  0.00    -0.246 OA
BRANCH  22  24
ATOM     24  C   UNL A   1      34.898  32.213  28.023  1.00  0.00     0.060 A 
ATOM     25  C   UNL A   1      35.070  30.828  28.137  1.00  0.00     0.016 A 
ATOM     26  C   UNL A   1      35.977  33.075  28.242  1.00  0.00     0.016 A 
ATOM     27  C   UNL A   1      36.293  30.307  28.553  1.00  0.00     0.010 A 
ATOM     28  C   UNL A   1      37.208  32.549  28.658  1.00  0.00     0.010 A 
ATOM     29  C   UNL A   1      37.353  31.166  28.868  1.00  0.00    -0.014 A 
BRANCH  29  30
ATOM     30  C   UNL A   1      38.524  30.608  29.591  1.00  0.00     0.031 A 
ATOM     31  C   UNL A   1      38.718  30.969  31.040  1.00  0.00     0.074 A 
ATOM     32  C   UNL A   1      39.351  29.726  29.006  1.00  0.00     0.049 A 
ATOM     33  N   UNL A   1      39.574  30.494  31.909  1.00  0.00    -0.248 NA
ATOM     34  C   UNL A   1      37.821  32.002  31.583  1.00  0.00     0.031 C 
ATOM     35  C   UNL A   1      39.266  29.277  27.619  1.00  0.00     0.029 A 
ATOM     36  N   UNL A   1      40.420  29.034  29.522  1.00  0.00    -0.354 N 
ATOM     37  C   UNL A   1      39.309  31.155  33.101  1.00  0.00     0.074 A 
ATOM     38  C   UNL A   1      38.246  32.101  32.834  1.00  0.00     0.031 C 
ATOM     39  C   UNL A   1      40.238  28.375  27.394  1.00  0.00     0.029 A 
ATOM     40  C   UNL A   1      41.013  28.186  28.621  1.00  0.00     0.049 A 
ATOM     41  H   UNL A   1      40.732  29.136  30.450  1.00  0.00     0.167 HD
ATOM     42  C   UNL A   1      39.881  30.979  34.315  1.00  0.00     0.037 A 
ATOM     43  C   UNL A   1      42.054  27.345  28.774  1.00  0.00     0.037 A 
ATOM     44  C   UNL A   1      40.938  30.043  34.590  1.00  0.00     0.049 A 
ATOM     45  C   UNL A   1      42.714  27.209  30.123  1.00  0.00     0.074 A 
ATOM     46  C   UNL A   1      41.558  29.771  35.797  1.00  0.00     0.029 A 
ATOM     47  N   UNL A   1      41.540  29.235  33.639  1.00  0.00    -0.354 N 
ATOM     48  N   UNL A   1      42.405  27.782  31.261  1.00  0.00    -0.248 NA
ATOM     49  C   UNL A   1      43.860  26.292  30.208  1.00  0.00     0.031 C 
ATOM     50  C   UNL A   1      42.568  28.830  35.568  1.00  0.00     0.029 A 
ATOM     51  C   UNL A   1      42.545  28.483  34.227  1.00  0.00     0.049 A 
ATOM     52  H   UNL A   1      41.291  29.200  32.688  1.00  0.00     0.167 HD
ATOM     53  C   UNL A   1      43.289  27.267  32.201  1.00  0.00     0.074 A 
ATOM     54  C   UNL A   1      44.145  26.331  31.502  1.00  0.00     0.031 C 
ATOM     55  C   UNL A   1      43.380  27.542  33.526  1.00  0.00     0.037 A 
BRANCH  42  56
ATOM     56  C   UNL A   1      39.380  31.833  35.441  1.00  0.00     0.064 A 
ATOM     57  C   UNL A   1      38.419  31.362  36.347  1.00  0.00     0.173 A 
ATOM     58  C   UNL A   1      39.882  33.130  35.627  1.00  0.00     0.173 A 
ATOM     59  F   UNL A   1      37.898  30.135  36.201  1.00  0.00    -0.203 F 
ATOM     60  C   UNL A   1      37.961  32.167  37.386  1.00  0.00     0.198 A 
ATOM     61  C   UNL A   1      39.439  33.924  36.682  1.00  0.00     0.198 A 
ATOM     62  F   UNL A   1      40.804  33.625  34.788  1.00  0.00    -0.203 F 
ATOM     63  F   UNL A   1      37.009  31.714  38.214  1.00  0.00    -0.200 F 
ATOM     64  C   UNL A   1      38.474  33.445  37.556  1.00  0.00     0.200 A 
ATOM     65  F   UNL A   1      39.942  35.154  36.849  1.00  0.00    -0.200 F 
ATOM     66  F   UNL A   1      38.032  34.219  38.556  1.00  0.00    -0.200 F 
ENDBRANCH  42  56
BRANCH  43  67
ATOM     67  C   UNL A   1      42.529  26.532  27.625  1.00  0.00     0.064 A 
ATOM     68  C   UNL A   1      42.001  25.258  27.375  1.00  0.00     0.173 A 
ATOM     69  C   UNL A   1      43.546  26.996  26.779  1.00  0.00     0.173 A 
ATOM     70  F   UNL A   1      41.047  24.760  28.175  1.00  0.00    -0.203 F 
ATOM     71  C   UNL A   1      42.487  24.470  26.333  1.00  0.00     0.198 A 
ATOM     72  C   UNL A   1      44.015  26.217  25.724  1.00  0.00     0.198 A 
ATOM     73  F   UNL A   1      44.088  28.206  26.982  1.00  0.00    -0.203 F 
ATOM     74  F   UNL A   1      42.000  23.236  26.147  1.00  0.00    -0.200 F 
ATOM     75  C   UNL A   1      43.490  24.952  25.506  1.00  0.00     0.200 A 
ATOM     76  F   UNL A   1      44.982  26.687  24.925  1.00  0.00    -0.200 F 
ATOM     77  F   UNL A   1      43.962  24.191  24.509  1.00  0.00    -0.200 F 
ENDBRANCH  43  67
BRANCH  55  78
ATOM     78  C   UNL A   1      44.408  26.790  34.320  1.00  0.00     0.064 A 
ATOM     79  C   UNL A   1      45.700  27.297  34.521  1.00  0.00     0.173 A 
ATOM     80  C   UNL A   1      44.082  25.565  34.923  1.00  0.00     0.173 A 
ATOM     81  F   UNL A   1      46.066  28.457  33.957  1.00  0.00    -0.203 F 
ATOM     82  C   UNL A   1      46.636  26.590  35.275  1.00  0.00     0.198 A 
ATOM     83  C   UNL A   1      45.010  24.876  35.697  1.00  0.00     0.198 A 
ATOM     84  F   UNL A   1      42.856  25.041  34.769  1.00  0.00    -0.203 F 
ATOM     85  F   UNL A   1      47.879  27.072  35.415  1.00  0.00    -0.200 F 
ATOM     86  C   UNL A   1      46.289  25.385  35.867  1.00  0.00     0.200 A 
ATOM     87  F   UNL A   1      44.670  23.719  36.280  1.00  0.00    -0.200 F 
ATOM     88  F   UNL A   1      47.189  24.712  36.595  1.00  0.00    -0.200 F 
ENDBRANCH  55  78
ENDBRANCH  29  30
ENDBRANCH  22  24
ENDBRANCH  21  22
ENDBRANCH  20  21
ENDBRANCH  19  20
ENDBRANCH  18  19
ENDBRANCH   2  18
TORSDOF 17
ENDMDL
MODEL 3
REMARK VINA RESULT:     -10.9      3.950      9.558
REMARK SMILES O=C(CCCCc1nc(C[C@H]2CCCO2)no1)OCCOC(=O)c1ccc(-c2c3nc(c(-c4c(F)c(F)c(F)c(F)c4F)c4ccc([nH]4)c(-c4c(F)c(F)c(F)c(F)c4F)c4nc(c(-c5c(F)c(F)c(F)c(F)c5F)c5ccc2[nH]5)C=C4)C=C3)cc1
REMARK SMILES IDX 1 1 2 2 3 3 4 4 5 5 6 6 7 7 8 8 17 9 9 10 16 11 10 12 11 13
REMARK SMILES IDX 12 14 15 15 13 16 14 17 18 18 19 19 20 20 21 21 22 22 23 23
REMARK SMILES IDX 24 24 25 25 86 26 26 27 85 28 27 29 28 30 29 31 79 32 30 33
REMARK SMILES IDX 84 34 78 35 80 36 31 37 83 38 77 39 76 40 32 42 64 43 44 44
REMARK SMILES IDX 63 45 45 46 48 47 62 48 81 49 46 50 47 51 61 53 82 54 49 55
REMARK SMILES IDX 33 56 34 57 42 58 35 59 36 60 40 61 43 62 37 63 38 64 41 65
REMARK SMILES IDX 39 66 65 67 66 68 74 69 67 70 68 71 72 72 75 73 69 74 70 75
REMARK SMILES IDX 73 76 71 77 50 78 51 79 59 80 52 81 53 82 57 83 60 84 54 85
REMARK SMILES IDX 55 86 58 87 56 88
REMARK H PARENT 80 41 48 52
REMARK Flexibility Score: inf
ROOT
ATOM      1  O   UNL A   1      32.825  28.913  23.192  1.00  0.00    -0.252 OA
ATOM      2  C   UNL A   1      31.911  29.011  24.006  1.00  0.00     0.305 C 
ENDROOT
BRANCH   2   3
ATOM      3  C   UNL A   1      30.536  28.445  23.716  1.00  0.00     0.123 C 
BRANCH   3   4
ATOM      4  C   UNL A   1      30.519  26.940  23.470  1.00  0.00     0.012 C 
BRANCH   4   5
ATOM      5  C   UNL A   1      29.929  26.091  24.607  1.00  0.00     0.010 C 
BRANCH   5   6
ATOM      6  C   UNL A   1      30.576  26.223  25.993  1.00  0.00     0.100 C 
BRANCH   6   7
ATOM      7  C   UNL A   1      31.450  25.092  26.368  1.00  0.00     0.226 A 
ATOM      8  N   UNL A   1      32.664  24.794  25.976  1.00  0.00    -0.196 NA
ATOM      9  O   UNL A   1      30.924  24.185  27.245  1.00  0.00    -0.339 OA
ATOM     10  C   UNL A   1      32.899  23.619  26.643  1.00  0.00     0.174 A 
ATOM     11  N   UNL A   1      31.893  23.199  27.421  1.00  0.00    -0.062 NA
BRANCH  10  12
ATOM     12  C   UNL A   1      34.160  22.863  26.485  1.00  0.00     0.113 C 
BRANCH  12  13
ATOM     13  C   UNL A   1      34.330  22.280  25.080  1.00  0.00     0.126 C 
ATOM     14  C   UNL A   1      35.713  22.481  24.476  1.00  0.00     0.035 C 
ATOM     15  O   UNL A   1      34.154  20.848  25.171  1.00  0.00    -0.378 OA
ATOM     16  C   UNL A   1      36.480  21.294  25.003  1.00  0.00     0.031 C 
ATOM     17  C   UNL A   1      35.426  20.208  24.998  1.00  0.00     0.160 C 
ENDBRANCH  12  13
ENDBRANCH  10  12
ENDBRANCH   6   7
ENDBRANCH   5   6
ENDBRANCH   4   5
ENDBRANCH   3   4
ENDBRANCH   2   3
BRANCH   2  18
ATOM     18  O   UNL A   1      32.065  29.750  25.133  1.00  0.00    -0.462 OA
BRANCH  18  19
ATOM     19  C   UNL A   1      31.135  30.790  25.481  1.00  0.00     0.274 C 
BRANCH  19  20
ATOM     20  C   UNL A   1      31.541  31.581  26.728  1.00  0.00     0.275 C 
BRANCH  20  21
ATOM     21  O   UNL A   1      32.844  31.200  27.200  1.00  0.00    -0.458 OA
BRANCH  21  22
ATOM     22  C   UNL A   1      33.598  32.248  27.623  1.00  0.00     0.338 C 
ATOM     23  O   UNL A   1      33.205  33.377  27.846  1.00  0.00    -0.246 OA
BRANCH  22  24
ATOM     24  C   UNL A   1      34.981  31.811  27.923  1.00  0.00     0.060 A 
ATOM     25  C   UNL A   1      35.198  30.433  28.032  1.00  0.00     0.016 A 
ATOM     26  C   UNL A   1      36.029  32.707  28.157  1.00  0.00     0.016 A 
ATOM     27  C   UNL A   1      36.433  29.950  28.460  1.00  0.00     0.010 A 
ATOM     28  C   UNL A   1      37.272  32.221  28.584  1.00  0.00     0.010 A 
ATOM     29  C   UNL A   1      37.460  30.842  28.790  1.00  0.00    -0.014 A 
BRANCH  29  30
ATOM     30  C   UNL A   1      38.641  30.320  29.523  1.00  0.00     0.031 A 
ATOM     31  C   UNL A   1      38.846  30.739  30.955  1.00  0.00     0.074 A 
ATOM     32  C   UNL A   1      39.467  29.419  28.966  1.00  0.00     0.049 A 
ATOM     33  N   UNL A   1      39.713  30.303  31.834  1.00  0.00    -0.248 NA
ATOM     34  C   UNL A   1      37.950  31.789  31.465  1.00  0.00     0.031 C 
ATOM     35  C   UNL A   1      39.372  28.914  27.600  1.00  0.00     0.029 A 
ATOM     36  N   UNL A   1      40.544  28.753  29.499  1.00  0.00    -0.354 N 
ATOM     37  C   UNL A   1      39.456  31.011  33.001  1.00  0.00     0.074 A 
ATOM     38  C   UNL A   1      38.386  31.940  32.707  1.00  0.00     0.031 C 
ATOM     39  C   UNL A   1      40.346  28.008  27.402  1.00  0.00     0.029 A 
ATOM     40  C   UNL A   1      41.134  27.873  28.627  1.00  0.00     0.049 A 
ATOM     41  H   UNL A   1      40.865  28.895  30.419  1.00  0.00     0.167 HD
ATOM     42  C   UNL A   1      40.041  30.887  34.216  1.00  0.00     0.037 A 
ATOM     43  C   UNL A   1      42.181  27.044  28.804  1.00  0.00     0.037 A 
ATOM     44  C   UNL A   1      41.105  29.968  34.518  1.00  0.00     0.049 A 
ATOM     45  C   UNL A   1      42.854  26.966  30.151  1.00  0.00     0.074 A 
ATOM     46  C   UNL A   1      41.738  29.748  35.728  1.00  0.00     0.029 A 
ATOM     47  N   UNL A   1      41.703  29.125  33.594  1.00  0.00    -0.354 N 
ATOM     48  N   UNL A   1      42.553  27.583  31.267  1.00  0.00    -0.248 NA
ATOM     49  C   UNL A   1      44.006  26.059  30.262  1.00  0.00     0.031 C 
ATOM     50  C   UNL A   1      42.752  28.803  35.527  1.00  0.00     0.029 A 
ATOM     51  C   UNL A   1      42.718  28.403  34.201  1.00  0.00     0.049 A 
ATOM     52  H   UNL A   1      41.444  29.051  32.647  1.00  0.00     0.167 HD
ATOM     53  C   UNL A   1      43.449  27.110  32.219  1.00  0.00     0.074 A 
ATOM     54  C   UNL A   1      44.303  26.152  31.550  1.00  0.00     0.031 C 
ATOM     55  C   UNL A   1      43.550  27.438  33.531  1.00  0.00     0.037 A 
BRANCH  42  56
ATOM     56  C   UNL A   1      39.546  31.783  35.311  1.00  0.00     0.064 A 
ATOM     57  C   UNL A   1      40.010  33.100  35.448  1.00  0.00     0.173 A 
ATOM     58  C   UNL A   1      38.580  31.326  36.220  1.00  0.00     0.173 A 
ATOM     59  F   UNL A   1      40.943  33.576  34.612  1.00  0.00    -0.203 F 
ATOM     60  C   UNL A   1      39.543  33.919  36.472  1.00  0.00     0.198 A 
ATOM     61  C   UNL A   1      38.098  32.157  37.228  1.00  0.00     0.198 A 
ATOM     62  F   UNL A   1      38.104  30.075  36.130  1.00  0.00    -0.203 F 
ATOM     63  F   UNL A   1      40.033  35.159  36.612  1.00  0.00    -0.200 F 
ATOM     64  C   UNL A   1      38.585  33.450  37.358  1.00  0.00     0.200 A 
ATOM     65  F   UNL A   1      37.166  31.704  38.078  1.00  0.00    -0.200 F 
ATOM     66  F   UNL A   1      38.136  34.239  38.342  1.00  0.00    -0.200 F 
ENDBRANCH  42  56
BRANCH  43  67
ATOM     67  C   UNL A   1      42.649  26.189  27.684  1.00  0.00     0.064 A 
ATOM     68  C   UNL A   1      43.661  26.625  26.816  1.00  0.00     0.173 A 
ATOM     69  C   UNL A   1      42.070  24.937  27.435  1.00  0.00     0.173 A 
ATOM     70  F   UNL A   1      44.224  27.829  26.998  1.00  0.00    -0.203 F 
ATOM     71  C   UNL A   1      44.061  25.849  25.730  1.00  0.00     0.198 A 
ATOM     72  C   UNL A   1      42.487  24.152  26.362  1.00  0.00     0.198 A 
ATOM     73  F   UNL A   1      41.094  24.479  28.232  1.00  0.00    -0.203 F 
ATOM     74  F   UNL A   1      44.994  26.312  24.888  1.00  0.00    -0.200 F 
ATOM     75  C   UNL A   1      43.476  24.612  25.507  1.00  0.00     0.200 A 
ATOM     76  F   UNL A   1      41.923  22.955  26.151  1.00  0.00    -0.200 F 
ATOM     77  F   UNL A   1      43.856  23.870  24.457  1.00  0.00    -0.200 F 
ENDBRANCH  43  67
BRANCH  55  78
ATOM     78  C   UNL A   1      44.590  26.725  34.345  1.00  0.00     0.064 A 
ATOM     79  C   UNL A   1      44.317  25.510  34.991  1.00  0.00     0.173 A 
ATOM     80  C   UNL A   1      45.891  27.244  34.445  1.00  0.00     0.173 A 
ATOM     81  F   UNL A   1      43.088  24.978  34.936  1.00  0.00    -0.203 F 
ATOM     82  C   UNL A   1      45.301  24.856  35.730  1.00  0.00     0.198 A 
ATOM     83  C   UNL A   1      46.878  26.574  35.161  1.00  0.00     0.198 A 
ATOM     84  F   UNL A   1      46.207  28.398  33.839  1.00  0.00    -0.203 F 
ATOM     85  F   UNL A   1      45.004  23.721  36.377  1.00  0.00    -0.200 F 
ATOM     86  C   UNL A   1      46.581  25.385  35.810  1.00  0.00     0.200 A 
ATOM     87  F   UNL A   1      48.118  27.078  35.226  1.00  0.00    -0.200 F 
ATOM     88  F   UNL A   1      47.526  24.750  36.516  1.00  0.00    -0.200 F 
ENDBRANCH  55  78
ENDBRANCH  29  30
ENDBRANCH  22  24
ENDBRANCH  21  22
ENDBRANCH  20  21
ENDBRANCH  19  20
ENDBRANCH  18  19
ENDBRANCH   2  18
TORSDOF 17
ENDMDL
