MODEL 1
REMARK VINA RESULT:     -11.9      0.000      0.000
REMARK SMILES CC(C)(O)C#Cc1ccc(C(=O)N[C@@H](CC2=c3ccccc3=NC2)C(=O)OCCOC(=O)c2ccc(-c3c4nc(c(-c5c(F)c(F)c(F)c(F)c5F)c5ccc([nH]5)c(-c5c(F)c(F)c(F)c(F)c5F)c5nc(c(-c6c(F)c(F)c(F)c(F)c6F)c6ccc3[nH]6)C=C5)C=C4)cc2)s1
REMARK SMILES IDX 27 1 25 2 26 3 14 4 13 5 11 6 12 7 10 9 7 10 8 11 96 12 9 13
REMARK SMILES IDX 6 14 5 15 2 16 1 17 3 18 4 19 15 21 16 22 17 23 24 24 18 25
REMARK SMILES IDX 22 26 23 27 19 28 21 29 20 30 28 31 29 32 30 33 31 34 32 35
REMARK SMILES IDX 33 36 34 37 95 38 35 39 94 40 36 41 37 42 38 43 88 44 39 45
REMARK SMILES IDX 93 46 87 47 89 48 40 49 92 50 86 51 85 52 41 54 73 55 53 56
REMARK SMILES IDX 72 57 54 58 57 59 71 60 90 61 55 62 56 63 70 65 91 66 58 67
REMARK SMILES IDX 42 68 43 69 51 70 44 71 45 72 49 73 52 74 46 75 47 76 50 77
REMARK SMILES IDX 48 78 74 79 75 80 83 81 76 82 77 83 81 84 84 85 78 86 79 87
REMARK SMILES IDX 82 88 80 89 59 90 60 91 68 92 61 93 62 94 66 95 69 96 63 97
REMARK SMILES IDX 64 98 67 99 65 100
REMARK H PARENT 13 8 4 20 89 53 57 64
REMARK Flexibility Score: inf
ROOT
ATOM      1  O   UNL A   1      32.985  29.023  26.238  1.00  0.00    -0.461 OA
ENDROOT
BRANCH   1   2
ATOM      2  C   UNL A   1      32.159  28.631  25.226  1.00  0.00     0.329 C 
ATOM      3  O   UNL A   1      31.185  29.284  24.859  1.00  0.00    -0.250 OA
BRANCH   2   4
ATOM      4  C   UNL A   1      32.529  27.268  24.572  1.00  0.00     0.196 C 
BRANCH   4   5
ATOM      5  N   UNL A   1      32.995  27.217  23.181  1.00  0.00    -0.338 N 
ATOM      6  C   UNL A   1      33.115  26.176  22.274  1.00  0.00     0.262 C 
ATOM      7  O   UNL A   1      33.721  26.466  21.239  1.00  0.00    -0.268 OA
ATOM      8  H   UNL A   1      33.275  28.090  22.823  1.00  0.00     0.164 HD
BRANCH   6   9
ATOM      9  C   UNL A   1      32.439  24.884  22.405  1.00  0.00     0.093 A 
ATOM     10  C   UNL A   1      32.142  22.538  23.064  1.00  0.00     0.078 A 
ATOM     11  C   UNL A   1      31.032  23.288  23.403  1.00  0.00     0.030 A 
ATOM     12  S   UNL A   1      32.949  23.374  21.772  1.00  0.00    -0.121 S 
ATOM     13  C   UNL A   1      31.215  24.666  23.030  1.00  0.00     0.027 A 
BRANCH  10  14
ATOM     14  C   UNL A   1      32.634  21.324  23.721  1.00  0.00    -0.053 C 
ATOM     15  C   UNL A   1      33.054  20.123  24.008  1.00  0.00    -0.063 C 
BRANCH  15  16
ATOM     16  C   UNL A   1      33.545  18.724  24.343  1.00  0.00     0.120 C 
ATOM     17  C   UNL A   1      32.692  18.330  25.646  1.00  0.00     0.056 C 
ATOM     18  C   UNL A   1      34.157  17.053  23.780  1.00  0.00     0.056 C 
BRANCH  16  19
ATOM     19  O   UNL A   1      32.113  17.817  23.809  1.00  0.00    -0.378 OA
ATOM     20  H   UNL A   1      31.448  17.819  24.515  1.00  0.00     0.212 HD
ENDBRANCH  16  19
ENDBRANCH  15  16
ENDBRANCH  10  14
ENDBRANCH   6   9
ENDBRANCH   4   5
BRANCH   4  21
ATOM     21  C   UNL A   1      33.551  26.540  25.480  1.00  0.00     0.070 C 
BRANCH  21  22
ATOM     22  C   UNL A   1      33.035  25.298  26.140  1.00  0.00    -0.037 C 
ATOM     23  C   UNL A   1      33.678  24.148  26.337  1.00  0.00     0.001 A 
ATOM     24  C   UNL A   1      31.623  25.207  26.622  1.00  0.00     0.174 C 
ATOM     25  C   UNL A   1      34.980  23.636  26.046  1.00  0.00     0.010 A 
ATOM     26  C   UNL A   1      32.651  23.316  26.983  1.00  0.00     0.065 A 
ATOM     27  N   UNL A   1      31.479  23.842  27.173  1.00  0.00    -0.280 NA
ATOM     28  C   UNL A   1      35.277  22.376  26.406  1.00  0.00     0.001 A 
ATOM     29  C   UNL A   1      33.056  21.946  27.361  1.00  0.00     0.028 A 
ATOM     30  C   UNL A   1      34.305  21.535  27.085  1.00  0.00     0.002 A 
ENDBRANCH  21  22
ENDBRANCH   4  21
ENDBRANCH   2   4
ENDBRANCH   1   2
BRANCH   1  31
ATOM     31  C   UNL A   1      33.184  30.460  26.306  1.00  0.00     0.274 C 
BRANCH  31  32
ATOM     32  C   UNL A   1      33.660  30.915  27.689  1.00  0.00     0.275 C 
BRANCH  32  33
ATOM     33  O   UNL A   1      34.864  30.215  28.020  1.00  0.00    -0.458 OA
BRANCH  33  34
ATOM     34  C   UNL A   1      35.573  30.810  29.018  1.00  0.00     0.338 C 
ATOM     35  O   UNL A   1      35.165  31.342  30.004  1.00  0.00    -0.246 OA
BRANCH  34  36
ATOM     36  C   UNL A   1      36.919  30.228  28.886  1.00  0.00     0.060 A 
ATOM     37  C   UNL A   1      37.723  30.295  27.733  1.00  0.00     0.016 A 
ATOM     38  C   UNL A   1      37.229  29.399  29.941  1.00  0.00     0.016 A 
ATOM     39  C   UNL A   1      38.820  29.444  27.600  1.00  0.00     0.010 A 
ATOM     40  C   UNL A   1      38.326  28.610  29.804  1.00  0.00     0.010 A 
ATOM     41  C   UNL A   1      39.094  28.587  28.647  1.00  0.00    -0.014 A 
BRANCH  41  42
ATOM     42  C   UNL A   1      40.185  27.622  28.690  1.00  0.00     0.031 A 
ATOM     43  C   UNL A   1      39.517  25.966  27.708  1.00  0.00     0.074 A 
ATOM     44  C   UNL A   1      41.612  28.422  29.084  1.00  0.00     0.049 A 
ATOM     45  N   UNL A   1      39.863  24.544  27.932  1.00  0.00    -0.248 NA
ATOM     46  C   UNL A   1      39.730  25.536  26.095  1.00  0.00     0.031 C 
ATOM     47  C   UNL A   1      41.860  29.832  29.616  1.00  0.00     0.029 A 
ATOM     48  N   UNL A   1      43.268  28.186  29.025  1.00  0.00    -0.354 N 
ATOM     49  C   UNL A   1      41.226  23.883  27.117  1.00  0.00     0.074 A 
ATOM     50  C   UNL A   1      40.658  24.495  25.859  1.00  0.00     0.031 C 
ATOM     51  C   UNL A   1      43.167  30.326  29.585  1.00  0.00     0.029 A 
ATOM     52  C   UNL A   1      44.221  29.396  29.132  1.00  0.00     0.049 A 
ATOM     53  H   UNL A   1      43.633  27.277  28.923  1.00  0.00     0.167 HD
ATOM     54  C   UNL A   1      42.786  23.528  27.646  1.00  0.00     0.037 A 
ATOM     55  C   UNL A   1      45.680  29.555  29.248  1.00  0.00     0.037 A 
ATOM     56  C   UNL A   1      43.622  23.766  29.241  1.00  0.00     0.049 A 
ATOM     57  C   UNL A   1      46.269  28.413  30.001  1.00  0.00     0.074 A 
ATOM     58  C   UNL A   1      43.625  23.062  30.503  1.00  0.00     0.029 A 
ATOM     59  N   UNL A   1      44.701  24.753  29.646  1.00  0.00    -0.354 N 
ATOM     60  N   UNL A   1      46.090  28.251  31.274  1.00  0.00    -0.248 NA
ATOM     61  C   UNL A   1      47.205  27.438  29.428  1.00  0.00     0.031 C 
ATOM     62  C   UNL A   1      44.173  23.818  31.625  1.00  0.00     0.029 A 
ATOM     63  C   UNL A   1      44.745  24.977  31.163  1.00  0.00     0.049 A 
ATOM     64  H   UNL A   1      45.305  25.199  29.009  1.00  0.00     0.167 HD
ATOM     65  C   UNL A   1      46.236  26.901  31.402  1.00  0.00     0.074 A 
ATOM     66  C   UNL A   1      47.136  26.487  30.362  1.00  0.00     0.031 C 
ATOM     67  C   UNL A   1      45.169  26.243  31.899  1.00  0.00     0.037 A 
BRANCH  54  68
ATOM     68  C   UNL A   1      43.860  22.551  27.062  1.00  0.00     0.064 A 
ATOM     69  C   UNL A   1      44.809  23.177  26.176  1.00  0.00     0.173 A 
ATOM     70  C   UNL A   1      43.499  21.250  26.698  1.00  0.00     0.173 A 
ATOM     71  F   UNL A   1      45.177  24.453  26.386  1.00  0.00    -0.203 F 
ATOM     72  C   UNL A   1      45.183  22.621  24.938  1.00  0.00     0.198 A 
ATOM     73  C   UNL A   1      44.000  20.640  25.524  1.00  0.00     0.198 A 
ATOM     74  F   UNL A   1      42.545  20.610  27.386  1.00  0.00    -0.203 F 
ATOM     75  F   UNL A   1      45.813  23.369  24.016  1.00  0.00    -0.200 F 
ATOM     76  C   UNL A   1      44.791  21.340  24.622  1.00  0.00     0.200 A 
ATOM     77  F   UNL A   1      43.625  19.390  25.214  1.00  0.00    -0.200 F 
ATOM     78  F   UNL A   1      45.131  20.798  23.441  1.00  0.00    -0.200 F 
ENDBRANCH  54  68
BRANCH  55  79
ATOM     79  C   UNL A   1      46.993  30.583  29.064  1.00  0.00     0.064 A 
ATOM     80  C   UNL A   1      47.583  30.973  27.781  1.00  0.00     0.173 A 
ATOM     81  C   UNL A   1      47.262  31.552  30.049  1.00  0.00     0.173 A 
ATOM     82  F   UNL A   1      47.444  30.199  26.693  1.00  0.00    -0.203 F 
ATOM     83  C   UNL A   1      48.277  32.205  27.533  1.00  0.00     0.198 A 
ATOM     84  C   UNL A   1      47.961  32.782  29.798  1.00  0.00     0.198 A 
ATOM     85  F   UNL A   1      46.764  31.378  31.278  1.00  0.00    -0.203 F 
ATOM     86  F   UNL A   1      48.709  32.525  26.298  1.00  0.00    -0.200 F 
ATOM     87  C   UNL A   1      48.441  33.122  28.543  1.00  0.00     0.200 A 
ATOM     88  F   UNL A   1      48.099  33.681  30.786  1.00  0.00    -0.200 F 
ATOM     89  F   UNL A   1      49.007  34.320  28.310  1.00  0.00    -0.200 F 
ENDBRANCH  55  79
BRANCH  67  90
ATOM     90  C   UNL A   1      44.577  27.086  33.172  1.00  0.00     0.064 A 
ATOM     91  C   UNL A   1      45.150  27.083  34.496  1.00  0.00     0.173 A 
ATOM     92  C   UNL A   1      43.246  27.561  33.189  1.00  0.00     0.173 A 
ATOM     93  F   UNL A   1      46.402  26.659  34.691  1.00  0.00    -0.203 F 
ATOM     94  C   UNL A   1      44.466  27.454  35.684  1.00  0.00     0.198 A 
ATOM     95  C   UNL A   1      42.577  27.999  34.376  1.00  0.00     0.198 A 
ATOM     96  F   UNL A   1      42.531  27.561  32.057  1.00  0.00    -0.203 F 
ATOM     97  F   UNL A   1      45.052  27.311  36.888  1.00  0.00    -0.200 F 
ATOM     98  C   UNL A   1      43.179  27.929  35.621  1.00  0.00     0.200 A 
ATOM     99  F   UNL A   1      41.315  28.454  34.308  1.00  0.00    -0.200 F 
ATOM    100  F   UNL A   1      42.524  28.299  36.737  1.00  0.00    -0.200 F 
ENDBRANCH  67  90
ENDBRANCH  41  42
ENDBRANCH  34  36
ENDBRANCH  33  34
ENDBRANCH  32  33
ENDBRANCH  31  32
ENDBRANCH   1  31
TORSDOF 18
ENDMDL
MODEL 2
REMARK VINA RESULT:     -11.7      2.202      6.837
REMARK SMILES CC(C)(O)C#Cc1ccc(C(=O)N[C@@H](CC2=c3ccccc3=NC2)C(=O)OCCOC(=O)c2ccc(-c3c4nc(c(-c5c(F)c(F)c(F)c(F)c5F)c5ccc([nH]5)c(-c5c(F)c(F)c(F)c(F)c5F)c5nc(c(-c6c(F)c(F)c(F)c(F)c6F)c6ccc3[nH]6)C=C5)C=C4)cc2)s1
REMARK SMILES IDX 27 1 25 2 26 3 14 4 13 5 11 6 12 7 10 9 7 10 8 11 96 12 9 13
REMARK SMILES IDX 6 14 5 15 2 16 1 17 3 18 4 19 15 21 16 22 17 23 24 24 18 25
REMARK SMILES IDX 22 26 23 27 19 28 21 29 20 30 28 31 29 32 30 33 31 34 32 35
REMARK SMILES IDX 33 36 34 37 95 38 35 39 94 40 36 41 37 42 38 43 88 44 39 45
REMARK SMILES IDX 93 46 87 47 89 48 40 49 92 50 86 51 85 52 41 54 73 55 53 56
REMARK SMILES IDX 72 57 54 58 57 59 71 60 90 61 55 62 56 63 70 65 91 66 58 67
REMARK SMILES IDX 42 68 43 69 51 70 44 71 45 72 49 73 52 74 46 75 47 76 50 77
REMARK SMILES IDX 48 78 74 79 75 80 83 81 76 82 77 83 81 84 84 85 78 86 79 87
REMARK SMILES IDX 82 88 80 89 59 90 60 91 68 92 61 93 62 94 66 95 69 96 63 97
REMARK SMILES IDX 64 98 67 99 65 100
REMARK H PARENT 13 8 4 20 89 53 57 64
REMARK Flexibility Score: inf
ROOT
ATOM      1  O   UNL A   1      33.074  29.138  26.821  1.00  0.00    -0.461 OA
ENDROOT
BRANCH   1   2
ATOM      2  C   UNL A   1      32.240  28.098  27.105  1.00  0.00     0.329 C 
ATOM      3  O   UNL A   1      31.415  28.123  28.016  1.00  0.00    -0.250 OA
BRANCH   2   4
ATOM      4  C   UNL A   1      32.421  26.848  26.196  1.00  0.00     0.196 C 
BRANCH   4   5
ATOM      5  N   UNL A   1      31.293  26.335  25.409  1.00  0.00    -0.338 N 
ATOM      6  C   UNL A   1      30.868  25.050  25.114  1.00  0.00     0.262 C 
ATOM      7  O   UNL A   1      29.976  24.987  24.264  1.00  0.00    -0.268 OA
ATOM      8  H   UNL A   1      30.730  27.040  25.015  1.00  0.00     0.164 HD
BRANCH   6   9
ATOM      9  C   UNL A   1      31.279  23.854  25.853  1.00  0.00     0.093 A 
ATOM     10  C   UNL A   1      32.254  21.628  26.201  1.00  0.00     0.078 A 
ATOM     11  C   UNL A   1      32.712  22.519  27.153  1.00  0.00     0.030 A 
ATOM     12  S   UNL A   1      30.741  22.244  25.609  1.00  0.00    -0.121 S 
ATOM     13  C   UNL A   1      32.151  23.827  26.938  1.00  0.00     0.027 A 
BRANCH  10  14
ATOM     14  C   UNL A   1      32.941  20.440  25.687  1.00  0.00    -0.053 C 
ATOM     15  C   UNL A   1      33.254  19.295  25.147  1.00  0.00    -0.063 C 
BRANCH  15  16
ATOM     16  C   UNL A   1      33.620  17.961  24.517  1.00  0.00     0.120 C 
ATOM     17  C   UNL A   1      32.705  16.907  25.312  1.00  0.00     0.056 C 
ATOM     18  C   UNL A   1      34.109  16.969  23.014  1.00  0.00     0.056 C 
BRANCH  16  19
ATOM     19  O   UNL A   1      32.134  17.706  23.577  1.00  0.00    -0.378 OA
ATOM     20  H   UNL A   1      31.421  18.248  23.948  1.00  0.00     0.212 HD
ENDBRANCH  16  19
ENDBRANCH  15  16
ENDBRANCH  10  14
ENDBRANCH   6   9
ENDBRANCH   4   5
BRANCH   4  21
ATOM     21  C   UNL A   1      33.632  27.085  25.258  1.00  0.00     0.070 C 
BRANCH  21  22
ATOM     22  C   UNL A   1      33.955  25.943  24.345  1.00  0.00    -0.037 C 
ATOM     23  C   UNL A   1      34.695  24.867  24.609  1.00  0.00     0.001 A 
ATOM     24  C   UNL A   1      33.489  25.931  22.924  1.00  0.00     0.174 C 
ATOM     25  C   UNL A   1      35.428  24.375  25.733  1.00  0.00     0.010 A 
ATOM     26  C   UNL A   1      34.677  24.145  23.327  1.00  0.00     0.065 A 
ATOM     27  N   UNL A   1      34.022  24.680  22.342  1.00  0.00    -0.280 NA
ATOM     28  C   UNL A   1      36.083  23.207  25.620  1.00  0.00     0.001 A 
ATOM     29  C   UNL A   1      35.408  22.862  23.284  1.00  0.00     0.028 A 
ATOM     30  C   UNL A   1      36.054  22.441  24.385  1.00  0.00     0.002 A 
ENDBRANCH  21  22
ENDBRANCH   4  21
ENDBRANCH   2   4
ENDBRANCH   1   2
BRANCH   1  31
ATOM     31  C   UNL A   1      32.425  30.437  26.868  1.00  0.00     0.274 C 
BRANCH  31  32
ATOM     32  C   UNL A   1      33.256  31.474  27.629  1.00  0.00     0.275 C 
BRANCH  32  33
ATOM     33  O   UNL A   1      34.586  30.971  27.798  1.00  0.00    -0.458 OA
BRANCH  33  34
ATOM     34  C   UNL A   1      35.508  31.952  28.003  1.00  0.00     0.338 C 
ATOM     35  O   UNL A   1      35.326  33.089  28.315  1.00  0.00    -0.246 OA
BRANCH  34  36
ATOM     36  C   UNL A   1      36.756  31.213  28.252  1.00  0.00     0.060 A 
ATOM     37  C   UNL A   1      36.893  29.813  28.206  1.00  0.00     0.016 A 
ATOM     38  C   UNL A   1      37.743  32.023  28.766  1.00  0.00     0.016 A 
ATOM     39  C   UNL A   1      38.014  29.204  28.771  1.00  0.00     0.010 A 
ATOM     40  C   UNL A   1      38.843  31.409  29.274  1.00  0.00     0.010 A 
ATOM     41  C   UNL A   1      38.975  30.027  29.323  1.00  0.00    -0.014 A 
BRANCH  41  42
ATOM     42  C   UNL A   1      40.205  29.581  29.967  1.00  0.00     0.031 A 
ATOM     43  C   UNL A   1      39.833  29.588  31.970  1.00  0.00     0.074 A 
ATOM     44  C   UNL A   1      41.184  28.833  28.820  1.00  0.00     0.049 A 
ATOM     45  N   UNL A   1      40.767  29.835  33.093  1.00  0.00    -0.248 NA
ATOM     46  C   UNL A   1      39.329  28.321  32.956  1.00  0.00     0.031 C 
ATOM     47  C   UNL A   1      41.099  28.794  27.296  1.00  0.00     0.029 A 
ATOM     48  N   UNL A   1      42.508  27.811  28.742  1.00  0.00    -0.354 N 
ATOM     49  C   UNL A   1      41.641  28.508  33.751  1.00  0.00     0.074 A 
ATOM     50  C   UNL A   1      40.319  27.781  33.808  1.00  0.00     0.031 C 
ATOM     51  C   UNL A   1      41.887  27.861  26.617  1.00  0.00     0.029 A 
ATOM     52  C   UNL A   1      42.818  27.055  27.432  1.00  0.00     0.049 A 
ATOM     53  H   UNL A   1      43.087  27.693  29.530  1.00  0.00     0.167 HD
ATOM     54  C   UNL A   1      43.241  28.016  33.564  1.00  0.00     0.037 A 
ATOM     55  C   UNL A   1      43.928  26.207  26.967  1.00  0.00     0.037 A 
ATOM     56  C   UNL A   1      44.611  28.659  32.559  1.00  0.00     0.049 A 
ATOM     57  C   UNL A   1      45.211  26.647  27.582  1.00  0.00     0.074 A 
ATOM     58  C   UNL A   1      45.540  29.758  32.689  1.00  0.00     0.029 A 
ATOM     59  N   UNL A   1      45.258  28.096  31.306  1.00  0.00    -0.354 N 
ATOM     60  N   UNL A   1      45.796  27.756  27.256  1.00  0.00    -0.248 NA
ATOM     61  C   UNL A   1      46.008  25.832  28.507  1.00  0.00     0.031 C 
ATOM     62  C   UNL A   1      46.244  30.115  31.461  1.00  0.00     0.029 A 
ATOM     63  C   UNL A   1      45.989  29.174  30.495  1.00  0.00     0.049 A 
ATOM     64  H   UNL A   1      45.216  27.148  31.045  1.00  0.00     0.167 HD
ATOM     65  C   UNL A   1      46.500  28.038  28.389  1.00  0.00     0.074 A 
ATOM     66  C   UNL A   1      46.809  26.777  29.003  1.00  0.00     0.031 C 
ATOM     67  C   UNL A   1      46.200  29.210  28.985  1.00  0.00     0.037 A 
BRANCH  54  68
ATOM     68  C   UNL A   1      44.139  27.108  34.470  1.00  0.00     0.064 A 
ATOM     69  C   UNL A   1      43.857  25.699  34.358  1.00  0.00     0.173 A 
ATOM     70  C   UNL A   1      44.486  27.529  35.757  1.00  0.00     0.173 A 
ATOM     71  F   UNL A   1      43.444  25.192  33.183  1.00  0.00    -0.203 F 
ATOM     72  C   UNL A   1      43.730  24.852  35.475  1.00  0.00     0.198 A 
ATOM     73  C   UNL A   1      44.503  26.634  36.853  1.00  0.00     0.198 A 
ATOM     74  F   UNL A   1      44.665  28.833  36.002  1.00  0.00    -0.203 F 
ATOM     75  F   UNL A   1      43.166  23.639  35.352  1.00  0.00    -0.200 F 
ATOM     76  C   UNL A   1      44.074  25.319  36.724  1.00  0.00     0.200 A 
ATOM     77  F   UNL A   1      44.841  27.082  38.071  1.00  0.00    -0.200 F 
ATOM     78  F   UNL A   1      43.950  24.527  37.801  1.00  0.00    -0.200 F 
ENDBRANCH  54  68
BRANCH  55  79
ATOM     79  C   UNL A   1      44.432  25.045  25.868  1.00  0.00     0.064 A 
ATOM     80  C   UNL A   1      45.636  25.138  25.038  1.00  0.00     0.173 A 
ATOM     81  C   UNL A   1      44.064  23.699  26.058  1.00  0.00     0.173 A 
ATOM     82  F   UNL A   1      46.174  26.329  24.733  1.00  0.00    -0.203 F 
ATOM     83  C   UNL A   1      46.387  24.019  24.544  1.00  0.00     0.198 A 
ATOM     84  C   UNL A   1      44.816  22.581  25.558  1.00  0.00     0.198 A 
ATOM     85  F   UNL A   1      43.006  23.423  26.827  1.00  0.00    -0.203 F 
ATOM     86  F   UNL A   1      47.535  24.195  23.863  1.00  0.00    -0.200 F 
ATOM     87  C   UNL A   1      45.984  22.736  24.830  1.00  0.00     0.200 A 
ATOM     88  F   UNL A   1      44.427  21.332  25.860  1.00  0.00    -0.200 F 
ATOM     89  F   UNL A   1      46.723  21.676  24.455  1.00  0.00    -0.200 F 
ENDBRANCH  55  79
BRANCH  67  90
ATOM     90  C   UNL A   1      46.079  30.370  27.835  1.00  0.00     0.064 A 
ATOM     91  C   UNL A   1      47.199  31.066  27.252  1.00  0.00     0.173 A 
ATOM     92  C   UNL A   1      44.868  31.062  27.609  1.00  0.00     0.173 A 
ATOM     93  F   UNL A   1      48.436  30.574  27.365  1.00  0.00    -0.203 F 
ATOM     94  C   UNL A   1      47.125  32.315  26.580  1.00  0.00     0.198 A 
ATOM     95  C   UNL A   1      44.782  32.287  26.874  1.00  0.00     0.198 A 
ATOM     96  F   UNL A   1      43.733  30.600  28.147  1.00  0.00    -0.203 F 
ATOM     97  F   UNL A   1      48.244  32.941  26.167  1.00  0.00    -0.200 F 
ATOM     98  C   UNL A   1      45.909  32.920  26.376  1.00  0.00     0.200 A 
ATOM     99  F   UNL A   1      43.591  32.878  26.687  1.00  0.00    -0.200 F 
ATOM    100  F   UNL A   1      45.823  34.095  25.727  1.00  0.00    -0.200 F 
ENDBRANCH  67  90
ENDBRANCH  41  42
ENDBRANCH  34  36
ENDBRANCH  33  34
ENDBRANCH  32  33
ENDBRANCH  31  32
ENDBRANCH   1  31
TORSDOF 18
ENDMDL
MODEL 3
REMARK VINA RESULT:     -11.6      2.368      4.107
REMARK SMILES CC(C)(O)C#Cc1ccc(C(=O)N[C@@H](CC2=c3ccccc3=NC2)C(=O)OCCOC(=O)c2ccc(-c3c4nc(c(-c5c(F)c(F)c(F)c(F)c5F)c5ccc([nH]5)c(-c5c(F)c(F)c(F)c(F)c5F)c5nc(c(-c6c(F)c(F)c(F)c(F)c6F)c6ccc3[nH]6)C=C5)C=C4)cc2)s1
REMARK SMILES IDX 27 1 25 2 26 3 14 4 13 5 11 6 12 7 10 9 7 10 8 11 96 12 9 13
REMARK SMILES IDX 6 14 5 15 2 16 1 17 3 18 4 19 15 21 16 22 17 23 24 24 18 25
REMARK SMILES IDX 22 26 23 27 19 28 21 29 20 30 28 31 29 32 30 33 31 34 32 35
REMARK SMILES IDX 33 36 34 37 95 38 35 39 94 40 36 41 37 42 38 43 88 44 39 45
REMARK SMILES IDX 93 46 87 47 89 48 40 49 92 50 86 51 85 52 41 54 73 55 53 56
REMARK SMILES IDX 72 57 54 58 57 59 71 60 90 61 55 62 56 63 70 65 91 66 58 67
REMARK SMILES IDX 42 68 43 69 51 70 44 71 45 72 49 73 52 74 46 75 47 76 50 77
REMARK SMILES IDX 48 78 74 79 75 80 83 81 76 82 77 83 81 84 84 85 78 86 79 87
REMARK SMILES IDX 82 88 80 89 59 90 60 91 68 92 61 93 62 94 66 95 69 96 63 97
REMARK SMILES IDX 64 98 67 99 65 100
REMARK H PARENT 13 8 4 20 89 53 57 64
REMARK Flexibility Score: inf
ROOT
ATOM      1  O   UNL A   1      33.347  27.546  26.476  1.00  0.00    -0.461 OA
ENDROOT
BRANCH   1   2
ATOM      2  C   UNL A   1      33.602  26.736  25.409  1.00  0.00     0.329 C 
ATOM      3  O   UNL A   1      33.386  27.065  24.245  1.00  0.00    -0.250 OA
BRANCH   2   4
ATOM      4  C   UNL A   1      34.173  25.335  25.774  1.00  0.00     0.196 C 
BRANCH   4   5
ATOM      5  N   UNL A   1      33.370  24.390  26.560  1.00  0.00    -0.338 N 
ATOM      6  C   UNL A   1      32.009  24.137  26.608  1.00  0.00     0.262 C 
ATOM      7  O   UNL A   1      31.659  23.392  27.527  1.00  0.00    -0.268 OA
ATOM      8  H   UNL A   1      33.901  23.828  27.170  1.00  0.00     0.164 HD
BRANCH   6   9
ATOM      9  C   UNL A   1      31.055  24.544  25.574  1.00  0.00     0.093 A 
ATOM     10  C   UNL A   1      29.882  26.063  24.044  1.00  0.00     0.078 A 
ATOM     11  C   UNL A   1      30.298  24.923  23.381  1.00  0.00     0.030 A 
ATOM     12  S   UNL A   1      29.764  25.660  25.730  1.00  0.00    -0.121 S 
ATOM     13  C   UNL A   1      30.999  24.041  24.277  1.00  0.00     0.027 A 
BRANCH  10  14
ATOM     14  C   UNL A   1      29.678  27.399  23.478  1.00  0.00    -0.053 C 
ATOM     15  C   UNL A   1      29.186  28.506  22.994  1.00  0.00    -0.063 C 
BRANCH  15  16
ATOM     16  C   UNL A   1      28.613  29.796  22.429  1.00  0.00     0.120 C 
ATOM     17  C   UNL A   1      29.171  30.923  23.429  1.00  0.00     0.056 C 
ATOM     18  C   UNL A   1      28.102  30.824  20.958  1.00  0.00     0.056 C 
BRANCH  16  19
ATOM     19  O   UNL A   1      30.108  30.456  21.733  1.00  0.00    -0.378 OA
ATOM     20  H   UNL A   1      30.538  31.035  22.382  1.00  0.00     0.212 HD
ENDBRANCH  16  19
ENDBRANCH  15  16
ENDBRANCH  10  14
ENDBRANCH   6   9
ENDBRANCH   4   5
BRANCH   4  21
ATOM     21  C   UNL A   1      34.657  24.639  24.477  1.00  0.00     0.070 C 
BRANCH  21  22
ATOM     22  C   UNL A   1      35.354  23.331  24.687  1.00  0.00    -0.037 C 
ATOM     23  C   UNL A   1      34.837  22.105  24.610  1.00  0.00     0.001 A 
ATOM     24  C   UNL A   1      36.793  23.276  25.092  1.00  0.00     0.174 C 
ATOM     25  C   UNL A   1      33.550  21.550  24.333  1.00  0.00     0.010 A 
ATOM     26  C   UNL A   1      35.986  21.253  24.952  1.00  0.00     0.065 A 
ATOM     27  N   UNL A   1      37.110  21.838  25.232  1.00  0.00    -0.280 NA
ATOM     28  C   UNL A   1      33.403  20.214  24.352  1.00  0.00     0.001 A 
ATOM     29  C   UNL A   1      35.750  19.794  24.939  1.00  0.00     0.028 A 
ATOM     30  C   UNL A   1      34.523  19.334  24.642  1.00  0.00     0.002 A 
ENDBRANCH  21  22
ENDBRANCH   4  21
ENDBRANCH   2   4
ENDBRANCH   1   2
BRANCH   1  31
ATOM     31  C   UNL A   1      33.035  28.916  26.106  1.00  0.00     0.274 C 
BRANCH  31  32
ATOM     32  C   UNL A   1      33.249  29.893  27.267  1.00  0.00     0.275 C 
BRANCH  32  33
ATOM     33  O   UNL A   1      34.497  30.568  27.081  1.00  0.00    -0.458 OA
BRANCH  33  34
ATOM     34  C   UNL A   1      35.026  31.046  28.242  1.00  0.00     0.338 C 
ATOM     35  O   UNL A   1      34.522  31.767  29.046  1.00  0.00    -0.246 OA
BRANCH  34  36
ATOM     36  C   UNL A   1      36.122  30.109  28.538  1.00  0.00     0.060 A 
ATOM     37  C   UNL A   1      36.405  29.567  29.806  1.00  0.00     0.016 A 
ATOM     38  C   UNL A   1      37.000  29.990  27.484  1.00  0.00     0.016 A 
ATOM     39  C   UNL A   1      37.641  28.963  30.044  1.00  0.00     0.010 A 
ATOM     40  C   UNL A   1      38.179  29.362  27.731  1.00  0.00     0.010 A 
ATOM     41  C   UNL A   1      38.528  28.890  28.989  1.00  0.00    -0.014 A 
BRANCH  41  42
ATOM     42  C   UNL A   1      39.864  28.309  29.044  1.00  0.00     0.031 A 
ATOM     43  C   UNL A   1      39.722  26.474  28.167  1.00  0.00     0.074 A 
ATOM     44  C   UNL A   1      40.982  29.529  29.351  1.00  0.00     0.049 A 
ATOM     45  N   UNL A   1      40.493  25.242  28.450  1.00  0.00    -0.248 NA
ATOM     46  C   UNL A   1      40.031  26.040  26.571  1.00  0.00     0.031 C 
ATOM     47  C   UNL A   1      40.793  30.975  29.803  1.00  0.00     0.029 A 
ATOM     48  N   UNL A   1      42.629  29.809  29.248  1.00  0.00    -0.354 N 
ATOM     49  C   UNL A   1      41.979  24.986  27.623  1.00  0.00     0.074 A 
ATOM     50  C   UNL A   1      41.230  25.321  26.356  1.00  0.00     0.031 C 
ATOM     51  C   UNL A   1      41.883  31.844  29.706  1.00  0.00     0.029 A 
ATOM     52  C   UNL A   1      43.165  31.257  29.264  1.00  0.00     0.049 A 
ATOM     53  H   UNL A   1      43.255  29.051  29.179  1.00  0.00     0.167 HD
ATOM     54  C   UNL A   1      43.581  25.157  28.117  1.00  0.00     0.037 A 
ATOM     55  C   UNL A   1      44.506  31.861  29.324  1.00  0.00     0.037 A 
ATOM     56  C   UNL A   1      44.329  25.730  29.670  1.00  0.00     0.049 A 
ATOM     57  C   UNL A   1      45.430  31.000  30.112  1.00  0.00     0.074 A 
ATOM     58  C   UNL A   1      44.569  25.134  30.964  1.00  0.00     0.029 A 
ATOM     59  N   UNL A   1      45.059  27.022  29.990  1.00  0.00    -0.354 N 
ATOM     60  N   UNL A   1      45.330  30.863  31.397  1.00  0.00    -0.248 NA
ATOM     61  C   UNL A   1      46.611  30.328  29.558  1.00  0.00     0.031 C 
ATOM     62  C   UNL A   1      44.877  26.084  32.029  1.00  0.00     0.029 A 
ATOM     63  C   UNL A   1      45.056  27.334  31.492  1.00  0.00     0.049 A 
ATOM     64  H   UNL A   1      45.486  27.594  29.313  1.00  0.00     0.167 HD
ATOM     65  C   UNL A   1      45.887  29.633  31.587  1.00  0.00     0.074 A 
ATOM     66  C   UNL A   1      46.853  29.456  30.539  1.00  0.00     0.031 C 
ATOM     67  C   UNL A   1      45.082  28.709  32.151  1.00  0.00     0.037 A 
BRANCH  54  68
ATOM     68  C   UNL A   1      44.894  24.524  27.547  1.00  0.00     0.064 A 
ATOM     69  C   UNL A   1      45.614  25.377  26.635  1.00  0.00     0.173 A 
ATOM     70  C   UNL A   1      44.932  23.165  27.220  1.00  0.00     0.173 A 
ATOM     71  F   UNL A   1      45.589  26.711  26.809  1.00  0.00    -0.203 F 
ATOM     72  C   UNL A   1      46.132  24.923  25.408  1.00  0.00     0.198 A 
ATOM     73  C   UNL A   1      45.588  22.698  26.057  1.00  0.00     0.198 A 
ATOM     74  F   UNL A   1      44.211  22.291  27.935  1.00  0.00    -0.203 F 
ATOM     75  F   UNL A   1      46.511  25.798  24.461  1.00  0.00    -0.200 F 
ATOM     76  C   UNL A   1      46.135  23.574  25.129  1.00  0.00     0.200 A 
ATOM     77  F   UNL A   1      45.597  21.385  25.783  1.00  0.00    -0.200 F 
ATOM     78  F   UNL A   1      46.616  23.125  23.959  1.00  0.00    -0.200 F 
ENDBRANCH  54  68
BRANCH  55  79
ATOM     79  C   UNL A   1      45.435  33.230  29.046  1.00  0.00     0.064 A 
ATOM     80  C   UNL A   1      46.156  33.520  27.804  1.00  0.00     0.173 A 
ATOM     81  C   UNL A   1      45.148  34.420  29.743  1.00  0.00     0.173 A 
ATOM     82  F   UNL A   1      46.525  32.532  26.973  1.00  0.00    -0.203 F 
ATOM     83  C   UNL A   1      46.467  34.834  27.318  1.00  0.00     0.198 A 
ATOM     84  C   UNL A   1      45.466  35.734  29.256  1.00  0.00     0.198 A 
ATOM     85  F   UNL A   1      44.457  34.347  30.885  1.00  0.00    -0.203 F 
ATOM     86  F   UNL A   1      47.053  35.013  26.119  1.00  0.00    -0.200 F 
ATOM     87  C   UNL A   1      46.095  35.944  28.039  1.00  0.00     0.200 A 
ATOM     88  F   UNL A   1      45.080  36.812  29.956  1.00  0.00    -0.200 F 
ATOM     89  F   UNL A   1      46.295  37.185  27.558  1.00  0.00    -0.200 F 
ENDBRANCH  55  79
BRANCH  67  90
ATOM     90  C   UNL A   1      44.280  29.401  33.399  1.00  0.00     0.064 A 
ATOM     91  C   UNL A   1      44.860  29.686  34.689  1.00  0.00     0.173 A 
ATOM     92  C   UNL A   1      42.868  29.411  33.456  1.00  0.00     0.173 A 
ATOM     93  F   UNL A   1      46.187  29.715  34.844  1.00  0.00    -0.203 F 
ATOM     94  C   UNL A   1      44.126  29.897  35.886  1.00  0.00     0.198 A 
ATOM     95  C   UNL A   1      42.126  29.689  34.647  1.00  0.00     0.198 A 
ATOM     96  F   UNL A   1      42.162  29.090  32.365  1.00  0.00    -0.203 F 
ATOM     97  F   UNL A   1      44.761  30.045  37.065  1.00  0.00    -0.200 F 
ATOM     98  C   UNL A   1      42.752  29.915  35.862  1.00  0.00     0.200 A 
ATOM     99  F   UNL A   1      40.784  29.696  34.618  1.00  0.00    -0.200 F 
ATOM    100  F   UNL A   1      42.045  30.130  36.986  1.00  0.00    -0.200 F 
ENDBRANCH  67  90
ENDBRANCH  41  42
ENDBRANCH  34  36
ENDBRANCH  33  34
ENDBRANCH  32  33
ENDBRANCH  31  32
ENDBRANCH   1  31
TORSDOF 18
ENDMDL
