MODEL 1
REMARK VINA RESULT:     -11.9      0.000      0.000
REMARK SMILES O=C(OCCOC(=O)c1ccc(-c2ccncc2)cn1)c1ccc(-c2c3nc(c(-c4c(F)c(F)c(F)c(F)c4F)c4ccc([nH]4)c(-c4c(F)c(F)c(F)c(F)c4F)c4nc(c(-c5c(F)c(F)c(F)c(F)c5F)c5ccc2[nH]5)C=C4)C=C3)cc1
REMARK SMILES IDX 4 1 3 2 2 3 1 4 21 5 22 6 83 7 23 8 82 9 24 10 25 11 26 12
REMARK SMILES IDX 76 13 27 14 81 15 75 16 77 17 28 18 80 19 74 20 73 21 29 23
REMARK SMILES IDX 61 24 41 25 60 26 42 27 45 28 59 29 78 30 43 31 44 32 58 34
REMARK SMILES IDX 79 35 46 36 30 37 31 38 39 39 32 40 33 41 37 42 40 43 34 44
REMARK SMILES IDX 35 45 38 46 36 47 62 48 63 49 71 50 64 51 65 52 69 53 72 54
REMARK SMILES IDX 66 55 67 56 70 57 68 58 47 59 48 60 56 61 49 62 50 63 54 64
REMARK SMILES IDX 57 65 51 66 52 67 55 68 53 69 5 70 6 71 7 72 8 73 9 74 10 75
REMARK SMILES IDX 20 76 11 77 19 78 12 79 13 80 14 81 18 82 15 83 17 84 16 85
REMARK H PARENT 77 22 45 33
REMARK Flexibility Score: inf
ROOT
ATOM      1  C   UNL A   1      43.811  21.692  25.480  1.00  0.00     0.275 C 
ENDROOT
BRANCH   1   2
ATOM      2  O   UNL A   1      43.351  22.897  24.848  1.00  0.00    -0.458 OA
BRANCH   2   3
ATOM      3  C   UNL A   1      43.892  24.135  24.967  1.00  0.00     0.338 C 
ATOM      4  O   UNL A   1      44.915  24.423  24.350  1.00  0.00    -0.246 OA
BRANCH   3   5
ATOM      5  C   UNL A   1      43.399  25.106  25.987  1.00  0.00     0.060 A 
ATOM      6  C   UNL A   1      43.960  26.357  26.257  1.00  0.00     0.016 A 
ATOM      7  C   UNL A   1      42.326  24.675  26.782  1.00  0.00     0.016 A 
ATOM      8  C   UNL A   1      43.416  27.193  27.238  1.00  0.00     0.010 A 
ATOM      9  C   UNL A   1      41.788  25.501  27.772  1.00  0.00     0.010 A 
ATOM     10  C   UNL A   1      42.326  26.772  28.001  1.00  0.00    -0.014 A 
BRANCH  10  11
ATOM     11  C   UNL A   1      41.839  27.597  29.129  1.00  0.00     0.031 A 
ATOM     12  C   UNL A   1      42.516  27.473  30.459  1.00  0.00     0.074 A 
ATOM     13  C   UNL A   1      40.818  28.458  28.964  1.00  0.00     0.049 A 
ATOM     14  N   UNL A   1      42.267  28.106  31.575  1.00  0.00    -0.248 NA
ATOM     15  C   UNL A   1      43.642  26.528  30.535  1.00  0.00     0.031 C 
ATOM     16  C   UNL A   1      40.135  28.721  27.702  1.00  0.00     0.029 A 
ATOM     17  N   UNL A   1      40.160  29.253  29.868  1.00  0.00    -0.354 N 
ATOM     18  C   UNL A   1      43.238  27.678  32.468  1.00  0.00     0.074 A 
ATOM     19  C   UNL A   1      44.026  26.669  31.794  1.00  0.00     0.031 C 
ATOM     20  C   UNL A   1      39.100  29.548  27.922  1.00  0.00     0.029 A 
ATOM     21  C   UNL A   1      39.060  29.886  29.341  1.00  0.00     0.049 A 
ATOM     22  H   UNL A   1      40.447  29.359  30.803  1.00  0.00     0.167 HD
ATOM     23  C   UNL A   1      43.478  28.124  33.723  1.00  0.00     0.037 A 
ATOM     24  C   UNL A   1      38.124  30.643  29.943  1.00  0.00     0.037 A 
ATOM     25  C   UNL A   1      42.668  29.101  34.395  1.00  0.00     0.049 A 
ATOM     26  C   UNL A   1      38.304  30.991  31.397  1.00  0.00     0.074 A 
ATOM     27  C   UNL A   1      42.823  29.631  35.663  1.00  0.00     0.029 A 
ATOM     28  N   UNL A   1      41.529  29.681  33.853  1.00  0.00    -0.354 N 
ATOM     29  N   UNL A   1      39.273  30.646  32.211  1.00  0.00    -0.248 NA
ATOM     30  C   UNL A   1      37.292  31.864  32.005  1.00  0.00     0.031 C 
ATOM     31  C   UNL A   1      41.750  30.497  35.905  1.00  0.00     0.029 A 
ATOM     32  C   UNL A   1      40.952  30.539  34.773  1.00  0.00     0.049 A 
ATOM     33  H   UNL A   1      41.183  29.508  32.947  1.00  0.00     0.167 HD
ATOM     34  C   UNL A   1      39.019  31.302  33.407  1.00  0.00     0.074 A 
ATOM     35  C   UNL A   1      37.796  32.056  33.216  1.00  0.00     0.031 C 
ATOM     36  C   UNL A   1      39.744  31.296  34.553  1.00  0.00     0.037 A 
BRANCH  23  37
ATOM     37  C   UNL A   1      44.667  27.545  34.426  1.00  0.00     0.064 A 
ATOM     38  C   UNL A   1      44.552  26.391  35.218  1.00  0.00     0.173 A 
ATOM     39  C   UNL A   1      45.923  28.158  34.335  1.00  0.00     0.173 A 
ATOM     40  F   UNL A   1      43.364  25.781  35.352  1.00  0.00    -0.203 F 
ATOM     41  C   UNL A   1      45.645  25.893  35.921  1.00  0.00     0.198 A 
ATOM     42  C   UNL A   1      47.021  27.644  35.021  1.00  0.00     0.198 A 
ATOM     43  F   UNL A   1      46.083  29.265  33.594  1.00  0.00    -0.203 F 
ATOM     44  F   UNL A   1      45.498  24.826  36.717  1.00  0.00    -0.200 F 
ATOM     45  C   UNL A   1      46.878  26.519  35.820  1.00  0.00     0.200 A 
ATOM     46  F   UNL A   1      48.213  28.246  34.921  1.00  0.00    -0.200 F 
ATOM     47  F   UNL A   1      47.928  26.045  36.506  1.00  0.00    -0.200 F 
ENDBRANCH  23  37
BRANCH  24  48
ATOM     48  C   UNL A   1      36.948  31.131  29.176  1.00  0.00     0.064 A 
ATOM     49  C   UNL A   1      36.848  32.464  28.759  1.00  0.00     0.173 A 
ATOM     50  C   UNL A   1      35.889  30.266  28.855  1.00  0.00     0.173 A 
ATOM     51  F   UNL A   1      37.829  33.331  29.050  1.00  0.00    -0.203 F 
ATOM     52  C   UNL A   1      35.723  32.923  28.073  1.00  0.00     0.198 A 
ATOM     53  C   UNL A   1      34.774  30.721  28.153  1.00  0.00     0.198 A 
ATOM     54  F   UNL A   1      35.939  28.976  29.215  1.00  0.00    -0.203 F 
ATOM     55  F   UNL A   1      35.637  34.212  27.718  1.00  0.00    -0.200 F 
ATOM     56  C   UNL A   1      34.689  32.051  27.768  1.00  0.00     0.200 A 
ATOM     57  F   UNL A   1      33.785  29.870  27.847  1.00  0.00    -0.200 F 
ATOM     58  F   UNL A   1      33.609  32.491  27.109  1.00  0.00    -0.200 F 
ENDBRANCH  24  48
BRANCH  36  59
ATOM     59  C   UNL A   1      39.268  32.175  35.670  1.00  0.00     0.064 A 
ATOM     60  C   UNL A   1      38.425  31.694  36.679  1.00  0.00     0.173 A 
ATOM     61  C   UNL A   1      39.710  33.505  35.755  1.00  0.00     0.173 A 
ATOM     62  F   UNL A   1      37.962  30.435  36.629  1.00  0.00    -0.203 F 
ATOM     63  C   UNL A   1      38.026  32.518  37.728  1.00  0.00     0.198 A 
ATOM     64  C   UNL A   1      39.332  34.316  36.820  1.00  0.00     0.198 A 
ATOM     65  F   UNL A   1      40.521  34.010  34.814  1.00  0.00    -0.203 F 
ATOM     66  F   UNL A   1      37.187  32.050  38.663  1.00  0.00    -0.200 F 
ATOM     67  C   UNL A   1      38.487  33.824  37.802  1.00  0.00     0.200 A 
ATOM     68  F   UNL A   1      39.789  35.574  36.896  1.00  0.00    -0.200 F 
ATOM     69  F   UNL A   1      38.112  34.611  38.820  1.00  0.00    -0.200 F 
ENDBRANCH  36  59
ENDBRANCH  10  11
ENDBRANCH   3   5
ENDBRANCH   2   3
ENDBRANCH   1   2
BRANCH   1  70
ATOM     70  C   UNL A   1      42.708  20.891  26.178  1.00  0.00     0.275 C 
BRANCH  70  71
ATOM     71  O   UNL A   1      41.387  21.249  25.746  1.00  0.00    -0.457 OA
BRANCH  71  72
ATOM     72  C   UNL A   1      40.485  21.429  26.754  1.00  0.00     0.357 C 
ATOM     73  O   UNL A   1      40.640  21.128  27.926  1.00  0.00    -0.244 OA
BRANCH  72  74
ATOM     74  C   UNL A   1      39.277  22.105  26.210  1.00  0.00     0.148 A 
ATOM     75  C   UNL A   1      38.980  23.409  26.574  1.00  0.00     0.037 A 
ATOM     76  N   UNL A   1      38.506  21.372  25.371  1.00  0.00    -0.249 NA
ATOM     77  C   UNL A   1      37.804  23.979  26.076  1.00  0.00     0.013 A 
ATOM     78  C   UNL A   1      37.362  21.951  24.928  1.00  0.00     0.120 A 
ATOM     79  C   UNL A   1      36.939  23.237  25.260  1.00  0.00     0.000 A 
BRANCH  79  80
ATOM     80  C   UNL A   1      35.647  23.779  24.813  1.00  0.00    -0.014 A 
ATOM     81  C   UNL A   1      34.835  24.522  25.676  1.00  0.00     0.029 A 
ATOM     82  C   UNL A   1      35.169  23.551  23.516  1.00  0.00     0.029 A 
ATOM     83  C   UNL A   1      33.615  24.996  25.217  1.00  0.00     0.111 A 
ATOM     84  C   UNL A   1      33.929  24.054  23.149  1.00  0.00     0.111 A 
ATOM     85  N   UNL A   1      33.146  24.778  23.971  1.00  0.00    -0.265 NA
ENDBRANCH  79  80
ENDBRANCH  72  74
ENDBRANCH  71  72
ENDBRANCH  70  71
ENDBRANCH   1  70
TORSDOF 12
ENDMDL
MODEL 2
REMARK VINA RESULT:     -11.8      4.584      9.536
REMARK SMILES O=C(OCCOC(=O)c1ccc(-c2ccncc2)cn1)c1ccc(-c2c3nc(c(-c4c(F)c(F)c(F)c(F)c4F)c4ccc([nH]4)c(-c4c(F)c(F)c(F)c(F)c4F)c4nc(c(-c5c(F)c(F)c(F)c(F)c5F)c5ccc2[nH]5)C=C4)C=C3)cc1
REMARK SMILES IDX 4 1 3 2 2 3 1 4 21 5 22 6 83 7 23 8 82 9 24 10 25 11 26 12
REMARK SMILES IDX 76 13 27 14 81 15 75 16 77 17 28 18 80 19 74 20 73 21 29 23
REMARK SMILES IDX 61 24 41 25 60 26 42 27 45 28 59 29 78 30 43 31 44 32 58 34
REMARK SMILES IDX 79 35 46 36 30 37 31 38 39 39 32 40 33 41 37 42 40 43 34 44
REMARK SMILES IDX 35 45 38 46 36 47 62 48 63 49 71 50 64 51 65 52 69 53 72 54
REMARK SMILES IDX 66 55 67 56 70 57 68 58 47 59 48 60 56 61 49 62 50 63 54 64
REMARK SMILES IDX 57 65 51 66 52 67 55 68 53 69 5 70 6 71 7 72 8 73 9 74 10 75
REMARK SMILES IDX 20 76 11 77 19 78 12 79 13 80 14 81 18 82 15 83 17 84 16 85
REMARK H PARENT 77 22 45 33
REMARK Flexibility Score: inf
ROOT
ATOM      1  C   UNL A   1      42.567  18.425  26.585  1.00  0.00     0.275 C 
ENDROOT
BRANCH   1   2
ATOM      2  O   UNL A   1      41.450  18.962  25.858  1.00  0.00    -0.458 OA
BRANCH   2   3
ATOM      3  C   UNL A   1      40.653  19.991  26.236  1.00  0.00     0.338 C 
ATOM      4  O   UNL A   1      39.460  19.989  25.940  1.00  0.00    -0.246 OA
BRANCH   3   5
ATOM      5  C   UNL A   1      41.219  21.237  26.830  1.00  0.00     0.060 A 
ATOM      6  C   UNL A   1      41.309  21.519  28.196  1.00  0.00     0.016 A 
ATOM      7  C   UNL A   1      41.620  22.229  25.921  1.00  0.00     0.016 A 
ATOM      8  C   UNL A   1      41.860  22.723  28.648  1.00  0.00     0.010 A 
ATOM      9  C   UNL A   1      42.159  23.438  26.368  1.00  0.00     0.010 A 
ATOM     10  C   UNL A   1      42.289  23.690  27.737  1.00  0.00    -0.014 A 
BRANCH  10  11
ATOM     11  C   UNL A   1      42.744  25.015  28.213  1.00  0.00     0.031 A 
ATOM     12  C   UNL A   1      41.742  26.123  28.326  1.00  0.00     0.074 A 
ATOM     13  C   UNL A   1      44.028  25.224  28.555  1.00  0.00     0.049 A 
ATOM     14  N   UNL A   1      41.914  27.354  28.732  1.00  0.00    -0.248 NA
ATOM     15  C   UNL A   1      40.356  25.793  27.959  1.00  0.00     0.031 C 
ATOM     16  C   UNL A   1      45.073  24.204  28.561  1.00  0.00     0.029 A 
ATOM     17  N   UNL A   1      44.681  26.368  28.940  1.00  0.00    -0.354 N 
ATOM     18  C   UNL A   1      40.651  27.927  28.721  1.00  0.00     0.074 A 
ATOM     19  C   UNL A   1      39.737  26.940  28.188  1.00  0.00     0.031 C 
ATOM     20  C   UNL A   1      46.252  24.781  28.847  1.00  0.00     0.029 A 
ATOM     21  C   UNL A   1      46.040  26.208  29.062  1.00  0.00     0.049 A 
ATOM     22  H   UNL A   1      44.220  27.220  29.113  1.00  0.00     0.167 HD
ATOM     23  C   UNL A   1      40.283  29.151  29.163  1.00  0.00     0.037 A 
ATOM     24  C   UNL A   1      47.001  27.118  29.309  1.00  0.00     0.037 A 
ATOM     25  C   UNL A   1      41.203  30.136  29.659  1.00  0.00     0.049 A 
ATOM     26  C   UNL A   1      46.591  28.532  29.626  1.00  0.00     0.074 A 
ATOM     27  C   UNL A   1      40.939  31.406  30.138  1.00  0.00     0.029 A 
ATOM     28  N   UNL A   1      42.580  29.962  29.716  1.00  0.00    -0.354 N 
ATOM     29  N   UNL A   1      45.385  29.042  29.693  1.00  0.00    -0.248 NA
ATOM     30  C   UNL A   1      47.664  29.483  29.944  1.00  0.00     0.031 C 
ATOM     31  C   UNL A   1      42.160  32.018  30.442  1.00  0.00     0.029 A 
ATOM     32  C   UNL A   1      43.182  31.114  30.192  1.00  0.00     0.049 A 
ATOM     33  H   UNL A   1      43.057  29.141  29.457  1.00  0.00     0.167 HD
ATOM     34  C   UNL A   1      45.548  30.355  30.113  1.00  0.00     0.074 A 
ATOM     35  C   UNL A   1      46.973  30.565  30.274  1.00  0.00     0.031 C 
ATOM     36  C   UNL A   1      44.602  31.293  30.363  1.00  0.00     0.037 A 
BRANCH  23  37
ATOM     37  C   UNL A   1      38.819  29.469  29.120  1.00  0.00     0.064 A 
ATOM     38  C   UNL A   1      38.050  29.506  30.294  1.00  0.00     0.173 A 
ATOM     39  C   UNL A   1      38.172  29.710  27.902  1.00  0.00     0.173 A 
ATOM     40  F   UNL A   1      38.621  29.261  31.484  1.00  0.00    -0.203 F 
ATOM     41  C   UNL A   1      36.678  29.738  30.245  1.00  0.00     0.198 A 
ATOM     42  C   UNL A   1      36.804  29.966  27.857  1.00  0.00     0.198 A 
ATOM     43  F   UNL A   1      38.863  29.682  26.752  1.00  0.00    -0.203 F 
ATOM     44  F   UNL A   1      35.954  29.710  31.371  1.00  0.00    -0.200 F 
ATOM     45  C   UNL A   1      36.057  29.970  29.026  1.00  0.00     0.200 A 
ATOM     46  F   UNL A   1      36.205  30.193  26.681  1.00  0.00    -0.200 F 
ATOM     47  F   UNL A   1      34.735  30.183  28.978  1.00  0.00    -0.200 F 
ENDBRANCH  23  37
BRANCH  24  48
ATOM     48  C   UNL A   1      48.433  26.721  29.278  1.00  0.00     0.064 A 
ATOM     49  C   UNL A   1      49.240  26.981  28.163  1.00  0.00     0.173 A 
ATOM     50  C   UNL A   1      49.020  26.057  30.367  1.00  0.00     0.173 A 
ATOM     51  F   UNL A   1      48.724  27.603  27.094  1.00  0.00    -0.203 F 
ATOM     52  C   UNL A   1      50.573  26.571  28.127  1.00  0.00     0.198 A 
ATOM     53  C   UNL A   1      50.357  25.665  30.337  1.00  0.00     0.198 A 
ATOM     54  F   UNL A   1      48.299  25.797  31.466  1.00  0.00    -0.203 F 
ATOM     55  F   UNL A   1      51.312  26.800  27.033  1.00  0.00    -0.200 F 
ATOM     56  C   UNL A   1      51.131  25.915  29.214  1.00  0.00     0.200 A 
ATOM     57  F   UNL A   1      50.895  25.046  31.397  1.00  0.00    -0.200 F 
ATOM     58  F   UNL A   1      52.411  25.521  29.179  1.00  0.00    -0.200 F 
ENDBRANCH  24  48
BRANCH  36  59
ATOM     59  C   UNL A   1      45.072  32.615  30.893  1.00  0.00     0.064 A 
ATOM     60  C   UNL A   1      45.360  33.690  30.042  1.00  0.00     0.173 A 
ATOM     61  C   UNL A   1      45.181  32.820  32.277  1.00  0.00     0.173 A 
ATOM     62  F   UNL A   1      45.288  33.536  28.711  1.00  0.00    -0.203 F 
ATOM     63  C   UNL A   1      45.757  34.921  30.558  1.00  0.00     0.198 A 
ATOM     64  C   UNL A   1      45.550  34.058  32.789  1.00  0.00     0.198 A 
ATOM     65  F   UNL A   1      44.912  31.821  33.131  1.00  0.00    -0.203 F 
ATOM     66  F   UNL A   1      46.067  35.925  29.726  1.00  0.00    -0.200 F 
ATOM     67  C   UNL A   1      45.843  35.106  31.929  1.00  0.00     0.200 A 
ATOM     68  F   UNL A   1      45.620  34.239  34.115  1.00  0.00    -0.200 F 
ATOM     69  F   UNL A   1      46.213  36.296  32.424  1.00  0.00    -0.200 F 
ENDBRANCH  36  59
ENDBRANCH  10  11
ENDBRANCH   3   5
ENDBRANCH   2   3
ENDBRANCH   1   2
BRANCH   1  70
ATOM     70  C   UNL A   1      43.844  18.282  25.753  1.00  0.00     0.275 C 
BRANCH  70  71
ATOM     71  O   UNL A   1      43.836  19.077  24.558  1.00  0.00    -0.457 OA
BRANCH  71  72
ATOM     72  C   UNL A   1      45.066  19.492  24.138  1.00  0.00     0.357 C 
ATOM     73  O   UNL A   1      45.929  18.796  23.628  1.00  0.00    -0.244 OA
BRANCH  72  74
ATOM     74  C   UNL A   1      45.185  20.957  24.358  1.00  0.00     0.148 A 
ATOM     75  C   UNL A   1      45.976  21.451  25.384  1.00  0.00     0.037 A 
ATOM     76  N   UNL A   1      44.476  21.750  23.517  1.00  0.00    -0.249 NA
ATOM     77  C   UNL A   1      46.010  22.834  25.581  1.00  0.00     0.013 A 
ATOM     78  C   UNL A   1      44.516  23.085  23.756  1.00  0.00     0.120 A 
ATOM     79  C   UNL A   1      45.240  23.690  24.782  1.00  0.00     0.000 A 
BRANCH  79  80
ATOM     80  C   UNL A   1      45.179  25.137  25.039  1.00  0.00    -0.014 A 
ATOM     81  C   UNL A   1      43.956  25.815  25.076  1.00  0.00     0.029 A 
ATOM     82  C   UNL A   1      46.342  25.895  25.229  1.00  0.00     0.029 A 
ATOM     83  C   UNL A   1      43.949  27.184  25.300  1.00  0.00     0.111 A 
ATOM     84  C   UNL A   1      46.236  27.263  25.435  1.00  0.00     0.111 A 
ATOM     85  N   UNL A   1      45.063  27.921  25.482  1.00  0.00    -0.265 NA
ENDBRANCH  79  80
ENDBRANCH  72  74
ENDBRANCH  71  72
ENDBRANCH  70  71
ENDBRANCH   1  70
TORSDOF 12
ENDMDL
MODEL 3
REMARK VINA RESULT:     -11.7      0.164      1.657
REMARK SMILES O=C(OCCOC(=O)c1ccc(-c2ccncc2)cn1)c1ccc(-c2c3nc(c(-c4c(F)c(F)c(F)c(F)c4F)c4ccc([nH]4)c(-c4c(F)c(F)c(F)c(F)c4F)c4nc(c(-c5c(F)c(F)c(F)c(F)c5F)c5ccc2[nH]5)C=C4)C=C3)cc1
REMARK SMILES IDX 4 1 3 2 2 3 1 4 21 5 22 6 83 7 23 8 82 9 24 10 25 11 26 12
REMARK SMILES IDX 76 13 27 14 81 15 75 16 77 17 28 18 80 19 74 20 73 21 29 23
REMARK SMILES IDX 61 24 41 25 60 26 42 27 45 28 59 29 78 30 43 31 44 32 58 34
REMARK SMILES IDX 79 35 46 36 30 37 31 38 39 39 32 40 33 41 37 42 40 43 34 44
REMARK SMILES IDX 35 45 38 46 36 47 62 48 63 49 71 50 64 51 65 52 69 53 72 54
REMARK SMILES IDX 66 55 67 56 70 57 68 58 47 59 48 60 56 61 49 62 50 63 54 64
REMARK SMILES IDX 57 65 51 66 52 67 55 68 53 69 5 70 6 71 7 72 8 73 9 74 10 75
REMARK SMILES IDX 20 76 11 77 19 78 12 79 13 80 14 81 18 82 15 83 17 84 16 85
REMARK H PARENT 77 22 45 33
REMARK Flexibility Score: inf
ROOT
ATOM      1  C   UNL A   1      43.903  21.824  25.314  1.00  0.00     0.275 C 
ENDROOT
BRANCH   1   2
ATOM      2  O   UNL A   1      43.506  23.093  24.771  1.00  0.00    -0.458 OA
BRANCH   2   3
ATOM      3  C   UNL A   1      44.094  24.294  24.997  1.00  0.00     0.338 C 
ATOM      4  O   UNL A   1      45.176  24.557  24.478  1.00  0.00    -0.246 OA
BRANCH   3   5
ATOM      5  C   UNL A   1      43.567  25.239  26.023  1.00  0.00     0.060 A 
ATOM      6  C   UNL A   1      44.080  26.510  26.299  1.00  0.00     0.016 A 
ATOM      7  C   UNL A   1      42.513  24.763  26.819  1.00  0.00     0.016 A 
ATOM      8  C   UNL A   1      43.507  27.318  27.286  1.00  0.00     0.010 A 
ATOM      9  C   UNL A   1      41.946  25.562  27.815  1.00  0.00     0.010 A 
ATOM     10  C   UNL A   1      42.436  26.851  28.050  1.00  0.00    -0.014 A 
BRANCH  10  11
ATOM     11  C   UNL A   1      41.921  27.651  29.184  1.00  0.00     0.031 A 
ATOM     12  C   UNL A   1      42.592  27.528  30.517  1.00  0.00     0.074 A 
ATOM     13  C   UNL A   1      40.880  28.488  29.022  1.00  0.00     0.049 A 
ATOM     14  N   UNL A   1      42.319  28.141  31.639  1.00  0.00    -0.248 NA
ATOM     15  C   UNL A   1      43.741  26.610  30.590  1.00  0.00     0.031 C 
ATOM     16  C   UNL A   1      40.199  28.749  27.758  1.00  0.00     0.029 A 
ATOM     17  N   UNL A   1      40.196  29.255  29.930  1.00  0.00    -0.354 N 
ATOM     18  C   UNL A   1      43.295  27.727  32.533  1.00  0.00     0.074 A 
ATOM     19  C   UNL A   1      44.112  26.746  31.853  1.00  0.00     0.031 C 
ATOM     20  C   UNL A   1      39.142  29.547  27.980  1.00  0.00     0.029 A 
ATOM     21  C   UNL A   1      39.084  29.867  29.402  1.00  0.00     0.049 A 
ATOM     22  H   UNL A   1      40.474  29.357  30.869  1.00  0.00     0.167 HD
ATOM     23  C   UNL A   1      43.514  28.164  33.795  1.00  0.00     0.037 A 
ATOM     24  C   UNL A   1      38.125  30.593  30.007  1.00  0.00     0.037 A 
ATOM     25  C   UNL A   1      42.676  29.112  34.473  1.00  0.00     0.049 A 
ATOM     26  C   UNL A   1      38.287  30.928  31.466  1.00  0.00     0.074 A 
ATOM     27  C   UNL A   1      42.809  29.631  35.748  1.00  0.00     0.029 A 
ATOM     28  N   UNL A   1      41.526  29.670  33.930  1.00  0.00    -0.354 N 
ATOM     29  N   UNL A   1      39.258  30.597  32.283  1.00  0.00    -0.248 NA
ATOM     30  C   UNL A   1      37.249  31.768  32.077  1.00  0.00     0.031 C 
ATOM     31  C   UNL A   1      41.713  30.466  35.993  1.00  0.00     0.029 A 
ATOM     32  C   UNL A   1      40.921  30.502  34.856  1.00  0.00     0.049 A 
ATOM     33  H   UNL A   1      41.191  29.499  33.020  1.00  0.00     0.167 HD
ATOM     34  C   UNL A   1      38.980  31.233  33.485  1.00  0.00     0.074 A 
ATOM     35  C   UNL A   1      37.740  31.959  33.294  1.00  0.00     0.031 C 
ATOM     36  C   UNL A   1      39.697  31.231  34.636  1.00  0.00     0.037 A 
BRANCH  23  37
ATOM     37  C   UNL A   1      44.713  27.607  34.500  1.00  0.00     0.064 A 
ATOM     38  C   UNL A   1      45.967  28.232  34.406  1.00  0.00     0.173 A 
ATOM     39  C   UNL A   1      44.621  26.428  35.250  1.00  0.00     0.173 A 
ATOM     40  F   UNL A   1      46.109  29.353  33.681  1.00  0.00    -0.203 F 
ATOM     41  C   UNL A   1      47.091  27.677  35.009  1.00  0.00     0.198 A 
ATOM     42  C   UNL A   1      45.743  25.887  35.873  1.00  0.00     0.198 A 
ATOM     43  F   UNL A   1      43.446  25.790  35.367  1.00  0.00    -0.203 F 
ATOM     44  F   UNL A   1      48.288  28.259  34.857  1.00  0.00    -0.200 F 
ATOM     45  C   UNL A   1      46.978  26.506  35.744  1.00  0.00     0.200 A 
ATOM     46  F   UNL A   1      45.633  24.757  36.585  1.00  0.00    -0.200 F 
ATOM     47  F   UNL A   1      48.063  25.966  36.316  1.00  0.00    -0.200 F 
ENDBRANCH  23  37
BRANCH  24  48
ATOM     48  C   UNL A   1      36.942  31.060  29.237  1.00  0.00     0.064 A 
ATOM     49  C   UNL A   1      35.897  30.189  28.904  1.00  0.00     0.173 A 
ATOM     50  C   UNL A   1      36.844  32.393  28.806  1.00  0.00     0.173 A 
ATOM     51  F   UNL A   1      35.949  28.905  29.284  1.00  0.00    -0.203 F 
ATOM     52  C   UNL A   1      34.809  30.626  28.148  1.00  0.00     0.198 A 
ATOM     53  C   UNL A   1      35.747  32.832  28.067  1.00  0.00     0.198 A 
ATOM     54  F   UNL A   1      37.808  33.273  29.110  1.00  0.00    -0.203 F 
ATOM     55  F   UNL A   1      33.840  29.763  27.812  1.00  0.00    -0.200 F 
ATOM     56  C   UNL A   1      34.734  31.947  27.732  1.00  0.00     0.200 A 
ATOM     57  F   UNL A   1      35.672  34.114  27.682  1.00  0.00    -0.200 F 
ATOM     58  F   UNL A   1      33.688  32.366  27.006  1.00  0.00    -0.200 F 
ENDBRANCH  24  48
BRANCH  36  59
ATOM     59  C   UNL A   1      39.191  32.085  35.759  1.00  0.00     0.064 A 
ATOM     60  C   UNL A   1      38.351  31.572  36.755  1.00  0.00     0.173 A 
ATOM     61  C   UNL A   1      39.601  33.423  35.865  1.00  0.00     0.173 A 
ATOM     62  F   UNL A   1      37.918  30.303  36.686  1.00  0.00    -0.203 F 
ATOM     63  C   UNL A   1      37.925  32.373  37.811  1.00  0.00     0.198 A 
ATOM     64  C   UNL A   1      39.196  34.213  36.936  1.00  0.00     0.198 A 
ATOM     65  F   UNL A   1      40.408  33.959  34.936  1.00  0.00    -0.203 F 
ATOM     66  F   UNL A   1      37.090  31.874  38.733  1.00  0.00    -0.200 F 
ATOM     67  C   UNL A   1      38.355  33.688  37.905  1.00  0.00     0.200 A 
ATOM     68  F   UNL A   1      39.623  35.479  37.032  1.00  0.00    -0.200 F 
ATOM     69  F   UNL A   1      37.953  34.453  38.930  1.00  0.00    -0.200 F 
ENDBRANCH  36  59
ENDBRANCH  10  11
ENDBRANCH   3   5
ENDBRANCH   2   3
ENDBRANCH   1   2
BRANCH   1  70
ATOM     70  C   UNL A   1      42.813  21.122  26.128  1.00  0.00     0.275 C 
BRANCH  70  71
ATOM     71  O   UNL A   1      41.484  21.434  25.685  1.00  0.00    -0.457 OA
BRANCH  71  72
ATOM     72  C   UNL A   1      40.527  21.367  26.655  1.00  0.00     0.357 C 
ATOM     73  O   UNL A   1      40.651  20.864  27.760  1.00  0.00    -0.244 OA
BRANCH  72  74
ATOM     74  C   UNL A   1      39.298  22.053  26.174  1.00  0.00     0.148 A 
ATOM     75  C   UNL A   1      39.048  23.370  26.527  1.00  0.00     0.037 A 
ATOM     76  N   UNL A   1      38.462  21.316  25.402  1.00  0.00    -0.249 NA
ATOM     77  C   UNL A   1      37.853  23.951  26.092  1.00  0.00     0.013 A 
ATOM     78  C   UNL A   1      37.303  21.908  25.021  1.00  0.00     0.120 A 
ATOM     79  C   UNL A   1      36.925  23.208  25.350  1.00  0.00     0.000 A 
BRANCH  79  80
ATOM     80  C   UNL A   1      35.616  23.765  24.974  1.00  0.00    -0.014 A 
ATOM     81  C   UNL A   1      34.775  24.348  25.928  1.00  0.00     0.029 A 
ATOM     82  C   UNL A   1      35.151  23.709  23.654  1.00  0.00     0.029 A 
ATOM     83  C   UNL A   1      33.541  24.841  25.530  1.00  0.00     0.111 A 
ATOM     84  C   UNL A   1      33.896  24.218  23.352  1.00  0.00     0.111 A 
ATOM     85  N   UNL A   1      33.085  24.789  24.262  1.00  0.00    -0.265 NA
ENDBRANCH  79  80
ENDBRANCH  72  74
ENDBRANCH  71  72
ENDBRANCH  70  71
ENDBRANCH   1  70
TORSDOF 12
ENDMDL
