MODEL 1
REMARK VINA RESULT:     -12.8      0.000      0.000
REMARK SMILES O=C(Cn1ncc2ccccc2c1=O)N[C@@H]1C[NH2+][C@H](C(=O)OCCOC(=O)c2ccc(-c3c4nc(c(-c5c(F)c(F)c(F)c(F)c5F)c5ccc([nH]5)c(-c5c(F)c(F)c(F)c(F)c5F)c5nc(c(-c6c(F)c(F)c(F)c(F)c6F)c6ccc3[nH]6)C=C5)C=C4)cc2)C1
REMARK SMILES IDX 23 1 22 2 20 3 21 4 19 5 16 6 17 7 91 8 18 9 15 12 1 13 2 14
REMARK SMILES IDX 3 16 4 17 5 18 13 19 6 20 12 21 14 22 7 23 11 24 8 25 10 26
REMARK SMILES IDX 9 27 24 28 25 29 26 30 27 31 28 32 29 33 90 34 30 35 89 36
REMARK SMILES IDX 31 37 32 38 33 39 83 40 34 41 88 42 82 43 84 44 35 45 87 46
REMARK SMILES IDX 81 47 80 48 36 50 68 51 48 52 67 53 49 54 52 55 66 56 85 57
REMARK SMILES IDX 50 58 51 59 65 61 86 62 53 63 37 64 38 65 46 66 39 67 40 68
REMARK SMILES IDX 44 69 47 70 41 71 42 72 45 73 43 74 69 75 70 76 78 77 71 78
REMARK SMILES IDX 72 79 76 80 79 81 73 82 74 83 77 84 75 85 54 86 55 87 63 88
REMARK SMILES IDX 56 89 57 90 61 91 64 92 58 93 59 94 62 95 60 96
REMARK H PARENT 18 10 18 11 15 15 84 49 52 60
REMARK Flexibility Score: inf
ROOT
ATOM      1  C   UNL A   1      31.126  29.590  24.540  1.00  0.00     0.274 C 
ENDROOT
BRANCH   1   2
ATOM      2  O   UNL A   1      31.068  28.203  24.147  1.00  0.00    -0.458 OA
BRANCH   2   3
ATOM      3  C   UNL A   1      30.572  27.948  22.902  1.00  0.00     0.365 C 
ATOM      4  O   UNL A   1      29.601  28.525  22.421  1.00  0.00    -0.245 OA
BRANCH   3   5
ATOM      5  C   UNL A   1      31.300  26.769  22.221  1.00  0.00     0.295 C 
ATOM      6  C   UNL A   1      33.004  25.143  22.731  1.00  0.00     0.143 C 
ATOM      7  C   UNL A   1      33.652  26.483  22.420  1.00  0.00     0.286 C 
ATOM      8  C   UNL A   1      31.589  25.556  23.110  1.00  0.00     0.108 C 
ATOM      9  N   UNL A   1      32.617  27.209  21.658  1.00  0.00    -0.333 N 
ATOM     10  H   UNL A   1      32.676  26.970  20.668  1.00  0.00     0.347 HD
ATOM     11  H   UNL A   1      32.737  28.218  21.738  1.00  0.00     0.347 HD
BRANCH   6  12
ATOM     12  N   UNL A   1      33.648  24.280  23.698  1.00  0.00    -0.346 N 
ATOM     13  O   UNL A   1      33.491  25.588  25.581  1.00  0.00    -0.273 OA
ATOM     14  C   UNL A   1      33.736  24.507  25.054  1.00  0.00     0.242 C 
ATOM     15  H   UNL A   1      34.062  23.455  23.355  1.00  0.00     0.164 HD
BRANCH  14  16
ATOM     16  C   UNL A   1      34.286  23.339  25.876  1.00  0.00     0.248 C 
BRANCH  16  17
ATOM     17  N   UNL A   1      33.864  22.024  25.386  1.00  0.00    -0.220 N 
ATOM     18  N   UNL A   1      32.547  21.915  24.992  1.00  0.00    -0.177 NA
ATOM     19  C   UNL A   1      34.789  20.980  25.341  1.00  0.00     0.275 A 
ATOM     20  C   UNL A   1      32.153  20.797  24.471  1.00  0.00     0.142 A 
ATOM     21  C   UNL A   1      34.316  19.714  24.751  1.00  0.00     0.050 A 
ATOM     22  O   UNL A   1      35.942  21.059  25.752  1.00  0.00    -0.267 OA
ATOM     23  C   UNL A   1      33.009  19.631  24.297  1.00  0.00     0.007 A 
ATOM     24  C   UNL A   1      35.162  18.608  24.628  1.00  0.00     0.014 A 
ATOM     25  C   UNL A   1      32.521  18.465  23.704  1.00  0.00     0.010 A 
ATOM     26  C   UNL A   1      34.685  17.434  24.038  1.00  0.00     0.001 A 
ATOM     27  C   UNL A   1      33.370  17.365  23.572  1.00  0.00     0.001 A 
ENDBRANCH  16  17
ENDBRANCH  14  16
ENDBRANCH   6  12
ENDBRANCH   3   5
ENDBRANCH   2   3
ENDBRANCH   1   2
BRANCH   1  28
ATOM     28  C   UNL A   1      31.709  29.761  25.944  1.00  0.00     0.275 C 
BRANCH  28  29
ATOM     29  O   UNL A   1      33.015  30.363  25.893  1.00  0.00    -0.458 OA
BRANCH  29  30
ATOM     30  C   UNL A   1      33.261  31.246  26.890  1.00  0.00     0.338 C 
ATOM     31  O   UNL A   1      32.537  32.155  27.252  1.00  0.00    -0.246 OA
BRANCH  30  32
ATOM     32  C   UNL A   1      34.546  30.924  27.528  1.00  0.00     0.060 A 
ATOM     33  C   UNL A   1      35.475  31.927  27.797  1.00  0.00     0.016 A 
ATOM     34  C   UNL A   1      34.778  29.618  27.955  1.00  0.00     0.016 A 
ATOM     35  C   UNL A   1      36.650  31.605  28.486  1.00  0.00     0.010 A 
ATOM     36  C   UNL A   1      35.907  29.315  28.711  1.00  0.00     0.010 A 
ATOM     37  C   UNL A   1      36.872  30.297  28.958  1.00  0.00    -0.014 A 
BRANCH  37  38
ATOM     38  C   UNL A   1      38.119  29.939  29.684  1.00  0.00     0.031 A 
ATOM     39  C   UNL A   1      38.361  30.463  31.075  1.00  0.00     0.074 A 
ATOM     40  C   UNL A   1      39.051  29.173  29.085  1.00  0.00     0.049 A 
ATOM     41  N   UNL A   1      39.366  30.230  31.884  1.00  0.00    -0.248 NA
ATOM     42  C   UNL A   1      37.358  31.390  31.622  1.00  0.00     0.031 C 
ATOM     43  C   UNL A   1      38.978  28.673  27.713  1.00  0.00     0.029 A 
ATOM     44  N   UNL A   1      40.240  28.675  29.560  1.00  0.00    -0.354 N 
ATOM     45  C   UNL A   1      39.114  30.983  33.023  1.00  0.00     0.074 A 
ATOM     46  C   UNL A   1      37.902  31.731  32.780  1.00  0.00     0.031 C 
ATOM     47  C   UNL A   1      40.050  27.899  27.471  1.00  0.00     0.029 A 
ATOM     48  C   UNL A   1      40.891  27.863  28.665  1.00  0.00     0.049 A 
ATOM     49  H   UNL A   1      40.592  28.882  30.456  1.00  0.00     0.167 HD
ATOM     50  C   UNL A   1      39.811  31.022  34.184  1.00  0.00     0.037 A 
ATOM     51  C   UNL A   1      42.027  27.150  28.802  1.00  0.00     0.037 A 
ATOM     52  C   UNL A   1      40.999  30.255  34.442  1.00  0.00     0.049 A 
ATOM     53  C   UNL A   1      42.765  27.179  30.112  1.00  0.00     0.074 A 
ATOM     54  C   UNL A   1      41.739  30.174  35.608  1.00  0.00     0.029 A 
ATOM     55  N   UNL A   1      41.616  29.427  33.516  1.00  0.00    -0.354 N 
ATOM     56  N   UNL A   1      42.473  27.829  31.212  1.00  0.00    -0.248 NA
ATOM     57  C   UNL A   1      43.987  26.367  30.204  1.00  0.00     0.031 C 
ATOM     58  C   UNL A   1      42.821  29.319  35.379  1.00  0.00     0.029 A 
ATOM     59  C   UNL A   1      42.735  28.840  34.082  1.00  0.00     0.049 A 
ATOM     60  H   UNL A   1      41.305  29.280  32.593  1.00  0.00     0.167 HD
ATOM     61  C   UNL A   1      43.458  27.492  32.130  1.00  0.00     0.074 A 
ATOM     62  C   UNL A   1      44.350  26.567  31.464  1.00  0.00     0.031 C 
ATOM     63  C   UNL A   1      43.609  27.916  33.408  1.00  0.00     0.037 A 
BRANCH  50  64
ATOM     64  C   UNL A   1      39.283  31.900  35.279  1.00  0.00     0.064 A 
ATOM     65  C   UNL A   1      38.491  31.375  36.312  1.00  0.00     0.173 A 
ATOM     66  C   UNL A   1      39.608  33.264  35.329  1.00  0.00     0.173 A 
ATOM     67  F   UNL A   1      38.148  30.078  36.306  1.00  0.00    -0.203 F 
ATOM     68  C   UNL A   1      38.022  32.189  37.340  1.00  0.00     0.198 A 
ATOM     69  C   UNL A   1      39.159  34.068  36.373  1.00  0.00     0.198 A 
ATOM     70  F   UNL A   1      40.371  33.814  34.372  1.00  0.00    -0.203 F 
ATOM     71  F   UNL A   1      37.234  31.673  38.293  1.00  0.00    -0.200 F 
ATOM     72  C   UNL A   1      38.362  33.532  37.373  1.00  0.00     0.200 A 
ATOM     73  F   UNL A   1      39.499  35.365  36.412  1.00  0.00    -0.200 F 
ATOM     74  F   UNL A   1      37.919  34.311  38.370  1.00  0.00    -0.200 F 
ENDBRANCH  50  64
BRANCH  51  75
ATOM     75  C   UNL A   1      42.490  26.287  27.686  1.00  0.00     0.064 A 
ATOM     76  C   UNL A   1      43.475  26.741  26.797  1.00  0.00     0.173 A 
ATOM     77  C   UNL A   1      41.981  24.995  27.496  1.00  0.00     0.173 A 
ATOM     78  F   UNL A   1      43.975  27.978  26.927  1.00  0.00    -0.203 F 
ATOM     79  C   UNL A   1      43.926  25.936  25.753  1.00  0.00     0.198 A 
ATOM     80  C   UNL A   1      42.448  24.185  26.464  1.00  0.00     0.198 A 
ATOM     81  F   UNL A   1      41.037  24.518  28.320  1.00  0.00    -0.203 F 
ATOM     82  F   UNL A   1      44.845  26.406  24.898  1.00  0.00    -0.200 F 
ATOM     83  C   UNL A   1      43.419  24.657  25.591  1.00  0.00     0.200 A 
ATOM     84  F   UNL A   1      41.961  22.945  26.314  1.00  0.00    -0.200 F 
ATOM     85  F   UNL A   1      43.857  23.882  24.590  1.00  0.00    -0.200 F 
ENDBRANCH  51  75
BRANCH  63  86
ATOM     86  C   UNL A   1      44.775  27.381  34.183  1.00  0.00     0.064 A 
ATOM     87  C   UNL A   1      44.697  26.157  34.862  1.00  0.00     0.173 A 
ATOM     88  C   UNL A   1      46.004  28.057  34.178  1.00  0.00     0.173 A 
ATOM     89  F   UNL A   1      43.539  25.480  34.903  1.00  0.00    -0.203 F 
ATOM     90  C   UNL A   1      45.807  25.633  35.518  1.00  0.00     0.198 A 
ATOM     91  C   UNL A   1      47.118  27.518  34.815  1.00  0.00     0.198 A 
ATOM     92  F   UNL A   1      46.129  29.227  33.535  1.00  0.00    -0.203 F 
ATOM     93  F   UNL A   1      45.705  24.473  36.182  1.00  0.00    -0.200 F 
ATOM     94  C   UNL A   1      47.019  26.308  35.485  1.00  0.00     0.200 A 
ATOM     95  F   UNL A   1      48.291  28.166  34.772  1.00  0.00    -0.200 F 
ATOM     96  F   UNL A   1      48.090  25.793  36.104  1.00  0.00    -0.200 F 
ENDBRANCH  63  86
ENDBRANCH  37  38
ENDBRANCH  30  32
ENDBRANCH  29  30
ENDBRANCH  28  29
ENDBRANCH   1  28
TORSDOF 14
ENDMDL
MODEL 2
REMARK VINA RESULT:     -12.7      1.098      2.403
REMARK SMILES O=C(Cn1ncc2ccccc2c1=O)N[C@@H]1C[NH2+][C@H](C(=O)OCCOC(=O)c2ccc(-c3c4nc(c(-c5c(F)c(F)c(F)c(F)c5F)c5ccc([nH]5)c(-c5c(F)c(F)c(F)c(F)c5F)c5nc(c(-c6c(F)c(F)c(F)c(F)c6F)c6ccc3[nH]6)C=C5)C=C4)cc2)C1
REMARK SMILES IDX 23 1 22 2 20 3 21 4 19 5 16 6 17 7 91 8 18 9 15 12 1 13 2 14
REMARK SMILES IDX 3 16 4 17 5 18 13 19 6 20 12 21 14 22 7 23 11 24 8 25 10 26
REMARK SMILES IDX 9 27 24 28 25 29 26 30 27 31 28 32 29 33 90 34 30 35 89 36
REMARK SMILES IDX 31 37 32 38 33 39 83 40 34 41 88 42 82 43 84 44 35 45 87 46
REMARK SMILES IDX 81 47 80 48 36 50 68 51 48 52 67 53 49 54 52 55 66 56 85 57
REMARK SMILES IDX 50 58 51 59 65 61 86 62 53 63 37 64 38 65 46 66 39 67 40 68
REMARK SMILES IDX 44 69 47 70 41 71 42 72 45 73 43 74 69 75 70 76 78 77 71 78
REMARK SMILES IDX 72 79 76 80 79 81 73 82 74 83 77 84 75 85 54 86 55 87 63 88
REMARK SMILES IDX 56 89 57 90 61 91 64 92 58 93 59 94 62 95 60 96
REMARK H PARENT 18 10 18 11 15 15 84 49 52 60
REMARK Flexibility Score: inf
ROOT
ATOM      1  C   UNL A   1      31.393  29.026  25.262  1.00  0.00     0.274 C 
ENDROOT
BRANCH   1   2
ATOM      2  O   UNL A   1      31.813  28.838  23.894  1.00  0.00    -0.458 OA
BRANCH   2   3
ATOM      3  C   UNL A   1      30.820  28.771  22.961  1.00  0.00     0.365 C 
ATOM      4  O   UNL A   1      30.105  29.720  22.654  1.00  0.00    -0.245 OA
BRANCH   3   5
ATOM      5  C   UNL A   1      30.625  27.336  22.427  1.00  0.00     0.295 C 
ATOM      6  C   UNL A   1      31.216  25.076  23.022  1.00  0.00     0.143 C 
ATOM      7  C   UNL A   1      32.415  25.771  22.395  1.00  0.00     0.286 C 
ATOM      8  C   UNL A   1      30.372  26.256  23.483  1.00  0.00     0.108 C 
ATOM      9  N   UNL A   1      31.821  26.891  21.642  1.00  0.00    -0.333 N 
ATOM     10  H   UNL A   1      31.538  26.580  20.712  1.00  0.00     0.347 HD
ATOM     11  H   UNL A   1      32.488  27.652  21.519  1.00  0.00     0.347 HD
BRANCH   6  12
ATOM     12  N   UNL A   1      31.460  24.085  24.048  1.00  0.00    -0.346 N 
ATOM     13  O   UNL A   1      31.783  22.219  22.748  1.00  0.00    -0.273 OA
ATOM     14  C   UNL A   1      31.839  22.777  23.839  1.00  0.00     0.242 C 
ATOM     15  H   UNL A   1      31.344  24.372  24.983  1.00  0.00     0.164 HD
BRANCH  14  16
ATOM     16  C   UNL A   1      32.232  22.003  25.098  1.00  0.00     0.248 C 
BRANCH  16  17
ATOM     17  N   UNL A   1      33.679  21.832  25.258  1.00  0.00    -0.220 N 
ATOM     18  N   UNL A   1      34.181  20.583  24.958  1.00  0.00    -0.177 NA
ATOM     19  C   UNL A   1      34.453  22.910  25.688  1.00  0.00     0.275 A 
ATOM     20  C   UNL A   1      35.463  20.411  25.001  1.00  0.00     0.142 A 
ATOM     21  C   UNL A   1      35.910  22.689  25.737  1.00  0.00     0.050 A 
ATOM     22  O   UNL A   1      33.998  24.002  26.016  1.00  0.00    -0.267 OA
ATOM     23  C   UNL A   1      36.414  21.450  25.372  1.00  0.00     0.007 A 
ATOM     24  C   UNL A   1      36.788  23.706  26.126  1.00  0.00     0.014 A 
ATOM     25  C   UNL A   1      37.788  21.199  25.371  1.00  0.00     0.010 A 
ATOM     26  C   UNL A   1      38.165  23.465  26.132  1.00  0.00     0.001 A 
ATOM     27  C   UNL A   1      38.664  22.217  25.751  1.00  0.00     0.001 A 
ENDBRANCH  16  17
ENDBRANCH  14  16
ENDBRANCH   6  12
ENDBRANCH   3   5
ENDBRANCH   2   3
ENDBRANCH   1   2
BRANCH   1  28
ATOM     28  C   UNL A   1      31.779  30.409  25.792  1.00  0.00     0.275 C 
BRANCH  28  29
ATOM     29  O   UNL A   1      33.179  30.467  26.116  1.00  0.00    -0.458 OA
BRANCH  29  30
ATOM     30  C   UNL A   1      33.494  31.375  27.071  1.00  0.00     0.338 C 
ATOM     31  O   UNL A   1      32.827  32.334  27.410  1.00  0.00    -0.246 OA
BRANCH  30  32
ATOM     32  C   UNL A   1      34.774  31.009  27.696  1.00  0.00     0.060 A 
ATOM     33  C   UNL A   1      35.720  31.986  27.999  1.00  0.00     0.016 A 
ATOM     34  C   UNL A   1      34.984  29.685  28.077  1.00  0.00     0.016 A 
ATOM     35  C   UNL A   1      36.890  31.621  28.674  1.00  0.00     0.010 A 
ATOM     36  C   UNL A   1      36.109  29.337  28.820  1.00  0.00     0.010 A 
ATOM     37  C   UNL A   1      37.090  30.294  29.101  1.00  0.00    -0.014 A 
BRANCH  37  38
ATOM     38  C   UNL A   1      38.331  29.890  29.812  1.00  0.00     0.031 A 
ATOM     39  C   UNL A   1      38.603  30.396  31.204  1.00  0.00     0.074 A 
ATOM     40  C   UNL A   1      39.231  29.098  29.200  1.00  0.00     0.049 A 
ATOM     41  N   UNL A   1      39.607  30.125  32.002  1.00  0.00    -0.248 NA
ATOM     42  C   UNL A   1      37.636  31.352  31.767  1.00  0.00     0.031 C 
ATOM     43  C   UNL A   1      39.130  28.610  27.825  1.00  0.00     0.029 A 
ATOM     44  N   UNL A   1      40.408  28.558  29.660  1.00  0.00    -0.354 N 
ATOM     45  C   UNL A   1      39.391  30.878  33.149  1.00  0.00     0.074 A 
ATOM     46  C   UNL A   1      38.202  31.667  32.922  1.00  0.00     0.031 C 
ATOM     47  C   UNL A   1      40.173  27.803  27.568  1.00  0.00     0.029 A 
ATOM     48  C   UNL A   1      41.024  27.731  28.754  1.00  0.00     0.049 A 
ATOM     49  H   UNL A   1      40.774  28.747  30.554  1.00  0.00     0.167 HD
ATOM     50  C   UNL A   1      40.100  30.886  34.302  1.00  0.00     0.037 A 
ATOM     51  C   UNL A   1      42.136  26.980  28.875  1.00  0.00     0.037 A 
ATOM     52  C   UNL A   1      41.264  30.079  34.544  1.00  0.00     0.049 A 
ATOM     53  C   UNL A   1      42.887  26.975  30.178  1.00  0.00     0.074 A 
ATOM     54  C   UNL A   1      42.012  29.966  35.703  1.00  0.00     0.029 A 
ATOM     55  N   UNL A   1      41.845  29.237  33.607  1.00  0.00    -0.354 N 
ATOM     56  N   UNL A   1      42.627  27.627  31.285  1.00  0.00    -0.248 NA
ATOM     57  C   UNL A   1      44.082  26.123  30.253  1.00  0.00     0.031 C 
ATOM     58  C   UNL A   1      43.063  29.077  35.458  1.00  0.00     0.029 A 
ATOM     59  C   UNL A   1      42.949  28.610  34.159  1.00  0.00     0.049 A 
ATOM     60  H   UNL A   1      41.520  29.106  32.687  1.00  0.00     0.167 HD
ATOM     61  C   UNL A   1      43.608  27.252  32.191  1.00  0.00     0.074 A 
ATOM     62  C   UNL A   1      44.464  26.302  31.511  1.00  0.00     0.031 C 
ATOM     63  C   UNL A   1      43.786  27.662  33.470  1.00  0.00     0.037 A 
BRANCH  50  64
ATOM     64  C   UNL A   1      39.611  31.774  35.409  1.00  0.00     0.064 A 
ATOM     65  C   UNL A   1      40.076  33.092  35.541  1.00  0.00     0.173 A 
ATOM     66  C   UNL A   1      38.639  31.326  36.315  1.00  0.00     0.173 A 
ATOM     67  F   UNL A   1      41.011  33.565  34.702  1.00  0.00    -0.203 F 
ATOM     68  C   UNL A   1      39.603  33.920  36.555  1.00  0.00     0.198 A 
ATOM     69  C   UNL A   1      38.149  32.166  37.311  1.00  0.00     0.198 A 
ATOM     70  F   UNL A   1      38.154  30.079  36.226  1.00  0.00    -0.203 F 
ATOM     71  F   UNL A   1      40.091  35.161  36.685  1.00  0.00    -0.200 F 
ATOM     72  C   UNL A   1      38.637  33.459  37.434  1.00  0.00     0.200 A 
ATOM     73  F   UNL A   1      37.204  31.725  38.153  1.00  0.00    -0.200 F 
ATOM     74  F   UNL A   1      38.174  34.262  38.403  1.00  0.00    -0.200 F 
ENDBRANCH  50  64
BRANCH  51  75
ATOM     75  C   UNL A   1      42.560  26.109  27.749  1.00  0.00     0.064 A 
ATOM     76  C   UNL A   1      43.561  26.531  26.862  1.00  0.00     0.173 A 
ATOM     77  C   UNL A   1      41.997  24.842  27.548  1.00  0.00     0.173 A 
ATOM     78  F   UNL A   1      44.112  27.745  27.002  1.00  0.00    -0.203 F 
ATOM     79  C   UNL A   1      43.975  25.719  25.809  1.00  0.00     0.198 A 
ATOM     80  C   UNL A   1      42.428  24.023  26.506  1.00  0.00     0.198 A 
ATOM     81  F   UNL A   1      41.037  24.395  28.370  1.00  0.00    -0.203 F 
ATOM     82  F   UNL A   1      44.910  26.159  24.955  1.00  0.00    -0.200 F 
ATOM     83  C   UNL A   1      43.415  24.463  25.635  1.00  0.00     0.200 A 
ATOM     84  F   UNL A   1      41.889  22.806  26.345  1.00  0.00    -0.200 F 
ATOM     85  F   UNL A   1      43.818  23.681  24.625  1.00  0.00    -0.200 F 
ENDBRANCH  51  75
BRANCH  63  86
ATOM     86  C   UNL A   1      44.940  27.083  34.231  1.00  0.00     0.064 A 
ATOM     87  C   UNL A   1      46.183  27.730  34.270  1.00  0.00     0.173 A 
ATOM     88  C   UNL A   1      44.778  25.916  34.992  1.00  0.00     0.173 A 
ATOM     89  F   UNL A   1      46.389  28.843  33.549  1.00  0.00    -0.203 F 
ATOM     90  C   UNL A   1      47.227  27.223  35.039  1.00  0.00     0.198 A 
ATOM     91  C   UNL A   1      45.816  25.426  35.778  1.00  0.00     0.198 A 
ATOM     92  F   UNL A   1      43.604  25.267  34.992  1.00  0.00    -0.203 F 
ATOM     93  F   UNL A   1      48.415  27.842  35.044  1.00  0.00    -0.200 F 
ATOM     94  C   UNL A   1      47.040  26.077  35.800  1.00  0.00     0.200 A 
ATOM     95  F   UNL A   1      45.630  24.326  36.522  1.00  0.00    -0.200 F 
ATOM     96  F   UNL A   1      48.041  25.601  36.551  1.00  0.00    -0.200 F 
ENDBRANCH  63  86
ENDBRANCH  37  38
ENDBRANCH  30  32
ENDBRANCH  29  30
ENDBRANCH  28  29
ENDBRANCH   1  28
TORSDOF 14
ENDMDL
MODEL 3
REMARK VINA RESULT:     -12.7      5.335     11.167
REMARK SMILES O=C(Cn1ncc2ccccc2c1=O)N[C@@H]1C[NH2+][C@H](C(=O)OCCOC(=O)c2ccc(-c3c4nc(c(-c5c(F)c(F)c(F)c(F)c5F)c5ccc([nH]5)c(-c5c(F)c(F)c(F)c(F)c5F)c5nc(c(-c6c(F)c(F)c(F)c(F)c6F)c6ccc3[nH]6)C=C5)C=C4)cc2)C1
REMARK SMILES IDX 23 1 22 2 20 3 21 4 19 5 16 6 17 7 91 8 18 9 15 12 1 13 2 14
REMARK SMILES IDX 3 16 4 17 5 18 13 19 6 20 12 21 14 22 7 23 11 24 8 25 10 26
REMARK SMILES IDX 9 27 24 28 25 29 26 30 27 31 28 32 29 33 90 34 30 35 89 36
REMARK SMILES IDX 31 37 32 38 33 39 83 40 34 41 88 42 82 43 84 44 35 45 87 46
REMARK SMILES IDX 81 47 80 48 36 50 68 51 48 52 67 53 49 54 52 55 66 56 85 57
REMARK SMILES IDX 50 58 51 59 65 61 86 62 53 63 37 64 38 65 46 66 39 67 40 68
REMARK SMILES IDX 44 69 47 70 41 71 42 72 45 73 43 74 69 75 70 76 78 77 71 78
REMARK SMILES IDX 72 79 76 80 79 81 73 82 74 83 77 84 75 85 54 86 55 87 63 88
REMARK SMILES IDX 56 89 57 90 61 91 64 92 58 93 59 94 62 95 60 96
REMARK H PARENT 18 10 18 11 15 15 84 49 52 60
REMARK Flexibility Score: inf
ROOT
ATOM      1  C   UNL A   1      42.294  19.118  26.519  1.00  0.00     0.274 C 
ENDROOT
BRANCH   1   2
ATOM      2  O   UNL A   1      41.239  19.775  25.787  1.00  0.00    -0.458 OA
BRANCH   2   3
ATOM      3  C   UNL A   1      41.064  21.104  26.042  1.00  0.00     0.365 C 
ATOM      4  O   UNL A   1      41.967  21.933  26.002  1.00  0.00    -0.245 OA
BRANCH   3   5
ATOM      5  C   UNL A   1      39.624  21.420  26.502  1.00  0.00     0.295 C 
ATOM      6  C   UNL A   1      37.710  22.681  25.756  1.00  0.00     0.143 C 
ATOM      7  C   UNL A   1      38.735  23.621  26.370  1.00  0.00     0.286 C 
ATOM      8  C   UNL A   1      38.564  21.472  25.398  1.00  0.00     0.108 C 
ATOM      9  N   UNL A   1      39.567  22.739  27.210  1.00  0.00    -0.333 N 
ATOM     10  H   UNL A   1      39.143  22.628  28.132  1.00  0.00     0.347 HD
ATOM     11  H   UNL A   1      40.499  23.127  27.347  1.00  0.00     0.347 HD
BRANCH   6  12
ATOM     12  N   UNL A   1      36.896  23.174  24.666  1.00  0.00    -0.346 N 
ATOM     13  O   UNL A   1      35.323  21.504  24.540  1.00  0.00    -0.273 OA
ATOM     14  C   UNL A   1      35.713  22.624  24.224  1.00  0.00     0.242 C 
ATOM     15  H   UNL A   1      37.217  23.978  24.197  1.00  0.00     0.164 HD
BRANCH  14  16
ATOM     16  C   UNL A   1      34.950  23.460  23.195  1.00  0.00     0.248 C 
BRANCH  16  17
ATOM     17  N   UNL A   1      34.291  24.638  23.764  1.00  0.00    -0.220 N 
ATOM     18  N   UNL A   1      34.297  24.734  25.140  1.00  0.00    -0.177 NA
ATOM     19  C   UNL A   1      33.712  25.580  22.911  1.00  0.00     0.275 A 
ATOM     20  C   UNL A   1      33.804  25.801  25.683  1.00  0.00     0.142 A 
ATOM     21  C   UNL A   1      33.150  26.782  23.552  1.00  0.00     0.050 A 
ATOM     22  O   UNL A   1      33.651  25.463  21.691  1.00  0.00    -0.267 OA
ATOM     23  C   UNL A   1      33.217  26.902  24.932  1.00  0.00     0.007 A 
ATOM     24  C   UNL A   1      32.569  27.806  22.797  1.00  0.00     0.014 A 
ATOM     25  C   UNL A   1      32.727  28.035  25.585  1.00  0.00     0.010 A 
ATOM     26  C   UNL A   1      32.073  28.943  23.439  1.00  0.00     0.001 A 
ATOM     27  C   UNL A   1      32.156  29.060  24.829  1.00  0.00     0.001 A 
ENDBRANCH  16  17
ENDBRANCH  14  16
ENDBRANCH   6  12
ENDBRANCH   3   5
ENDBRANCH   2   3
ENDBRANCH   1   2
BRANCH   1  28
ATOM     28  C   UNL A   1      43.298  18.439  25.585  1.00  0.00     0.275 C 
BRANCH  28  29
ATOM     29  O   UNL A   1      43.506  19.217  24.393  1.00  0.00    -0.458 OA
BRANCH  29  30
ATOM     30  C   UNL A   1      44.797  19.557  24.166  1.00  0.00     0.338 C 
ATOM     31  O   UNL A   1      45.650  18.865  23.644  1.00  0.00    -0.246 OA
BRANCH  30  32
ATOM     32  C   UNL A   1      45.028  20.939  24.612  1.00  0.00     0.060 A 
ATOM     33  C   UNL A   1      44.662  22.015  23.806  1.00  0.00     0.016 A 
ATOM     34  C   UNL A   1      45.522  21.160  25.896  1.00  0.00     0.016 A 
ATOM     35  C   UNL A   1      44.810  23.318  24.294  1.00  0.00     0.010 A 
ATOM     36  C   UNL A   1      45.593  22.451  26.411  1.00  0.00     0.010 A 
ATOM     37  C   UNL A   1      45.269  23.548  25.605  1.00  0.00    -0.014 A 
BRANCH  37  38
ATOM     38  C   UNL A   1      45.439  24.926  26.134  1.00  0.00     0.031 A 
ATOM     39  C   UNL A   1      46.783  25.603  26.064  1.00  0.00     0.074 A 
ATOM     40  C   UNL A   1      44.399  25.561  26.708  1.00  0.00     0.049 A 
ATOM     41  N   UNL A   1      47.121  26.813  26.434  1.00  0.00    -0.248 NA
ATOM     42  C   UNL A   1      47.902  24.807  25.533  1.00  0.00     0.031 C 
ATOM     43  C   UNL A   1      43.070  24.988  26.916  1.00  0.00     0.029 A 
ATOM     44  N   UNL A   1      44.298  26.834  27.216  1.00  0.00    -0.354 N 
ATOM     45  C   UNL A   1      48.483  26.917  26.185  1.00  0.00     0.074 A 
ATOM     46  C   UNL A   1      48.925  25.631  25.696  1.00  0.00     0.031 C 
ATOM     47  C   UNL A   1      42.271  25.920  27.462  1.00  0.00     0.029 A 
ATOM     48  C   UNL A   1      43.037  27.149  27.658  1.00  0.00     0.049 A 
ATOM     49  H   UNL A   1      45.057  27.459  27.259  1.00  0.00     0.167 HD
ATOM     50  C   UNL A   1      49.288  27.998  26.317  1.00  0.00     0.037 A 
ATOM     51  C   UNL A   1      42.548  28.308  28.143  1.00  0.00     0.037 A 
ATOM     52  C   UNL A   1      48.846  29.288  26.771  1.00  0.00     0.049 A 
ATOM     53  C   UNL A   1      43.451  29.506  28.247  1.00  0.00     0.074 A 
ATOM     54  C   UNL A   1      49.570  30.462  26.876  1.00  0.00     0.029 A 
ATOM     55  N   UNL A   1      47.555  29.572  27.190  1.00  0.00    -0.354 N 
ATOM     56  N   UNL A   1      44.717  29.617  27.929  1.00  0.00    -0.248 NA
ATOM     57  C   UNL A   1      42.854  30.744  28.768  1.00  0.00     0.031 C 
ATOM     58  C   UNL A   1      48.724  31.452  27.385  1.00  0.00     0.029 A 
ATOM     59  C   UNL A   1      47.464  30.902  27.565  1.00  0.00     0.049 A 
ATOM     60  H   UNL A   1      46.813  28.925  27.218  1.00  0.00     0.167 HD
ATOM     61  C   UNL A   1      45.065  30.935  28.191  1.00  0.00     0.074 A 
ATOM     62  C   UNL A   1      43.871  31.592  28.681  1.00  0.00     0.031 C 
ATOM     63  C   UNL A   1      46.267  31.542  28.044  1.00  0.00     0.037 A 
BRANCH  50  64
ATOM     64  C   UNL A   1      50.729  27.839  25.930  1.00  0.00     0.064 A 
ATOM     65  C   UNL A   1      51.711  27.548  26.889  1.00  0.00     0.173 A 
ATOM     66  C   UNL A   1      51.128  27.930  24.588  1.00  0.00     0.173 A 
ATOM     67  F   UNL A   1      51.381  27.458  28.187  1.00  0.00    -0.203 F 
ATOM     68  C   UNL A   1      53.043  27.380  26.523  1.00  0.00     0.198 A 
ATOM     69  C   UNL A   1      52.457  27.734  24.222  1.00  0.00     0.198 A 
ATOM     70  F   UNL A   1      50.227  28.196  23.630  1.00  0.00    -0.203 F 
ATOM     71  F   UNL A   1      53.969  27.141  27.462  1.00  0.00    -0.200 F 
ATOM     72  C   UNL A   1      53.414  27.465  25.191  1.00  0.00     0.200 A 
ATOM     73  F   UNL A   1      52.813  27.804  22.932  1.00  0.00    -0.200 F 
ATOM     74  F   UNL A   1      54.695  27.291  24.838  1.00  0.00    -0.200 F 
ENDBRANCH  50  64
BRANCH  51  75
ATOM     75  C   UNL A   1      41.109  28.407  28.495  1.00  0.00     0.064 A 
ATOM     76  C   UNL A   1      40.655  27.998  29.757  1.00  0.00     0.173 A 
ATOM     77  C   UNL A   1      40.166  28.926  27.596  1.00  0.00     0.173 A 
ATOM     78  F   UNL A   1      41.517  27.474  30.640  1.00  0.00    -0.203 F 
ATOM     79  C   UNL A   1      39.309  28.096  30.103  1.00  0.00     0.198 A 
ATOM     80  C   UNL A   1      38.825  29.042  27.952  1.00  0.00     0.198 A 
ATOM     81  F   UNL A   1      40.553  29.329  26.377  1.00  0.00    -0.203 F 
ATOM     82  F   UNL A   1      38.896  27.668  31.304  1.00  0.00    -0.200 F 
ATOM     83  C   UNL A   1      38.396  28.624  29.204  1.00  0.00     0.200 A 
ATOM     84  F   UNL A   1      37.945  29.560  27.083  1.00  0.00    -0.200 F 
ATOM     85  F   UNL A   1      37.102  28.723  29.540  1.00  0.00    -0.200 F 
ENDBRANCH  51  75
BRANCH  63  86
ATOM     86  C   UNL A   1      46.359  32.995  28.402  1.00  0.00     0.064 A 
ATOM     87  C   UNL A   1      46.075  33.995  27.463  1.00  0.00     0.173 A 
ATOM     88  C   UNL A   1      46.653  33.386  29.717  1.00  0.00     0.173 A 
ATOM     89  F   UNL A   1      45.800  33.669  26.190  1.00  0.00    -0.203 F 
ATOM     90  C   UNL A   1      46.092  35.339  27.825  1.00  0.00     0.198 A 
ATOM     91  C   UNL A   1      46.645  34.730  30.080  1.00  0.00     0.198 A 
ATOM     92  F   UNL A   1      46.923  32.464  30.652  1.00  0.00    -0.203 F 
ATOM     93  F   UNL A   1      45.842  36.282  26.906  1.00  0.00    -0.200 F 
ATOM     94  C   UNL A   1      46.367  35.705  29.135  1.00  0.00     0.200 A 
ATOM     95  F   UNL A   1      46.899  35.080  31.349  1.00  0.00    -0.200 F 
ATOM     96  F   UNL A   1      46.367  36.998  29.484  1.00  0.00    -0.200 F 
ENDBRANCH  63  86
ENDBRANCH  37  38
ENDBRANCH  30  32
ENDBRANCH  29  30
ENDBRANCH  28  29
ENDBRANCH   1  28
TORSDOF 14
ENDMDL
