MODEL 1
REMARK VINA RESULT:     -12.0      0.000      0.000
REMARK SMILES O=C(OCCOC(=O)c1n[nH]c2cc(Br)cc(Cl)c12)c1ccc(-c2c3nc(c(-c4c(F)c(F)c(F)c(F)c4F)c4ccc([nH]4)c(-c4c(F)c(F)c(F)c(F)c4F)c4nc(c(-c5c(F)c(F)c(F)c(F)c5F)c5ccc2[nH]5)C=C4)C=C3)cc1
REMARK SMILES IDX 4 1 3 2 2 3 1 4 20 5 21 6 82 7 22 8 81 9 23 10 24 11 25 12
REMARK SMILES IDX 75 13 26 14 80 15 74 16 76 17 27 18 79 19 73 20 72 21 28 23
REMARK SMILES IDX 60 24 40 25 59 26 41 27 44 28 58 29 77 30 42 31 43 32 57 34
REMARK SMILES IDX 78 35 45 36 29 37 30 38 38 39 31 40 32 41 36 42 39 43 33 44
REMARK SMILES IDX 34 45 37 46 35 47 61 48 62 49 70 50 63 51 64 52 68 53 71 54
REMARK SMILES IDX 65 55 66 56 69 57 67 58 46 59 47 60 55 61 48 62 49 63 53 64
REMARK SMILES IDX 56 65 50 66 51 67 54 68 52 69 5 70 6 71 7 72 8 73 9 74 10 75
REMARK SMILES IDX 19 76 11 77 12 78 17 79 13 81 16 82 18 83 14 84 15 85
REMARK H PARENT 76 22 44 33 11 80
REMARK Flexibility Score: inf
ROOT
ATOM      1  C   UNL A   1      39.968  20.377  26.126  1.00  0.00     0.275 C 
ENDROOT
BRANCH   1   2
ATOM      2  O   UNL A   1      40.067  21.602  26.878  1.00  0.00    -0.458 OA
BRANCH   2   3
ATOM      3  C   UNL A   1      39.486  22.764  26.511  1.00  0.00     0.338 C 
ATOM      4  O   UNL A   1      38.352  22.785  26.048  1.00  0.00    -0.246 OA
BRANCH   3   5
ATOM      5  C   UNL A   1      40.123  24.025  26.986  1.00  0.00     0.060 A 
ATOM      6  C   UNL A   1      41.087  24.115  28.001  1.00  0.00     0.016 A 
ATOM      7  C   UNL A   1      39.652  25.203  26.387  1.00  0.00     0.016 A 
ATOM      8  C   UNL A   1      41.438  25.343  28.532  1.00  0.00     0.010 A 
ATOM      9  C   UNL A   1      40.028  26.434  26.883  1.00  0.00     0.010 A 
ATOM     10  C   UNL A   1      40.834  26.481  28.017  1.00  0.00    -0.014 A 
BRANCH  10  11
ATOM     11  C   UNL A   1      41.017  27.745  28.708  1.00  0.00     0.031 A 
ATOM     12  C   UNL A   1      42.172  28.565  28.250  1.00  0.00     0.074 A 
ATOM     13  C   UNL A   1      40.056  28.139  29.571  1.00  0.00     0.049 A 
ATOM     14  N   UNL A   1      43.124  29.091  28.951  1.00  0.00    -0.248 NA
ATOM     15  C   UNL A   1      42.352  28.735  26.795  1.00  0.00     0.031 C 
ATOM     16  C   UNL A   1      38.785  27.467  29.878  1.00  0.00     0.029 A 
ATOM     17  N   UNL A   1      39.946  29.309  30.251  1.00  0.00    -0.354 N 
ATOM     18  C   UNL A   1      43.916  29.808  28.054  1.00  0.00     0.074 A 
ATOM     19  C   UNL A   1      43.480  29.439  26.733  1.00  0.00     0.031 C 
ATOM     20  C   UNL A   1      37.937  28.345  30.455  1.00  0.00     0.029 A 
ATOM     21  C   UNL A   1      38.651  29.581  30.693  1.00  0.00     0.049 A 
ATOM     22  H   UNL A   1      40.708  29.910  30.416  1.00  0.00     0.167 HD
ATOM     23  C   UNL A   1      44.732  30.819  28.460  1.00  0.00     0.037 A 
ATOM     24  C   UNL A   1      38.215  30.799  31.100  1.00  0.00     0.037 A 
ATOM     25  C   UNL A   1      45.011  30.749  29.866  1.00  0.00     0.049 A 
ATOM     26  C   UNL A   1      39.430  31.592  31.441  1.00  0.00     0.074 A 
ATOM     27  C   UNL A   1      45.674  29.839  30.666  1.00  0.00     0.029 A 
ATOM     28  N   UNL A   1      44.247  31.507  30.719  1.00  0.00    -0.354 N 
ATOM     29  N   UNL A   1      40.229  31.288  32.430  1.00  0.00    -0.248 NA
ATOM     30  C   UNL A   1      40.025  32.385  30.372  1.00  0.00     0.031 C 
ATOM     31  C   UNL A   1      44.888  29.756  31.852  1.00  0.00     0.029 A 
ATOM     32  C   UNL A   1      43.850  30.681  31.742  1.00  0.00     0.049 A 
ATOM     33  H   UNL A   1      44.026  32.461  30.617  1.00  0.00     0.167 HD
ATOM     34  C   UNL A   1      41.507  31.490  31.928  1.00  0.00     0.074 A 
ATOM     35  C   UNL A   1      41.316  32.201  30.664  1.00  0.00     0.031 C 
ATOM     36  C   UNL A   1      42.583  30.809  32.421  1.00  0.00     0.037 A 
BRANCH  23  37
ATOM     37  C   UNL A   1      45.008  32.049  27.640  1.00  0.00     0.064 A 
ATOM     38  C   UNL A   1      46.254  32.217  27.007  1.00  0.00     0.173 A 
ATOM     39  C   UNL A   1      44.185  33.196  27.691  1.00  0.00     0.173 A 
ATOM     40  F   UNL A   1      47.124  31.198  26.936  1.00  0.00    -0.203 F 
ATOM     41  C   UNL A   1      46.660  33.456  26.502  1.00  0.00     0.198 A 
ATOM     42  C   UNL A   1      44.573  34.416  27.142  1.00  0.00     0.198 A 
ATOM     43  F   UNL A   1      43.028  33.204  28.364  1.00  0.00    -0.203 F 
ATOM     44  F   UNL A   1      47.893  33.598  25.998  1.00  0.00    -0.200 F 
ATOM     45  C   UNL A   1      45.820  34.553  26.570  1.00  0.00     0.200 A 
ATOM     46  F   UNL A   1      43.752  35.472  27.239  1.00  0.00    -0.200 F 
ATOM     47  F   UNL A   1      46.226  35.752  26.132  1.00  0.00    -0.200 F 
ENDBRANCH  23  37
BRANCH  24  48
ATOM     48  C   UNL A   1      36.913  31.428  30.762  1.00  0.00     0.064 A 
ATOM     49  C   UNL A   1      36.037  31.864  31.768  1.00  0.00     0.173 A 
ATOM     50  C   UNL A   1      36.629  31.865  29.453  1.00  0.00     0.173 A 
ATOM     51  F   UNL A   1      36.266  31.533  33.048  1.00  0.00    -0.203 F 
ATOM     52  C   UNL A   1      34.952  32.702  31.483  1.00  0.00     0.198 A 
ATOM     53  C   UNL A   1      35.545  32.698  29.168  1.00  0.00     0.198 A 
ATOM     54  F   UNL A   1      37.452  31.575  28.435  1.00  0.00    -0.203 F 
ATOM     55  F   UNL A   1      34.169  33.146  32.476  1.00  0.00    -0.200 F 
ATOM     56  C   UNL A   1      34.714  33.126  30.185  1.00  0.00     0.200 A 
ATOM     57  F   UNL A   1      35.351  33.133  27.915  1.00  0.00    -0.200 F 
ATOM     58  F   UNL A   1      33.715  33.980  29.922  1.00  0.00    -0.200 F 
ENDBRANCH  24  48
BRANCH  36  59
ATOM     59  C   UNL A   1      42.376  29.946  33.636  1.00  0.00     0.064 A 
ATOM     60  C   UNL A   1      41.966  28.601  33.582  1.00  0.00     0.173 A 
ATOM     61  C   UNL A   1      42.775  30.441  34.883  1.00  0.00     0.173 A 
ATOM     62  F   UNL A   1      41.673  28.020  32.414  1.00  0.00    -0.203 F 
ATOM     63  C   UNL A   1      41.919  27.805  34.726  1.00  0.00     0.198 A 
ATOM     64  C   UNL A   1      42.762  29.635  36.019  1.00  0.00     0.198 A 
ATOM     65  F   UNL A   1      43.239  31.695  34.988  1.00  0.00    -0.203 F 
ATOM     66  F   UNL A   1      41.525  26.526  34.642  1.00  0.00    -0.200 F 
ATOM     67  C   UNL A   1      42.326  28.323  35.943  1.00  0.00     0.200 A 
ATOM     68  F   UNL A   1      43.210  30.124  37.184  1.00  0.00    -0.200 F 
ATOM     69  F   UNL A   1      42.329  27.547  37.038  1.00  0.00    -0.200 F 
ENDBRANCH  36  59
ENDBRANCH  10  11
ENDBRANCH   3   5
ENDBRANCH   2   3
ENDBRANCH   1   2
BRANCH   1  70
ATOM     70  C   UNL A   1      40.906  19.245  26.546  1.00  0.00     0.275 C 
BRANCH  70  71
ATOM     71  O   UNL A   1      41.779  18.831  25.480  1.00  0.00    -0.457 OA
BRANCH  71  72
ATOM     72  C   UNL A   1      43.122  18.846  25.752  1.00  0.00     0.359 C 
ATOM     73  O   UNL A   1      43.681  18.090  26.545  1.00  0.00    -0.244 OA
BRANCH  72  74
ATOM     74  C   UNL A   1      43.830  19.857  24.972  1.00  0.00     0.179 A 
ATOM     75  N   UNL A   1      44.348  19.578  23.759  1.00  0.00    -0.167 NA
ATOM     76  C   UNL A   1      44.090  21.208  25.344  1.00  0.00     0.053 A 
ATOM     77  N   UNL A   1      44.909  20.724  23.361  1.00  0.00    -0.277 N 
ATOM     78  C   UNL A   1      44.791  21.745  24.263  1.00  0.00     0.069 A 
ATOM     79  C   UNL A   1      43.857  22.048  26.447  1.00  0.00     0.054 A 
ATOM     80  H   UNL A   1      45.366  20.824  22.496  1.00  0.00     0.190 HD
ATOM     81  C   UNL A   1      45.254  23.066  24.227  1.00  0.00     0.044 A 
ATOM     82  C   UNL A   1      44.313  23.366  26.456  1.00  0.00     0.037 A 
ATOM     83  Cl  UNL A   1      43.028  21.386  27.784  1.00  0.00    -0.083 Cl
ATOM     84  C   UNL A   1      45.002  23.858  25.352  1.00  0.00     0.021 A 
ATOM     85  Br  UNL A   1      45.633  25.643  25.376  1.00  0.00    -0.051 Br
ENDBRANCH  72  74
ENDBRANCH  71  72
ENDBRANCH  70  71
ENDBRANCH   1  70
TORSDOF 11
ENDMDL
MODEL 2
REMARK VINA RESULT:     -11.9      4.690     11.297
REMARK SMILES O=C(OCCOC(=O)c1n[nH]c2cc(Br)cc(Cl)c12)c1ccc(-c2c3nc(c(-c4c(F)c(F)c(F)c(F)c4F)c4ccc([nH]4)c(-c4c(F)c(F)c(F)c(F)c4F)c4nc(c(-c5c(F)c(F)c(F)c(F)c5F)c5ccc2[nH]5)C=C4)C=C3)cc1
REMARK SMILES IDX 4 1 3 2 2 3 1 4 20 5 21 6 82 7 22 8 81 9 23 10 24 11 25 12
REMARK SMILES IDX 75 13 26 14 80 15 74 16 76 17 27 18 79 19 73 20 72 21 28 23
REMARK SMILES IDX 60 24 40 25 59 26 41 27 44 28 58 29 77 30 42 31 43 32 57 34
REMARK SMILES IDX 78 35 45 36 29 37 30 38 38 39 31 40 32 41 36 42 39 43 33 44
REMARK SMILES IDX 34 45 37 46 35 47 61 48 62 49 70 50 63 51 64 52 68 53 71 54
REMARK SMILES IDX 65 55 66 56 69 57 67 58 46 59 47 60 55 61 48 62 49 63 53 64
REMARK SMILES IDX 56 65 50 66 51 67 54 68 52 69 5 70 6 71 7 72 8 73 9 74 10 75
REMARK SMILES IDX 19 76 11 77 12 78 17 79 13 81 16 82 18 83 14 84 15 85
REMARK H PARENT 76 22 44 33 11 80
REMARK Flexibility Score: inf
ROOT
ATOM      1  C   UNL A   1      33.447  32.858  27.780  1.00  0.00     0.275 C 
ENDROOT
BRANCH   1   2
ATOM      2  O   UNL A   1      34.756  32.306  27.542  1.00  0.00    -0.458 OA
BRANCH   2   3
ATOM      3  C   UNL A   1      35.039  30.986  27.579  1.00  0.00     0.338 C 
ATOM      4  O   UNL A   1      34.457  30.194  26.849  1.00  0.00    -0.246 OA
BRANCH   3   5
ATOM      5  C   UNL A   1      36.287  30.577  28.284  1.00  0.00     0.060 A 
ATOM      6  C   UNL A   1      37.216  31.452  28.864  1.00  0.00     0.016 A 
ATOM      7  C   UNL A   1      36.550  29.199  28.295  1.00  0.00     0.016 A 
ATOM      8  C   UNL A   1      38.452  30.993  29.279  1.00  0.00     0.010 A 
ATOM      9  C   UNL A   1      37.765  28.727  28.745  1.00  0.00     0.010 A 
ATOM     10  C   UNL A   1      38.738  29.643  29.133  1.00  0.00    -0.014 A 
BRANCH  10  11
ATOM     11  C   UNL A   1      40.099  29.187  29.349  1.00  0.00     0.031 A 
ATOM     12  C   UNL A   1      40.481  28.959  30.770  1.00  0.00     0.074 A 
ATOM     13  C   UNL A   1      40.835  28.857  28.266  1.00  0.00     0.049 A 
ATOM     14  N   UNL A   1      41.503  29.416  31.420  1.00  0.00    -0.248 NA
ATOM     15  C   UNL A   1      39.537  28.203  31.615  1.00  0.00     0.031 C 
ATOM     16  C   UNL A   1      40.417  28.847  26.857  1.00  0.00     0.029 A 
ATOM     17  N   UNL A   1      42.079  28.314  28.211  1.00  0.00    -0.354 N 
ATOM     18  C   UNL A   1      41.431  28.859  32.696  1.00  0.00     0.074 A 
ATOM     19  C   UNL A   1      40.135  28.241  32.804  1.00  0.00     0.031 C 
ATOM     20  C   UNL A   1      41.272  28.089  26.136  1.00  0.00     0.029 A 
ATOM     21  C   UNL A   1      42.367  27.694  26.995  1.00  0.00     0.049 A 
ATOM     22  H   UNL A   1      42.718  28.355  28.959  1.00  0.00     0.167 HD
ATOM     23  C   UNL A   1      42.522  28.756  33.503  1.00  0.00     0.037 A 
ATOM     24  C   UNL A   1      43.383  26.818  26.799  1.00  0.00     0.037 A 
ATOM     25  C   UNL A   1      43.572  29.648  33.097  1.00  0.00     0.049 A 
ATOM     26  C   UNL A   1      44.353  27.037  27.909  1.00  0.00     0.074 A 
ATOM     27  C   UNL A   1      43.691  31.022  33.041  1.00  0.00     0.029 A 
ATOM     28  N   UNL A   1      44.568  29.155  32.291  1.00  0.00    -0.354 N 
ATOM     29  N   UNL A   1      45.027  28.147  28.061  1.00  0.00    -0.248 NA
ATOM     30  C   UNL A   1      44.169  26.242  29.117  1.00  0.00     0.031 C 
ATOM     31  C   UNL A   1      44.390  31.279  31.826  1.00  0.00     0.029 A 
ATOM     32  C   UNL A   1      44.731  30.050  31.262  1.00  0.00     0.049 A 
ATOM     33  H   UNL A   1      45.071  28.319  32.425  1.00  0.00     0.167 HD
ATOM     34  C   UNL A   1      44.999  28.395  29.426  1.00  0.00     0.074 A 
ATOM     35  C   UNL A   1      44.484  27.166  30.030  1.00  0.00     0.031 C 
ATOM     36  C   UNL A   1      45.106  29.662  29.923  1.00  0.00     0.037 A 
BRANCH  23  37
ATOM     37  C   UNL A   1      42.751  27.617  34.456  1.00  0.00     0.064 A 
ATOM     38  C   UNL A   1      43.294  26.403  33.996  1.00  0.00     0.173 A 
ATOM     39  C   UNL A   1      42.190  27.586  35.752  1.00  0.00     0.173 A 
ATOM     40  F   UNL A   1      43.821  26.316  32.765  1.00  0.00    -0.203 F 
ATOM     41  C   UNL A   1      43.239  25.235  34.763  1.00  0.00     0.198 A 
ATOM     42  C   UNL A   1      42.181  26.433  36.534  1.00  0.00     0.198 A 
ATOM     43  F   UNL A   1      41.538  28.638  36.263  1.00  0.00    -0.203 F 
ATOM     44  F   UNL A   1      43.676  24.078  34.249  1.00  0.00    -0.200 F 
ATOM     45  C   UNL A   1      42.682  25.252  36.030  1.00  0.00     0.200 A 
ATOM     46  F   UNL A   1      41.617  26.466  37.750  1.00  0.00    -0.200 F 
ATOM     47  F   UNL A   1      42.583  24.125  36.747  1.00  0.00    -0.200 F 
ENDBRANCH  23  37
BRANCH  24  48
ATOM     48  C   UNL A   1      43.320  25.551  26.026  1.00  0.00     0.064 A 
ATOM     49  C   UNL A   1      44.367  25.169  25.174  1.00  0.00     0.173 A 
ATOM     50  C   UNL A   1      42.361  24.561  26.321  1.00  0.00     0.173 A 
ATOM     51  F   UNL A   1      45.348  26.038  24.884  1.00  0.00    -0.203 F 
ATOM     52  C   UNL A   1      44.459  23.869  24.663  1.00  0.00     0.198 A 
ATOM     53  C   UNL A   1      42.451  23.266  25.808  1.00  0.00     0.198 A 
ATOM     54  F   UNL A   1      41.369  24.799  27.192  1.00  0.00    -0.203 F 
ATOM     55  F   UNL A   1      45.504  23.523  23.898  1.00  0.00    -0.200 F 
ATOM     56  C   UNL A   1      43.507  22.917  24.989  1.00  0.00     0.200 A 
ATOM     57  F   UNL A   1      41.545  22.345  26.164  1.00  0.00    -0.200 F 
ATOM     58  F   UNL A   1      43.630  21.656  24.552  1.00  0.00    -0.200 F 
ENDBRANCH  24  48
BRANCH  36  59
ATOM     59  C   UNL A   1      45.420  30.775  28.959  1.00  0.00     0.064 A 
ATOM     60  C   UNL A   1      44.440  31.526  28.284  1.00  0.00     0.173 A 
ATOM     61  C   UNL A   1      46.745  31.211  28.851  1.00  0.00     0.173 A 
ATOM     62  F   UNL A   1      43.141  31.242  28.423  1.00  0.00    -0.203 F 
ATOM     63  C   UNL A   1      44.777  32.633  27.506  1.00  0.00     0.198 A 
ATOM     64  C   UNL A   1      47.077  32.338  28.103  1.00  0.00     0.198 A 
ATOM     65  F   UNL A   1      47.716  30.576  29.525  1.00  0.00    -0.203 F 
ATOM     66  F   UNL A   1      43.820  33.330  26.875  1.00  0.00    -0.200 F 
ATOM     67  C   UNL A   1      46.096  33.043  27.424  1.00  0.00     0.200 A 
ATOM     68  F   UNL A   1      48.347  32.764  28.072  1.00  0.00    -0.200 F 
ATOM     69  F   UNL A   1      46.419  34.136  26.717  1.00  0.00    -0.200 F 
ENDBRANCH  36  59
ENDBRANCH  10  11
ENDBRANCH   3   5
ENDBRANCH   2   3
ENDBRANCH   1   2
BRANCH   1  70
ATOM     70  C   UNL A   1      33.346  34.384  27.799  1.00  0.00     0.275 C 
BRANCH  70  71
ATOM     71  O   UNL A   1      32.509  34.866  28.865  1.00  0.00    -0.457 OA
BRANCH  71  72
ATOM     72  C   UNL A   1      33.082  35.752  29.737  1.00  0.00     0.359 C 
ATOM     73  O   UNL A   1      33.405  36.904  29.451  1.00  0.00    -0.244 OA
BRANCH  72  74
ATOM     74  C   UNL A   1      33.253  35.180  31.070  1.00  0.00     0.179 A 
ATOM     75  N   UNL A   1      32.293  35.282  32.011  1.00  0.00    -0.167 NA
ATOM     76  C   UNL A   1      34.391  34.482  31.571  1.00  0.00     0.053 A 
ATOM     77  N   UNL A   1      32.798  34.652  33.076  1.00  0.00    -0.277 N 
ATOM     78  C   UNL A   1      34.053  34.147  32.883  1.00  0.00     0.069 A 
ATOM     79  C   UNL A   1      35.667  34.106  31.113  1.00  0.00     0.054 A 
ATOM     80  H   UNL A   1      32.309  34.562  33.926  1.00  0.00     0.190 HD
ATOM     81  C   UNL A   1      34.913  33.454  33.744  1.00  0.00     0.044 A 
ATOM     82  C   UNL A   1      36.558  33.427  31.944  1.00  0.00     0.037 A 
ATOM     83  Cl  UNL A   1      36.096  34.542  29.519  1.00  0.00    -0.083 Cl
ATOM     84  C   UNL A   1      36.173  33.109  33.243  1.00  0.00     0.021 A 
ATOM     85  Br  UNL A   1      37.392  32.202  34.372  1.00  0.00    -0.051 Br
ENDBRANCH  72  74
ENDBRANCH  71  72
ENDBRANCH  70  71
ENDBRANCH   1  70
TORSDOF 11
ENDMDL
MODEL 3
REMARK VINA RESULT:     -11.9      4.810     10.816
REMARK SMILES O=C(OCCOC(=O)c1n[nH]c2cc(Br)cc(Cl)c12)c1ccc(-c2c3nc(c(-c4c(F)c(F)c(F)c(F)c4F)c4ccc([nH]4)c(-c4c(F)c(F)c(F)c(F)c4F)c4nc(c(-c5c(F)c(F)c(F)c(F)c5F)c5ccc2[nH]5)C=C4)C=C3)cc1
REMARK SMILES IDX 4 1 3 2 2 3 1 4 20 5 21 6 82 7 22 8 81 9 23 10 24 11 25 12
REMARK SMILES IDX 75 13 26 14 80 15 74 16 76 17 27 18 79 19 73 20 72 21 28 23
REMARK SMILES IDX 60 24 40 25 59 26 41 27 44 28 58 29 77 30 42 31 43 32 57 34
REMARK SMILES IDX 78 35 45 36 29 37 30 38 38 39 31 40 32 41 36 42 39 43 33 44
REMARK SMILES IDX 34 45 37 46 35 47 61 48 62 49 70 50 63 51 64 52 68 53 71 54
REMARK SMILES IDX 65 55 66 56 69 57 67 58 46 59 47 60 55 61 48 62 49 63 53 64
REMARK SMILES IDX 56 65 50 66 51 67 54 68 52 69 5 70 6 71 7 72 8 73 9 74 10 75
REMARK SMILES IDX 19 76 11 77 12 78 17 79 13 81 16 82 18 83 14 84 15 85
REMARK H PARENT 76 22 44 33 11 80
REMARK Flexibility Score: inf
ROOT
ATOM      1  C   UNL A   1      35.171  33.764  28.482  1.00  0.00     0.275 C 
ENDROOT
BRANCH   1   2
ATOM      2  O   UNL A   1      35.660  32.669  27.685  1.00  0.00    -0.458 OA
BRANCH   2   3
ATOM      3  C   UNL A   1      35.584  31.372  28.053  1.00  0.00     0.338 C 
ATOM      4  O   UNL A   1      34.696  30.645  27.626  1.00  0.00    -0.246 OA
BRANCH   3   5
ATOM      5  C   UNL A   1      36.780  30.781  28.719  1.00  0.00     0.060 A 
ATOM      6  C   UNL A   1      37.864  31.507  29.233  1.00  0.00     0.016 A 
ATOM      7  C   UNL A   1      36.815  29.380  28.763  1.00  0.00     0.016 A 
ATOM      8  C   UNL A   1      39.027  30.862  29.612  1.00  0.00     0.010 A 
ATOM      9  C   UNL A   1      37.957  28.726  29.179  1.00  0.00     0.010 A 
ATOM     10  C   UNL A   1      39.083  29.480  29.497  1.00  0.00    -0.014 A 
BRANCH  10  11
ATOM     11  C   UNL A   1      40.360  28.813  29.672  1.00  0.00     0.031 A 
ATOM     12  C   UNL A   1      40.813  28.655  31.082  1.00  0.00     0.074 A 
ATOM     13  C   UNL A   1      40.938  28.259  28.585  1.00  0.00     0.049 A 
ATOM     14  N   UNL A   1      41.948  28.983  31.612  1.00  0.00    -0.248 NA
ATOM     15  C   UNL A   1      39.827  28.161  32.062  1.00  0.00     0.031 C 
ATOM     16  C   UNL A   1      40.409  28.191  27.215  1.00  0.00     0.029 A 
ATOM     17  N   UNL A   1      42.063  27.502  28.508  1.00  0.00    -0.354 N 
ATOM     18  C   UNL A   1      41.887  28.570  32.942  1.00  0.00     0.074 A 
ATOM     19  C   UNL A   1      40.519  28.204  33.199  1.00  0.00     0.031 C 
ATOM     20  C   UNL A   1      41.062  27.230  26.526  1.00  0.00     0.029 A 
ATOM     21  C   UNL A   1      42.141  26.729  27.350  1.00  0.00     0.049 A 
ATOM     22  H   UNL A   1      42.759  27.499  29.205  1.00  0.00     0.167 HD
ATOM     23  C   UNL A   1      43.008  28.353  33.683  1.00  0.00     0.037 A 
ATOM     24  C   UNL A   1      42.975  25.673  27.182  1.00  0.00     0.037 A 
ATOM     25  C   UNL A   1      44.157  29.003  33.117  1.00  0.00     0.049 A 
ATOM     26  C   UNL A   1      44.055  25.820  28.198  1.00  0.00     0.074 A 
ATOM     27  C   UNL A   1      44.502  30.323  32.908  1.00  0.00     0.029 A 
ATOM     28  N   UNL A   1      44.986  28.268  32.306  1.00  0.00    -0.354 N 
ATOM     29  N   UNL A   1      44.918  26.803  28.187  1.00  0.00    -0.248 NA
ATOM     30  C   UNL A   1      43.839  25.187  29.493  1.00  0.00     0.031 C 
ATOM     31  C   UNL A   1      45.131  30.337  31.630  1.00  0.00     0.029 A 
ATOM     32  C   UNL A   1      45.212  29.020  31.179  1.00  0.00     0.049 A 
ATOM     33  H   UNL A   1      45.349  27.373  32.496  1.00  0.00     0.167 HD
ATOM     34  C   UNL A   1      45.044  27.179  29.517  1.00  0.00     0.074 A 
ATOM     35  C   UNL A   1      44.380  26.122  30.280  1.00  0.00     0.031 C 
ATOM     36  C   UNL A   1      45.405  28.448  29.868  1.00  0.00     0.037 A 
BRANCH  23  37
ATOM     37  C   UNL A   1      43.119  27.285  34.736  1.00  0.00     0.064 A 
ATOM     38  C   UNL A   1      43.257  27.636  36.092  1.00  0.00     0.173 A 
ATOM     39  C   UNL A   1      43.377  25.932  34.422  1.00  0.00     0.173 A 
ATOM     40  F   UNL A   1      43.068  28.903  36.490  1.00  0.00    -0.203 F 
ATOM     41  C   UNL A   1      43.666  26.706  37.053  1.00  0.00     0.198 A 
ATOM     42  C   UNL A   1      43.735  24.998  35.390  1.00  0.00     0.198 A 
ATOM     43  F   UNL A   1      43.396  25.493  33.157  1.00  0.00    -0.203 F 
ATOM     44  F   UNL A   1      43.883  27.102  38.314  1.00  0.00    -0.200 F 
ATOM     45  C   UNL A   1      43.905  25.389  36.701  1.00  0.00     0.200 A 
ATOM     46  F   UNL A   1      43.984  23.732  35.023  1.00  0.00    -0.200 F 
ATOM     47  F   UNL A   1      44.344  24.509  37.610  1.00  0.00    -0.200 F 
ENDBRANCH  23  37
BRANCH  24  48
ATOM     48  C   UNL A   1      42.635  24.371  26.555  1.00  0.00     0.064 A 
ATOM     49  C   UNL A   1      43.458  23.804  25.570  1.00  0.00     0.173 A 
ATOM     50  C   UNL A   1      41.648  23.527  27.106  1.00  0.00     0.173 A 
ATOM     51  F   UNL A   1      44.453  24.524  25.030  1.00  0.00    -0.203 F 
ATOM     52  C   UNL A   1      43.315  22.469  25.173  1.00  0.00     0.198 A 
ATOM     53  C   UNL A   1      41.504  22.198  26.708  1.00  0.00     0.198 A 
ATOM     54  F   UNL A   1      40.868  23.946  28.113  1.00  0.00    -0.203 F 
ATOM     55  F   UNL A   1      44.156  21.945  24.271  1.00  0.00    -0.200 F 
ATOM     56  C   UNL A   1      42.345  21.665  25.751  1.00  0.00     0.200 A 
ATOM     57  F   UNL A   1      40.589  21.420  27.304  1.00  0.00    -0.200 F 
ATOM     58  F   UNL A   1      42.251  20.370  25.419  1.00  0.00    -0.200 F 
ENDBRANCH  24  48
BRANCH  36  59
ATOM     59  C   UNL A   1      45.822  29.392  28.772  1.00  0.00     0.064 A 
ATOM     60  C   UNL A   1      44.928  30.219  28.068  1.00  0.00     0.173 A 
ATOM     61  C   UNL A   1      47.188  29.596  28.551  1.00  0.00     0.173 A 
ATOM     62  F   UNL A   1      43.612  30.165  28.303  1.00  0.00    -0.203 F 
ATOM     63  C   UNL A   1      45.380  31.174  27.157  1.00  0.00     0.198 A 
ATOM     64  C   UNL A   1      47.641  30.574  27.668  1.00  0.00     0.198 A 
ATOM     65  F   UNL A   1      48.093  28.884  29.241  1.00  0.00    -0.203 F 
ATOM     66  F   UNL A   1      44.502  31.949  26.502  1.00  0.00    -0.200 F 
ATOM     67  C   UNL A   1      46.738  31.355  26.965  1.00  0.00     0.200 A 
ATOM     68  F   UNL A   1      48.957  30.784  27.526  1.00  0.00    -0.200 F 
ATOM     69  F   UNL A   1      47.178  32.305  26.126  1.00  0.00    -0.200 F 
ENDBRANCH  36  59
ENDBRANCH  10  11
ENDBRANCH   3   5
ENDBRANCH   2   3
ENDBRANCH   1   2
BRANCH   1  70
ATOM     70  C   UNL A   1      34.397  33.392  29.748  1.00  0.00     0.275 C 
BRANCH  70  71
ATOM     71  O   UNL A   1      35.213  33.459  30.930  1.00  0.00    -0.457 OA
BRANCH  71  72
ATOM     72  C   UNL A   1      34.803  32.706  31.998  1.00  0.00     0.359 C 
ATOM     73  O   UNL A   1      33.672  32.736  32.479  1.00  0.00    -0.244 OA
BRANCH  72  74
ATOM     74  C   UNL A   1      35.864  31.837  32.499  1.00  0.00     0.179 A 
ATOM     75  N   UNL A   1      35.956  30.546  32.123  1.00  0.00    -0.167 NA
ATOM     76  C   UNL A   1      36.899  32.179  33.418  1.00  0.00     0.053 A 
ATOM     77  N   UNL A   1      37.028  30.082  32.772  1.00  0.00    -0.277 N 
ATOM     78  C   UNL A   1      37.643  31.008  33.567  1.00  0.00     0.069 A 
ATOM     79  C   UNL A   1      37.299  33.302  34.165  1.00  0.00     0.054 A 
ATOM     80  H   UNL A   1      37.346  29.154  32.686  1.00  0.00     0.190 HD
ATOM     81  C   UNL A   1      38.760  30.909  34.406  1.00  0.00     0.044 A 
ATOM     82  C   UNL A   1      38.398  33.241  35.022  1.00  0.00     0.037 A 
ATOM     83  Cl  UNL A   1      36.372  34.727  34.010  1.00  0.00    -0.083 Cl
ATOM     84  C   UNL A   1      39.113  32.052  35.132  1.00  0.00     0.021 A 
ATOM     85  Br  UNL A   1      40.593  31.969  36.309  1.00  0.00    -0.051 Br
ENDBRANCH  72  74
ENDBRANCH  71  72
ENDBRANCH  70  71
ENDBRANCH   1  70
TORSDOF 11
ENDMDL
