MODEL 1
REMARK VINA RESULT:     -11.9      0.000      0.000
REMARK SMILES C[C@H]1CC[C@H]([NH+](CC(=O)OCCOC(=O)c2ccc(-c3c4nc(c(-c5c(F)c(F)c(F)c(F)c5F)c5ccc([nH]5)c(-c5c(F)c(F)c(F)c(F)c5F)c5nc(c(-c6c(F)c(F)c(F)c(F)c6F)c6ccc3[nH]6)C=C5)C=C4)cc2)C(C)(C)C)C[C@@H]1C
REMARK SMILES IDX 11 1 10 2 8 3 9 4 7 5 6 6 5 8 1 9 2 10 3 11 84 12 4 13 83 14
REMARK SMILES IDX 85 15 79 16 80 17 81 18 82 19 12 20 13 21 14 22 15 23 16 24
REMARK SMILES IDX 17 25 78 26 18 27 77 28 19 29 20 30 21 31 71 32 22 33 76 34
REMARK SMILES IDX 70 35 72 36 23 37 75 38 69 39 68 40 24 42 56 43 36 44 55 45
REMARK SMILES IDX 37 46 40 47 54 48 73 49 38 50 39 51 53 53 74 54 41 55 25 56
REMARK SMILES IDX 26 57 34 58 27 59 28 60 32 61 35 62 29 63 30 64 33 65 31 66
REMARK SMILES IDX 57 67 58 68 66 69 59 70 60 71 64 72 67 73 61 74 62 75 65 76
REMARK SMILES IDX 63 77 42 78 43 79 51 80 44 81 45 82 49 83 52 84 46 85 47 86
REMARK SMILES IDX 50 87 48 88
REMARK H PARENT 6 7 72 41 40 52
REMARK Flexibility Score: inf
ROOT
ATOM      1  C   UNL A   1      31.403  28.531  26.007  1.00  0.00     0.274 C 
ENDROOT
BRANCH   1   2
ATOM      2  O   UNL A   1      32.290  27.445  25.649  1.00  0.00    -0.458 OA
BRANCH   2   3
ATOM      3  C   UNL A   1      31.820  26.183  25.795  1.00  0.00     0.361 C 
ATOM      4  O   UNL A   1      31.778  25.599  26.876  1.00  0.00    -0.245 OA
BRANCH   3   5
ATOM      5  C   UNL A   1      31.385  25.487  24.501  1.00  0.00     0.387 C 
BRANCH   5   6
ATOM      6  N   UNL A   1      32.362  25.392  23.394  1.00  0.00    -0.319 N 
ATOM      7  H   UNL A   1      32.639  25.689  22.459  1.00  0.00     0.349 HD
BRANCH   6   8
ATOM      8  C   UNL A   1      33.286  24.239  23.473  1.00  0.00     0.185 C 
ATOM      9  C   UNL A   1      35.492  20.705  25.002  1.00  0.00     0.008 C 
ATOM     10  C   UNL A   1      34.568  21.916  24.875  1.00  0.00    -0.011 C 
ATOM     11  C   UNL A   1      35.371  23.148  24.440  1.00  0.00     0.010 C 
ATOM     12  C   UNL A   1      33.421  21.668  23.881  1.00  0.00    -0.006 C 
ATOM     13  C   UNL A   1      34.484  24.389  24.423  1.00  0.00     0.065 C 
ATOM     14  C   UNL A   1      32.542  22.913  23.707  1.00  0.00     0.068 C 
ATOM     15  C   UNL A   1      32.530  20.488  24.292  1.00  0.00     0.008 C 
ENDBRANCH   6   8
BRANCH   6  16
ATOM     16  C   UNL A   1      32.381  26.416  22.321  1.00  0.00     0.090 C 
ATOM     17  C   UNL A   1      31.077  27.241  22.285  1.00  0.00     0.078 C 
ATOM     18  C   UNL A   1      33.593  27.368  22.467  1.00  0.00     0.078 C 
ATOM     19  C   UNL A   1      32.527  25.820  20.900  1.00  0.00     0.078 C 
ENDBRANCH   6  16
ENDBRANCH   5   6
ENDBRANCH   3   5
ENDBRANCH   2   3
ENDBRANCH   1   2
BRANCH   1  20
ATOM     20  C   UNL A   1      31.904  29.827  25.386  1.00  0.00     0.275 C 
BRANCH  20  21
ATOM     21  O   UNL A   1      33.220  30.063  25.900  1.00  0.00    -0.458 OA
BRANCH  21  22
ATOM     22  C   UNL A   1      33.291  31.010  26.854  1.00  0.00     0.338 C 
ATOM     23  O   UNL A   1      32.491  31.901  27.101  1.00  0.00    -0.246 OA
BRANCH  22  24
ATOM     24  C   UNL A   1      34.518  30.806  27.621  1.00  0.00     0.060 A 
ATOM     25  C   UNL A   1      35.377  31.883  27.861  1.00  0.00     0.016 A 
ATOM     26  C   UNL A   1      34.859  29.511  28.000  1.00  0.00     0.016 A 
ATOM     27  C   UNL A   1      36.627  31.649  28.419  1.00  0.00     0.010 A 
ATOM     28  C   UNL A   1      36.070  29.294  28.646  1.00  0.00     0.010 A 
ATOM     29  C   UNL A   1      36.965  30.358  28.847  1.00  0.00    -0.014 A 
BRANCH  29  30
ATOM     30  C   UNL A   1      38.215  30.119  29.597  1.00  0.00     0.031 A 
ATOM     31  C   UNL A   1      39.277  29.224  29.038  1.00  0.00     0.074 A 
ATOM     32  C   UNL A   1      38.331  30.665  30.821  1.00  0.00     0.049 A 
ATOM     33  N   UNL A   1      40.325  28.720  29.634  1.00  0.00    -0.248 NA
ATOM     34  C   UNL A   1      39.139  28.836  27.626  1.00  0.00     0.031 C 
ATOM     35  C   UNL A   1      37.354  31.566  31.437  1.00  0.00     0.029 A 
ATOM     36  N   UNL A   1      39.305  30.530  31.773  1.00  0.00    -0.354 N 
ATOM     37  C   UNL A   1      40.955  27.927  28.684  1.00  0.00     0.074 A 
ATOM     38  C   UNL A   1      40.173  28.018  27.469  1.00  0.00     0.031 C 
ATOM     39  C   UNL A   1      37.782  31.911  32.658  1.00  0.00     0.029 A 
ATOM     40  C   UNL A   1      39.018  31.194  32.939  1.00  0.00     0.049 A 
ATOM     41  H   UNL A   1      40.129  30.008  31.636  1.00  0.00     0.167 HD
ATOM     42  C   UNL A   1      42.080  27.189  28.831  1.00  0.00     0.037 A 
ATOM     43  C   UNL A   1      39.655  31.184  34.123  1.00  0.00     0.037 A 
ATOM     44  C   UNL A   1      42.842  27.125  30.054  1.00  0.00     0.049 A 
ATOM     45  C   UNL A   1      40.880  30.333  34.265  1.00  0.00     0.074 A 
ATOM     46  C   UNL A   1      43.991  26.404  30.323  1.00  0.00     0.029 A 
ATOM     47  N   UNL A   1      42.524  27.820  31.213  1.00  0.00    -0.354 N 
ATOM     48  N   UNL A   1      41.449  29.554  33.376  1.00  0.00    -0.248 NA
ATOM     49  C   UNL A   1      41.542  30.344  35.574  1.00  0.00     0.031 C 
ATOM     50  C   UNL A   1      44.352  26.640  31.654  1.00  0.00     0.029 A 
ATOM     51  C   UNL A   1      43.451  27.538  32.204  1.00  0.00     0.049 A 
ATOM     52  H   UNL A   1      41.753  28.422  31.317  1.00  0.00     0.167 HD
ATOM     53  C   UNL A   1      42.540  28.988  34.012  1.00  0.00     0.074 A 
ATOM     54  C   UNL A   1      42.565  29.529  35.358  1.00  0.00     0.031 C 
ATOM     55  C   UNL A   1      43.439  28.094  33.533  1.00  0.00     0.037 A 
BRANCH  42  56
ATOM     56  C   UNL A   1      42.540  26.370  27.660  1.00  0.00     0.064 A 
ATOM     57  C   UNL A   1      43.514  26.841  26.769  1.00  0.00     0.173 A 
ATOM     58  C   UNL A   1      42.035  25.077  27.456  1.00  0.00     0.173 A 
ATOM     59  F   UNL A   1      44.020  28.075  26.912  1.00  0.00    -0.203 F 
ATOM     60  C   UNL A   1      43.955  26.053  25.707  1.00  0.00     0.198 A 
ATOM     61  C   UNL A   1      42.493  24.284  26.407  1.00  0.00     0.198 A 
ATOM     62  F   UNL A   1      41.103  24.578  28.281  1.00  0.00    -0.203 F 
ATOM     63  F   UNL A   1      44.865  26.535  24.850  1.00  0.00    -0.200 F 
ATOM     64  C   UNL A   1      43.451  24.773  25.532  1.00  0.00     0.200 A 
ATOM     65  F   UNL A   1      42.010  23.044  26.245  1.00  0.00    -0.200 F 
ATOM     66  F   UNL A   1      43.883  24.013  24.516  1.00  0.00    -0.200 F 
ENDBRANCH  42  56
BRANCH  43  67
ATOM     67  C   UNL A   1      39.119  31.988  35.249  1.00  0.00     0.064 A 
ATOM     68  C   UNL A   1      38.367  31.385  36.265  1.00  0.00     0.173 A 
ATOM     69  C   UNL A   1      39.393  33.359  35.363  1.00  0.00     0.173 A 
ATOM     70  F   UNL A   1      38.067  30.080  36.191  1.00  0.00    -0.203 F 
ATOM     71  C   UNL A   1      37.906  32.125  37.351  1.00  0.00     0.198 A 
ATOM     72  C   UNL A   1      38.955  34.092  36.463  1.00  0.00     0.198 A 
ATOM     73  F   UNL A   1      40.118  33.980  34.420  1.00  0.00    -0.203 F 
ATOM     74  F   UNL A   1      37.165  31.530  38.297  1.00  0.00    -0.200 F 
ATOM     75  C   UNL A   1      38.208  33.475  37.455  1.00  0.00     0.200 A 
ATOM     76  F   UNL A   1      39.268  35.391  36.569  1.00  0.00    -0.200 F 
ATOM     77  F   UNL A   1      37.779  34.180  38.510  1.00  0.00    -0.200 F 
ENDBRANCH  43  67
BRANCH  55  78
ATOM     78  C   UNL A   1      44.527  27.674  34.471  1.00  0.00     0.064 A 
ATOM     79  C   UNL A   1      45.729  28.390  34.561  1.00  0.00     0.173 A 
ATOM     80  C   UNL A   1      44.358  26.552  35.294  1.00  0.00     0.173 A 
ATOM     81  F   UNL A   1      45.939  29.458  33.777  1.00  0.00    -0.203 F 
ATOM     82  C   UNL A   1      46.738  27.980  35.427  1.00  0.00     0.198 A 
ATOM     83  C   UNL A   1      45.360  26.159  36.175  1.00  0.00     0.198 A 
ATOM     84  F   UNL A   1      43.224  25.838  35.241  1.00  0.00    -0.203 F 
ATOM     85  F   UNL A   1      47.898  28.650  35.465  1.00  0.00    -0.200 F 
ATOM     86  C   UNL A   1      46.551  26.869  36.236  1.00  0.00     0.200 A 
ATOM     87  F   UNL A   1      45.179  25.088  36.960  1.00  0.00    -0.200 F 
ATOM     88  F   UNL A   1      47.524  26.474  37.068  1.00  0.00    -0.200 F 
ENDBRANCH  55  78
ENDBRANCH  29  30
ENDBRANCH  22  24
ENDBRANCH  21  22
ENDBRANCH  20  21
ENDBRANCH   1  20
TORSDOF 14
ENDMDL
MODEL 2
REMARK VINA RESULT:     -11.8      0.493      1.249
REMARK SMILES C[C@H]1CC[C@H]([NH+](CC(=O)OCCOC(=O)c2ccc(-c3c4nc(c(-c5c(F)c(F)c(F)c(F)c5F)c5ccc([nH]5)c(-c5c(F)c(F)c(F)c(F)c5F)c5nc(c(-c6c(F)c(F)c(F)c(F)c6F)c6ccc3[nH]6)C=C5)C=C4)cc2)C(C)(C)C)C[C@@H]1C
REMARK SMILES IDX 11 1 10 2 8 3 9 4 7 5 6 6 5 8 1 9 2 10 3 11 84 12 4 13 83 14
REMARK SMILES IDX 85 15 79 16 80 17 81 18 82 19 12 20 13 21 14 22 15 23 16 24
REMARK SMILES IDX 17 25 78 26 18 27 77 28 19 29 20 30 21 31 71 32 22 33 76 34
REMARK SMILES IDX 70 35 72 36 23 37 75 38 69 39 68 40 24 42 56 43 36 44 55 45
REMARK SMILES IDX 37 46 40 47 54 48 73 49 38 50 39 51 53 53 74 54 41 55 25 56
REMARK SMILES IDX 26 57 34 58 27 59 28 60 32 61 35 62 29 63 30 64 33 65 31 66
REMARK SMILES IDX 57 67 58 68 66 69 59 70 60 71 64 72 67 73 61 74 62 75 65 76
REMARK SMILES IDX 63 77 42 78 43 79 51 80 44 81 45 82 49 83 52 84 46 85 47 86
REMARK SMILES IDX 50 87 48 88
REMARK H PARENT 6 7 72 41 40 52
REMARK Flexibility Score: inf
ROOT
ATOM      1  C   UNL A   1      31.622  29.061  25.258  1.00  0.00     0.274 C 
ENDROOT
BRANCH   1   2
ATOM      2  O   UNL A   1      31.780  27.904  26.113  1.00  0.00    -0.458 OA
BRANCH   2   3
ATOM      3  C   UNL A   1      32.600  26.917  25.680  1.00  0.00     0.361 C 
ATOM      4  O   UNL A   1      33.804  26.884  25.925  1.00  0.00    -0.245 OA
BRANCH   3   5
ATOM      5  C   UNL A   1      31.940  25.847  24.803  1.00  0.00     0.387 C 
BRANCH   5   6
ATOM      6  N   UNL A   1      32.585  25.501  23.517  1.00  0.00    -0.319 N 
ATOM      7  H   UNL A   1      32.652  25.665  22.513  1.00  0.00     0.349 HD
BRANCH   6   8
ATOM      8  C   UNL A   1      33.342  24.230  23.520  1.00  0.00     0.185 C 
ATOM      9  C   UNL A   1      35.360  20.531  24.914  1.00  0.00     0.008 C 
ATOM     10  C   UNL A   1      34.599  21.855  24.857  1.00  0.00    -0.011 C 
ATOM     11  C   UNL A   1      35.433  22.911  24.122  1.00  0.00     0.010 C 
ATOM     12  C   UNL A   1      33.230  21.709  24.173  1.00  0.00    -0.006 C 
ATOM     13  C   UNL A   1      34.737  24.269  24.162  1.00  0.00     0.065 C 
ATOM     14  C   UNL A   1      32.506  23.056  24.057  1.00  0.00     0.068 C 
ATOM     15  C   UNL A   1      32.311  20.715  24.897  1.00  0.00     0.008 C 
ENDBRANCH   6   8
BRANCH   6  16
ATOM     16  C   UNL A   1      32.464  26.408  22.350  1.00  0.00     0.090 C 
ATOM     17  C   UNL A   1      31.087  27.102  22.296  1.00  0.00     0.078 C 
ATOM     18  C   UNL A   1      33.583  27.477  22.343  1.00  0.00     0.078 C 
ATOM     19  C   UNL A   1      32.611  25.687  20.988  1.00  0.00     0.078 C 
ENDBRANCH   6  16
ENDBRANCH   5   6
ENDBRANCH   3   5
ENDBRANCH   2   3
ENDBRANCH   1   2
BRANCH   1  20
ATOM     20  C   UNL A   1      31.770  30.332  26.083  1.00  0.00     0.275 C 
BRANCH  20  21
ATOM     21  O   UNL A   1      33.156  30.454  26.427  1.00  0.00    -0.458 OA
BRANCH  21  22
ATOM     22  C   UNL A   1      33.456  31.522  27.189  1.00  0.00     0.338 C 
ATOM     23  O   UNL A   1      32.832  32.567  27.312  1.00  0.00    -0.246 OA
BRANCH  22  24
ATOM     24  C   UNL A   1      34.693  31.244  27.915  1.00  0.00     0.060 A 
ATOM     25  C   UNL A   1      35.663  32.242  28.048  1.00  0.00     0.016 A 
ATOM     26  C   UNL A   1      34.925  29.947  28.362  1.00  0.00     0.016 A 
ATOM     27  C   UNL A   1      36.910  31.919  28.566  1.00  0.00     0.010 A 
ATOM     28  C   UNL A   1      36.139  29.649  28.969  1.00  0.00     0.010 A 
ATOM     29  C   UNL A   1      37.141  30.629  29.062  1.00  0.00    -0.014 A 
BRANCH  29  30
ATOM     30  C   UNL A   1      38.397  30.311  29.772  1.00  0.00     0.031 A 
ATOM     31  C   UNL A   1      39.397  29.374  29.168  1.00  0.00     0.074 A 
ATOM     32  C   UNL A   1      38.575  30.828  31.002  1.00  0.00     0.049 A 
ATOM     33  N   UNL A   1      40.433  28.805  29.725  1.00  0.00    -0.248 NA
ATOM     34  C   UNL A   1      39.200  29.020  27.754  1.00  0.00     0.031 C 
ATOM     35  C   UNL A   1      37.663  31.766  31.661  1.00  0.00     0.029 A 
ATOM     36  N   UNL A   1      39.566  30.625  31.924  1.00  0.00    -0.354 N 
ATOM     37  C   UNL A   1      40.995  28.000  28.744  1.00  0.00     0.074 A 
ATOM     38  C   UNL A   1      40.185  28.153  27.554  1.00  0.00     0.031 C 
ATOM     39  C   UNL A   1      38.141  32.066  32.875  1.00  0.00     0.029 A 
ATOM     40  C   UNL A   1      39.345  31.281  33.109  1.00  0.00     0.049 A 
ATOM     41  H   UNL A   1      40.358  30.064  31.754  1.00  0.00     0.167 HD
ATOM     42  C   UNL A   1      42.084  27.202  28.847  1.00  0.00     0.037 A 
ATOM     43  C   UNL A   1      40.013  31.216  34.274  1.00  0.00     0.037 A 
ATOM     44  C   UNL A   1      42.874  27.076  30.046  1.00  0.00     0.049 A 
ATOM     45  C   UNL A   1      41.196  30.301  34.367  1.00  0.00     0.074 A 
ATOM     46  C   UNL A   1      43.991  26.292  30.271  1.00  0.00     0.029 A 
ATOM     47  N   UNL A   1      42.624  27.764  31.227  1.00  0.00    -0.354 N 
ATOM     48  N   UNL A   1      41.699  29.511  33.449  1.00  0.00    -0.248 NA
ATOM     49  C   UNL A   1      41.893  30.254  35.656  1.00  0.00     0.031 C 
ATOM     50  C   UNL A   1      44.400  26.484  31.595  1.00  0.00     0.029 A 
ATOM     51  C   UNL A   1      43.561  27.416  32.186  1.00  0.00     0.049 A 
ATOM     52  H   UNL A   1      41.888  28.403  31.363  1.00  0.00     0.167 HD
ATOM     53  C   UNL A   1      42.777  28.877  34.044  1.00  0.00     0.074 A 
ATOM     54  C   UNL A   1      42.866  29.391  35.397  1.00  0.00     0.031 C 
ATOM     55  C   UNL A   1      43.615  27.948  33.524  1.00  0.00     0.037 A 
BRANCH  42  56
ATOM     56  C   UNL A   1      42.468  26.382  27.650  1.00  0.00     0.064 A 
ATOM     57  C   UNL A   1      43.455  26.811  26.750  1.00  0.00     0.173 A 
ATOM     58  C   UNL A   1      41.876  25.130  27.426  1.00  0.00     0.173 A 
ATOM     59  F   UNL A   1      44.042  28.006  26.911  1.00  0.00    -0.203 F 
ATOM     60  C   UNL A   1      43.825  26.021  25.663  1.00  0.00     0.198 A 
ATOM     61  C   UNL A   1      42.263  24.334  26.352  1.00  0.00     0.198 A 
ATOM     62  F   UNL A   1      40.929  24.673  28.258  1.00  0.00    -0.203 F 
ATOM     63  F   UNL A   1      44.749  26.463  24.799  1.00  0.00    -0.200 F 
ATOM     64  C   UNL A   1      43.235  24.780  25.470  1.00  0.00     0.200 A 
ATOM     65  F   UNL A   1      41.699  23.132  26.171  1.00  0.00    -0.200 F 
ATOM     66  F   UNL A   1      43.599  24.018  24.429  1.00  0.00    -0.200 F 
ENDBRANCH  42  56
BRANCH  43  67
ATOM     67  C   UNL A   1      39.551  32.025  35.428  1.00  0.00     0.064 A 
ATOM     68  C   UNL A   1      39.993  33.342  35.603  1.00  0.00     0.173 A 
ATOM     69  C   UNL A   1      38.617  31.520  36.346  1.00  0.00     0.173 A 
ATOM     70  F   UNL A   1      40.897  33.862  34.760  1.00  0.00    -0.203 F 
ATOM     71  C   UNL A   1      39.522  34.123  36.656  1.00  0.00     0.198 A 
ATOM     72  C   UNL A   1      38.126  32.311  37.382  1.00  0.00     0.198 A 
ATOM     73  F   UNL A   1      38.156  30.267  36.215  1.00  0.00    -0.203 F 
ATOM     74  F   UNL A   1      39.981  35.372  36.818  1.00  0.00    -0.200 F 
ATOM     75  C   UNL A   1      38.582  33.611  37.539  1.00  0.00     0.200 A 
ATOM     76  F   UNL A   1      37.203  31.818  38.219  1.00  0.00    -0.200 F 
ATOM     77  F   UNL A   1      38.116  34.370  38.539  1.00  0.00    -0.200 F 
ENDBRANCH  43  67
BRANCH  55  78
ATOM     78  C   UNL A   1      44.705  27.455  34.424  1.00  0.00     0.064 A 
ATOM     79  C   UNL A   1      45.942  28.111  34.497  1.00  0.00     0.173 A 
ATOM     80  C   UNL A   1      44.503  26.324  35.226  1.00  0.00     0.173 A 
ATOM     81  F   UNL A   1      46.183  29.185  33.731  1.00  0.00    -0.203 F 
ATOM     82  C   UNL A   1      46.951  27.633  35.327  1.00  0.00     0.198 A 
ATOM     83  C   UNL A   1      45.507  25.863  36.072  1.00  0.00     0.198 A 
ATOM     84  F   UNL A   1      43.335  25.666  35.188  1.00  0.00    -0.203 F 
ATOM     85  F   UNL A   1      48.143  28.246  35.349  1.00  0.00    -0.200 F 
ATOM     86  C   UNL A   1      46.732  26.514  36.116  1.00  0.00     0.200 A 
ATOM     87  F   UNL A   1      45.294  24.785  36.838  1.00  0.00    -0.200 F 
ATOM     88  F   UNL A   1      47.706  26.054  36.914  1.00  0.00    -0.200 F 
ENDBRANCH  55  78
ENDBRANCH  29  30
ENDBRANCH  22  24
ENDBRANCH  21  22
ENDBRANCH  20  21
ENDBRANCH   1  20
TORSDOF 14
ENDMDL
MODEL 3
REMARK VINA RESULT:     -11.6      0.987      2.009
REMARK SMILES C[C@H]1CC[C@H]([NH+](CC(=O)OCCOC(=O)c2ccc(-c3c4nc(c(-c5c(F)c(F)c(F)c(F)c5F)c5ccc([nH]5)c(-c5c(F)c(F)c(F)c(F)c5F)c5nc(c(-c6c(F)c(F)c(F)c(F)c6F)c6ccc3[nH]6)C=C5)C=C4)cc2)C(C)(C)C)C[C@@H]1C
REMARK SMILES IDX 11 1 10 2 8 3 9 4 7 5 6 6 5 8 1 9 2 10 3 11 84 12 4 13 83 14
REMARK SMILES IDX 85 15 79 16 80 17 81 18 82 19 12 20 13 21 14 22 15 23 16 24
REMARK SMILES IDX 17 25 78 26 18 27 77 28 19 29 20 30 21 31 71 32 22 33 76 34
REMARK SMILES IDX 70 35 72 36 23 37 75 38 69 39 68 40 24 42 56 43 36 44 55 45
REMARK SMILES IDX 37 46 40 47 54 48 73 49 38 50 39 51 53 53 74 54 41 55 25 56
REMARK SMILES IDX 26 57 34 58 27 59 28 60 32 61 35 62 29 63 30 64 33 65 31 66
REMARK SMILES IDX 57 67 58 68 66 69 59 70 60 71 64 72 67 73 61 74 62 75 65 76
REMARK SMILES IDX 63 77 42 78 43 79 51 80 44 81 45 82 49 83 52 84 46 85 47 86
REMARK SMILES IDX 50 87 48 88
REMARK H PARENT 6 7 72 41 40 52
REMARK Flexibility Score: inf
ROOT
ATOM      1  C   UNL A   1      33.609  28.583  24.897  1.00  0.00     0.274 C 
ENDROOT
BRANCH   1   2
ATOM      2  O   UNL A   1      33.091  27.791  23.801  1.00  0.00    -0.458 OA
BRANCH   2   3
ATOM      3  C   UNL A   1      33.319  26.457  23.835  1.00  0.00     0.361 C 
ATOM      4  O   UNL A   1      33.629  25.800  22.843  1.00  0.00    -0.245 OA
BRANCH   3   5
ATOM      5  C   UNL A   1      33.110  25.785  25.196  1.00  0.00     0.387 C 
BRANCH   5   6
ATOM      6  N   UNL A   1      32.610  24.393  25.220  1.00  0.00    -0.319 N 
ATOM      7  H   UNL A   1      31.820  23.761  25.348  1.00  0.00     0.349 HD
BRANCH   6   8
ATOM      8  C   UNL A   1      33.659  23.353  25.313  1.00  0.00     0.185 C 
ATOM      9  C   UNL A   1      37.398  21.067  24.615  1.00  0.00     0.008 C 
ATOM     10  C   UNL A   1      36.277  22.104  24.545  1.00  0.00    -0.011 C 
ATOM     11  C   UNL A   1      34.935  21.412  24.276  1.00  0.00     0.010 C 
ATOM     12  C   UNL A   1      36.180  22.940  25.831  1.00  0.00    -0.006 C 
ATOM     13  C   UNL A   1      33.827  22.443  24.086  1.00  0.00     0.065 C 
ATOM     14  C   UNL A   1      35.008  23.928  25.779  1.00  0.00     0.068 C 
ATOM     15  C   UNL A   1      37.469  23.720  26.128  1.00  0.00     0.008 C 
ENDBRANCH   6   8
BRANCH   6  16
ATOM     16  C   UNL A   1      31.155  24.118  25.135  1.00  0.00     0.090 C 
ATOM     17  C   UNL A   1      30.676  23.981  23.675  1.00  0.00     0.078 C 
ATOM     18  C   UNL A   1      30.770  22.846  25.928  1.00  0.00     0.078 C 
ATOM     19  C   UNL A   1      30.277  25.235  25.750  1.00  0.00     0.078 C 
ENDBRANCH   6  16
ENDBRANCH   5   6
ENDBRANCH   3   5
ENDBRANCH   2   3
ENDBRANCH   1   2
BRANCH   1  20
ATOM     20  C   UNL A   1      32.636  29.708  25.221  1.00  0.00     0.275 C 
BRANCH  20  21
ATOM     21  O   UNL A   1      32.650  29.884  26.643  1.00  0.00    -0.458 OA
BRANCH  21  22
ATOM     22  C   UNL A   1      33.104  31.081  27.058  1.00  0.00     0.338 C 
ATOM     23  O   UNL A   1      32.592  32.182  26.908  1.00  0.00    -0.246 OA
BRANCH  22  24
ATOM     24  C   UNL A   1      34.358  30.879  27.779  1.00  0.00     0.060 A 
ATOM     25  C   UNL A   1      35.279  31.926  27.884  1.00  0.00     0.016 A 
ATOM     26  C   UNL A   1      34.658  29.604  28.249  1.00  0.00     0.016 A 
ATOM     27  C   UNL A   1      36.544  31.676  28.398  1.00  0.00     0.010 A 
ATOM     28  C   UNL A   1      35.890  29.379  28.852  1.00  0.00     0.010 A 
ATOM     29  C   UNL A   1      36.843  30.409  28.917  1.00  0.00    -0.014 A 
BRANCH  29  30
ATOM     30  C   UNL A   1      38.119  30.168  29.622  1.00  0.00     0.031 A 
ATOM     31  C   UNL A   1      39.135  29.225  29.056  1.00  0.00     0.074 A 
ATOM     32  C   UNL A   1      38.301  30.760  30.817  1.00  0.00     0.049 A 
ATOM     33  N   UNL A   1      40.195  28.718  29.628  1.00  0.00    -0.248 NA
ATOM     34  C   UNL A   1      38.926  28.783  27.669  1.00  0.00     0.031 C 
ATOM     35  C   UNL A   1      37.373  31.709  31.436  1.00  0.00     0.029 A 
ATOM     36  N   UNL A   1      39.312  30.638  31.732  1.00  0.00    -0.354 N 
ATOM     37  C   UNL A   1      40.764  27.872  28.686  1.00  0.00     0.074 A 
ATOM     38  C   UNL A   1      39.932  27.934  27.503  1.00  0.00     0.031 C 
ATOM     39  C   UNL A   1      37.861  32.093  32.623  1.00  0.00     0.029 A 
ATOM     40  C   UNL A   1      39.091  31.357  32.881  1.00  0.00     0.049 A 
ATOM     41  H   UNL A   1      40.116  30.091  31.581  1.00  0.00     0.167 HD
ATOM     42  C   UNL A   1      41.877  27.112  28.816  1.00  0.00     0.037 A 
ATOM     43  C   UNL A   1      39.778  31.378  34.036  1.00  0.00     0.037 A 
ATOM     44  C   UNL A   1      42.689  27.078  30.007  1.00  0.00     0.049 A 
ATOM     45  C   UNL A   1      40.988  30.503  34.161  1.00  0.00     0.074 A 
ATOM     46  C   UNL A   1      43.832  26.339  30.257  1.00  0.00     0.029 A 
ATOM     47  N   UNL A   1      42.438  27.827  31.149  1.00  0.00    -0.354 N 
ATOM     48  N   UNL A   1      41.499  29.674  33.282  1.00  0.00    -0.248 NA
ATOM     49  C   UNL A   1      41.706  30.550  35.439  1.00  0.00     0.031 C 
ATOM     50  C   UNL A   1      44.255  26.620  31.561  1.00  0.00     0.029 A 
ATOM     51  C   UNL A   1      43.400  27.562  32.111  1.00  0.00     0.049 A 
ATOM     52  H   UNL A   1      41.687  28.453  31.260  1.00  0.00     0.167 HD
ATOM     53  C   UNL A   1      42.603  29.106  33.894  1.00  0.00     0.074 A 
ATOM     54  C   UNL A   1      42.699  29.701  35.214  1.00  0.00     0.031 C 
ATOM     55  C   UNL A   1      43.460  28.172  33.414  1.00  0.00     0.037 A 
BRANCH  42  56
ATOM     56  C   UNL A   1      42.266  26.235  27.662  1.00  0.00     0.064 A 
ATOM     57  C   UNL A   1      43.237  26.631  26.730  1.00  0.00     0.173 A 
ATOM     58  C   UNL A   1      41.695  24.962  27.513  1.00  0.00     0.173 A 
ATOM     59  F   UNL A   1      43.804  27.843  26.820  1.00  0.00    -0.203 F 
ATOM     60  C   UNL A   1      43.612  25.789  25.685  1.00  0.00     0.198 A 
ATOM     61  C   UNL A   1      42.087  24.115  26.480  1.00  0.00     0.198 A 
ATOM     62  F   UNL A   1      40.763  24.534  28.378  1.00  0.00    -0.203 F 
ATOM     63  F   UNL A   1      44.520  26.199  24.789  1.00  0.00    -0.200 F 
ATOM     64  C   UNL A   1      43.043  24.529  25.565  1.00  0.00     0.200 A 
ATOM     65  F   UNL A   1      41.543  22.895  26.371  1.00  0.00    -0.200 F 
ATOM     66  F   UNL A   1      43.411  23.718  24.564  1.00  0.00    -0.200 F 
ENDBRANCH  42  56
BRANCH  43  67
ATOM     67  C   UNL A   1      39.311  32.240  35.149  1.00  0.00     0.064 A 
ATOM     68  C   UNL A   1      38.501  31.720  36.166  1.00  0.00     0.173 A 
ATOM     69  C   UNL A   1      39.708  33.582  35.250  1.00  0.00     0.173 A 
ATOM     70  F   UNL A   1      38.084  30.446  36.104  1.00  0.00    -0.203 F 
ATOM     71  C   UNL A   1      38.102  32.510  37.241  1.00  0.00     0.198 A 
ATOM     72  C   UNL A   1      39.332  34.364  36.339  1.00  0.00     0.198 A 
ATOM     73  F   UNL A   1      40.492  34.123  34.306  1.00  0.00    -0.203 F 
ATOM     74  F   UNL A   1      37.305  31.997  38.188  1.00  0.00    -0.200 F 
ATOM     75  C   UNL A   1      38.526  33.829  37.332  1.00  0.00     0.200 A 
ATOM     76  F   UNL A   1      39.761  35.630  36.433  1.00  0.00    -0.200 F 
ATOM     77  F   UNL A   1      38.156  34.582  38.376  1.00  0.00    -0.200 F 
ENDBRANCH  43  67
BRANCH  55  78
ATOM     78  C   UNL A   1      44.576  27.763  34.323  1.00  0.00     0.064 A 
ATOM     79  C   UNL A   1      44.444  26.676  35.198  1.00  0.00     0.173 A 
ATOM     80  C   UNL A   1      45.793  28.460  34.307  1.00  0.00     0.173 A 
ATOM     81  F   UNL A   1      43.289  25.995  35.259  1.00  0.00    -0.203 F 
ATOM     82  C   UNL A   1      45.485  26.316  36.048  1.00  0.00     0.198 A 
ATOM     83  C   UNL A   1      46.839  28.082  35.142  1.00  0.00     0.198 A 
ATOM     84  F   UNL A   1      45.964  29.505  33.485  1.00  0.00    -0.203 F 
ATOM     85  F   UNL A   1      45.322  25.304  36.910  1.00  0.00    -0.200 F 
ATOM     86  C   UNL A   1      46.682  27.015  36.016  1.00  0.00     0.200 A 
ATOM     87  F   UNL A   1      47.998  28.754  35.108  1.00  0.00    -0.200 F 
ATOM     88  F   UNL A   1      47.683  26.668  36.836  1.00  0.00    -0.200 F 
ENDBRANCH  55  78
ENDBRANCH  29  30
ENDBRANCH  22  24
ENDBRANCH  21  22
ENDBRANCH  20  21
ENDBRANCH   1  20
TORSDOF 14
ENDMDL
