MODEL 1
REMARK VINA RESULT:     -13.2      0.000      0.000
REMARK SMILES Cc1cc(OCC(=O)OCCOC(=O)c2ccc(-c3c4nc(c(-c5c(F)c(F)c(F)c(F)c5F)c5ccc([nH]5)c(-c5c(F)c(F)c(F)c(F)c5F)c5nc(c(-c6c(F)c(F)c(F)c(F)c6F)c6ccc3[nH]6)C=C5)C=C4)cc2)ccc1NC(=O)c1ccc(N2C(=O)[C@@H]3[C@H](C2=O)[C@H]2C=C[C@@H]3C2)cc1
REMARK SMILES IDX 9 1 7 2 8 3 6 4 5 5 4 6 1 7 2 8 3 9 80 10 79 11 78 12 81 13
REMARK SMILES IDX 82 14 83 16 84 17 85 18 101 19 86 20 100 21 87 22 88 23
REMARK SMILES IDX 89 24 93 25 90 26 91 27 92 28 94 29 98 30 95 31 97 32 99 33
REMARK SMILES IDX 96 34 10 35 11 36 12 37 13 38 14 39 15 40 16 41 77 42 17 43
REMARK SMILES IDX 76 44 18 45 19 46 20 47 70 48 21 49 75 50 69 51 71 52 22 53
REMARK SMILES IDX 74 54 68 55 67 56 23 58 55 59 35 60 54 61 36 62 39 63 53 64
REMARK SMILES IDX 72 65 37 66 38 67 52 69 73 70 40 71 24 72 25 73 33 74 26 75
REMARK SMILES IDX 27 76 31 77 34 78 28 79 29 80 32 81 30 82 56 83 57 84 65 85
REMARK SMILES IDX 58 86 59 87 63 88 66 89 60 90 61 91 64 92 62 93 41 94 42 95
REMARK SMILES IDX 50 96 43 97 44 98 48 99 51 100 45 101 46 102 49 103 47 104
REMARK H PARENT 81 15 71 57 39 68
REMARK Flexibility Score: inf
ROOT
ATOM      1  O   UNL A   1      38.632  32.476  31.442  1.00  0.00    -0.460 OA
ENDROOT
BRANCH   1   2
ATOM      2  C   UNL A   1      39.123  32.000  30.271  1.00  0.00     0.344 C 
ATOM      3  O   UNL A   1      40.254  31.556  30.123  1.00  0.00    -0.248 OA
BRANCH   2   4
ATOM      4  C   UNL A   1      38.037  31.991  29.195  1.00  0.00     0.351 C 
BRANCH   4   5
ATOM      5  O   UNL A   1      37.685  30.734  28.634  1.00  0.00    -0.482 OA
BRANCH   5   6
ATOM      6  C   UNL A   1      36.415  30.616  28.144  1.00  0.00     0.120 A 
ATOM      7  C   UNL A   1      33.569  33.082  27.884  1.00  0.00     0.047 C 
ATOM      8  C   UNL A   1      34.295  31.769  27.776  1.00  0.00    -0.024 A 
ATOM      9  C   UNL A   1      35.635  31.764  28.215  1.00  0.00     0.052 A 
ATOM     10  C   UNL A   1      33.723  30.583  27.271  1.00  0.00     0.044 A 
ATOM     11  C   UNL A   1      34.531  29.450  27.162  1.00  0.00     0.030 A 
ATOM     12  C   UNL A   1      35.874  29.471  27.572  1.00  0.00     0.048 A 
BRANCH  10  13
ATOM     13  N   UNL A   1      32.412  30.598  26.751  1.00  0.00    -0.322 N 
ATOM     14  C   UNL A   1      31.827  29.912  25.709  1.00  0.00     0.255 C 
ATOM     15  H   UNL A   1      31.802  31.212  27.221  1.00  0.00     0.170 HD
ATOM     16  O   UNL A   1      30.882  30.422  25.106  1.00  0.00    -0.269 OA
BRANCH  14  17
ATOM     17  C   UNL A   1      32.165  28.500  25.399  1.00  0.00     0.040 A 
ATOM     18  C   UNL A   1      32.846  28.191  24.221  1.00  0.00     0.016 A 
ATOM     19  C   UNL A   1      31.645  27.456  26.159  1.00  0.00     0.016 A 
ATOM     20  C   UNL A   1      33.100  26.852  23.869  1.00  0.00     0.027 A 
ATOM     21  C   UNL A   1      31.866  26.118  25.776  1.00  0.00     0.027 A 
ATOM     22  C   UNL A   1      32.646  25.781  24.656  1.00  0.00     0.052 A 
BRANCH  22  23
ATOM     23  N   UNL A   1      32.979  24.416  24.345  1.00  0.00    -0.250 N 
ATOM     24  C   UNL A   1      34.225  23.856  24.576  1.00  0.00     0.238 C 
ATOM     25  C   UNL A   1      32.078  23.476  23.881  1.00  0.00     0.238 C 
ATOM     26  O   UNL A   1      35.219  24.358  25.083  1.00  0.00    -0.274 OA
ATOM     27  C   UNL A   1      34.208  22.405  24.179  1.00  0.00     0.099 C 
ATOM     28  C   UNL A   1      32.784  22.165  23.662  1.00  0.00     0.099 C 
ATOM     29  O   UNL A   1      30.875  23.585  23.679  1.00  0.00    -0.274 OA
ATOM     30  C   UNL A   1      34.316  21.421  25.369  1.00  0.00     0.025 C 
ATOM     31  C   UNL A   1      32.253  21.047  24.584  1.00  0.00     0.025 C 
ATOM     32  C   UNL A   1      34.303  20.023  24.786  1.00  0.00    -0.027 C 
ATOM     33  C   UNL A   1      32.889  21.422  25.929  1.00  0.00     0.017 C 
ATOM     34  C   UNL A   1      33.068  19.802  24.307  1.00  0.00    -0.027 C 
ENDBRANCH  22  23
ENDBRANCH  14  17
ENDBRANCH  10  13
ENDBRANCH   5   6
ENDBRANCH   4   5
ENDBRANCH   2   4
ENDBRANCH   1   2
BRANCH   1  35
ATOM     35  C   UNL A   1      37.240  32.294  31.665  1.00  0.00     0.274 C 
BRANCH  35  36
ATOM     36  C   UNL A   1      37.028  31.063  32.548  1.00  0.00     0.275 C 
BRANCH  36  37
ATOM     37  O   UNL A   1      37.200  29.743  31.938  1.00  0.00    -0.458 OA
BRANCH  37  38
ATOM     38  C   UNL A   1      37.936  28.654  32.265  1.00  0.00     0.338 C 
ATOM     39  O   UNL A   1      37.613  27.843  33.110  1.00  0.00    -0.246 OA
BRANCH  38  40
ATOM     40  C   UNL A   1      39.132  28.422  31.472  1.00  0.00     0.060 A 
ATOM     41  C   UNL A   1      40.402  28.599  32.046  1.00  0.00     0.016 A 
ATOM     42  C   UNL A   1      38.962  27.957  30.183  1.00  0.00     0.016 A 
ATOM     43  C   UNL A   1      41.529  28.190  31.344  1.00  0.00     0.010 A 
ATOM     44  C   UNL A   1      40.051  27.438  29.547  1.00  0.00     0.010 A 
ATOM     45  C   UNL A   1      41.335  27.591  30.104  1.00  0.00    -0.014 A 
BRANCH  45  46
ATOM     46  C   UNL A   1      42.383  27.290  29.146  1.00  0.00     0.031 A 
ATOM     47  C   UNL A   1      42.910  25.938  28.910  1.00  0.00     0.074 A 
ATOM     48  C   UNL A   1      42.542  28.303  28.269  1.00  0.00     0.049 A 
ATOM     49  N   UNL A   1      43.843  25.683  28.061  1.00  0.00    -0.248 NA
ATOM     50  C   UNL A   1      42.447  24.751  29.609  1.00  0.00     0.031 C 
ATOM     51  C   UNL A   1      43.015  28.282  26.898  1.00  0.00     0.029 A 
ATOM     52  N   UNL A   1      42.308  29.662  28.537  1.00  0.00    -0.354 N 
ATOM     53  C   UNL A   1      43.894  24.319  27.875  1.00  0.00     0.074 A 
ATOM     54  C   UNL A   1      43.060  23.778  28.922  1.00  0.00     0.031 C 
ATOM     55  C   UNL A   1      43.318  29.542  26.537  1.00  0.00     0.029 A 
ATOM     56  C   UNL A   1      43.225  30.360  27.741  1.00  0.00     0.049 A 
ATOM     57  H   UNL A   1      41.642  30.043  29.154  1.00  0.00     0.167 HD
ATOM     58  C   UNL A   1      44.533  23.848  26.762  1.00  0.00     0.037 A 
ATOM     59  C   UNL A   1      44.284  30.966  28.358  1.00  0.00     0.037 A 
ATOM     60  C   UNL A   1      45.182  24.953  26.052  1.00  0.00     0.049 A 
ATOM     61  C   UNL A   1      45.591  30.376  27.901  1.00  0.00     0.074 A 
ATOM     62  C   UNL A   1      44.801  25.710  24.955  1.00  0.00     0.029 A 
ATOM     63  N   UNL A   1      46.215  25.652  26.674  1.00  0.00    -0.354 N 
ATOM     64  N   UNL A   1      45.751  29.126  27.561  1.00  0.00    -0.248 NA
ATOM     65  C   UNL A   1      46.795  31.176  27.728  1.00  0.00     0.031 C 
ATOM     66  C   UNL A   1      45.557  26.910  24.970  1.00  0.00     0.029 A 
ATOM     67  C   UNL A   1      46.412  26.872  26.058  1.00  0.00     0.049 A 
ATOM     68  H   UNL A   1      46.731  25.322  27.445  1.00  0.00     0.167 HD
ATOM     69  C   UNL A   1      47.012  28.963  27.056  1.00  0.00     0.074 A 
ATOM     70  C   UNL A   1      47.636  30.267  27.208  1.00  0.00     0.031 C 
ATOM     71  C   UNL A   1      47.446  27.788  26.513  1.00  0.00     0.037 A 
BRANCH  58  72
ATOM     72  C   UNL A   1      44.347  22.470  26.150  1.00  0.00     0.064 A 
ATOM     73  C   UNL A   1      43.069  21.859  26.129  1.00  0.00     0.173 A 
ATOM     74  C   UNL A   1      45.376  21.670  25.619  1.00  0.00     0.173 A 
ATOM     75  F   UNL A   1      41.969  22.518  26.512  1.00  0.00    -0.203 F 
ATOM     76  C   UNL A   1      42.863  20.539  25.714  1.00  0.00     0.198 A 
ATOM     77  C   UNL A   1      45.177  20.336  25.235  1.00  0.00     0.198 A 
ATOM     78  F   UNL A   1      46.598  22.164  25.394  1.00  0.00    -0.203 F 
ATOM     79  F   UNL A   1      41.627  20.019  25.738  1.00  0.00    -0.200 F 
ATOM     80  C   UNL A   1      43.923  19.766  25.296  1.00  0.00     0.200 A 
ATOM     81  F   UNL A   1      46.216  19.608  24.802  1.00  0.00    -0.200 F 
ATOM     82  F   UNL A   1      43.733  18.491  24.928  1.00  0.00    -0.200 F 
ENDBRANCH  58  72
BRANCH  59  83
ATOM     83  C   UNL A   1      43.975  31.405  29.757  1.00  0.00     0.064 A 
ATOM     84  C   UNL A   1      44.428  30.600  30.825  1.00  0.00     0.173 A 
ATOM     85  C   UNL A   1      43.611  32.723  30.064  1.00  0.00     0.173 A 
ATOM     86  F   UNL A   1      44.813  29.333  30.593  1.00  0.00    -0.203 F 
ATOM     87  C   UNL A   1      44.611  31.118  32.108  1.00  0.00     0.198 A 
ATOM     88  C   UNL A   1      43.783  33.235  31.355  1.00  0.00     0.198 A 
ATOM     89  F   UNL A   1      43.181  33.551  29.103  1.00  0.00    -0.203 F 
ATOM     90  F   UNL A   1      45.148  30.353  33.068  1.00  0.00    -0.200 F 
ATOM     91  C   UNL A   1      44.309  32.443  32.366  1.00  0.00     0.200 A 
ATOM     92  F   UNL A   1      43.514  34.526  31.604  1.00  0.00    -0.200 F 
ATOM     93  F   UNL A   1      44.556  32.969  33.575  1.00  0.00    -0.200 F 
ENDBRANCH  59  83
BRANCH  71  94
ATOM     94  C   UNL A   1      48.887  27.445  26.241  1.00  0.00     0.064 A 
ATOM     95  C   UNL A   1      49.779  27.026  27.240  1.00  0.00     0.173 A 
ATOM     96  C   UNL A   1      49.371  27.362  24.913  1.00  0.00     0.173 A 
ATOM     97  F   UNL A   1      49.400  26.936  28.522  1.00  0.00    -0.203 F 
ATOM     98  C   UNL A   1      51.081  26.621  26.945  1.00  0.00     0.198 A 
ATOM     99  C   UNL A   1      50.650  26.895  24.617  1.00  0.00     0.198 A 
ATOM    100  F   UNL A   1      48.609  27.694  23.862  1.00  0.00    -0.203 F 
ATOM    101  F   UNL A   1      51.908  26.275  27.941  1.00  0.00    -0.200 F 
ATOM    102  C   UNL A   1      51.512  26.543  25.634  1.00  0.00     0.200 A 
ATOM    103  F   UNL A   1      51.032  26.769  23.339  1.00  0.00    -0.200 F 
ATOM    104  F   UNL A   1      52.745  26.104  25.351  1.00  0.00    -0.200 F 
ENDBRANCH  71  94
ENDBRANCH  45  46
ENDBRANCH  38  40
ENDBRANCH  37  38
ENDBRANCH  36  37
ENDBRANCH  35  36
ENDBRANCH   1  35
TORSDOF 16
ENDMDL
MODEL 2
REMARK VINA RESULT:     -12.4      4.156      8.658
REMARK SMILES Cc1cc(OCC(=O)OCCOC(=O)c2ccc(-c3c4nc(c(-c5c(F)c(F)c(F)c(F)c5F)c5ccc([nH]5)c(-c5c(F)c(F)c(F)c(F)c5F)c5nc(c(-c6c(F)c(F)c(F)c(F)c6F)c6ccc3[nH]6)C=C5)C=C4)cc2)ccc1NC(=O)c1ccc(N2C(=O)[C@@H]3[C@H](C2=O)[C@H]2C=C[C@@H]3C2)cc1
REMARK SMILES IDX 9 1 7 2 8 3 6 4 5 5 4 6 1 7 2 8 3 9 80 10 79 11 78 12 81 13
REMARK SMILES IDX 82 14 83 16 84 17 85 18 101 19 86 20 100 21 87 22 88 23
REMARK SMILES IDX 89 24 93 25 90 26 91 27 92 28 94 29 98 30 95 31 97 32 99 33
REMARK SMILES IDX 96 34 10 35 11 36 12 37 13 38 14 39 15 40 16 41 77 42 17 43
REMARK SMILES IDX 76 44 18 45 19 46 20 47 70 48 21 49 75 50 69 51 71 52 22 53
REMARK SMILES IDX 74 54 68 55 67 56 23 58 55 59 35 60 54 61 36 62 39 63 53 64
REMARK SMILES IDX 72 65 37 66 38 67 52 69 73 70 40 71 24 72 25 73 33 74 26 75
REMARK SMILES IDX 27 76 31 77 34 78 28 79 29 80 32 81 30 82 56 83 57 84 65 85
REMARK SMILES IDX 58 86 59 87 63 88 66 89 60 90 61 91 64 92 62 93 41 94 42 95
REMARK SMILES IDX 50 96 43 97 44 98 48 99 51 100 45 101 46 102 49 103 47 104
REMARK H PARENT 81 15 71 57 39 68
REMARK Flexibility Score: inf
ROOT
ATOM      1  O   UNL A   1      36.579  33.164  30.594  1.00  0.00    -0.460 OA
ENDROOT
BRANCH   1   2
ATOM      2  C   UNL A   1      37.897  32.938  30.822  1.00  0.00     0.344 C 
ATOM      3  O   UNL A   1      38.411  31.828  30.871  1.00  0.00    -0.248 OA
BRANCH   2   4
ATOM      4  C   UNL A   1      38.665  34.258  30.900  1.00  0.00     0.351 C 
BRANCH   4   5
ATOM      5  O   UNL A   1      39.888  34.259  31.623  1.00  0.00    -0.482 OA
BRANCH   5   6
ATOM      6  C   UNL A   1      41.003  34.658  30.942  1.00  0.00     0.120 A 
ATOM      7  C   UNL A   1      41.530  35.697  27.352  1.00  0.00     0.047 C 
ATOM      8  C   UNL A   1      41.880  35.363  28.776  1.00  0.00    -0.024 A 
ATOM      9  C   UNL A   1      40.808  34.971  29.602  1.00  0.00     0.052 A 
ATOM     10  C   UNL A   1      43.184  35.422  29.310  1.00  0.00     0.044 A 
ATOM     11  C   UNL A   1      43.359  35.151  30.668  1.00  0.00     0.030 A 
ATOM     12  C   UNL A   1      42.274  34.795  31.485  1.00  0.00     0.048 A 
BRANCH  10  13
ATOM     13  N   UNL A   1      44.250  35.894  28.516  1.00  0.00    -0.322 N 
ATOM     14  C   UNL A   1      45.464  35.334  28.177  1.00  0.00     0.255 C 
ATOM     15  H   UNL A   1      44.100  36.789  28.134  1.00  0.00     0.170 HD
ATOM     16  O   UNL A   1      46.421  36.070  27.934  1.00  0.00    -0.269 OA
BRANCH  14  17
ATOM     17  C   UNL A   1      45.620  33.883  27.906  1.00  0.00     0.040 A 
ATOM     18  C   UNL A   1      45.724  32.986  28.969  1.00  0.00     0.016 A 
ATOM     19  C   UNL A   1      45.865  33.417  26.617  1.00  0.00     0.016 A 
ATOM     20  C   UNL A   1      45.958  31.618  28.734  1.00  0.00     0.027 A 
ATOM     21  C   UNL A   1      46.141  32.054  26.394  1.00  0.00     0.027 A 
ATOM     22  C   UNL A   1      46.138  31.111  27.437  1.00  0.00     0.052 A 
BRANCH  22  23
ATOM     23  N   UNL A   1      46.290  29.702  27.186  1.00  0.00    -0.250 N 
ATOM     24  C   UNL A   1      45.323  28.920  26.576  1.00  0.00     0.238 C 
ATOM     25  C   UNL A   1      47.446  28.984  27.426  1.00  0.00     0.238 C 
ATOM     26  O   UNL A   1      44.232  29.246  26.126  1.00  0.00    -0.274 OA
ATOM     27  C   UNL A   1      45.829  27.511  26.430  1.00  0.00     0.099 C 
ATOM     28  C   UNL A   1      47.232  27.542  27.051  1.00  0.00     0.099 C 
ATOM     29  O   UNL A   1      48.530  29.371  27.844  1.00  0.00    -0.274 OA
ATOM     30  C   UNL A   1      46.106  27.084  24.968  1.00  0.00     0.025 C 
ATOM     31  C   UNL A   1      48.146  27.092  25.891  1.00  0.00     0.025 C 
ATOM     32  C   UNL A   1      46.585  25.648  25.012  1.00  0.00    -0.027 C 
ATOM     33  C   UNL A   1      47.461  27.743  24.683  1.00  0.00     0.017 C 
ATOM     34  C   UNL A   1      47.805  25.652  25.574  1.00  0.00    -0.027 C 
ENDBRANCH  22  23
ENDBRANCH  14  17
ENDBRANCH  10  13
ENDBRANCH   5   6
ENDBRANCH   4   5
ENDBRANCH   2   4
ENDBRANCH   1   2
BRANCH   1  35
ATOM     35  C   UNL A   1      36.242  33.714  29.327  1.00  0.00     0.274 C 
BRANCH  35  36
ATOM     36  C   UNL A   1      36.893  32.876  28.224  1.00  0.00     0.275 C 
BRANCH  36  37
ATOM     37  O   UNL A   1      36.112  31.784  27.640  1.00  0.00    -0.458 OA
BRANCH  37  38
ATOM     38  C   UNL A   1      35.922  30.487  27.982  1.00  0.00     0.338 C 
ATOM     39  O   UNL A   1      34.831  29.963  28.082  1.00  0.00    -0.246 OA
BRANCH  38  40
ATOM     40  C   UNL A   1      37.120  29.680  28.140  1.00  0.00     0.060 A 
ATOM     41  C   UNL A   1      38.124  29.709  27.157  1.00  0.00     0.016 A 
ATOM     42  C   UNL A   1      37.254  28.959  29.310  1.00  0.00     0.016 A 
ATOM     43  C   UNL A   1      39.341  29.089  27.408  1.00  0.00     0.010 A 
ATOM     44  C   UNL A   1      38.487  28.462  29.612  1.00  0.00     0.010 A 
ATOM     45  C   UNL A   1      39.515  28.488  28.650  1.00  0.00    -0.014 A 
BRANCH  45  46
ATOM     46  C   UNL A   1      40.624  27.627  29.015  1.00  0.00     0.031 A 
ATOM     47  C   UNL A   1      40.696  26.199  28.675  1.00  0.00     0.074 A 
ATOM     48  C   UNL A   1      41.708  28.353  29.361  1.00  0.00     0.049 A 
ATOM     49  N   UNL A   1      41.682  25.442  29.007  1.00  0.00    -0.248 NA
ATOM     50  C   UNL A   1      39.665  25.485  27.939  1.00  0.00     0.031 C 
ATOM     51  C   UNL A   1      43.117  28.024  29.272  1.00  0.00     0.029 A 
ATOM     52  N   UNL A   1      41.684  29.628  29.949  1.00  0.00    -0.354 N 
ATOM     53  C   UNL A   1      41.581  24.265  28.298  1.00  0.00     0.074 A 
ATOM     54  C   UNL A   1      40.264  24.309  27.708  1.00  0.00     0.031 C 
ATOM     55  C   UNL A   1      43.804  28.899  30.028  1.00  0.00     0.029 A 
ATOM     56  C   UNL A   1      42.820  29.681  30.767  1.00  0.00     0.049 A 
ATOM     57  H   UNL A   1      41.012  30.336  29.815  1.00  0.00     0.167 HD
ATOM     58  C   UNL A   1      42.695  23.479  28.200  1.00  0.00     0.037 A 
ATOM     59  C   UNL A   1      42.641  29.635  32.122  1.00  0.00     0.037 A 
ATOM     60  C   UNL A   1      43.767  24.021  29.038  1.00  0.00     0.049 A 
ATOM     61  C   UNL A   1      43.284  28.409  32.714  1.00  0.00     0.074 A 
ATOM     62  C   UNL A   1      44.863  24.820  28.752  1.00  0.00     0.029 A 
ATOM     63  N   UNL A   1      43.596  24.067  30.420  1.00  0.00    -0.354 N 
ATOM     64  N   UNL A   1      43.380  27.262  32.098  1.00  0.00    -0.248 NA
ATOM     65  C   UNL A   1      43.929  28.415  34.020  1.00  0.00     0.031 C 
ATOM     66  C   UNL A   1      45.300  25.412  29.964  1.00  0.00     0.029 A 
ATOM     67  C   UNL A   1      44.487  24.956  30.988  1.00  0.00     0.049 A 
ATOM     68  H   UNL A   1      42.933  23.539  30.922  1.00  0.00     0.167 HD
ATOM     69  C   UNL A   1      44.147  26.418  32.853  1.00  0.00     0.074 A 
ATOM     70  C   UNL A   1      44.442  27.174  34.058  1.00  0.00     0.031 C 
ATOM     71  C   UNL A   1      44.521  25.177  32.425  1.00  0.00     0.037 A 
BRANCH  58  72
ATOM     72  C   UNL A   1      42.930  22.403  27.153  1.00  0.00     0.064 A 
ATOM     73  C   UNL A   1      42.205  21.187  27.196  1.00  0.00     0.173 A 
ATOM     74  C   UNL A   1      43.880  22.470  26.117  1.00  0.00     0.173 A 
ATOM     75  F   UNL A   1      41.201  20.998  28.062  1.00  0.00    -0.203 F 
ATOM     76  C   UNL A   1      42.480  20.106  26.352  1.00  0.00     0.198 A 
ATOM     77  C   UNL A   1      44.181  21.375  25.293  1.00  0.00     0.198 A 
ATOM     78  F   UNL A   1      44.512  23.611  25.823  1.00  0.00    -0.203 F 
ATOM     79  F   UNL A   1      41.764  18.977  26.461  1.00  0.00    -0.200 F 
ATOM     80  C   UNL A   1      43.490  20.189  25.420  1.00  0.00     0.200 A 
ATOM     81  F   UNL A   1      45.147  21.485  24.370  1.00  0.00    -0.200 F 
ATOM     82  F   UNL A   1      43.776  19.144  24.631  1.00  0.00    -0.200 F 
ENDBRANCH  58  72
BRANCH  59  83
ATOM     83  C   UNL A   1      41.336  30.225  32.562  1.00  0.00     0.064 A 
ATOM     84  C   UNL A   1      40.229  29.361  32.714  1.00  0.00     0.173 A 
ATOM     85  C   UNL A   1      41.254  31.479  33.183  1.00  0.00     0.173 A 
ATOM     86  F   UNL A   1      40.255  28.137  32.161  1.00  0.00    -0.203 F 
ATOM     87  C   UNL A   1      39.148  29.692  33.533  1.00  0.00     0.198 A 
ATOM     88  C   UNL A   1      40.162  31.811  33.993  1.00  0.00     0.198 A 
ATOM     89  F   UNL A   1      42.269  32.349  33.093  1.00  0.00    -0.203 F 
ATOM     90  F   UNL A   1      38.170  28.799  33.741  1.00  0.00    -0.200 F 
ATOM     91  C   UNL A   1      39.128  30.909  34.190  1.00  0.00     0.200 A 
ATOM     92  F   UNL A   1      40.150  32.981  34.651  1.00  0.00    -0.200 F 
ATOM     93  F   UNL A   1      38.131  31.200  35.040  1.00  0.00    -0.200 F 
ENDBRANCH  59  83
BRANCH  71  94
ATOM     94  C   UNL A   1      45.076  24.092  33.310  1.00  0.00     0.064 A 
ATOM     95  C   UNL A   1      44.353  22.941  33.663  1.00  0.00     0.173 A 
ATOM     96  C   UNL A   1      46.440  24.099  33.693  1.00  0.00     0.173 A 
ATOM     97  F   UNL A   1      43.092  22.755  33.250  1.00  0.00    -0.203 F 
ATOM     98  C   UNL A   1      44.926  21.907  34.404  1.00  0.00     0.198 A 
ATOM     99  C   UNL A   1      47.026  23.036  34.376  1.00  0.00     0.198 A 
ATOM    100  F   UNL A   1      47.253  25.120  33.385  1.00  0.00    -0.203 F 
ATOM    101  F   UNL A   1      44.178  20.852  34.755  1.00  0.00    -0.200 F 
ATOM    102  C   UNL A   1      46.264  21.949  34.749  1.00  0.00     0.200 A 
ATOM    103  F   UNL A   1      48.337  23.064  34.650  1.00  0.00    -0.200 F 
ATOM    104  F   UNL A   1      46.823  20.930  35.414  1.00  0.00    -0.200 F 
ENDBRANCH  71  94
ENDBRANCH  45  46
ENDBRANCH  38  40
ENDBRANCH  37  38
ENDBRANCH  36  37
ENDBRANCH  35  36
ENDBRANCH   1  35
TORSDOF 16
ENDMDL
MODEL 3
REMARK VINA RESULT:     -12.3      3.817      7.456
REMARK SMILES Cc1cc(OCC(=O)OCCOC(=O)c2ccc(-c3c4nc(c(-c5c(F)c(F)c(F)c(F)c5F)c5ccc([nH]5)c(-c5c(F)c(F)c(F)c(F)c5F)c5nc(c(-c6c(F)c(F)c(F)c(F)c6F)c6ccc3[nH]6)C=C5)C=C4)cc2)ccc1NC(=O)c1ccc(N2C(=O)[C@@H]3[C@H](C2=O)[C@H]2C=C[C@@H]3C2)cc1
REMARK SMILES IDX 9 1 7 2 8 3 6 4 5 5 4 6 1 7 2 8 3 9 80 10 79 11 78 12 81 13
REMARK SMILES IDX 82 14 83 16 84 17 85 18 101 19 86 20 100 21 87 22 88 23
REMARK SMILES IDX 89 24 93 25 90 26 91 27 92 28 94 29 98 30 95 31 97 32 99 33
REMARK SMILES IDX 96 34 10 35 11 36 12 37 13 38 14 39 15 40 16 41 77 42 17 43
REMARK SMILES IDX 76 44 18 45 19 46 20 47 70 48 21 49 75 50 69 51 71 52 22 53
REMARK SMILES IDX 74 54 68 55 67 56 23 58 55 59 35 60 54 61 36 62 39 63 53 64
REMARK SMILES IDX 72 65 37 66 38 67 52 69 73 70 40 71 24 72 25 73 33 74 26 75
REMARK SMILES IDX 27 76 31 77 34 78 28 79 29 80 32 81 30 82 56 83 57 84 65 85
REMARK SMILES IDX 58 86 59 87 63 88 66 89 60 90 61 91 64 92 62 93 41 94 42 95
REMARK SMILES IDX 50 96 43 97 44 98 48 99 51 100 45 101 46 102 49 103 47 104
REMARK H PARENT 81 15 71 57 39 68
REMARK Flexibility Score: inf
ROOT
ATOM      1  O   UNL A   1      35.321  31.393  27.701  1.00  0.00    -0.460 OA
ENDROOT
BRANCH   1   2
ATOM      2  C   UNL A   1      35.304  30.045  27.558  1.00  0.00     0.344 C 
ATOM      3  O   UNL A   1      36.214  29.301  27.899  1.00  0.00    -0.248 OA
BRANCH   2   4
ATOM      4  C   UNL A   1      33.953  29.577  27.015  1.00  0.00     0.351 C 
BRANCH   4   5
ATOM      5  O   UNL A   1      33.855  29.355  25.615  1.00  0.00    -0.482 OA
BRANCH   5   6
ATOM      6  C   UNL A   1      33.593  28.075  25.214  1.00  0.00     0.120 A 
ATOM      7  C   UNL A   1      33.083  26.553  21.798  1.00  0.00     0.047 C 
ATOM      8  C   UNL A   1      33.165  26.625  23.299  1.00  0.00    -0.024 A 
ATOM      9  C   UNL A   1      33.469  27.889  23.843  1.00  0.00     0.052 A 
ATOM     10  C   UNL A   1      32.962  25.527  24.160  1.00  0.00     0.044 A 
ATOM     11  C   UNL A   1      33.136  25.717  25.532  1.00  0.00     0.030 A 
ATOM     12  C   UNL A   1      33.473  26.976  26.055  1.00  0.00     0.048 A 
BRANCH  10  13
ATOM     13  N   UNL A   1      32.742  24.241  23.623  1.00  0.00    -0.322 N 
ATOM     14  C   UNL A   1      33.610  23.234  23.260  1.00  0.00     0.255 C 
ATOM     15  H   UNL A   1      31.792  24.023  23.483  1.00  0.00     0.170 HD
ATOM     16  O   UNL A   1      33.284  22.447  22.369  1.00  0.00    -0.269 OA
BRANCH  14  17
ATOM     17  C   UNL A   1      34.847  22.938  24.025  1.00  0.00     0.040 A 
ATOM     18  C   UNL A   1      36.083  23.370  23.541  1.00  0.00     0.016 A 
ATOM     19  C   UNL A   1      34.827  22.069  25.112  1.00  0.00     0.016 A 
ATOM     20  C   UNL A   1      37.275  23.026  24.207  1.00  0.00     0.027 A 
ATOM     21  C   UNL A   1      36.028  21.695  25.747  1.00  0.00     0.027 A 
ATOM     22  C   UNL A   1      37.275  22.208  25.348  1.00  0.00     0.052 A 
BRANCH  22  23
ATOM     23  N   UNL A   1      38.481  21.927  26.081  1.00  0.00    -0.250 N 
ATOM     24  C   UNL A   1      39.192  20.744  25.967  1.00  0.00     0.238 C 
ATOM     25  C   UNL A   1      39.129  22.832  26.901  1.00  0.00     0.238 C 
ATOM     26  O   UNL A   1      38.977  19.776  25.250  1.00  0.00    -0.274 OA
ATOM     27  C   UNL A   1      40.419  20.807  26.835  1.00  0.00     0.099 C 
ATOM     28  C   UNL A   1      40.347  22.186  27.503  1.00  0.00     0.099 C 
ATOM     29  O   UNL A   1      38.854  24.002  27.138  1.00  0.00    -0.274 OA
ATOM     30  C   UNL A   1      41.750  20.871  26.047  1.00  0.00     0.025 C 
ATOM     31  C   UNL A   1      41.658  22.867  27.057  1.00  0.00     0.025 C 
ATOM     32  C   UNL A   1      42.866  20.909  27.071  1.00  0.00    -0.027 C 
ATOM     33  C   UNL A   1      41.812  22.344  25.623  1.00  0.00     0.017 C 
ATOM     34  C   UNL A   1      42.805  22.104  27.683  1.00  0.00    -0.027 C 
ENDBRANCH  22  23
ENDBRANCH  14  17
ENDBRANCH  10  13
ENDBRANCH   5   6
ENDBRANCH   4   5
ENDBRANCH   2   4
ENDBRANCH   1   2
BRANCH   1  35
ATOM     35  C   UNL A   1      34.086  32.008  28.046  1.00  0.00     0.274 C 
BRANCH  35  36
ATOM     36  C   UNL A   1      34.353  33.423  28.562  1.00  0.00     0.275 C 
BRANCH  36  37
ATOM     37  O   UNL A   1      34.133  33.687  29.986  1.00  0.00    -0.458 OA
BRANCH  37  38
ATOM     38  C   UNL A   1      34.962  33.937  31.027  1.00  0.00     0.338 C 
ATOM     39  O   UNL A   1      34.669  34.636  31.977  1.00  0.00    -0.246 OA
BRANCH  38  40
ATOM     40  C   UNL A   1      36.235  33.236  31.021  1.00  0.00     0.060 A 
ATOM     41  C   UNL A   1      37.324  33.759  30.302  1.00  0.00     0.016 A 
ATOM     42  C   UNL A   1      36.341  32.100  31.799  1.00  0.00     0.016 A 
ATOM     43  C   UNL A   1      38.581  33.188  30.460  1.00  0.00     0.010 A 
ATOM     44  C   UNL A   1      37.591  31.620  32.055  1.00  0.00     0.010 A 
ATOM     45  C   UNL A   1      38.702  32.133  31.358  1.00  0.00    -0.014 A 
BRANCH  45  46
ATOM     46  C   UNL A   1      39.872  31.287  31.502  1.00  0.00     0.031 A 
ATOM     47  C   UNL A   1      40.104  30.070  30.712  1.00  0.00     0.074 A 
ATOM     48  C   UNL A   1      40.858  31.934  32.158  1.00  0.00     0.049 A 
ATOM     49  N   UNL A   1      41.144  29.325  30.850  1.00  0.00    -0.248 NA
ATOM     50  C   UNL A   1      39.188  29.571  29.699  1.00  0.00     0.031 C 
ATOM     51  C   UNL A   1      42.297  31.766  32.078  1.00  0.00     0.029 A 
ATOM     52  N   UNL A   1      40.677  32.928  33.134  1.00  0.00    -0.354 N 
ATOM     53  C   UNL A   1      41.198  28.455  29.783  1.00  0.00     0.074 A 
ATOM     54  C   UNL A   1      39.913  28.595  29.138  1.00  0.00     0.031 C 
ATOM     55  C   UNL A   1      42.854  32.383  33.136  1.00  0.00     0.029 A 
ATOM     56  C   UNL A   1      41.760  32.788  34.012  1.00  0.00     0.049 A 
ATOM     57  H   UNL A   1      39.945  33.584  33.191  1.00  0.00     0.167 HD
ATOM     58  C   UNL A   1      42.388  27.839  29.518  1.00  0.00     0.037 A 
ATOM     59  C   UNL A   1      41.519  32.269  35.254  1.00  0.00     0.037 A 
ATOM     60  C   UNL A   1      43.357  28.145  30.574  1.00  0.00     0.049 A 
ATOM     61  C   UNL A   1      42.252  30.969  35.453  1.00  0.00     0.074 A 
ATOM     62  C   UNL A   1      44.379  29.077  30.660  1.00  0.00     0.029 A 
ATOM     63  N   UNL A   1      43.113  27.704  31.873  1.00  0.00    -0.354 N 
ATOM     64  N   UNL A   1      42.494  30.111  34.499  1.00  0.00    -0.248 NA
ATOM     65  C   UNL A   1      42.827  30.580  36.733  1.00  0.00     0.031 C 
ATOM     66  C   UNL A   1      44.694  29.253  32.032  1.00  0.00     0.029 A 
ATOM     67  C   UNL A   1      43.881  28.414  32.776  1.00  0.00     0.049 A 
ATOM     68  H   UNL A   1      42.483  26.988  32.114  1.00  0.00     0.167 HD
ATOM     69  C   UNL A   1      43.303  29.123  34.987  1.00  0.00     0.074 A 
ATOM     70  C   UNL A   1      43.460  29.445  36.396  1.00  0.00     0.031 C 
ATOM     71  C   UNL A   1      43.821  28.135  34.202  1.00  0.00     0.037 A 
BRANCH  58  72
ATOM     72  C   UNL A   1      42.782  27.205  28.195  1.00  0.00     0.064 A 
ATOM     73  C   UNL A   1      43.525  25.999  28.168  1.00  0.00     0.173 A 
ATOM     74  C   UNL A   1      42.516  27.746  26.923  1.00  0.00     0.173 A 
ATOM     75  F   UNL A   1      43.783  25.307  29.285  1.00  0.00    -0.203 F 
ATOM     76  C   UNL A   1      44.040  25.448  26.990  1.00  0.00     0.198 A 
ATOM     77  C   UNL A   1      43.061  27.214  25.745  1.00  0.00     0.198 A 
ATOM     78  F   UNL A   1      41.674  28.771  26.763  1.00  0.00    -0.203 F 
ATOM     79  F   UNL A   1      44.750  24.312  27.042  1.00  0.00    -0.200 F 
ATOM     80  C   UNL A   1      43.834  26.073  25.780  1.00  0.00     0.200 A 
ATOM     81  F   UNL A   1      42.824  27.819  24.572  1.00  0.00    -0.200 F 
ATOM     82  F   UNL A   1      44.353  25.564  24.654  1.00  0.00    -0.200 F 
ENDBRANCH  58  72
BRANCH  59  83
ATOM     83  C   UNL A   1      40.141  32.571  35.759  1.00  0.00     0.064 A 
ATOM     84  C   UNL A   1      39.243  31.495  35.935  1.00  0.00     0.173 A 
ATOM     85  C   UNL A   1      39.830  33.772  36.411  1.00  0.00     0.173 A 
ATOM     86  F   UNL A   1      39.496  30.311  35.353  1.00  0.00    -0.203 F 
ATOM     87  C   UNL A   1      38.154  31.584  36.804  1.00  0.00     0.198 A 
ATOM     88  C   UNL A   1      38.730  33.860  37.271  1.00  0.00     0.198 A 
ATOM     89  F   UNL A   1      40.640  34.835  36.301  1.00  0.00    -0.203 F 
ATOM     90  F   UNL A   1      37.390  30.506  37.029  1.00  0.00    -0.200 F 
ATOM     91  C   UNL A   1      37.912  32.761  37.489  1.00  0.00     0.200 A 
ATOM     92  F   UNL A   1      38.505  34.993  37.956  1.00  0.00    -0.200 F 
ATOM     93  F   UNL A   1      36.915  32.828  38.384  1.00  0.00    -0.200 F 
ENDBRANCH  59  83
BRANCH  71  94
ATOM     94  C   UNL A   1      44.438  26.860  34.715  1.00  0.00     0.064 A 
ATOM     95  C   UNL A   1      43.702  25.687  34.945  1.00  0.00     0.173 A 
ATOM     96  C   UNL A   1      45.844  26.732  34.827  1.00  0.00     0.173 A 
ATOM     97  F   UNL A   1      42.377  25.644  34.747  1.00  0.00    -0.203 F 
ATOM     98  C   UNL A   1      44.314  24.494  35.328  1.00  0.00     0.198 A 
ATOM     99  C   UNL A   1      46.457  25.523  35.146  1.00  0.00     0.198 A 
ATOM    100  F   UNL A   1      46.666  27.765  34.595  1.00  0.00    -0.203 F 
ATOM    101  F   UNL A   1      43.561  23.415  35.581  1.00  0.00    -0.200 F 
ATOM    102  C   UNL A   1      45.691  24.408  35.415  1.00  0.00     0.200 A 
ATOM    103  F   UNL A   1      47.794  25.441  35.167  1.00  0.00    -0.200 F 
ATOM    104  F   UNL A   1      46.278  23.247  35.732  1.00  0.00    -0.200 F 
ENDBRANCH  71  94
ENDBRANCH  45  46
ENDBRANCH  38  40
ENDBRANCH  37  38
ENDBRANCH  36  37
ENDBRANCH  35  36
ENDBRANCH   1  35
TORSDOF 16
ENDMDL
