MODEL 1
REMARK VINA RESULT:     -10.0      0.000      0.000
REMARK SMILES C#CCN(CC(=O)OCCOC(=O)c1ccc(-c2c3nc(c(-c4c(F)c(F)c(F)c(F)c4F)c4ccc([nH]4)c(-c4c(F)c(F)c(F)c(F)c4F)c4nc(c(-c5c(F)c(F)c(F)c(F)c5F)c5ccc2[nH]5)C=C4)C=C3)cc1)C(=O)c1c[nH]c(=O)[nH]1
REMARK SMILES IDX 9 1 8 2 6 3 7 4 5 5 4 6 3 7 2 8 1 9 77 10 78 11 79 12 80 13
REMARK SMILES IDX 84 14 81 15 82 16 83 19 10 20 11 21 12 22 13 23 14 24 15 25
REMARK SMILES IDX 76 26 16 27 75 28 17 29 18 30 19 31 69 32 20 33 74 34 68 35
REMARK SMILES IDX 70 36 21 37 73 38 67 39 66 40 22 42 54 43 34 44 53 45 35 46
REMARK SMILES IDX 38 47 52 48 71 49 36 50 37 51 51 53 72 54 39 55 23 56 24 57
REMARK SMILES IDX 32 58 25 59 26 60 30 61 33 62 27 63 28 64 31 65 29 66 55 67
REMARK SMILES IDX 56 68 64 69 57 70 58 71 62 72 65 73 59 74 60 75 63 76 61 77
REMARK SMILES IDX 40 78 41 79 49 80 42 81 43 82 47 83 50 84 44 85 45 86 48 87
REMARK SMILES IDX 46 88
REMARK H PARENT 84 17 81 18 70 41 38 52
REMARK Flexibility Score: inf
ROOT
ATOM      1  C   UNL A   1      40.981  21.152  27.480  1.00  0.00     0.274 C 
ENDROOT
BRANCH   1   2
ATOM      2  O   UNL A   1      42.392  21.453  27.657  1.00  0.00    -0.461 OA
BRANCH   2   3
ATOM      3  C   UNL A   1      42.681  22.707  28.100  1.00  0.00     0.325 C 
ATOM      4  O   UNL A   1      42.088  23.255  29.028  1.00  0.00    -0.250 OA
BRANCH   3   5
ATOM      5  C   UNL A   1      43.973  23.310  27.514  1.00  0.00     0.243 C 
BRANCH   5   6
ATOM      6  N   UNL A   1      44.335  23.043  26.127  1.00  0.00    -0.315 N 
BRANCH   6   7
ATOM      7  C   UNL A   1      43.531  23.717  25.134  1.00  0.00     0.210 C 
BRANCH   7   8
ATOM      8  C   UNL A   1      43.758  25.217  25.232  1.00  0.00    -0.085 C 
ATOM      9  C   UNL A   1      43.952  26.503  25.316  1.00  0.00     0.006 C 
ENDBRANCH   7   8
ENDBRANCH   6   7
BRANCH   6  10
ATOM     10  C   UNL A   1      45.329  22.202  25.652  1.00  0.00     0.273 C 
ATOM     11  O   UNL A   1      46.484  22.591  25.461  1.00  0.00    -0.267 OA
BRANCH  10  12
ATOM     12  C   UNL A   1      45.045  20.776  25.397  1.00  0.00     0.125 A 
ATOM     13  C   UNL A   1      45.955  19.903  24.940  1.00  0.00     0.119 A 
ATOM     14  N   UNL A   1      43.869  20.106  25.648  1.00  0.00    -0.302 N 
ATOM     15  N   UNL A   1      45.362  18.668  24.845  1.00  0.00    -0.312 N 
ATOM     16  C   UNL A   1      44.038  18.761  25.287  1.00  0.00     0.323 A 
ATOM     17  H   UNL A   1      43.048  20.503  26.017  1.00  0.00     0.172 HD
ATOM     18  H   UNL A   1      45.799  17.849  24.517  1.00  0.00     0.171 HD
ATOM     19  O   UNL A   1      43.218  17.862  25.348  1.00  0.00    -0.248 OA
ENDBRANCH  10  12
ENDBRANCH   6  10
ENDBRANCH   5   6
ENDBRANCH   3   5
ENDBRANCH   2   3
ENDBRANCH   1   2
BRANCH   1  20
ATOM     20  C   UNL A   1      40.349  21.893  26.283  1.00  0.00     0.275 C 
BRANCH  20  21
ATOM     21  O   UNL A   1      38.939  22.181  26.466  1.00  0.00    -0.458 OA
BRANCH  21  22
ATOM     22  C   UNL A   1      38.676  23.480  26.238  1.00  0.00     0.338 C 
ATOM     23  O   UNL A   1      37.766  23.882  25.534  1.00  0.00    -0.246 OA
BRANCH  22  24
ATOM     24  C   UNL A   1      39.464  24.489  26.937  1.00  0.00     0.060 A 
ATOM     25  C   UNL A   1      39.138  24.737  28.272  1.00  0.00     0.016 A 
ATOM     26  C   UNL A   1      40.136  25.451  26.181  1.00  0.00     0.016 A 
ATOM     27  C   UNL A   1      39.424  25.973  28.839  1.00  0.00     0.010 A 
ATOM     28  C   UNL A   1      40.513  26.655  26.781  1.00  0.00     0.010 A 
ATOM     29  C   UNL A   1      40.156  26.924  28.112  1.00  0.00    -0.014 A 
BRANCH  29  30
ATOM     30  C   UNL A   1      40.718  28.097  28.821  1.00  0.00     0.031 A 
ATOM     31  C   UNL A   1      42.134  28.149  29.307  1.00  0.00     0.074 A 
ATOM     32  C   UNL A   1      39.874  29.122  29.043  1.00  0.00     0.049 A 
ATOM     33  N   UNL A   1      42.716  29.061  30.048  1.00  0.00    -0.248 NA
ATOM     34  C   UNL A   1      43.017  27.044  28.915  1.00  0.00     0.031 C 
ATOM     35  C   UNL A   1      38.479  29.170  28.590  1.00  0.00     0.029 A 
ATOM     36  N   UNL A   1      40.047  30.306  29.703  1.00  0.00    -0.354 N 
ATOM     37  C   UNL A   1      44.026  28.631  30.224  1.00  0.00     0.074 A 
ATOM     38  C   UNL A   1      44.153  27.374  29.517  1.00  0.00     0.031 C 
ATOM     39  C   UNL A   1      37.931  30.329  28.970  1.00  0.00     0.029 A 
ATOM     40  C   UNL A   1      38.903  31.060  29.766  1.00  0.00     0.049 A 
ATOM     41  H   UNL A   1      40.906  30.589  30.094  1.00  0.00     0.167 HD
ATOM     42  C   UNL A   1      45.017  29.237  30.923  1.00  0.00     0.037 A 
ATOM     43  C   UNL A   1      38.643  32.194  30.438  1.00  0.00     0.037 A 
ATOM     44  C   UNL A   1      44.857  30.486  31.628  1.00  0.00     0.049 A 
ATOM     45  C   UNL A   1      39.738  32.805  31.255  1.00  0.00     0.074 A 
ATOM     46  C   UNL A   1      45.793  31.193  32.363  1.00  0.00     0.029 A 
ATOM     47  N   UNL A   1      43.674  31.210  31.690  1.00  0.00    -0.354 N 
ATOM     48  N   UNL A   1      40.969  32.389  31.422  1.00  0.00    -0.248 NA
ATOM     49  C   UNL A   1      39.406  34.035  31.979  1.00  0.00     0.031 C 
ATOM     50  C   UNL A   1      45.165  32.319  32.908  1.00  0.00     0.029 A 
ATOM     51  C   UNL A   1      43.850  32.343  32.471  1.00  0.00     0.049 A 
ATOM     52  H   UNL A   1      42.833  30.957  31.246  1.00  0.00     0.167 HD
ATOM     53  C   UNL A   1      41.569  33.314  32.260  1.00  0.00     0.074 A 
ATOM     54  C   UNL A   1      40.567  34.322  32.550  1.00  0.00     0.031 C 
ATOM     55  C   UNL A   1      42.833  33.327  32.748  1.00  0.00     0.037 A 
BRANCH  42  56
ATOM     56  C   UNL A   1      46.353  28.551  30.991  1.00  0.00     0.064 A 
ATOM     57  C   UNL A   1      47.381  28.838  30.081  1.00  0.00     0.173 A 
ATOM     58  C   UNL A   1      46.632  27.641  32.025  1.00  0.00     0.173 A 
ATOM     59  F   UNL A   1      47.170  29.699  29.074  1.00  0.00    -0.203 F 
ATOM     60  C   UNL A   1      48.630  28.228  30.191  1.00  0.00     0.198 A 
ATOM     61  C   UNL A   1      47.888  27.051  32.145  1.00  0.00     0.198 A 
ATOM     62  F   UNL A   1      45.691  27.339  32.931  1.00  0.00    -0.203 F 
ATOM     63  F   UNL A   1      49.588  28.497  29.293  1.00  0.00    -0.200 F 
ATOM     64  C   UNL A   1      48.884  27.340  31.226  1.00  0.00     0.200 A 
ATOM     65  F   UNL A   1      48.137  26.207  33.157  1.00  0.00    -0.200 F 
ATOM     66  F   UNL A   1      50.090  26.765  31.338  1.00  0.00    -0.200 F 
ENDBRANCH  42  56
BRANCH  43  67
ATOM     67  C   UNL A   1      37.283  32.781  30.371  1.00  0.00     0.064 A 
ATOM     68  C   UNL A   1      36.910  33.609  29.305  1.00  0.00     0.173 A 
ATOM     69  C   UNL A   1      36.311  32.475  31.336  1.00  0.00     0.173 A 
ATOM     70  F   UNL A   1      37.809  33.935  28.365  1.00  0.00    -0.203 F 
ATOM     71  C   UNL A   1      35.617  34.117  29.211  1.00  0.00     0.198 A 
ATOM     72  C   UNL A   1      35.009  32.957  31.223  1.00  0.00     0.198 A 
ATOM     73  F   UNL A   1      36.615  31.672  32.367  1.00  0.00    -0.203 F 
ATOM     74  F   UNL A   1      35.292  34.929  28.196  1.00  0.00    -0.200 F 
ATOM     75  C   UNL A   1      34.665  33.782  30.164  1.00  0.00     0.200 A 
ATOM     76  F   UNL A   1      34.088  32.611  32.132  1.00  0.00    -0.200 F 
ATOM     77  F   UNL A   1      33.417  34.256  30.061  1.00  0.00    -0.200 F 
ENDBRANCH  43  67
BRANCH  55  78
ATOM     78  C   UNL A   1      43.198  34.489  33.620  1.00  0.00     0.064 A 
ATOM     79  C   UNL A   1      43.671  35.693  33.077  1.00  0.00     0.173 A 
ATOM     80  C   UNL A   1      43.073  34.395  35.013  1.00  0.00     0.173 A 
ATOM     81  F   UNL A   1      43.829  35.820  31.752  1.00  0.00    -0.203 F 
ATOM     82  C   UNL A   1      44.037  36.752  33.903  1.00  0.00     0.198 A 
ATOM     83  C   UNL A   1      43.412  35.465  35.834  1.00  0.00     0.198 A 
ATOM     84  F   UNL A   1      42.625  33.263  35.578  1.00  0.00    -0.203 F 
ATOM     85  F   UNL A   1      44.542  37.871  33.370  1.00  0.00    -0.200 F 
ATOM     86  C   UNL A   1      43.902  36.638  35.280  1.00  0.00     0.200 A 
ATOM     87  F   UNL A   1      43.275  35.358  37.163  1.00  0.00    -0.200 F 
ATOM     88  F   UNL A   1      44.258  37.658  36.074  1.00  0.00    -0.200 F 
ENDBRANCH  55  78
ENDBRANCH  29  30
ENDBRANCH  22  24
ENDBRANCH  21  22
ENDBRANCH  20  21
ENDBRANCH   1  20
TORSDOF 16
ENDMDL
MODEL 2
REMARK VINA RESULT:      -9.9      0.508      2.137
REMARK SMILES C#CCN(CC(=O)OCCOC(=O)c1ccc(-c2c3nc(c(-c4c(F)c(F)c(F)c(F)c4F)c4ccc([nH]4)c(-c4c(F)c(F)c(F)c(F)c4F)c4nc(c(-c5c(F)c(F)c(F)c(F)c5F)c5ccc2[nH]5)C=C4)C=C3)cc1)C(=O)c1c[nH]c(=O)[nH]1
REMARK SMILES IDX 9 1 8 2 6 3 7 4 5 5 4 6 3 7 2 8 1 9 77 10 78 11 79 12 80 13
REMARK SMILES IDX 84 14 81 15 82 16 83 19 10 20 11 21 12 22 13 23 14 24 15 25
REMARK SMILES IDX 76 26 16 27 75 28 17 29 18 30 19 31 69 32 20 33 74 34 68 35
REMARK SMILES IDX 70 36 21 37 73 38 67 39 66 40 22 42 54 43 34 44 53 45 35 46
REMARK SMILES IDX 38 47 52 48 71 49 36 50 37 51 51 53 72 54 39 55 23 56 24 57
REMARK SMILES IDX 32 58 25 59 26 60 30 61 33 62 27 63 28 64 31 65 29 66 55 67
REMARK SMILES IDX 56 68 64 69 57 70 58 71 62 72 65 73 59 74 60 75 63 76 61 77
REMARK SMILES IDX 40 78 41 79 49 80 42 81 43 82 47 83 50 84 44 85 45 86 48 87
REMARK SMILES IDX 46 88
REMARK H PARENT 84 17 81 18 70 41 38 52
REMARK Flexibility Score: inf
ROOT
ATOM      1  C   UNL A   1      41.052  21.535  28.028  1.00  0.00     0.274 C 
ENDROOT
BRANCH   1   2
ATOM      2  O   UNL A   1      42.476  21.749  27.840  1.00  0.00    -0.461 OA
BRANCH   2   3
ATOM      3  C   UNL A   1      42.928  23.007  28.096  1.00  0.00     0.325 C 
ATOM      4  O   UNL A   1      42.438  23.746  28.948  1.00  0.00    -0.250 OA
BRANCH   3   5
ATOM      5  C   UNL A   1      44.260  23.361  27.405  1.00  0.00     0.243 C 
BRANCH   5   6
ATOM      6  N   UNL A   1      44.468  23.010  26.006  1.00  0.00    -0.315 N 
BRANCH   6   7
ATOM      7  C   UNL A   1      43.715  23.789  25.051  1.00  0.00     0.210 C 
BRANCH   7   8
ATOM      8  C   UNL A   1      44.041  25.263  25.231  1.00  0.00    -0.085 C 
ATOM      9  C   UNL A   1      44.320  26.527  25.386  1.00  0.00     0.006 C 
ENDBRANCH   7   8
ENDBRANCH   6   7
BRANCH   6  10
ATOM     10  C   UNL A   1      45.271  22.005  25.490  1.00  0.00     0.273 C 
ATOM     11  O   UNL A   1      46.472  22.174  25.264  1.00  0.00    -0.267 OA
BRANCH  10  12
ATOM     12  C   UNL A   1      44.716  20.663  25.228  1.00  0.00     0.125 A 
ATOM     13  C   UNL A   1      45.178  19.835  24.279  1.00  0.00     0.119 A 
ATOM     14  N   UNL A   1      43.723  20.023  25.936  1.00  0.00    -0.302 N 
ATOM     15  N   UNL A   1      44.454  18.669  24.331  1.00  0.00    -0.312 N 
ATOM     16  C   UNL A   1      43.523  18.754  25.372  1.00  0.00     0.323 A 
ATOM     17  H   UNL A   1      43.236  20.393  26.706  1.00  0.00     0.172 HD
ATOM     18  H   UNL A   1      44.572  17.896  23.732  1.00  0.00     0.171 HD
ATOM     19  O   UNL A   1      42.721  17.903  25.713  1.00  0.00    -0.248 OA
ENDBRANCH  10  12
ENDBRANCH   6  10
ENDBRANCH   5   6
ENDBRANCH   3   5
ENDBRANCH   2   3
ENDBRANCH   1   2
BRANCH   1  20
ATOM     20  C   UNL A   1      40.280  21.396  26.698  1.00  0.00     0.275 C 
BRANCH  20  21
ATOM     21  O   UNL A   1      40.247  22.622  25.923  1.00  0.00    -0.458 OA
BRANCH  21  22
ATOM     22  C   UNL A   1      39.164  23.359  26.226  1.00  0.00     0.338 C 
ATOM     23  O   UNL A   1      38.016  22.973  26.098  1.00  0.00    -0.246 OA
BRANCH  22  24
ATOM     24  C   UNL A   1      39.356  24.673  26.829  1.00  0.00     0.060 A 
ATOM     25  C   UNL A   1      40.232  25.547  26.181  1.00  0.00     0.016 A 
ATOM     26  C   UNL A   1      39.070  24.832  28.186  1.00  0.00     0.016 A 
ATOM     27  C   UNL A   1      40.878  26.544  26.903  1.00  0.00     0.010 A 
ATOM     28  C   UNL A   1      39.642  25.897  28.887  1.00  0.00     0.010 A 
ATOM     29  C   UNL A   1      40.552  26.755  28.251  1.00  0.00    -0.014 A 
BRANCH  29  30
ATOM     30  C   UNL A   1      41.007  27.999  28.916  1.00  0.00     0.031 A 
ATOM     31  C   UNL A   1      42.399  28.175  29.440  1.00  0.00     0.074 A 
ATOM     32  C   UNL A   1      40.087  28.971  29.058  1.00  0.00     0.049 A 
ATOM     33  N   UNL A   1      42.891  29.161  30.149  1.00  0.00    -0.248 NA
ATOM     34  C   UNL A   1      43.368  27.117  29.133  1.00  0.00     0.031 C 
ATOM     35  C   UNL A   1      38.708  28.898  28.561  1.00  0.00     0.029 A 
ATOM     36  N   UNL A   1      40.156  30.197  29.660  1.00  0.00    -0.354 N 
ATOM     37  C   UNL A   1      44.221  28.834  30.387  1.00  0.00     0.074 A 
ATOM     38  C   UNL A   1      44.459  27.555  29.751  1.00  0.00     0.031 C 
ATOM     39  C   UNL A   1      38.069  30.033  28.863  1.00  0.00     0.029 A 
ATOM     40  C   UNL A   1      38.962  30.870  29.649  1.00  0.00     0.049 A 
ATOM     41  H   UNL A   1      40.979  30.559  30.061  1.00  0.00     0.167 HD
ATOM     42  C   UNL A   1      45.144  29.543  31.083  1.00  0.00     0.037 A 
ATOM     43  C   UNL A   1      38.602  32.015  30.252  1.00  0.00     0.037 A 
ATOM     44  C   UNL A   1      44.875  30.811  31.717  1.00  0.00     0.049 A 
ATOM     45  C   UNL A   1      39.623  32.742  31.069  1.00  0.00     0.074 A 
ATOM     46  C   UNL A   1      45.735  31.619  32.442  1.00  0.00     0.029 A 
ATOM     47  N   UNL A   1      43.643  31.453  31.706  1.00  0.00    -0.354 N 
ATOM     48  N   UNL A   1      40.874  32.423  31.294  1.00  0.00    -0.248 NA
ATOM     49  C   UNL A   1      39.183  33.979  31.717  1.00  0.00     0.031 C 
ATOM     50  C   UNL A   1      45.012  32.723  32.908  1.00  0.00     0.029 A 
ATOM     51  C   UNL A   1      43.714  32.633  32.431  1.00  0.00     0.049 A 
ATOM     52  H   UNL A   1      42.837  31.119  31.250  1.00  0.00     0.167 HD
ATOM     53  C   UNL A   1      41.380  33.428  32.101  1.00  0.00     0.074 A 
ATOM     54  C   UNL A   1      40.302  34.377  32.307  1.00  0.00     0.031 C 
ATOM     55  C   UNL A   1      42.623  33.555  32.625  1.00  0.00     0.037 A 
BRANCH  42  56
ATOM     56  C   UNL A   1      46.521  28.958  31.227  1.00  0.00     0.064 A 
ATOM     57  C   UNL A   1      46.838  28.052  32.251  1.00  0.00     0.173 A 
ATOM     58  C   UNL A   1      47.522  29.256  30.288  1.00  0.00     0.173 A 
ATOM     59  F   UNL A   1      45.921  27.732  33.176  1.00  0.00    -0.203 F 
ATOM     60  C   UNL A   1      48.107  27.482  32.339  1.00  0.00     0.198 A 
ATOM     61  C   UNL A   1      48.782  28.667  30.365  1.00  0.00     0.198 A 
ATOM     62  F   UNL A   1      47.271  30.106  29.280  1.00  0.00    -0.203 F 
ATOM     63  F   UNL A   1      48.395  26.640  33.342  1.00  0.00    -0.200 F 
ATOM     64  C   UNL A   1      49.076  27.785  31.394  1.00  0.00     0.200 A 
ATOM     65  F   UNL A   1      49.710  28.947  29.440  1.00  0.00    -0.200 F 
ATOM     66  F   UNL A   1      50.291  27.225  31.472  1.00  0.00    -0.200 F 
ENDBRANCH  42  56
BRANCH  43  67
ATOM     67  C   UNL A   1      37.207  32.500  30.114  1.00  0.00     0.064 A 
ATOM     68  C   UNL A   1      36.254  32.237  31.105  1.00  0.00     0.173 A 
ATOM     69  C   UNL A   1      36.816  33.287  29.020  1.00  0.00     0.173 A 
ATOM     70  F   UNL A   1      36.581  31.481  32.164  1.00  0.00    -0.203 F 
ATOM     71  C   UNL A   1      34.959  32.738  31.005  1.00  0.00     0.198 A 
ATOM     72  C   UNL A   1      35.530  33.814  28.936  1.00  0.00     0.198 A 
ATOM     73  F   UNL A   1      37.698  33.580  28.052  1.00  0.00    -0.203 F 
ATOM     74  F   UNL A   1      34.057  32.450  31.954  1.00  0.00    -0.200 F 
ATOM     75  C   UNL A   1      34.601  33.534  29.926  1.00  0.00     0.200 A 
ATOM     76  F   UNL A   1      35.197  34.603  27.906  1.00  0.00    -0.200 F 
ATOM     77  F   UNL A   1      33.360  34.031  29.841  1.00  0.00    -0.200 F 
ENDBRANCH  43  67
BRANCH  55  78
ATOM     78  C   UNL A   1      42.877  34.782  33.446  1.00  0.00     0.064 A 
ATOM     79  C   UNL A   1      42.716  34.778  34.839  1.00  0.00     0.173 A 
ATOM     80  C   UNL A   1      43.284  35.974  32.830  1.00  0.00     0.173 A 
ATOM     81  F   UNL A   1      42.305  33.667  35.468  1.00  0.00    -0.203 F 
ATOM     82  C   UNL A   1      42.924  35.935  35.584  1.00  0.00     0.198 A 
ATOM     83  C   UNL A   1      43.518  37.122  33.581  1.00  0.00     0.198 A 
ATOM     84  F   UNL A   1      43.450  36.026  31.500  1.00  0.00    -0.203 F 
ATOM     85  F   UNL A   1      42.709  35.926  36.905  1.00  0.00    -0.200 F 
ATOM     86  C   UNL A   1      43.330  37.104  34.954  1.00  0.00     0.200 A 
ATOM     87  F   UNL A   1      43.917  38.248  32.974  1.00  0.00    -0.200 F 
ATOM     88  F   UNL A   1      43.526  38.218  35.673  1.00  0.00    -0.200 F 
ENDBRANCH  55  78
ENDBRANCH  29  30
ENDBRANCH  22  24
ENDBRANCH  21  22
ENDBRANCH  20  21
ENDBRANCH   1  20
TORSDOF 16
ENDMDL
MODEL 3
REMARK VINA RESULT:      -9.7      5.874     10.439
REMARK SMILES C#CCN(CC(=O)OCCOC(=O)c1ccc(-c2c3nc(c(-c4c(F)c(F)c(F)c(F)c4F)c4ccc([nH]4)c(-c4c(F)c(F)c(F)c(F)c4F)c4nc(c(-c5c(F)c(F)c(F)c(F)c5F)c5ccc2[nH]5)C=C4)C=C3)cc1)C(=O)c1c[nH]c(=O)[nH]1
REMARK SMILES IDX 9 1 8 2 6 3 7 4 5 5 4 6 3 7 2 8 1 9 77 10 78 11 79 12 80 13
REMARK SMILES IDX 84 14 81 15 82 16 83 19 10 20 11 21 12 22 13 23 14 24 15 25
REMARK SMILES IDX 76 26 16 27 75 28 17 29 18 30 19 31 69 32 20 33 74 34 68 35
REMARK SMILES IDX 70 36 21 37 73 38 67 39 66 40 22 42 54 43 34 44 53 45 35 46
REMARK SMILES IDX 38 47 52 48 71 49 36 50 37 51 51 53 72 54 39 55 23 56 24 57
REMARK SMILES IDX 32 58 25 59 26 60 30 61 33 62 27 63 28 64 31 65 29 66 55 67
REMARK SMILES IDX 56 68 64 69 57 70 58 71 62 72 65 73 59 74 60 75 63 76 61 77
REMARK SMILES IDX 40 78 41 79 49 80 42 81 43 82 47 83 50 84 44 85 45 86 48 87
REMARK SMILES IDX 46 88
REMARK H PARENT 84 17 81 18 70 41 38 52
REMARK Flexibility Score: inf
ROOT
ATOM      1  C   UNL A   1      31.437  31.551  26.865  1.00  0.00     0.274 C 
ENDROOT
BRANCH   1   2
ATOM      2  O   UNL A   1      31.283  31.017  25.522  1.00  0.00    -0.461 OA
BRANCH   2   3
ATOM      3  C   UNL A   1      31.868  29.811  25.292  1.00  0.00     0.325 C 
ATOM      4  O   UNL A   1      32.310  29.087  26.181  1.00  0.00    -0.250 OA
BRANCH   3   5
ATOM      5  C   UNL A   1      31.727  29.297  23.844  1.00  0.00     0.243 C 
BRANCH   5   6
ATOM      6  N   UNL A   1      30.541  28.546  23.454  1.00  0.00    -0.315 N 
BRANCH   6   7
ATOM      7  C   UNL A   1      30.713  27.114  23.364  1.00  0.00     0.210 C 
BRANCH   7   8
ATOM      8  C   UNL A   1      30.432  26.485  24.719  1.00  0.00    -0.085 C 
ATOM      9  C   UNL A   1      30.190  25.945  25.881  1.00  0.00     0.006 C 
ENDBRANCH   7   8
ENDBRANCH   6   7
BRANCH   6  10
ATOM     10  C   UNL A   1      29.286  29.040  23.131  1.00  0.00     0.273 C 
ATOM     11  O   UNL A   1      28.266  28.353  23.223  1.00  0.00    -0.267 OA
BRANCH  10  12
ATOM     12  C   UNL A   1      29.122  30.442  22.699  1.00  0.00     0.125 A 
ATOM     13  C   UNL A   1      28.977  30.818  21.420  1.00  0.00     0.119 A 
ATOM     14  N   UNL A   1      29.013  31.551  23.507  1.00  0.00    -0.302 N 
ATOM     15  N   UNL A   1      28.821  32.182  21.384  1.00  0.00    -0.312 N 
ATOM     16  C   UNL A   1      28.839  32.679  22.692  1.00  0.00     0.323 A 
ATOM     17  H   UNL A   1      29.052  31.553  24.490  1.00  0.00     0.172 HD
ATOM     18  H   UNL A   1      28.715  32.723  20.569  1.00  0.00     0.171 HD
ATOM     19  O   UNL A   1      28.721  33.841  23.039  1.00  0.00    -0.248 OA
ENDBRANCH  10  12
ENDBRANCH   6  10
ENDBRANCH   5   6
ENDBRANCH   3   5
ENDBRANCH   2   3
ENDBRANCH   1   2
BRANCH   1  20
ATOM     20  C   UNL A   1      32.421  32.738  26.935  1.00  0.00     0.275 C 
BRANCH  20  21
ATOM     21  O   UNL A   1      31.941  33.833  27.758  1.00  0.00    -0.458 OA
BRANCH  21  22
ATOM     22  C   UNL A   1      32.963  34.498  28.325  1.00  0.00     0.338 C 
ATOM     23  O   UNL A   1      32.923  35.673  28.643  1.00  0.00    -0.246 OA
BRANCH  22  24
ATOM     24  C   UNL A   1      34.175  33.762  28.667  1.00  0.00     0.060 A 
ATOM     25  C   UNL A   1      34.059  32.762  29.636  1.00  0.00     0.016 A 
ATOM     26  C   UNL A   1      35.412  34.355  28.406  1.00  0.00     0.016 A 
ATOM     27  C   UNL A   1      35.165  32.397  30.394  1.00  0.00     0.010 A 
ATOM     28  C   UNL A   1      36.543  33.917  29.099  1.00  0.00     0.010 A 
ATOM     29  C   UNL A   1      36.426  32.938  30.098  1.00  0.00    -0.014 A 
BRANCH  29  30
ATOM     30  C   UNL A   1      37.632  32.320  30.695  1.00  0.00     0.031 A 
ATOM     31  C   UNL A   1      38.402  31.227  30.018  1.00  0.00     0.074 A 
ATOM     32  C   UNL A   1      37.995  32.770  31.910  1.00  0.00     0.049 A 
ATOM     33  N   UNL A   1      39.400  30.516  30.483  1.00  0.00    -0.248 NA
ATOM     34  C   UNL A   1      38.011  30.884  28.646  1.00  0.00     0.031 C 
ATOM     35  C   UNL A   1      37.317  33.847  32.641  1.00  0.00     0.029 A 
ATOM     36  N   UNL A   1      39.004  32.386  32.749  1.00  0.00    -0.354 N 
ATOM     37  C   UNL A   1      39.744  29.631  29.468  1.00  0.00     0.074 A 
ATOM     38  C   UNL A   1      38.845  29.891  28.363  1.00  0.00     0.031 C 
ATOM     39  C   UNL A   1      37.938  34.048  33.808  1.00  0.00     0.029 A 
ATOM     40  C   UNL A   1      38.995  33.059  33.945  1.00  0.00     0.049 A 
ATOM     41  H   UNL A   1      39.669  31.697  32.520  1.00  0.00     0.167 HD
ATOM     42  C   UNL A   1      40.718  28.688  29.476  1.00  0.00     0.037 A 
ATOM     43  C   UNL A   1      39.722  32.867  35.058  1.00  0.00     0.037 A 
ATOM     44  C   UNL A   1      41.592  28.443  30.598  1.00  0.00     0.049 A 
ATOM     45  C   UNL A   1      40.744  31.774  35.061  1.00  0.00     0.074 A 
ATOM     46  C   UNL A   1      42.616  27.518  30.715  1.00  0.00     0.029 A 
ATOM     47  N   UNL A   1      41.537  29.129  31.805  1.00  0.00    -0.354 N 
ATOM     48  N   UNL A   1      41.058  30.939  34.102  1.00  0.00    -0.248 NA
ATOM     49  C   UNL A   1      41.506  31.594  36.299  1.00  0.00     0.031 C 
ATOM     50  C   UNL A   1      43.148  27.613  32.006  1.00  0.00     0.029 A 
ATOM     51  C   UNL A   1      42.491  28.631  32.679  1.00  0.00     0.049 A 
ATOM     52  H   UNL A   1      40.912  29.861  32.010  1.00  0.00     0.167 HD
ATOM     53  C   UNL A   1      42.067  30.139  34.612  1.00  0.00     0.074 A 
ATOM     54  C   UNL A   1      42.323  30.605  35.961  1.00  0.00     0.031 C 
ATOM     55  C   UNL A   1      42.721  29.111  34.020  1.00  0.00     0.037 A 
BRANCH  42  56
ATOM     56  C   UNL A   1      40.875  27.825  28.255  1.00  0.00     0.064 A 
ATOM     57  C   UNL A   1      41.696  28.203  27.182  1.00  0.00     0.173 A 
ATOM     58  C   UNL A   1      40.247  26.570  28.186  1.00  0.00     0.173 A 
ATOM     59  F   UNL A   1      42.320  29.390  27.195  1.00  0.00    -0.203 F 
ATOM     60  C   UNL A   1      41.868  27.367  26.080  1.00  0.00     0.198 A 
ATOM     61  C   UNL A   1      40.439  25.728  27.094  1.00  0.00     0.198 A 
ATOM     62  F   UNL A   1      39.461  26.152  29.189  1.00  0.00    -0.203 F 
ATOM     63  F   UNL A   1      42.636  27.761  25.054  1.00  0.00    -0.200 F 
ATOM     64  C   UNL A   1      41.245  26.128  26.039  1.00  0.00     0.200 A 
ATOM     65  F   UNL A   1      39.851  24.524  27.065  1.00  0.00    -0.200 F 
ATOM     66  F   UNL A   1      41.423  25.320  24.985  1.00  0.00    -0.200 F 
ENDBRANCH  42  56
BRANCH  43  67
ATOM     67  C   UNL A   1      39.469  33.718  36.245  1.00  0.00     0.064 A 
ATOM     68  C   UNL A   1      38.654  33.267  37.291  1.00  0.00     0.173 A 
ATOM     69  C   UNL A   1      40.085  34.971  36.387  1.00  0.00     0.173 A 
ATOM     70  F   UNL A   1      38.038  32.080  37.195  1.00  0.00    -0.203 F 
ATOM     71  C   UNL A   1      38.459  34.041  38.432  1.00  0.00     0.198 A 
ATOM     72  C   UNL A   1      39.915  35.730  37.542  1.00  0.00     0.198 A 
ATOM     73  F   UNL A   1      40.888  35.439  35.419  1.00  0.00    -0.203 F 
ATOM     74  F   UNL A   1      37.654  33.599  39.407  1.00  0.00    -0.200 F 
ATOM     75  C   UNL A   1      39.098  35.267  38.561  1.00  0.00     0.200 A 
ATOM     76  F   UNL A   1      40.553  36.900  37.672  1.00  0.00    -0.200 F 
ATOM     77  F   UNL A   1      38.924  36.001  39.667  1.00  0.00    -0.200 F 
ENDBRANCH  43  67
BRANCH  55  78
ATOM     78  C   UNL A   1      43.793  28.449  34.830  1.00  0.00     0.064 A 
ATOM     79  C   UNL A   1      43.522  27.331  35.632  1.00  0.00     0.173 A 
ATOM     80  C   UNL A   1      45.106  28.942  34.803  1.00  0.00     0.173 A 
ATOM     81  F   UNL A   1      42.276  26.841  35.707  1.00  0.00    -0.203 F 
ATOM     82  C   UNL A   1      44.522  26.749  36.404  1.00  0.00     0.198 A 
ATOM     83  C   UNL A   1      46.109  28.340  35.554  1.00  0.00     0.198 A 
ATOM     84  F   UNL A   1      45.413  30.010  34.051  1.00  0.00    -0.203 F 
ATOM     85  F   UNL A   1      44.230  25.718  37.208  1.00  0.00    -0.200 F 
ATOM     86  C   UNL A   1      45.816  27.250  36.360  1.00  0.00     0.200 A 
ATOM     87  F   UNL A   1      47.360  28.819  35.506  1.00  0.00    -0.200 F 
ATOM     88  F   UNL A   1      46.777  26.689  37.107  1.00  0.00    -0.200 F 
ENDBRANCH  55  78
ENDBRANCH  29  30
ENDBRANCH  22  24
ENDBRANCH  21  22
ENDBRANCH  20  21
ENDBRANCH   1  20
TORSDOF 16
ENDMDL
