MODEL 1
REMARK VINA RESULT:     -14.2      0.000      0.000
REMARK SMILES CC(C)C(NS(=O)(=O)CCC(=O)OCCOC(=O)c1ccc(-c2c3nc(c(-c4c(F)c(F)c(F)c(F)c4F)c4ccc([nH]4)c(-c4c(F)c(F)c(F)c(F)c4F)c4nc(c(-c5c(F)c(F)c(F)c(F)c5F)c5ccc2[nH]5)C=C4)C=C3)cc1)c1ccccc1
REMARK SMILES IDX 13 1 11 2 12 3 10 4 9 5 6 6 7 7 8 8 5 9 4 11 2 12 1 13 3 14
REMARK SMILES IDX 82 15 83 16 87 17 84 18 86 19 85 20 14 21 15 22 16 23 17 24
REMARK SMILES IDX 18 25 19 26 20 27 81 28 21 29 80 30 22 31 23 32 24 33 74 34
REMARK SMILES IDX 25 35 79 36 73 37 75 38 26 39 78 40 72 41 71 42 27 44 59 45
REMARK SMILES IDX 39 46 58 47 40 48 43 49 57 50 76 51 41 52 42 53 56 55 77 56
REMARK SMILES IDX 44 57 28 58 29 59 37 60 30 61 31 62 35 63 38 64 32 65 33 66
REMARK SMILES IDX 36 67 34 68 60 69 61 70 69 71 62 72 63 73 67 74 70 75 64 76
REMARK SMILES IDX 65 77 68 78 66 79 45 80 46 81 54 82 47 83 48 84 52 85 55 86
REMARK SMILES IDX 49 87 50 88 53 89 51 90
REMARK H PARENT 5 10 75 43 43 54
REMARK Flexibility Score: inf
ROOT
ATOM      1  O   UNL A   1      37.282  21.886  25.408  1.00  0.00    -0.462 OA
ENDROOT
BRANCH   1   2
ATOM      2  C   UNL A   1      36.916  23.204  25.646  1.00  0.00     0.306 C 
ATOM      3  O   UNL A   1      37.862  24.006  25.736  1.00  0.00    -0.252 OA
BRANCH   2   4
ATOM      4  C   UNL A   1      35.383  23.962  25.930  1.00  0.00     0.140 C 
BRANCH   4   5
ATOM      5  C   UNL A   1      33.817  23.646  26.203  1.00  0.00     0.165 C 
BRANCH   5   6
ATOM      6  S   UNL A   1      33.274  22.168  27.015  1.00  0.00     0.212 S 
ATOM      7  O   UNL A   1      32.623  22.515  28.267  1.00  0.00    -0.212 OA
ATOM      8  O   UNL A   1      34.382  21.261  27.040  1.00  0.00    -0.212 OA
BRANCH   6   9
ATOM      9  N   UNL A   1      32.028  21.651  26.001  1.00  0.00    -0.207 NA
ATOM     10  H   UNL A   1      31.658  20.786  26.395  1.00  0.00     0.141 HD
BRANCH   9  11
ATOM     11  C   UNL A   1      32.341  21.388  24.593  1.00  0.00     0.102 C 
BRANCH  11  12
ATOM     12  C   UNL A   1      32.107  22.989  23.673  1.00  0.00     0.005 C 
ATOM     13  C   UNL A   1      32.917  23.165  22.367  1.00  0.00     0.009 C 
ATOM     14  C   UNL A   1      30.748  23.648  23.238  1.00  0.00     0.009 C 
ENDBRANCH  11  12
BRANCH  11  15
ATOM     15  C   UNL A   1      32.852  19.631  24.231  1.00  0.00    -0.030 A 
ATOM     16  C   UNL A   1      32.299  18.792  23.242  1.00  0.00     0.005 A 
ATOM     17  C   UNL A   1      34.023  18.900  24.698  1.00  0.00     0.005 A 
ATOM     18  C   UNL A   1      32.886  17.582  22.727  1.00  0.00     0.000 A 
ATOM     19  C   UNL A   1      34.605  17.692  24.270  1.00  0.00     0.000 A 
ATOM     20  C   UNL A   1      34.066  17.065  23.206  1.00  0.00     0.000 A 
ENDBRANCH  11  15
ENDBRANCH   9  11
ENDBRANCH   6   9
ENDBRANCH   5   6
ENDBRANCH   4   5
ENDBRANCH   2   4
ENDBRANCH   1   2
BRANCH   1  21
ATOM     21  C   UNL A   1      37.939  20.346  24.906  1.00  0.00     0.274 C 
BRANCH  21  22
ATOM     22  C   UNL A   1      39.362  19.371  25.623  1.00  0.00     0.275 C 
BRANCH  22  23
ATOM     23  O   UNL A   1      40.041  19.644  26.997  1.00  0.00    -0.458 OA
BRANCH  23  24
ATOM     24  C   UNL A   1      41.396  19.876  27.226  1.00  0.00     0.338 C 
ATOM     25  O   UNL A   1      42.257  19.010  27.190  1.00  0.00    -0.246 OA
BRANCH  24  26
ATOM     26  C   UNL A   1      41.733  21.388  27.295  1.00  0.00     0.060 A 
ATOM     27  C   UNL A   1      41.230  22.314  26.347  1.00  0.00     0.016 A 
ATOM     28  C   UNL A   1      42.426  21.934  28.377  1.00  0.00     0.016 A 
ATOM     29  C   UNL A   1      41.314  23.731  26.545  1.00  0.00     0.010 A 
ATOM     30  C   UNL A   1      42.540  23.345  28.555  1.00  0.00     0.010 A 
ATOM     31  C   UNL A   1      41.960  24.277  27.667  1.00  0.00    -0.014 A 
BRANCH  31  32
ATOM     32  C   UNL A   1      42.250  25.768  27.812  1.00  0.00     0.031 A 
ATOM     33  C   UNL A   1      43.566  26.273  27.276  1.00  0.00     0.074 A 
ATOM     34  C   UNL A   1      41.449  26.689  28.406  1.00  0.00     0.049 A 
ATOM     35  N   UNL A   1      44.096  27.471  27.331  1.00  0.00    -0.248 NA
ATOM     36  C   UNL A   1      44.389  25.281  26.572  1.00  0.00     0.031 C 
ATOM     37  C   UNL A   1      40.106  26.439  28.892  1.00  0.00     0.029 A 
ATOM     38  N   UNL A   1      41.639  28.030  28.713  1.00  0.00    -0.354 N 
ATOM     39  C   UNL A   1      45.306  27.377  26.659  1.00  0.00     0.074 A 
ATOM     40  C   UNL A   1      45.449  26.000  26.238  1.00  0.00     0.031 C 
ATOM     41  C   UNL A   1      39.604  27.539  29.480  1.00  0.00     0.029 A 
ATOM     42  C   UNL A   1      40.597  28.609  29.417  1.00  0.00     0.049 A 
ATOM     43  H   UNL A   1      42.447  28.526  28.453  1.00  0.00     0.167 HD
ATOM     44  C   UNL A   1      46.222  28.343  26.402  1.00  0.00     0.037 A 
ATOM     45  C   UNL A   1      40.443  29.845  29.949  1.00  0.00     0.037 A 
ATOM     46  C   UNL A   1      46.127  29.709  26.844  1.00  0.00     0.049 A 
ATOM     47  C   UNL A   1      41.532  30.877  29.756  1.00  0.00     0.074 A 
ATOM     48  C   UNL A   1      47.029  30.741  26.646  1.00  0.00     0.029 A 
ATOM     49  N   UNL A   1      45.083  30.230  27.592  1.00  0.00    -0.354 N 
ATOM     50  N   UNL A   1      42.658  30.773  29.094  1.00  0.00    -0.248 NA
ATOM     51  C   UNL A   1      41.327  32.202  30.369  1.00  0.00     0.031 C 
ATOM     52  C   UNL A   1      46.562  31.869  27.331  1.00  0.00     0.029 A 
ATOM     53  C   UNL A   1      45.335  31.561  27.893  1.00  0.00     0.049 A 
ATOM     54  H   UNL A   1      44.280  29.731  27.867  1.00  0.00     0.167 HD
ATOM     55  C   UNL A   1      43.269  32.018  29.173  1.00  0.00     0.074 A 
ATOM     56  C   UNL A   1      42.389  32.871  29.941  1.00  0.00     0.031 C 
ATOM     57  C   UNL A   1      44.454  32.415  28.649  1.00  0.00     0.037 A 
BRANCH  44  58
ATOM     58  C   UNL A   1      47.447  27.921  25.643  1.00  0.00     0.064 A 
ATOM     59  C   UNL A   1      48.663  27.657  26.292  1.00  0.00     0.173 A 
ATOM     60  C   UNL A   1      47.407  27.804  24.246  1.00  0.00     0.173 A 
ATOM     61  F   UNL A   1      48.755  27.775  27.625  1.00  0.00    -0.203 F 
ATOM     62  C   UNL A   1      49.805  27.337  25.566  1.00  0.00     0.198 A 
ATOM     63  C   UNL A   1      48.544  27.449  23.526  1.00  0.00     0.198 A 
ATOM     64  F   UNL A   1      46.269  28.043  23.577  1.00  0.00    -0.203 F 
ATOM     65  F   UNL A   1      50.973  27.162  26.200  1.00  0.00    -0.200 F 
ATOM     66  C   UNL A   1      49.745  27.229  24.184  1.00  0.00     0.200 A 
ATOM     67  F   UNL A   1      48.482  27.334  22.192  1.00  0.00    -0.200 F 
ATOM     68  F   UNL A   1      50.847  26.928  23.486  1.00  0.00    -0.200 F 
ENDBRANCH  44  58
BRANCH  45  69
ATOM     69  C   UNL A   1      39.217  30.210  30.732  1.00  0.00     0.064 A 
ATOM     70  C   UNL A   1      38.135  30.882  30.136  1.00  0.00     0.173 A 
ATOM     71  C   UNL A   1      39.133  29.967  32.112  1.00  0.00     0.173 A 
ATOM     72  F   UNL A   1      38.175  31.185  28.830  1.00  0.00    -0.203 F 
ATOM     73  C   UNL A   1      37.037  31.309  30.887  1.00  0.00     0.198 A 
ATOM     74  C   UNL A   1      38.020  30.369  32.857  1.00  0.00     0.198 A 
ATOM     75  F   UNL A   1      40.140  29.351  32.748  1.00  0.00    -0.203 F 
ATOM     76  F   UNL A   1      36.052  32.002  30.299  1.00  0.00    -0.200 F 
ATOM     77  C   UNL A   1      36.978  31.047  32.246  1.00  0.00     0.200 A 
ATOM     78  F   UNL A   1      37.968  30.112  34.172  1.00  0.00    -0.200 F 
ATOM     79  F   UNL A   1      35.926  31.460  32.968  1.00  0.00    -0.200 F 
ENDBRANCH  45  69
BRANCH  57  80
ATOM     80  C   UNL A   1      44.868  33.848  28.843  1.00  0.00     0.064 A 
ATOM     81  C   UNL A   1      45.679  34.249  29.914  1.00  0.00     0.173 A 
ATOM     82  C   UNL A   1      44.500  34.823  27.902  1.00  0.00     0.173 A 
ATOM     83  F   UNL A   1      46.050  33.361  30.850  1.00  0.00    -0.203 F 
ATOM     84  C   UNL A   1      46.088  35.574  30.048  1.00  0.00     0.198 A 
ATOM     85  C   UNL A   1      44.940  36.139  28.019  1.00  0.00     0.198 A 
ATOM     86  F   UNL A   1      43.731  34.495  26.852  1.00  0.00    -0.203 F 
ATOM     87  F   UNL A   1      46.828  35.942  31.104  1.00  0.00    -0.200 F 
ATOM     88  C   UNL A   1      45.728  36.515  29.095  1.00  0.00     0.200 A 
ATOM     89  F   UNL A   1      44.606  37.041  27.086  1.00  0.00    -0.200 F 
ATOM     90  F   UNL A   1      46.138  37.785  29.216  1.00  0.00    -0.200 F 
ENDBRANCH  57  80
ENDBRANCH  31  32
ENDBRANCH  24  26
ENDBRANCH  23  24
ENDBRANCH  22  23
ENDBRANCH  21  22
ENDBRANCH   1  21
TORSDOF 17
ENDMDL
MODEL 2
REMARK VINA RESULT:     -14.0      1.960      7.665
REMARK SMILES CC(C)C(NS(=O)(=O)CCC(=O)OCCOC(=O)c1ccc(-c2c3nc(c(-c4c(F)c(F)c(F)c(F)c4F)c4ccc([nH]4)c(-c4c(F)c(F)c(F)c(F)c4F)c4nc(c(-c5c(F)c(F)c(F)c(F)c5F)c5ccc2[nH]5)C=C4)C=C3)cc1)c1ccccc1
REMARK SMILES IDX 13 1 11 2 12 3 10 4 9 5 6 6 7 7 8 8 5 9 4 11 2 12 1 13 3 14
REMARK SMILES IDX 82 15 83 16 87 17 84 18 86 19 85 20 14 21 15 22 16 23 17 24
REMARK SMILES IDX 18 25 19 26 20 27 81 28 21 29 80 30 22 31 23 32 24 33 74 34
REMARK SMILES IDX 25 35 79 36 73 37 75 38 26 39 78 40 72 41 71 42 27 44 59 45
REMARK SMILES IDX 39 46 58 47 40 48 43 49 57 50 76 51 41 52 42 53 56 55 77 56
REMARK SMILES IDX 44 57 28 58 29 59 37 60 30 61 31 62 35 63 38 64 32 65 33 66
REMARK SMILES IDX 36 67 34 68 60 69 61 70 69 71 62 72 63 73 67 74 70 75 64 76
REMARK SMILES IDX 65 77 68 78 66 79 45 80 46 81 54 82 47 83 48 84 52 85 55 86
REMARK SMILES IDX 49 87 50 88 53 89 51 90
REMARK H PARENT 5 10 75 43 43 54
REMARK Flexibility Score: inf
ROOT
ATOM      1  O   UNL A   1      37.550  22.557  25.858  1.00  0.00    -0.462 OA
ENDROOT
BRANCH   1   2
ATOM      2  C   UNL A   1      36.255  23.053  25.771  1.00  0.00     0.306 C 
ATOM      3  O   UNL A   1      35.586  22.968  26.815  1.00  0.00    -0.252 OA
BRANCH   2   4
ATOM      4  C   UNL A   1      35.338  23.705  24.452  1.00  0.00     0.140 C 
BRANCH   4   5
ATOM      5  C   UNL A   1      34.547  23.292  23.100  1.00  0.00     0.165 C 
BRANCH   5   6
ATOM      6  S   UNL A   1      33.186  24.235  22.470  1.00  0.00     0.212 S 
ATOM      7  O   UNL A   1      33.279  24.311  21.022  1.00  0.00    -0.212 OA
ATOM      8  O   UNL A   1      33.120  25.451  23.225  1.00  0.00    -0.212 OA
BRANCH   6   9
ATOM      9  N   UNL A   1      31.881  23.208  22.772  1.00  0.00    -0.207 NA
ATOM     10  H   UNL A   1      31.045  23.789  22.827  1.00  0.00     0.141 HD
BRANCH   9  11
ATOM     11  C   UNL A   1      31.913  22.378  23.980  1.00  0.00     0.102 C 
BRANCH  11  12
ATOM     12  C   UNL A   1      31.205  23.403  25.364  1.00  0.00     0.005 C 
ATOM     13  C   UNL A   1      30.336  22.658  26.405  1.00  0.00     0.009 C 
ATOM     14  C   UNL A   1      31.980  24.386  26.314  1.00  0.00     0.009 C 
ENDBRANCH  11  12
BRANCH  11  15
ATOM     15  C   UNL A   1      32.603  20.665  23.723  1.00  0.00    -0.030 A 
ATOM     16  C   UNL A   1      33.539  20.013  24.552  1.00  0.00     0.005 A 
ATOM     17  C   UNL A   1      32.154  19.620  22.811  1.00  0.00     0.005 A 
ATOM     18  C   UNL A   1      33.826  18.602  24.567  1.00  0.00     0.000 A 
ATOM     19  C   UNL A   1      32.445  18.244  22.747  1.00  0.00     0.000 A 
ATOM     20  C   UNL A   1      33.237  17.714  23.699  1.00  0.00     0.000 A 
ENDBRANCH  11  15
ENDBRANCH   9  11
ENDBRANCH   6   9
ENDBRANCH   5   6
ENDBRANCH   4   5
ENDBRANCH   2   4
ENDBRANCH   1   2
BRANCH   1  21
ATOM     21  C   UNL A   1      39.049  21.659  25.918  1.00  0.00     0.274 C 
BRANCH  21  22
ATOM     22  C   UNL A   1      39.405  19.907  25.381  1.00  0.00     0.275 C 
BRANCH  22  23
ATOM     23  O   UNL A   1      40.310  18.895  26.142  1.00  0.00    -0.458 OA
BRANCH  23  24
ATOM     24  C   UNL A   1      41.703  18.846  26.125  1.00  0.00     0.338 C 
ATOM     25  O   UNL A   1      42.352  17.882  25.749  1.00  0.00    -0.246 OA
BRANCH  24  26
ATOM     26  C   UNL A   1      42.346  20.229  26.408  1.00  0.00     0.060 A 
ATOM     27  C   UNL A   1      42.933  21.010  25.380  1.00  0.00     0.016 A 
ATOM     28  C   UNL A   1      42.248  20.839  27.660  1.00  0.00     0.016 A 
ATOM     29  C   UNL A   1      43.289  22.384  25.575  1.00  0.00     0.010 A 
ATOM     30  C   UNL A   1      42.637  22.196  27.862  1.00  0.00     0.010 A 
ATOM     31  C   UNL A   1      43.132  23.013  26.822  1.00  0.00    -0.014 A 
BRANCH  31  32
ATOM     32  C   UNL A   1      43.686  24.401  27.125  1.00  0.00     0.031 A 
ATOM     33  C   UNL A   1      42.716  25.441  27.626  1.00  0.00     0.074 A 
ATOM     34  C   UNL A   1      44.971  24.808  26.960  1.00  0.00     0.049 A 
ATOM     35  N   UNL A   1      42.901  26.712  27.891  1.00  0.00    -0.248 NA
ATOM     36  C   UNL A   1      41.346  24.969  27.869  1.00  0.00     0.031 C 
ATOM     37  C   UNL A   1      46.078  23.948  26.590  1.00  0.00     0.029 A 
ATOM     38  N   UNL A   1      45.577  26.052  27.075  1.00  0.00    -0.354 N 
ATOM     39  C   UNL A   1      41.677  27.184  28.342  1.00  0.00     0.074 A 
ATOM     40  C   UNL A   1      40.749  26.075  28.281  1.00  0.00     0.031 C 
ATOM     41  C   UNL A   1      47.207  24.666  26.451  1.00  0.00     0.029 A 
ATOM     42  C   UNL A   1      46.917  26.070  26.729  1.00  0.00     0.049 A 
ATOM     43  H   UNL A   1      45.094  26.854  27.378  1.00  0.00     0.167 HD
ATOM     44  C   UNL A   1      41.344  28.424  28.777  1.00  0.00     0.037 A 
ATOM     45  C   UNL A   1      47.814  27.081  26.641  1.00  0.00     0.037 A 
ATOM     46  C   UNL A   1      42.233  29.554  28.809  1.00  0.00     0.049 A 
ATOM     47  C   UNL A   1      47.390  28.484  27.016  1.00  0.00     0.074 A 
ATOM     48  C   UNL A   1      41.960  30.851  29.212  1.00  0.00     0.029 A 
ATOM     49  N   UNL A   1      43.558  29.534  28.403  1.00  0.00    -0.354 N 
ATOM     50  N   UNL A   1      46.233  28.902  27.466  1.00  0.00    -0.248 NA
ATOM     51  C   UNL A   1      48.397  29.554  26.889  1.00  0.00     0.031 C 
ATOM     52  C   UNL A   1      43.101  31.629  28.987  1.00  0.00     0.029 A 
ATOM     53  C   UNL A   1      44.106  30.803  28.513  1.00  0.00     0.049 A 
ATOM     54  H   UNL A   1      44.039  28.735  28.084  1.00  0.00     0.167 HD
ATOM     55  C   UNL A   1      46.383  30.262  27.712  1.00  0.00     0.074 A 
ATOM     56  C   UNL A   1      47.746  30.603  27.373  1.00  0.00     0.031 C 
ATOM     57  C   UNL A   1      45.468  31.143  28.185  1.00  0.00     0.037 A 
BRANCH  44  58
ATOM     58  C   UNL A   1      39.918  28.623  29.204  1.00  0.00     0.064 A 
ATOM     59  C   UNL A   1      38.937  29.079  28.309  1.00  0.00     0.173 A 
ATOM     60  C   UNL A   1      39.536  28.379  30.531  1.00  0.00     0.173 A 
ATOM     61  F   UNL A   1      39.259  29.346  27.034  1.00  0.00    -0.203 F 
ATOM     62  C   UNL A   1      37.637  29.327  28.740  1.00  0.00     0.198 A 
ATOM     63  C   UNL A   1      38.226  28.594  30.949  1.00  0.00     0.198 A 
ATOM     64  F   UNL A   1      40.434  27.940  31.425  1.00  0.00    -0.203 F 
ATOM     65  F   UNL A   1      36.735  29.832  27.886  1.00  0.00    -0.200 F 
ATOM     66  C   UNL A   1      37.281  29.080  30.058  1.00  0.00     0.200 A 
ATOM     67  F   UNL A   1      37.881  28.346  32.220  1.00  0.00    -0.200 F 
ATOM     68  F   UNL A   1      36.032  29.327  30.472  1.00  0.00    -0.200 F 
ENDBRANCH  44  58
BRANCH  45  69
ATOM     69  C   UNL A   1      49.219  26.840  26.175  1.00  0.00     0.064 A 
ATOM     70  C   UNL A   1      49.580  26.973  24.823  1.00  0.00     0.173 A 
ATOM     71  C   UNL A   1      50.214  26.390  27.058  1.00  0.00     0.173 A 
ATOM     72  F   UNL A   1      48.663  27.354  23.921  1.00  0.00    -0.203 F 
ATOM     73  C   UNL A   1      50.864  26.653  24.374  1.00  0.00     0.198 A 
ATOM     74  C   UNL A   1      51.507  26.098  26.612  1.00  0.00     0.198 A 
ATOM     75  F   UNL A   1      49.931  26.218  28.356  1.00  0.00    -0.203 F 
ATOM     76  F   UNL A   1      51.156  26.733  23.068  1.00  0.00    -0.200 F 
ATOM     77  C   UNL A   1      51.828  26.221  25.270  1.00  0.00     0.200 A 
ATOM     78  F   UNL A   1      52.436  25.681  27.484  1.00  0.00    -0.200 F 
ATOM     79  F   UNL A   1      53.058  25.909  24.839  1.00  0.00    -0.200 F 
ENDBRANCH  45  69
BRANCH  57  80
ATOM     80  C   UNL A   1      45.906  32.565  28.407  1.00  0.00     0.064 A 
ATOM     81  C   UNL A   1      46.479  32.985  29.616  1.00  0.00     0.173 A 
ATOM     82  C   UNL A   1      45.811  33.504  27.368  1.00  0.00     0.173 A 
ATOM     83  F   UNL A   1      46.584  32.132  30.647  1.00  0.00    -0.203 F 
ATOM     84  C   UNL A   1      46.921  34.296  29.783  1.00  0.00     0.198 A 
ATOM     85  C   UNL A   1      46.285  34.804  27.526  1.00  0.00     0.198 A 
ATOM     86  F   UNL A   1      45.278  33.156  26.187  1.00  0.00    -0.203 F 
ATOM     87  F   UNL A   1      47.426  34.686  30.962  1.00  0.00    -0.200 F 
ATOM     88  C   UNL A   1      46.834  35.200  28.736  1.00  0.00     0.200 A 
ATOM     89  F   UNL A   1      46.217  35.669  26.506  1.00  0.00    -0.200 F 
ATOM     90  F   UNL A   1      47.275  36.456  28.893  1.00  0.00    -0.200 F 
ENDBRANCH  57  80
ENDBRANCH  31  32
ENDBRANCH  24  26
ENDBRANCH  23  24
ENDBRANCH  22  23
ENDBRANCH  21  22
ENDBRANCH   1  21
TORSDOF 17
ENDMDL
MODEL 3
REMARK VINA RESULT:     -13.9      2.236      8.129
REMARK SMILES CC(C)C(NS(=O)(=O)CCC(=O)OCCOC(=O)c1ccc(-c2c3nc(c(-c4c(F)c(F)c(F)c(F)c4F)c4ccc([nH]4)c(-c4c(F)c(F)c(F)c(F)c4F)c4nc(c(-c5c(F)c(F)c(F)c(F)c5F)c5ccc2[nH]5)C=C4)C=C3)cc1)c1ccccc1
REMARK SMILES IDX 13 1 11 2 12 3 10 4 9 5 6 6 7 7 8 8 5 9 4 11 2 12 1 13 3 14
REMARK SMILES IDX 82 15 83 16 87 17 84 18 86 19 85 20 14 21 15 22 16 23 17 24
REMARK SMILES IDX 18 25 19 26 20 27 81 28 21 29 80 30 22 31 23 32 24 33 74 34
REMARK SMILES IDX 25 35 79 36 73 37 75 38 26 39 78 40 72 41 71 42 27 44 59 45
REMARK SMILES IDX 39 46 58 47 40 48 43 49 57 50 76 51 41 52 42 53 56 55 77 56
REMARK SMILES IDX 44 57 28 58 29 59 37 60 30 61 31 62 35 63 38 64 32 65 33 66
REMARK SMILES IDX 36 67 34 68 60 69 61 70 69 71 62 72 63 73 67 74 70 75 64 76
REMARK SMILES IDX 65 77 68 78 66 79 45 80 46 81 54 82 47 83 48 84 52 85 55 86
REMARK SMILES IDX 49 87 50 88 53 89 51 90
REMARK H PARENT 5 10 75 43 43 54
REMARK Flexibility Score: inf
ROOT
ATOM      1  O   UNL A   1      36.288  21.517  25.445  1.00  0.00    -0.462 OA
ENDROOT
BRANCH   1   2
ATOM      2  C   UNL A   1      35.211  22.102  26.100  1.00  0.00     0.306 C 
ATOM      3  O   UNL A   1      34.719  21.423  27.017  1.00  0.00    -0.252 OA
BRANCH   2   4
ATOM      4  C   UNL A   1      34.344  23.580  25.838  1.00  0.00     0.140 C 
BRANCH   4   5
ATOM      5  C   UNL A   1      32.930  24.318  26.130  1.00  0.00     0.165 C 
BRANCH   5   6
ATOM      6  S   UNL A   1      31.382  23.460  26.070  1.00  0.00     0.212 S 
ATOM      7  O   UNL A   1      30.755  23.500  27.380  1.00  0.00    -0.212 OA
ATOM      8  O   UNL A   1      31.620  22.188  25.454  1.00  0.00    -0.212 OA
BRANCH   6   9
ATOM      9  N   UNL A   1      30.452  24.487  25.107  1.00  0.00    -0.207 NA
ATOM     10  H   UNL A   1      30.000  23.910  24.398  1.00  0.00     0.141 HD
BRANCH   9  11
ATOM     11  C   UNL A   1      31.125  25.585  24.407  1.00  0.00     0.102 C 
BRANCH  11  12
ATOM     12  C   UNL A   1      31.659  24.929  22.749  1.00  0.00     0.005 C 
ATOM     13  C   UNL A   1      31.863  25.970  21.622  1.00  0.00     0.009 C 
ATOM     14  C   UNL A   1      32.867  23.968  22.449  1.00  0.00     0.009 C 
ENDBRANCH  11  12
BRANCH  11  15
ATOM     15  C   UNL A   1      31.197  27.183  25.366  1.00  0.00    -0.030 A 
ATOM     16  C   UNL A   1      31.359  27.309  26.761  1.00  0.00     0.005 A 
ATOM     17  C   UNL A   1      31.345  28.546  24.871  1.00  0.00     0.005 A 
ATOM     18  C   UNL A   1      31.749  28.502  27.469  1.00  0.00     0.000 A 
ATOM     19  C   UNL A   1      31.667  29.751  25.524  1.00  0.00     0.000 A 
ATOM     20  C   UNL A   1      31.953  29.706  26.840  1.00  0.00     0.000 A 
ENDBRANCH  11  15
ENDBRANCH   9  11
ENDBRANCH   6   9
ENDBRANCH   5   6
ENDBRANCH   4   5
ENDBRANCH   2   4
ENDBRANCH   1   2
BRANCH   1  21
ATOM     21  C   UNL A   1      37.783  20.798  24.895  1.00  0.00     0.274 C 
BRANCH  21  22
ATOM     22  C   UNL A   1      39.356  20.457  25.843  1.00  0.00     0.275 C 
BRANCH  22  23
ATOM     23  O   UNL A   1      40.226  19.173  25.717  1.00  0.00    -0.458 OA
BRANCH  23  24
ATOM     24  C   UNL A   1      41.577  19.047  26.036  1.00  0.00     0.338 C 
ATOM     25  O   UNL A   1      42.231  18.030  25.864  1.00  0.00    -0.246 OA
BRANCH  24  26
ATOM     26  C   UNL A   1      42.225  20.405  26.412  1.00  0.00     0.060 A 
ATOM     27  C   UNL A   1      42.719  21.299  25.429  1.00  0.00     0.016 A 
ATOM     28  C   UNL A   1      42.220  20.879  27.725  1.00  0.00     0.016 A 
ATOM     29  C   UNL A   1      43.074  22.653  25.739  1.00  0.00     0.010 A 
ATOM     30  C   UNL A   1      42.608  22.215  28.038  1.00  0.00     0.010 A 
ATOM     31  C   UNL A   1      43.010  23.145  27.054  1.00  0.00    -0.014 A 
BRANCH  31  32
ATOM     32  C   UNL A   1      43.571  24.505  27.457  1.00  0.00     0.031 A 
ATOM     33  C   UNL A   1      42.589  25.550  27.922  1.00  0.00     0.074 A 
ATOM     34  C   UNL A   1      44.874  24.883  27.411  1.00  0.00     0.049 A 
ATOM     35  N   UNL A   1      42.782  26.804  28.253  1.00  0.00    -0.248 NA
ATOM     36  C   UNL A   1      41.193  25.106  28.036  1.00  0.00     0.031 C 
ATOM     37  C   UNL A   1      45.987  24.009  27.095  1.00  0.00     0.029 A 
ATOM     38  N   UNL A   1      45.499  26.105  27.625  1.00  0.00    -0.354 N 
ATOM     39  C   UNL A   1      41.538  27.291  28.625  1.00  0.00     0.074 A 
ATOM     40  C   UNL A   1      40.592  26.211  28.444  1.00  0.00     0.031 C 
ATOM     41  C   UNL A   1      47.140  24.700  27.075  1.00  0.00     0.029 A 
ATOM     42  C   UNL A   1      46.863  26.100  27.387  1.00  0.00     0.049 A 
ATOM     43  H   UNL A   1      45.012  26.907  27.922  1.00  0.00     0.167 HD
ATOM     44  C   UNL A   1      41.200  28.522  29.083  1.00  0.00     0.037 A 
ATOM     45  C   UNL A   1      47.787  27.089  27.413  1.00  0.00     0.037 A 
ATOM     46  C   UNL A   1      42.111  29.625  29.232  1.00  0.00     0.049 A 
ATOM     47  C   UNL A   1      47.368  28.487  27.811  1.00  0.00     0.074 A 
ATOM     48  C   UNL A   1      41.838  30.912  29.666  1.00  0.00     0.029 A 
ATOM     49  N   UNL A   1      43.463  29.585  28.931  1.00  0.00    -0.354 N 
ATOM     50  N   UNL A   1      46.189  28.919  28.184  1.00  0.00    -0.248 NA
ATOM     51  C   UNL A   1      48.407  29.533  27.807  1.00  0.00     0.031 C 
ATOM     52  C   UNL A   1      43.011  31.667  29.563  1.00  0.00     0.029 A 
ATOM     53  C   UNL A   1      44.031  30.834  29.137  1.00  0.00     0.049 A 
ATOM     54  H   UNL A   1      43.950  28.787  28.619  1.00  0.00     0.167 HD
ATOM     55  C   UNL A   1      46.351  30.263  28.498  1.00  0.00     0.074 A 
ATOM     56  C   UNL A   1      47.745  30.580  28.281  1.00  0.00     0.031 C 
ATOM     57  C   UNL A   1      45.423  31.149  28.932  1.00  0.00     0.037 A 
BRANCH  44  58
ATOM     58  C   UNL A   1      39.750  28.743  29.403  1.00  0.00     0.064 A 
ATOM     59  C   UNL A   1      38.846  29.216  28.440  1.00  0.00     0.173 A 
ATOM     60  C   UNL A   1      39.267  28.501  30.697  1.00  0.00     0.173 A 
ATOM     61  F   UNL A   1      39.266  29.482  27.193  1.00  0.00    -0.203 F 
ATOM     62  C   UNL A   1      37.522  29.484  28.774  1.00  0.00     0.198 A 
ATOM     63  C   UNL A   1      37.933  28.736  31.018  1.00  0.00     0.198 A 
ATOM     64  F   UNL A   1      40.089  28.045  31.654  1.00  0.00    -0.203 F 
ATOM     65  F   UNL A   1      36.694  30.006  27.858  1.00  0.00    -0.200 F 
ATOM     66  C   UNL A   1      37.065  29.240  30.060  1.00  0.00     0.200 A 
ATOM     67  F   UNL A   1      37.491  28.489  32.258  1.00  0.00    -0.200 F 
ATOM     68  F   UNL A   1      35.792  29.505  30.382  1.00  0.00    -0.200 F 
ENDBRANCH  44  58
BRANCH  45  69
ATOM     69  C   UNL A   1      49.219  26.828  27.049  1.00  0.00     0.064 A 
ATOM     70  C   UNL A   1      49.663  26.883  25.717  1.00  0.00     0.173 A 
ATOM     71  C   UNL A   1      50.158  26.437  28.018  1.00  0.00     0.173 A 
ATOM     72  F   UNL A   1      48.803  27.204  24.739  1.00  0.00    -0.203 F 
ATOM     73  C   UNL A   1      50.973  26.543  25.368  1.00  0.00     0.198 A 
ATOM     74  C   UNL A   1      51.477  26.127  27.671  1.00  0.00     0.198 A 
ATOM     75  F   UNL A   1      49.796  26.342  29.304  1.00  0.00    -0.203 F 
ATOM     76  F   UNL A   1      51.345  26.547  24.080  1.00  0.00    -0.200 F 
ATOM     77  C   UNL A   1      51.880  26.171  26.346  1.00  0.00     0.200 A 
ATOM     78  F   UNL A   1      52.351  25.768  28.622  1.00  0.00    -0.200 F 
ATOM     79  F   UNL A   1      53.136  25.841  26.012  1.00  0.00    -0.200 F 
ENDBRANCH  45  69
BRANCH  57  80
ATOM     80  C   UNL A   1      45.875  32.549  29.247  1.00  0.00     0.064 A 
ATOM     81  C   UNL A   1      45.815  33.580  28.300  1.00  0.00     0.173 A 
ATOM     82  C   UNL A   1      46.313  32.874  30.541  1.00  0.00     0.173 A 
ATOM     83  F   UNL A   1      45.415  33.323  27.045  1.00  0.00    -0.203 F 
ATOM     84  C   UNL A   1      46.196  34.880  28.629  1.00  0.00     0.198 A 
ATOM     85  C   UNL A   1      46.659  34.181  30.877  1.00  0.00     0.198 A 
ATOM     86  F   UNL A   1      46.384  31.929  31.490  1.00  0.00    -0.203 F 
ATOM     87  F   UNL A   1      46.170  35.841  27.695  1.00  0.00    -0.200 F 
ATOM     88  C   UNL A   1      46.607  35.181  29.919  1.00  0.00     0.200 A 
ATOM     89  F   UNL A   1      47.038  34.472  32.129  1.00  0.00    -0.200 F 
ATOM     90  F   UNL A   1      46.955  36.435  30.238  1.00  0.00    -0.200 F 
ENDBRANCH  57  80
ENDBRANCH  31  32
ENDBRANCH  24  26
ENDBRANCH  23  24
ENDBRANCH  22  23
ENDBRANCH  21  22
ENDBRANCH   1  21
TORSDOF 17
ENDMDL
