MODEL 1
REMARK VINA RESULT:     -13.5      0.000      0.000
REMARK SMILES Cc1ccc(S(=O)(=O)N2CCCC2)cc1C(=O)N[C@H](CC1=c2ccccc2=NC1)C(=O)OCCOC(=O)c1ccc(-c2c3nc(c(-c4c(F)c(F)c(F)c(F)c4F)c4ccc([nH]4)c(-c4c(F)c(F)c(F)c(F)c4F)c4nc(c(-c5c(F)c(F)c(F)c(F)c5F)c5ccc2[nH]5)C=C4)C=C3)cc1
REMARK SMILES IDX 33 1 32 2 30 3 31 4 19 5 18 6 16 7 17 8 15 10 1 11 2 12 3 13
REMARK SMILES IDX 4 14 14 15 5 16 6 17 7 18 8 19 9 20 10 21 13 22 11 23 12 24
REMARK SMILES IDX 20 25 21 26 22 27 29 28 23 29 27 30 28 31 24 32 26 33 25 34
REMARK SMILES IDX 34 35 35 36 36 37 37 38 38 39 39 40 100 41 40 42 99 43 41 44
REMARK SMILES IDX 42 45 43 46 93 47 44 48 98 49 92 50 94 51 45 52 97 53 91 54
REMARK SMILES IDX 90 55 46 57 78 58 58 59 77 60 59 61 62 62 76 63 95 64 60 65
REMARK SMILES IDX 61 66 75 68 96 69 63 70 47 71 48 72 56 73 49 74 50 75 54 76
REMARK SMILES IDX 57 77 51 78 52 79 55 80 53 81 79 82 80 83 88 84 81 85 82 86
REMARK SMILES IDX 86 87 89 88 83 89 84 90 87 91 85 92 64 93 65 94 73 95 66 96
REMARK SMILES IDX 67 97 71 98 74 99 68 100 69 101 72 102 70 103
REMARK H PARENT 18 9 94 56 62 67
REMARK Flexibility Score: inf
ROOT
ATOM      1  C   UNL A   1      37.340  22.467  25.161  1.00  0.00     0.274 C 
ENDROOT
BRANCH   1   2
ATOM      2  O   UNL A   1      36.537  23.441  25.837  1.00  0.00    -0.461 OA
BRANCH   2   3
ATOM      3  C   UNL A   1      35.360  22.958  26.290  1.00  0.00     0.329 C 
ATOM      4  O   UNL A   1      35.158  21.763  26.493  1.00  0.00    -0.250 OA
BRANCH   3   5
ATOM      5  C   UNL A   1      34.277  24.015  26.523  1.00  0.00     0.196 C 
BRANCH   5   6
ATOM      6  N   UNL A   1      33.012  23.275  26.707  1.00  0.00    -0.338 N 
ATOM      7  C   UNL A   1      32.068  22.714  25.886  1.00  0.00     0.252 C 
ATOM      8  O   UNL A   1      31.144  22.157  26.497  1.00  0.00    -0.269 OA
ATOM      9  H   UNL A   1      32.792  23.154  27.660  1.00  0.00     0.164 HD
BRANCH   7  10
ATOM     10  C   UNL A   1      32.063  22.585  24.377  1.00  0.00     0.044 A 
ATOM     11  C   UNL A   1      32.732  20.120  23.990  1.00  0.00     0.045 C 
ATOM     12  C   UNL A   1      32.343  21.481  23.548  1.00  0.00    -0.038 A 
ATOM     13  C   UNL A   1      32.443  21.640  22.146  1.00  0.00     0.005 A 
ATOM     14  C   UNL A   1      32.440  22.894  21.566  1.00  0.00     0.022 A 
ATOM     15  C   UNL A   1      31.957  23.838  23.735  1.00  0.00     0.035 A 
ATOM     16  C   UNL A   1      32.260  24.002  22.381  1.00  0.00     0.083 A 
BRANCH  16  17
ATOM     17  S   UNL A   1      32.747  25.572  21.699  1.00  0.00     0.243 S 
ATOM     18  O   UNL A   1      34.176  25.662  21.916  1.00  0.00    -0.207 OA
ATOM     19  O   UNL A   1      32.180  25.624  20.367  1.00  0.00    -0.207 OA
BRANCH  17  20
ATOM     20  N   UNL A   1      32.015  26.764  22.596  1.00  0.00    -0.198 NA
ATOM     21  C   UNL A   1      30.552  26.876  22.745  1.00  0.00     0.102 C 
ATOM     22  C   UNL A   1      32.667  28.059  22.801  1.00  0.00     0.102 C 
ATOM     23  C   UNL A   1      30.318  28.382  22.850  1.00  0.00     0.018 C 
ATOM     24  C   UNL A   1      31.596  28.876  23.509  1.00  0.00     0.018 C 
ENDBRANCH  17  20
ENDBRANCH  16  17
ENDBRANCH   7  10
ENDBRANCH   5   6
BRANCH   5  25
ATOM     25  C   UNL A   1      34.041  25.346  25.743  1.00  0.00     0.070 C 
BRANCH  25  26
ATOM     26  C   UNL A   1      33.058  26.401  26.178  1.00  0.00    -0.037 C 
ATOM     27  C   UNL A   1      33.273  27.670  26.528  1.00  0.00     0.001 A 
ATOM     28  C   UNL A   1      31.624  26.049  26.475  1.00  0.00     0.174 C 
ATOM     29  C   UNL A   1      34.403  28.543  26.580  1.00  0.00     0.010 A 
ATOM     30  C   UNL A   1      31.936  28.141  26.945  1.00  0.00     0.065 A 
ATOM     31  N   UNL A   1      30.980  27.268  26.994  1.00  0.00    -0.280 NA
ATOM     32  C   UNL A   1      34.207  29.836  26.889  1.00  0.00     0.001 A 
ATOM     33  C   UNL A   1      31.795  29.575  27.257  1.00  0.00     0.028 A 
ATOM     34  C   UNL A   1      32.882  30.358  27.187  1.00  0.00     0.002 A 
ENDBRANCH  25  26
ENDBRANCH   5  25
ENDBRANCH   3   5
ENDBRANCH   2   3
ENDBRANCH   1   2
BRANCH   1  35
ATOM     35  C   UNL A   1      38.644  22.184  25.909  1.00  0.00     0.275 C 
BRANCH  35  36
ATOM     36  O   UNL A   1      39.152  23.199  26.822  1.00  0.00    -0.458 OA
BRANCH  36  37
ATOM     37  C   UNL A   1      40.322  23.897  26.818  1.00  0.00     0.338 C 
ATOM     38  O   UNL A   1      41.373  23.431  26.468  1.00  0.00    -0.246 OA
BRANCH  37  39
ATOM     39  C   UNL A   1      40.267  25.302  27.241  1.00  0.00     0.060 A 
ATOM     40  C   UNL A   1      40.676  26.323  26.364  1.00  0.00     0.016 A 
ATOM     41  C   UNL A   1      39.760  25.586  28.495  1.00  0.00     0.016 A 
ATOM     42  C   UNL A   1      40.495  27.653  26.718  1.00  0.00     0.010 A 
ATOM     43  C   UNL A   1      39.415  26.878  28.776  1.00  0.00     0.010 A 
ATOM     44  C   UNL A   1      39.847  27.908  27.921  1.00  0.00    -0.014 A 
BRANCH  44  45
ATOM     45  C   UNL A   1      39.972  29.161  28.634  1.00  0.00     0.031 A 
ATOM     46  C   UNL A   1      38.894  30.140  28.735  1.00  0.00     0.074 A 
ATOM     47  C   UNL A   1      41.023  29.088  29.480  1.00  0.00     0.049 A 
ATOM     48  N   UNL A   1      39.086  31.372  29.051  1.00  0.00    -0.248 NA
ATOM     49  C   UNL A   1      37.497  29.828  28.464  1.00  0.00     0.031 C 
ATOM     50  C   UNL A   1      41.243  29.713  30.764  1.00  0.00     0.029 A 
ATOM     51  N   UNL A   1      42.142  28.274  29.308  1.00  0.00    -0.354 N 
ATOM     52  C   UNL A   1      37.851  31.872  29.404  1.00  0.00     0.074 A 
ATOM     53  C   UNL A   1      36.891  30.963  28.827  1.00  0.00     0.031 C 
ATOM     54  C   UNL A   1      42.505  29.443  31.155  1.00  0.00     0.029 A 
ATOM     55  C   UNL A   1      43.200  28.771  30.061  1.00  0.00     0.049 A 
ATOM     56  H   UNL A   1      42.177  27.469  28.741  1.00  0.00     0.167 HD
ATOM     57  C   UNL A   1      37.771  32.836  30.369  1.00  0.00     0.037 A 
ATOM     58  C   UNL A   1      44.232  29.279  29.318  1.00  0.00     0.037 A 
ATOM     59  C   UNL A   1      39.104  33.098  30.928  1.00  0.00     0.049 A 
ATOM     60  C   UNL A   1      44.114  30.788  29.168  1.00  0.00     0.074 A 
ATOM     61  C   UNL A   1      39.759  32.690  32.080  1.00  0.00     0.029 A 
ATOM     62  N   UNL A   1      40.101  33.552  30.087  1.00  0.00    -0.354 N 
ATOM     63  N   UNL A   1      43.299  31.544  29.856  1.00  0.00    -0.248 NA
ATOM     64  C   UNL A   1      44.848  31.548  28.158  1.00  0.00     0.031 C 
ATOM     65  C   UNL A   1      41.164  32.894  31.898  1.00  0.00     0.029 A 
ATOM     66  C   UNL A   1      41.363  33.437  30.642  1.00  0.00     0.049 A 
ATOM     67  H   UNL A   1      39.932  33.917  29.189  1.00  0.00     0.167 HD
ATOM     68  C   UNL A   1      43.314  32.816  29.357  1.00  0.00     0.074 A 
ATOM     69  C   UNL A   1      44.308  32.769  28.297  1.00  0.00     0.031 C 
ATOM     70  C   UNL A   1      42.496  33.816  29.808  1.00  0.00     0.037 A 
BRANCH  57  71
ATOM     71  C   UNL A   1      36.478  33.277  31.022  1.00  0.00     0.064 A 
ATOM     72  C   UNL A   1      35.558  34.090  30.327  1.00  0.00     0.173 A 
ATOM     73  C   UNL A   1      36.082  32.934  32.332  1.00  0.00     0.173 A 
ATOM     74  F   UNL A   1      35.733  34.399  29.036  1.00  0.00    -0.203 F 
ATOM     75  C   UNL A   1      34.409  34.613  30.926  1.00  0.00     0.198 A 
ATOM     76  C   UNL A   1      34.958  33.496  32.950  1.00  0.00     0.198 A 
ATOM     77  F   UNL A   1      36.741  32.004  33.038  1.00  0.00    -0.203 F 
ATOM     78  F   UNL A   1      33.581  35.386  30.210  1.00  0.00    -0.200 F 
ATOM     79  C   UNL A   1      34.127  34.345  32.248  1.00  0.00     0.200 A 
ATOM     80  F   UNL A   1      34.684  33.203  34.230  1.00  0.00    -0.200 F 
ATOM     81  F   UNL A   1      33.045  34.876  32.833  1.00  0.00    -0.200 F 
ENDBRANCH  57  71
BRANCH  58  82
ATOM     82  C   UNL A   1      44.617  28.305  28.232  1.00  0.00     0.064 A 
ATOM     83  C   UNL A   1      45.206  27.084  28.635  1.00  0.00     0.173 A 
ATOM     84  C   UNL A   1      44.049  28.335  26.948  1.00  0.00     0.173 A 
ATOM     85  F   UNL A   1      45.766  26.983  29.851  1.00  0.00    -0.203 F 
ATOM     86  C   UNL A   1      45.103  25.927  27.860  1.00  0.00     0.198 A 
ATOM     87  C   UNL A   1      43.974  27.180  26.162  1.00  0.00     0.198 A 
ATOM     88  F   UNL A   1      43.451  29.444  26.490  1.00  0.00    -0.203 F 
ATOM     89  F   UNL A   1      45.545  24.758  28.344  1.00  0.00    -0.200 F 
ATOM     90  C   UNL A   1      44.462  25.971  26.635  1.00  0.00     0.200 A 
ATOM     91  F   UNL A   1      43.335  27.220  24.983  1.00  0.00    -0.200 F 
ATOM     92  F   UNL A   1      44.284  24.848  25.927  1.00  0.00    -0.200 F 
ENDBRANCH  58  82
BRANCH  70  93
ATOM     93  C   UNL A   1      42.695  35.263  29.423  1.00  0.00     0.064 A 
ATOM     94  C   UNL A   1      43.411  36.151  30.244  1.00  0.00     0.173 A 
ATOM     95  C   UNL A   1      42.069  35.853  28.301  1.00  0.00     0.173 A 
ATOM     96  F   UNL A   1      43.920  35.752  31.419  1.00  0.00    -0.203 F 
ATOM     97  C   UNL A   1      43.596  37.490  29.902  1.00  0.00     0.198 A 
ATOM     98  C   UNL A   1      42.204  37.204  27.994  1.00  0.00     0.198 A 
ATOM     99  F   UNL A   1      41.306  35.156  27.452  1.00  0.00    -0.203 F 
ATOM    100  F   UNL A   1      44.358  38.271  30.680  1.00  0.00    -0.200 F 
ATOM    101  C   UNL A   1      42.992  38.016  28.778  1.00  0.00     0.200 A 
ATOM    102  F   UNL A   1      41.565  37.706  26.929  1.00  0.00    -0.200 F 
ATOM    103  F   UNL A   1      43.156  39.306  28.459  1.00  0.00    -0.200 F 
ENDBRANCH  70  93
ENDBRANCH  44  45
ENDBRANCH  37  39
ENDBRANCH  36  37
ENDBRANCH  35  36
ENDBRANCH   1  35
TORSDOF 17
ENDMDL
MODEL 2
REMARK VINA RESULT:     -13.4      3.514      9.590
REMARK SMILES Cc1ccc(S(=O)(=O)N2CCCC2)cc1C(=O)N[C@H](CC1=c2ccccc2=NC1)C(=O)OCCOC(=O)c1ccc(-c2c3nc(c(-c4c(F)c(F)c(F)c(F)c4F)c4ccc([nH]4)c(-c4c(F)c(F)c(F)c(F)c4F)c4nc(c(-c5c(F)c(F)c(F)c(F)c5F)c5ccc2[nH]5)C=C4)C=C3)cc1
REMARK SMILES IDX 33 1 32 2 30 3 31 4 19 5 18 6 16 7 17 8 15 10 1 11 2 12 3 13
REMARK SMILES IDX 4 14 14 15 5 16 6 17 7 18 8 19 9 20 10 21 13 22 11 23 12 24
REMARK SMILES IDX 20 25 21 26 22 27 29 28 23 29 27 30 28 31 24 32 26 33 25 34
REMARK SMILES IDX 34 35 35 36 36 37 37 38 38 39 39 40 100 41 40 42 99 43 41 44
REMARK SMILES IDX 42 45 43 46 93 47 44 48 98 49 92 50 94 51 45 52 97 53 91 54
REMARK SMILES IDX 90 55 46 57 78 58 58 59 77 60 59 61 62 62 76 63 95 64 60 65
REMARK SMILES IDX 61 66 75 68 96 69 63 70 47 71 48 72 56 73 49 74 50 75 54 76
REMARK SMILES IDX 57 77 51 78 52 79 55 80 53 81 79 82 80 83 88 84 81 85 82 86
REMARK SMILES IDX 86 87 89 88 83 89 84 90 87 91 85 92 64 93 65 94 73 95 66 96
REMARK SMILES IDX 67 97 71 98 74 99 68 100 69 101 72 102 70 103
REMARK H PARENT 18 9 94 56 62 67
REMARK Flexibility Score: inf
ROOT
ATOM      1  C   UNL A   1      33.010  30.375  27.103  1.00  0.00     0.274 C 
ENDROOT
BRANCH   1   2
ATOM      2  O   UNL A   1      32.235  29.716  26.094  1.00  0.00    -0.461 OA
BRANCH   2   3
ATOM      3  C   UNL A   1      31.762  28.509  26.471  1.00  0.00     0.329 C 
ATOM      4  O   UNL A   1      31.221  28.309  27.556  1.00  0.00    -0.250 OA
BRANCH   3   5
ATOM      5  C   UNL A   1      31.963  27.390  25.446  1.00  0.00     0.196 C 
BRANCH   5   6
ATOM      6  N   UNL A   1      32.956  27.893  24.476  1.00  0.00    -0.338 N 
ATOM      7  C   UNL A   1      33.710  27.355  23.464  1.00  0.00     0.252 C 
ATOM      8  O   UNL A   1      34.423  28.182  22.880  1.00  0.00    -0.269 OA
ATOM      9  H   UNL A   1      33.116  28.860  24.581  1.00  0.00     0.164 HD
BRANCH   7  10
ATOM     10  C   UNL A   1      33.701  25.947  22.906  1.00  0.00     0.044 A 
ATOM     11  C   UNL A   1      32.070  26.111  20.910  1.00  0.00     0.045 C 
ATOM     12  C   UNL A   1      33.006  25.397  21.812  1.00  0.00    -0.038 A 
ATOM     13  C   UNL A   1      33.019  24.002  21.577  1.00  0.00     0.005 A 
ATOM     14  C   UNL A   1      33.564  23.126  22.497  1.00  0.00     0.022 A 
ATOM     15  C   UNL A   1      34.340  25.028  23.767  1.00  0.00     0.035 A 
ATOM     16  C   UNL A   1      34.170  23.648  23.631  1.00  0.00     0.083 A 
BRANCH  16  17
ATOM     17  S   UNL A   1      34.405  22.522  24.989  1.00  0.00     0.243 S 
ATOM     18  O   UNL A   1      34.605  21.222  24.384  1.00  0.00    -0.207 OA
ATOM     19  O   UNL A   1      35.413  23.123  25.838  1.00  0.00    -0.207 OA
BRANCH  17  20
ATOM     20  N   UNL A   1      32.990  22.473  25.859  1.00  0.00    -0.198 NA
ATOM     21  C   UNL A   1      31.845  21.622  25.487  1.00  0.00     0.102 C 
ATOM     22  C   UNL A   1      32.556  23.623  26.655  1.00  0.00     0.102 C 
ATOM     23  C   UNL A   1      30.633  22.440  25.930  1.00  0.00     0.018 C 
ATOM     24  C   UNL A   1      31.168  23.212  27.125  1.00  0.00     0.018 C 
ENDBRANCH  17  20
ENDBRANCH  16  17
ENDBRANCH   7  10
ENDBRANCH   5   6
BRANCH   5  25
ATOM     25  C   UNL A   1      30.878  26.520  24.739  1.00  0.00     0.070 C 
BRANCH  25  26
ATOM     26  C   UNL A   1      29.657  27.095  24.071  1.00  0.00    -0.037 C 
ATOM     27  C   UNL A   1      29.529  28.213  23.353  1.00  0.00     0.001 A 
ATOM     28  C   UNL A   1      28.289  26.518  24.324  1.00  0.00     0.174 C 
ATOM     29  C   UNL A   1      30.407  29.235  22.879  1.00  0.00     0.010 A 
ATOM     30  C   UNL A   1      28.080  28.272  23.070  1.00  0.00     0.065 A 
ATOM     31  N   UNL A   1      27.321  27.385  23.632  1.00  0.00    -0.280 NA
ATOM     32  C   UNL A   1      29.916  30.180  22.060  1.00  0.00     0.001 A 
ATOM     33  C   UNL A   1      27.616  29.330  22.153  1.00  0.00     0.028 A 
ATOM     34  C   UNL A   1      28.517  30.196  21.664  1.00  0.00     0.002 A 
ENDBRANCH  25  26
ENDBRANCH   5  25
ENDBRANCH   3   5
ENDBRANCH   2   3
ENDBRANCH   1   2
BRANCH   1  35
ATOM     35  C   UNL A   1      34.402  29.759  27.246  1.00  0.00     0.275 C 
BRANCH  35  36
ATOM     36  O   UNL A   1      35.527  30.645  27.514  1.00  0.00    -0.458 OA
BRANCH  36  37
ATOM     37  C   UNL A   1      36.282  30.813  28.635  1.00  0.00     0.338 C 
ATOM     38  O   UNL A   1      36.079  31.672  29.451  1.00  0.00    -0.246 OA
BRANCH  37  39
ATOM     39  C   UNL A   1      37.382  29.865  28.853  1.00  0.00     0.060 A 
ATOM     40  C   UNL A   1      37.378  29.019  29.977  1.00  0.00     0.016 A 
ATOM     41  C   UNL A   1      38.384  29.799  27.903  1.00  0.00     0.016 A 
ATOM     42  C   UNL A   1      38.347  28.033  30.105  1.00  0.00     0.010 A 
ATOM     43  C   UNL A   1      39.230  28.727  27.927  1.00  0.00     0.010 A 
ATOM     44  C   UNL A   1      39.253  27.893  29.061  1.00  0.00    -0.014 A 
BRANCH  44  45
ATOM     45  C   UNL A   1      40.545  27.261  29.217  1.00  0.00     0.031 A 
ATOM     46  C   UNL A   1      40.866  25.944  28.674  1.00  0.00     0.074 A 
ATOM     47  C   UNL A   1      41.460  28.195  29.554  1.00  0.00     0.049 A 
ATOM     48  N   UNL A   1      41.856  25.233  29.085  1.00  0.00    -0.248 NA
ATOM     49  C   UNL A   1      40.086  25.293  27.629  1.00  0.00     0.031 C 
ATOM     50  C   UNL A   1      42.872  28.278  29.262  1.00  0.00     0.029 A 
ATOM     51  N   UNL A   1      41.187  29.387  30.224  1.00  0.00    -0.354 N 
ATOM     52  C   UNL A   1      42.062  24.271  28.119  1.00  0.00     0.074 A 
ATOM     53  C   UNL A   1      40.833  24.216  27.366  1.00  0.00     0.031 C 
ATOM     54  C   UNL A   1      43.383  29.329  29.934  1.00  0.00     0.029 A 
ATOM     55  C   UNL A   1      42.350  29.866  30.816  1.00  0.00     0.049 A 
ATOM     56  H   UNL A   1      40.305  29.823  30.271  1.00  0.00     0.167 HD
ATOM     57  C   UNL A   1      43.330  23.823  27.883  1.00  0.00     0.037 A 
ATOM     58  C   UNL A   1      42.347  29.825  32.185  1.00  0.00     0.037 A 
ATOM     59  C   UNL A   1      44.289  24.571  28.707  1.00  0.00     0.049 A 
ATOM     60  C   UNL A   1      43.040  28.573  32.701  1.00  0.00     0.074 A 
ATOM     61  C   UNL A   1      45.144  25.634  28.459  1.00  0.00     0.029 A 
ATOM     62  N   UNL A   1      44.169  24.517  30.082  1.00  0.00    -0.354 N 
ATOM     63  N   UNL A   1      43.769  27.770  31.971  1.00  0.00    -0.248 NA
ATOM     64  C   UNL A   1      42.885  28.084  34.070  1.00  0.00     0.031 C 
ATOM     65  C   UNL A   1      45.513  26.220  29.712  1.00  0.00     0.029 A 
ATOM     66  C   UNL A   1      44.894  25.507  30.721  1.00  0.00     0.049 A 
ATOM     67  H   UNL A   1      43.625  23.847  30.556  1.00  0.00     0.167 HD
ATOM     68  C   UNL A   1      44.096  26.657  32.692  1.00  0.00     0.074 A 
ATOM     69  C   UNL A   1      43.524  26.905  34.005  1.00  0.00     0.031 C 
ATOM     70  C   UNL A   1      44.775  25.589  32.172  1.00  0.00     0.037 A 
BRANCH  57  71
ATOM     71  C   UNL A   1      43.721  22.972  26.692  1.00  0.00     0.064 A 
ATOM     72  C   UNL A   1      43.315  21.624  26.603  1.00  0.00     0.173 A 
ATOM     73  C   UNL A   1      44.495  23.423  25.602  1.00  0.00     0.173 A 
ATOM     74  F   UNL A   1      42.477  21.085  27.497  1.00  0.00    -0.203 F 
ATOM     75  C   UNL A   1      43.745  20.772  25.582  1.00  0.00     0.198 A 
ATOM     76  C   UNL A   1      44.967  22.560  24.605  1.00  0.00     0.198 A 
ATOM     77  F   UNL A   1      44.776  24.724  25.438  1.00  0.00    -0.203 F 
ATOM     78  F   UNL A   1      43.327  19.499  25.562  1.00  0.00    -0.200 F 
ATOM     79  C   UNL A   1      44.599  21.230  24.602  1.00  0.00     0.200 A 
ATOM     80  F   UNL A   1      45.777  23.030  23.645  1.00  0.00    -0.200 F 
ATOM     81  F   UNL A   1      45.041  20.403  23.645  1.00  0.00    -0.200 F 
ENDBRANCH  57  71
BRANCH  58  82
ATOM     82  C   UNL A   1      41.064  30.415  32.717  1.00  0.00     0.064 A 
ATOM     83  C   UNL A   1      40.859  31.800  32.524  1.00  0.00     0.173 A 
ATOM     84  C   UNL A   1      39.923  29.639  32.979  1.00  0.00     0.173 A 
ATOM     85  F   UNL A   1      41.906  32.601  32.268  1.00  0.00    -0.203 F 
ATOM     86  C   UNL A   1      39.577  32.349  32.450  1.00  0.00     0.198 A 
ATOM     87  C   UNL A   1      38.641  30.200  32.933  1.00  0.00     0.198 A 
ATOM     88  F   UNL A   1      40.020  28.314  33.155  1.00  0.00    -0.203 F 
ATOM     89  F   UNL A   1      39.420  33.639  32.119  1.00  0.00    -0.200 F 
ATOM     90  C   UNL A   1      38.468  31.542  32.629  1.00  0.00     0.200 A 
ATOM     91  F   UNL A   1      37.566  29.412  33.088  1.00  0.00    -0.200 F 
ATOM     92  F   UNL A   1      37.236  32.045  32.474  1.00  0.00    -0.200 F 
ENDBRANCH  58  82
BRANCH  70  93
ATOM     93  C   UNL A   1      45.340  24.486  33.035  1.00  0.00     0.064 A 
ATOM     94  C   UNL A   1      44.564  23.374  33.409  1.00  0.00     0.173 A 
ATOM     95  C   UNL A   1      46.618  24.557  33.636  1.00  0.00     0.173 A 
ATOM     96  F   UNL A   1      43.281  23.267  33.036  1.00  0.00    -0.203 F 
ATOM     97  C   UNL A   1      45.073  22.353  34.210  1.00  0.00     0.198 A 
ATOM     98  C   UNL A   1      47.101  23.566  34.484  1.00  0.00     0.198 A 
ATOM     99  F   UNL A   1      47.456  25.579  33.427  1.00  0.00    -0.203 F 
ATOM    100  F   UNL A   1      44.317  21.277  34.466  1.00  0.00    -0.200 F 
ATOM    101  C   UNL A   1      46.341  22.450  34.749  1.00  0.00     0.200 A 
ATOM    102  F   UNL A   1      48.313  23.706  35.040  1.00  0.00    -0.200 F 
ATOM    103  F   UNL A   1      46.823  21.477  35.532  1.00  0.00    -0.200 F 
ENDBRANCH  70  93
ENDBRANCH  44  45
ENDBRANCH  37  39
ENDBRANCH  36  37
ENDBRANCH  35  36
ENDBRANCH   1  35
TORSDOF 17
ENDMDL
MODEL 3
REMARK VINA RESULT:     -13.4      3.467      9.599
REMARK SMILES Cc1ccc(S(=O)(=O)N2CCCC2)cc1C(=O)N[C@H](CC1=c2ccccc2=NC1)C(=O)OCCOC(=O)c1ccc(-c2c3nc(c(-c4c(F)c(F)c(F)c(F)c4F)c4ccc([nH]4)c(-c4c(F)c(F)c(F)c(F)c4F)c4nc(c(-c5c(F)c(F)c(F)c(F)c5F)c5ccc2[nH]5)C=C4)C=C3)cc1
REMARK SMILES IDX 33 1 32 2 30 3 31 4 19 5 18 6 16 7 17 8 15 10 1 11 2 12 3 13
REMARK SMILES IDX 4 14 14 15 5 16 6 17 7 18 8 19 9 20 10 21 13 22 11 23 12 24
REMARK SMILES IDX 20 25 21 26 22 27 29 28 23 29 27 30 28 31 24 32 26 33 25 34
REMARK SMILES IDX 34 35 35 36 36 37 37 38 38 39 39 40 100 41 40 42 99 43 41 44
REMARK SMILES IDX 42 45 43 46 93 47 44 48 98 49 92 50 94 51 45 52 97 53 91 54
REMARK SMILES IDX 90 55 46 57 78 58 58 59 77 60 59 61 62 62 76 63 95 64 60 65
REMARK SMILES IDX 61 66 75 68 96 69 63 70 47 71 48 72 56 73 49 74 50 75 54 76
REMARK SMILES IDX 57 77 51 78 52 79 55 80 53 81 79 82 80 83 88 84 81 85 82 86
REMARK SMILES IDX 86 87 89 88 83 89 84 90 87 91 85 92 64 93 65 94 73 95 66 96
REMARK SMILES IDX 67 97 71 98 74 99 68 100 69 101 72 102 70 103
REMARK H PARENT 18 9 94 56 62 67
REMARK Flexibility Score: inf
ROOT
ATOM      1  C   UNL A   1      34.103  28.919  26.880  1.00  0.00     0.274 C 
ENDROOT
BRANCH   1   2
ATOM      2  O   UNL A   1      32.790  28.354  26.965  1.00  0.00    -0.461 OA
BRANCH   2   3
ATOM      3  C   UNL A   1      32.507  27.481  25.975  1.00  0.00     0.329 C 
ATOM      4  O   UNL A   1      33.354  27.051  25.196  1.00  0.00    -0.250 OA
BRANCH   3   5
ATOM      5  C   UNL A   1      31.035  27.069  25.882  1.00  0.00     0.196 C 
BRANCH   5   6
ATOM      6  N   UNL A   1      30.922  25.779  26.592  1.00  0.00    -0.338 N 
ATOM      7  C   UNL A   1      31.247  24.473  26.327  1.00  0.00     0.252 C 
ATOM      8  O   UNL A   1      30.978  23.695  27.252  1.00  0.00    -0.269 OA
ATOM      9  H   UNL A   1      30.511  25.884  27.482  1.00  0.00     0.164 HD
BRANCH   7  10
ATOM     10  C   UNL A   1      31.977  23.889  25.135  1.00  0.00     0.044 A 
ATOM     11  C   UNL A   1      30.274  24.150  23.210  1.00  0.00     0.045 C 
ATOM     12  C   UNL A   1      31.576  23.744  23.793  1.00  0.00    -0.038 A 
ATOM     13  C   UNL A   1      32.367  23.007  22.880  1.00  0.00     0.005 A 
ATOM     14  C   UNL A   1      33.455  22.271  23.308  1.00  0.00     0.022 A 
ATOM     15  C   UNL A   1      33.157  23.211  25.512  1.00  0.00     0.035 A 
ATOM     16  C   UNL A   1      33.807  22.326  24.649  1.00  0.00     0.083 A 
BRANCH  16  17
ATOM     17  S   UNL A   1      34.863  21.022  25.243  1.00  0.00     0.243 S 
ATOM     18  O   UNL A   1      36.117  21.188  24.538  1.00  0.00    -0.207 OA
ATOM     19  O   UNL A   1      34.796  21.079  26.689  1.00  0.00    -0.207 OA
BRANCH  17  20
ATOM     20  N   UNL A   1      34.197  19.574  24.772  1.00  0.00    -0.198 NA
ATOM     21  C   UNL A   1      32.788  19.217  25.021  1.00  0.00     0.102 C 
ATOM     22  C   UNL A   1      35.027  18.377  24.625  1.00  0.00     0.102 C 
ATOM     23  C   UNL A   1      32.835  17.704  25.230  1.00  0.00     0.018 C 
ATOM     24  C   UNL A   1      34.005  17.281  24.358  1.00  0.00     0.018 C 
ENDBRANCH  17  20
ENDBRANCH  16  17
ENDBRANCH   7  10
ENDBRANCH   5   6
BRANCH   5  25
ATOM     25  C   UNL A   1      30.097  27.107  24.635  1.00  0.00     0.070 C 
BRANCH  25  26
ATOM     26  C   UNL A   1      30.183  28.162  23.563  1.00  0.00    -0.037 C 
ATOM     27  C   UNL A   1      29.251  29.016  23.136  1.00  0.00     0.001 A 
ATOM     28  C   UNL A   1      31.375  28.242  22.648  1.00  0.00     0.174 C 
ATOM     29  C   UNL A   1      27.908  29.339  23.503  1.00  0.00     0.010 A 
ATOM     30  C   UNL A   1      29.912  29.707  22.010  1.00  0.00     0.065 A 
ATOM     31  N   UNL A   1      31.082  29.282  21.647  1.00  0.00    -0.280 NA
ATOM     32  C   UNL A   1      27.303  30.373  22.893  1.00  0.00     0.001 A 
ATOM     33  C   UNL A   1      29.192  30.839  21.398  1.00  0.00     0.028 A 
ATOM     34  C   UNL A   1      27.973  31.151  21.864  1.00  0.00     0.002 A 
ENDBRANCH  25  26
ENDBRANCH   5  25
ENDBRANCH   3   5
ENDBRANCH   2   3
ENDBRANCH   1   2
BRANCH   1  35
ATOM     35  C   UNL A   1      34.110  30.405  27.244  1.00  0.00     0.275 C 
BRANCH  35  36
ATOM     36  O   UNL A   1      35.377  31.020  27.615  1.00  0.00    -0.458 OA
BRANCH  36  37
ATOM     37  C   UNL A   1      36.039  31.050  28.805  1.00  0.00     0.338 C 
ATOM     38  O   UNL A   1      35.759  31.797  29.704  1.00  0.00    -0.246 OA
BRANCH  37  39
ATOM     39  C   UNL A   1      37.134  30.088  28.989  1.00  0.00     0.060 A 
ATOM     40  C   UNL A   1      37.127  29.205  30.084  1.00  0.00     0.016 A 
ATOM     41  C   UNL A   1      38.133  30.048  28.035  1.00  0.00     0.016 A 
ATOM     42  C   UNL A   1      38.090  28.211  30.178  1.00  0.00     0.010 A 
ATOM     43  C   UNL A   1      38.973  28.970  28.021  1.00  0.00     0.010 A 
ATOM     44  C   UNL A   1      38.993  28.100  29.127  1.00  0.00    -0.014 A 
BRANCH  44  45
ATOM     45  C   UNL A   1      40.282  27.455  29.259  1.00  0.00     0.031 A 
ATOM     46  C   UNL A   1      40.571  26.124  28.734  1.00  0.00     0.074 A 
ATOM     47  C   UNL A   1      41.217  28.384  29.550  1.00  0.00     0.049 A 
ATOM     48  N   UNL A   1      41.564  25.409  29.132  1.00  0.00    -0.248 NA
ATOM     49  C   UNL A   1      39.754  25.461  27.727  1.00  0.00     0.031 C 
ATOM     50  C   UNL A   1      42.621  28.443  29.215  1.00  0.00     0.029 A 
ATOM     51  N   UNL A   1      40.977  29.593  30.203  1.00  0.00    -0.354 N 
ATOM     52  C   UNL A   1      41.731  24.424  28.181  1.00  0.00     0.074 A 
ATOM     53  C   UNL A   1      40.480  24.369  27.465  1.00  0.00     0.031 C 
ATOM     54  C   UNL A   1      43.163  29.502  29.851  1.00  0.00     0.029 A 
ATOM     55  C   UNL A   1      42.163  30.070  30.751  1.00  0.00     0.049 A 
ATOM     56  H   UNL A   1      40.103  30.041  30.266  1.00  0.00     0.167 HD
ATOM     57  C   UNL A   1      42.987  23.956  27.918  1.00  0.00     0.037 A 
ATOM     58  C   UNL A   1      42.199  30.057  32.119  1.00  0.00     0.037 A 
ATOM     59  C   UNL A   1      43.978  24.709  28.698  1.00  0.00     0.049 A 
ATOM     60  C   UNL A   1      42.892  28.807  32.642  1.00  0.00     0.074 A 
ATOM     61  C   UNL A   1      44.837  25.756  28.403  1.00  0.00     0.029 A 
ATOM     62  N   UNL A   1      43.897  24.685  30.077  1.00  0.00    -0.354 N 
ATOM     63  N   UNL A   1      43.590  27.980  31.908  1.00  0.00    -0.248 NA
ATOM     64  C   UNL A   1      42.771  28.349  34.024  1.00  0.00     0.031 C 
ATOM     65  C   UNL A   1      45.249  26.362  29.632  1.00  0.00     0.029 A 
ATOM     66  C   UNL A   1      44.651  25.678  30.674  1.00  0.00     0.049 A 
ATOM     67  H   UNL A   1      43.358  24.032  30.579  1.00  0.00     0.167 HD
ATOM     68  C   UNL A   1      43.924  26.878  32.643  1.00  0.00     0.074 A 
ATOM     69  C   UNL A   1      43.394  27.160  33.966  1.00  0.00     0.031 C 
ATOM     70  C   UNL A   1      44.576  25.792  32.125  1.00  0.00     0.037 A 
BRANCH  57  71
ATOM     71  C   UNL A   1      43.332  23.076  26.734  1.00  0.00     0.064 A 
ATOM     72  C   UNL A   1      43.025  21.699  26.743  1.00  0.00     0.173 A 
ATOM     73  C   UNL A   1      43.967  23.526  25.557  1.00  0.00     0.173 A 
ATOM     74  F   UNL A   1      42.316  21.147  27.735  1.00  0.00    -0.203 F 
ATOM     75  C   UNL A   1      43.426  20.829  25.725  1.00  0.00     0.198 A 
ATOM     76  C   UNL A   1      44.412  22.650  24.559  1.00  0.00     0.198 A 
ATOM     77  F   UNL A   1      44.130  24.834  25.310  1.00  0.00    -0.203 F 
ATOM     78  F   UNL A   1      43.108  19.530  25.801  1.00  0.00    -0.200 F 
ATOM     79  C   UNL A   1      44.150  21.298  24.650  1.00  0.00     0.200 A 
ATOM     80  F   UNL A   1      45.093  23.128  23.507  1.00  0.00    -0.200 F 
ATOM     81  F   UNL A   1      44.565  20.458  23.692  1.00  0.00    -0.200 F 
ENDBRANCH  57  71
BRANCH  58  82
ATOM     82  C   UNL A   1      40.939  30.673  32.676  1.00  0.00     0.064 A 
ATOM     83  C   UNL A   1      40.751  32.060  32.471  1.00  0.00     0.173 A 
ATOM     84  C   UNL A   1      39.793  29.919  32.975  1.00  0.00     0.173 A 
ATOM     85  F   UNL A   1      41.803  32.840  32.180  1.00  0.00    -0.203 F 
ATOM     86  C   UNL A   1      39.476  32.628  32.423  1.00  0.00     0.198 A 
ATOM     87  C   UNL A   1      38.519  30.500  32.954  1.00  0.00     0.198 A 
ATOM     88  F   UNL A   1      39.874  28.595  33.164  1.00  0.00    -0.203 F 
ATOM     89  F   UNL A   1      39.332  33.916  32.080  1.00  0.00    -0.200 F 
ATOM     90  C   UNL A   1      38.360  31.841  32.638  1.00  0.00     0.200 A 
ATOM     91  F   UNL A   1      37.436  29.731  33.144  1.00  0.00    -0.200 F 
ATOM     92  F   UNL A   1      37.133  32.361  32.508  1.00  0.00    -0.200 F 
ENDBRANCH  58  82
BRANCH  70  93
ATOM     93  C   UNL A   1      45.152  24.700  32.995  1.00  0.00     0.064 A 
ATOM     94  C   UNL A   1      44.384  23.589  33.387  1.00  0.00     0.173 A 
ATOM     95  C   UNL A   1      46.435  24.782  33.583  1.00  0.00     0.173 A 
ATOM     96  F   UNL A   1      43.098  23.473  33.027  1.00  0.00    -0.203 F 
ATOM     97  C   UNL A   1      44.904  22.578  34.194  1.00  0.00     0.198 A 
ATOM     98  C   UNL A   1      46.930  23.802  34.437  1.00  0.00     0.198 A 
ATOM     99  F   UNL A   1      47.268  25.805  33.356  1.00  0.00    -0.203 F 
ATOM    100  F   UNL A   1      44.155  21.502  34.468  1.00  0.00    -0.200 F 
ATOM    101  C   UNL A   1      46.176  22.685  34.720  1.00  0.00     0.200 A 
ATOM    102  F   UNL A   1      48.146  23.952  34.980  1.00  0.00    -0.200 F 
ATOM    103  F   UNL A   1      46.669  21.722  35.509  1.00  0.00    -0.200 F 
ENDBRANCH  70  93
ENDBRANCH  44  45
ENDBRANCH  37  39
ENDBRANCH  36  37
ENDBRANCH  35  36
ENDBRANCH   1  35
TORSDOF 17
ENDMDL
