MODEL 1
REMARK VINA RESULT:     -13.0      0.000      0.000
REMARK SMILES CC1(C)[C@@](C)(C(=O)Nc2ccc(Cl)cc2Cl)CC[C@]1(C)C(=O)OCCOC(=O)c1ccc(-c2c3nc(c(-c4c(F)c(F)c(F)c(F)c4F)c4ccc([nH]4)c(-c4c(F)c(F)c(F)c(F)c4F)c4nc(c(-c5c(F)c(F)c(F)c(F)c5F)c5ccc2[nH]5)C=C4)C=C3)cc1
REMARK SMILES IDX 24 1 23 2 21 3 22 4 19 5 1 6 2 7 3 8 4 9 5 10 17 11 18 12
REMARK SMILES IDX 20 13 6 14 7 15 8 16 9 18 10 19 15 20 11 21 14 22 16 23
REMARK SMILES IDX 12 24 13 25 25 26 26 27 27 28 28 29 29 30 30 31 91 32 31 33
REMARK SMILES IDX 90 34 32 35 33 36 34 37 84 38 35 39 89 40 83 41 85 42 36 43
REMARK SMILES IDX 88 44 82 45 81 46 37 48 69 49 49 50 68 51 50 52 53 53 67 54
REMARK SMILES IDX 86 55 51 56 52 57 66 59 87 60 54 61 38 62 39 63 47 64 40 65
REMARK SMILES IDX 41 66 45 67 48 68 42 69 43 70 46 71 44 72 70 73 71 74 79 75
REMARK SMILES IDX 72 76 73 77 77 78 80 79 74 80 75 81 78 82 76 83 55 84 56 85
REMARK SMILES IDX 64 86 57 87 58 88 62 89 65 90 59 91 60 92 63 93 61 94
REMARK H PARENT 8 17 85 47 53 58
REMARK Flexibility Score: inf
ROOT
ATOM      1  C   UNL A   1      31.213  29.725  24.618  1.00  0.00     0.274 C 
ENDROOT
BRANCH   1   2
ATOM      2  O   UNL A   1      30.939  28.354  24.985  1.00  0.00    -0.462 OA
BRANCH   2   3
ATOM      3  C   UNL A   1      30.661  27.484  23.979  1.00  0.00     0.312 C 
ATOM      4  O   UNL A   1      30.248  27.829  22.877  1.00  0.00    -0.252 OA
BRANCH   3   5
ATOM      5  C   UNL A   1      30.856  26.001  24.380  1.00  0.00     0.071 C 
ATOM      6  C   UNL A   1      33.140  25.724  25.443  1.00  0.00     0.013 C 
ATOM      7  C   UNL A   1      32.313  25.374  24.182  1.00  0.00    -0.005 C 
ATOM      8  C   UNL A   1      33.065  25.972  22.962  1.00  0.00     0.013 C 
ATOM      9  C   UNL A   1      32.060  23.811  23.890  1.00  0.00     0.053 C 
ATOM     10  C   UNL A   1      32.903  23.072  22.812  1.00  0.00     0.022 C 
ATOM     11  C   UNL A   1      30.643  23.819  23.218  1.00  0.00     0.018 C 
ATOM     12  C   UNL A   1      29.960  25.143  23.481  1.00  0.00     0.020 C 
ATOM     13  C   UNL A   1      30.296  25.921  25.819  1.00  0.00     0.024 C 
BRANCH   9  14
ATOM     14  C   UNL A   1      32.003  22.908  25.146  1.00  0.00     0.230 C 
ATOM     15  O   UNL A   1      30.915  22.701  25.705  1.00  0.00    -0.274 OA
ATOM     16  N   UNL A   1      33.044  22.259  25.728  1.00  0.00    -0.324 N 
ATOM     17  H   UNL A   1      32.711  21.633  26.411  1.00  0.00     0.170 HD
BRANCH  16  18
ATOM     18  C   UNL A   1      34.452  22.196  25.663  1.00  0.00     0.060 A 
ATOM     19  C   UNL A   1      35.325  23.201  26.067  1.00  0.00     0.029 A 
ATOM     20  C   UNL A   1      35.030  20.989  25.209  1.00  0.00     0.066 A 
ATOM     21  C   UNL A   1      36.712  23.013  26.069  1.00  0.00     0.023 A 
ATOM     22  C   UNL A   1      36.416  20.797  25.189  1.00  0.00     0.043 A 
ATOM     23  Cl  UNL A   1      34.036  19.683  24.650  1.00  0.00    -0.082 Cl
ATOM     24  C   UNL A   1      37.251  21.811  25.636  1.00  0.00     0.042 A 
ATOM     25  Cl  UNL A   1      38.954  21.582  25.659  1.00  0.00    -0.084 Cl
ENDBRANCH  16  18
ENDBRANCH   9  14
ENDBRANCH   3   5
ENDBRANCH   2   3
ENDBRANCH   1   2
BRANCH   1  26
ATOM     26  C   UNL A   1      31.389  30.596  25.868  1.00  0.00     0.275 C 
BRANCH  26  27
ATOM     27  O   UNL A   1      32.776  30.606  26.237  1.00  0.00    -0.458 OA
BRANCH  27  28
ATOM     28  C   UNL A   1      33.192  31.628  27.023  1.00  0.00     0.338 C 
ATOM     29  O   UNL A   1      32.570  32.643  27.279  1.00  0.00    -0.246 OA
BRANCH  28  30
ATOM     30  C   UNL A   1      34.518  31.297  27.615  1.00  0.00     0.060 A 
ATOM     31  C   UNL A   1      34.833  29.982  27.947  1.00  0.00     0.016 A 
ATOM     32  C   UNL A   1      35.425  32.305  27.938  1.00  0.00     0.016 A 
ATOM     33  C   UNL A   1      35.961  29.686  28.712  1.00  0.00     0.010 A 
ATOM     34  C   UNL A   1      36.630  31.986  28.589  1.00  0.00     0.010 A 
ATOM     35  C   UNL A   1      36.899  30.675  29.026  1.00  0.00    -0.014 A 
BRANCH  35  36
ATOM     36  C   UNL A   1      38.123  30.344  29.824  1.00  0.00     0.031 A 
ATOM     37  C   UNL A   1      39.215  29.487  29.229  1.00  0.00     0.074 A 
ATOM     38  C   UNL A   1      38.287  30.811  31.081  1.00  0.00     0.049 A 
ATOM     39  N   UNL A   1      40.226  28.898  29.820  1.00  0.00    -0.248 NA
ATOM     40  C   UNL A   1      39.149  29.242  27.781  1.00  0.00     0.031 C 
ATOM     41  C   UNL A   1      37.353  31.683  31.796  1.00  0.00     0.029 A 
ATOM     42  N   UNL A   1      39.312  30.626  31.981  1.00  0.00    -0.354 N 
ATOM     43  C   UNL A   1      40.856  28.142  28.838  1.00  0.00     0.074 A 
ATOM     44  C   UNL A   1      40.126  28.362  27.607  1.00  0.00     0.031 C 
ATOM     45  C   UNL A   1      37.871  32.005  32.991  1.00  0.00     0.029 A 
ATOM     46  C   UNL A   1      39.119  31.274  33.178  1.00  0.00     0.049 A 
ATOM     47  H   UNL A   1      40.108  30.080  31.787  1.00  0.00     0.167 HD
ATOM     48  C   UNL A   1      41.936  27.332  28.957  1.00  0.00     0.037 A 
ATOM     49  C   UNL A   1      39.829  31.253  34.323  1.00  0.00     0.037 A 
ATOM     50  C   UNL A   1      42.721  27.186  30.156  1.00  0.00     0.049 A 
ATOM     51  C   UNL A   1      41.047  30.379  34.418  1.00  0.00     0.074 A 
ATOM     52  C   UNL A   1      43.844  26.401  30.365  1.00  0.00     0.029 A 
ATOM     53  N   UNL A   1      42.486  27.867  31.341  1.00  0.00    -0.354 N 
ATOM     54  N   UNL A   1      41.571  29.589  33.513  1.00  0.00    -0.248 NA
ATOM     55  C   UNL A   1      41.758  30.376  35.704  1.00  0.00     0.031 C 
ATOM     56  C   UNL A   1      44.275  26.591  31.684  1.00  0.00     0.029 A 
ATOM     57  C   UNL A   1      43.445  27.523  32.283  1.00  0.00     0.049 A 
ATOM     58  H   UNL A   1      41.749  28.501  31.492  1.00  0.00     0.167 HD
ATOM     59  C   UNL A   1      42.669  28.995  34.117  1.00  0.00     0.074 A 
ATOM     60  C   UNL A   1      42.757  29.540  35.456  1.00  0.00     0.031 C 
ATOM     61  C   UNL A   1      43.521  28.070  33.612  1.00  0.00     0.037 A 
BRANCH  48  62
ATOM     62  C   UNL A   1      42.320  26.500  27.767  1.00  0.00     0.064 A 
ATOM     63  C   UNL A   1      43.274  26.925  26.831  1.00  0.00     0.173 A 
ATOM     64  C   UNL A   1      41.754  25.226  27.593  1.00  0.00     0.173 A 
ATOM     65  F   UNL A   1      43.834  28.139  26.942  1.00  0.00    -0.203 F 
ATOM     66  C   UNL A   1      43.631  26.114  25.754  1.00  0.00     0.198 A 
ATOM     67  C   UNL A   1      42.135  24.408  26.532  1.00  0.00     0.198 A 
ATOM     68  F   UNL A   1      40.841  24.767  28.462  1.00  0.00    -0.203 F 
ATOM     69  F   UNL A   1      44.514  26.557  24.849  1.00  0.00    -0.200 F 
ATOM     70  C   UNL A   1      43.069  24.854  25.612  1.00  0.00     0.200 A 
ATOM     71  F   UNL A   1      41.599  23.186  26.404  1.00  0.00    -0.200 F 
ATOM     72  F   UNL A   1      43.422  24.073  24.581  1.00  0.00    -0.200 F 
ENDBRANCH  48  62
BRANCH  49  73
ATOM     73  C   UNL A   1      39.372  32.051  35.491  1.00  0.00     0.064 A 
ATOM     74  C   UNL A   1      38.526  31.493  36.459  1.00  0.00     0.173 A 
ATOM     75  C   UNL A   1      39.781  33.380  35.671  1.00  0.00     0.173 A 
ATOM     76  F   UNL A   1      38.080  30.236  36.316  1.00  0.00    -0.203 F 
ATOM     77  C   UNL A   1      38.106  32.235  37.562  1.00  0.00     0.198 A 
ATOM     78  C   UNL A   1      39.388  34.111  36.790  1.00  0.00     0.198 A 
ATOM     79  F   UNL A   1      40.587  33.962  34.769  1.00  0.00    -0.203 F 
ATOM     80  F   UNL A   1      37.266  31.691  38.453  1.00  0.00    -0.200 F 
ATOM     81  C   UNL A   1      38.547  33.540  37.731  1.00  0.00     0.200 A 
ATOM     82  F   UNL A   1      39.830  35.365  36.956  1.00  0.00    -0.200 F 
ATOM     83  F   UNL A   1      38.155  34.248  38.798  1.00  0.00    -0.200 F 
ENDBRANCH  49  73
BRANCH  61  84
ATOM     84  C   UNL A   1      44.633  27.614  34.508  1.00  0.00     0.064 A 
ATOM     85  C   UNL A   1      45.859  28.293  34.558  1.00  0.00     0.173 A 
ATOM     86  C   UNL A   1      44.474  26.481  35.318  1.00  0.00     0.173 A 
ATOM     87  F   UNL A   1      46.065  29.373  33.788  1.00  0.00    -0.203 F 
ATOM     88  C   UNL A   1      46.898  27.833  35.362  1.00  0.00     0.198 A 
ATOM     89  C   UNL A   1      45.506  26.038  36.140  1.00  0.00     0.198 A 
ATOM     90  F   UNL A   1      43.318  25.799  35.309  1.00  0.00    -0.203 F 
ATOM     91  F   UNL A   1      48.081  28.463  35.352  1.00  0.00    -0.200 F 
ATOM     92  C   UNL A   1      46.720  26.707  36.153  1.00  0.00     0.200 A 
ATOM     93  F   UNL A   1      45.331  24.955  36.909  1.00  0.00    -0.200 F 
ATOM     94  F   UNL A   1      47.725  26.261  36.919  1.00  0.00    -0.200 F 
ENDBRANCH  61  84
ENDBRANCH  35  36
ENDBRANCH  28  30
ENDBRANCH  27  28
ENDBRANCH  26  27
ENDBRANCH   1  26
TORSDOF 13
ENDMDL
MODEL 2
REMARK VINA RESULT:     -12.9      0.436      1.976
REMARK SMILES CC1(C)[C@@](C)(C(=O)Nc2ccc(Cl)cc2Cl)CC[C@]1(C)C(=O)OCCOC(=O)c1ccc(-c2c3nc(c(-c4c(F)c(F)c(F)c(F)c4F)c4ccc([nH]4)c(-c4c(F)c(F)c(F)c(F)c4F)c4nc(c(-c5c(F)c(F)c(F)c(F)c5F)c5ccc2[nH]5)C=C4)C=C3)cc1
REMARK SMILES IDX 24 1 23 2 21 3 22 4 19 5 1 6 2 7 3 8 4 9 5 10 17 11 18 12
REMARK SMILES IDX 20 13 6 14 7 15 8 16 9 18 10 19 15 20 11 21 14 22 16 23
REMARK SMILES IDX 12 24 13 25 25 26 26 27 27 28 28 29 29 30 30 31 91 32 31 33
REMARK SMILES IDX 90 34 32 35 33 36 34 37 84 38 35 39 89 40 83 41 85 42 36 43
REMARK SMILES IDX 88 44 82 45 81 46 37 48 69 49 49 50 68 51 50 52 53 53 67 54
REMARK SMILES IDX 86 55 51 56 52 57 66 59 87 60 54 61 38 62 39 63 47 64 40 65
REMARK SMILES IDX 41 66 45 67 48 68 42 69 43 70 46 71 44 72 70 73 71 74 79 75
REMARK SMILES IDX 72 76 73 77 77 78 80 79 74 80 75 81 78 82 76 83 55 84 56 85
REMARK SMILES IDX 64 86 57 87 58 88 62 89 65 90 59 91 60 92 63 93 61 94
REMARK H PARENT 8 17 85 47 53 58
REMARK Flexibility Score: inf
ROOT
ATOM      1  C   UNL A   1      31.640  29.324  24.428  1.00  0.00     0.274 C 
ENDROOT
BRANCH   1   2
ATOM      2  O   UNL A   1      30.595  28.325  24.410  1.00  0.00    -0.462 OA
BRANCH   2   3
ATOM      3  C   UNL A   1      30.675  27.358  23.460  1.00  0.00     0.312 C 
ATOM      4  O   UNL A   1      30.472  27.558  22.268  1.00  0.00    -0.252 OA
BRANCH   3   5
ATOM      5  C   UNL A   1      30.988  25.956  24.039  1.00  0.00     0.071 C 
ATOM      6  C   UNL A   1      33.225  26.030  25.229  1.00  0.00     0.013 C 
ATOM      7  C   UNL A   1      32.506  25.461  23.980  1.00  0.00    -0.005 C 
ATOM      8  C   UNL A   1      33.266  25.993  22.735  1.00  0.00     0.013 C 
ATOM      9  C   UNL A   1      32.420  23.858  23.860  1.00  0.00     0.053 C 
ATOM     10  C   UNL A   1      33.390  23.093  22.914  1.00  0.00     0.022 C 
ATOM     11  C   UNL A   1      31.049  23.648  23.128  1.00  0.00     0.018 C 
ATOM     12  C   UNL A   1      30.229  24.917  23.205  1.00  0.00     0.020 C 
ATOM     13  C   UNL A   1      30.358  25.980  25.450  1.00  0.00     0.024 C 
BRANCH   9  14
ATOM     14  C   UNL A   1      32.379  23.098  25.208  1.00  0.00     0.230 C 
ATOM     15  O   UNL A   1      31.298  22.953  25.799  1.00  0.00    -0.274 OA
ATOM     16  N   UNL A   1      33.428  22.518  25.847  1.00  0.00    -0.324 N 
ATOM     17  H   UNL A   1      33.103  21.971  26.598  1.00  0.00     0.170 HD
BRANCH  16  18
ATOM     18  C   UNL A   1      34.835  22.449  25.774  1.00  0.00     0.060 A 
ATOM     19  C   UNL A   1      35.713  23.472  26.119  1.00  0.00     0.029 A 
ATOM     20  C   UNL A   1      35.407  21.220  25.377  1.00  0.00     0.066 A 
ATOM     21  C   UNL A   1      37.100  23.283  26.119  1.00  0.00     0.023 A 
ATOM     22  C   UNL A   1      36.793  21.024  25.356  1.00  0.00     0.043 A 
ATOM     23  Cl  UNL A   1      34.407  19.889  24.894  1.00  0.00    -0.082 Cl
ATOM     24  C   UNL A   1      37.634  22.059  25.743  1.00  0.00     0.042 A 
ATOM     25  Cl  UNL A   1      39.336  21.828  25.764  1.00  0.00    -0.084 Cl
ENDBRANCH  16  18
ENDBRANCH   9  14
ENDBRANCH   3   5
ENDBRANCH   2   3
ENDBRANCH   1   2
BRANCH   1  26
ATOM     26  C   UNL A   1      31.772  29.946  25.824  1.00  0.00     0.275 C 
BRANCH  26  27
ATOM     27  O   UNL A   1      33.160  30.188  26.097  1.00  0.00    -0.458 OA
BRANCH  27  28
ATOM     28  C   UNL A   1      33.446  31.168  26.987  1.00  0.00     0.338 C 
ATOM     29  O   UNL A   1      32.727  32.102  27.290  1.00  0.00    -0.246 OA
BRANCH  28  30
ATOM     30  C   UNL A   1      34.766  30.897  27.623  1.00  0.00     0.060 A 
ATOM     31  C   UNL A   1      35.141  29.594  27.942  1.00  0.00     0.016 A 
ATOM     32  C   UNL A   1      35.603  31.946  28.000  1.00  0.00     0.016 A 
ATOM     33  C   UNL A   1      36.253  29.343  28.743  1.00  0.00     0.010 A 
ATOM     34  C   UNL A   1      36.799  31.679  28.691  1.00  0.00     0.010 A 
ATOM     35  C   UNL A   1      37.123  30.376  29.113  1.00  0.00    -0.014 A 
BRANCH  35  36
ATOM     36  C   UNL A   1      38.332  30.094  29.951  1.00  0.00     0.031 A 
ATOM     37  C   UNL A   1      39.468  29.265  29.400  1.00  0.00     0.074 A 
ATOM     38  C   UNL A   1      38.444  30.583  31.205  1.00  0.00     0.049 A 
ATOM     39  N   UNL A   1      40.480  28.717  30.028  1.00  0.00    -0.248 NA
ATOM     40  C   UNL A   1      39.454  28.999  27.954  1.00  0.00     0.031 C 
ATOM     41  C   UNL A   1      37.463  31.434  31.880  1.00  0.00     0.029 A 
ATOM     42  N   UNL A   1      39.447  30.443  32.137  1.00  0.00    -0.354 N 
ATOM     43  C   UNL A   1      41.163  27.969  29.076  1.00  0.00     0.074 A 
ATOM     44  C   UNL A   1      40.463  28.149  27.821  1.00  0.00     0.031 C 
ATOM     45  C   UNL A   1      37.934  31.787  33.085  1.00  0.00     0.029 A 
ATOM     46  C   UNL A   1      39.198  31.100  33.318  1.00  0.00     0.049 A 
ATOM     47  H   UNL A   1      40.266  29.921  31.974  1.00  0.00     0.167 HD
ATOM     48  C   UNL A   1      42.264  27.196  29.237  1.00  0.00     0.037 A 
ATOM     49  C   UNL A   1      39.875  31.116  34.484  1.00  0.00     0.037 A 
ATOM     50  C   UNL A   1      43.017  27.091  30.461  1.00  0.00     0.049 A 
ATOM     51  C   UNL A   1      41.116  30.284  34.627  1.00  0.00     0.074 A 
ATOM     52  C   UNL A   1      44.157  26.346  30.714  1.00  0.00     0.029 A 
ATOM     53  N   UNL A   1      42.726  27.779  31.630  1.00  0.00    -0.354 N 
ATOM     54  N   UNL A   1      41.691  29.499  33.749  1.00  0.00    -0.248 NA
ATOM     55  C   UNL A   1      41.789  30.320  35.933  1.00  0.00     0.031 C 
ATOM     56  C   UNL A   1      44.543  26.566  32.042  1.00  0.00     0.029 A 
ATOM     57  C   UNL A   1      43.667  27.479  32.603  1.00  0.00     0.049 A 
ATOM     58  H   UNL A   1      41.964  28.391  31.749  1.00  0.00     0.167 HD
ATOM     59  C   UNL A   1      42.789  28.949  34.394  1.00  0.00     0.074 A 
ATOM     60  C   UNL A   1      42.821  29.514  35.727  1.00  0.00     0.031 C 
ATOM     61  C   UNL A   1      43.685  28.045  33.926  1.00  0.00     0.037 A 
BRANCH  48  62
ATOM     62  C   UNL A   1      42.709  26.361  28.071  1.00  0.00     0.064 A 
ATOM     63  C   UNL A   1      42.242  25.056  27.860  1.00  0.00     0.173 A 
ATOM     64  C   UNL A   1      43.586  26.904  27.117  1.00  0.00     0.173 A 
ATOM     65  F   UNL A   1      41.415  24.484  28.749  1.00  0.00    -0.203 F 
ATOM     66  C   UNL A   1      42.651  24.319  26.750  1.00  0.00     0.198 A 
ATOM     67  C   UNL A   1      43.971  26.176  25.995  1.00  0.00     0.198 A 
ATOM     68  F   UNL A   1      44.060  28.151  27.267  1.00  0.00    -0.203 F 
ATOM     69  F   UNL A   1      42.224  23.059  26.590  1.00  0.00    -0.200 F 
ATOM     70  C   UNL A   1      43.507  24.883  25.815  1.00  0.00     0.200 A 
ATOM     71  F   UNL A   1      44.787  26.727  25.086  1.00  0.00    -0.200 F 
ATOM     72  F   UNL A   1      43.890  24.175  24.742  1.00  0.00    -0.200 F 
ENDBRANCH  48  62
BRANCH  49  73
ATOM     73  C   UNL A   1      39.357  31.914  35.627  1.00  0.00     0.064 A 
ATOM     74  C   UNL A   1      39.726  33.256  35.796  1.00  0.00     0.173 A 
ATOM     75  C   UNL A   1      38.474  31.358  36.564  1.00  0.00     0.173 A 
ATOM     76  F   UNL A   1      40.594  33.825  34.947  1.00  0.00    -0.203 F 
ATOM     77  C   UNL A   1      39.233  34.009  36.860  1.00  0.00     0.198 A 
ATOM     78  C   UNL A   1      37.955  32.120  37.607  1.00  0.00     0.198 A 
ATOM     79  F   UNL A   1      38.094  30.076  36.448  1.00  0.00    -0.203 F 
ATOM     80  F   UNL A   1      39.632  35.278  37.023  1.00  0.00    -0.200 F 
ATOM     81  C   UNL A   1      38.339  33.443  37.758  1.00  0.00     0.200 A 
ATOM     82  F   UNL A   1      37.080  31.573  38.462  1.00  0.00    -0.200 F 
ATOM     83  F   UNL A   1      37.854  34.171  38.772  1.00  0.00    -0.200 F 
ENDBRANCH  49  73
BRANCH  61  84
ATOM     84  C   UNL A   1      44.785  27.637  34.861  1.00  0.00     0.064 A 
ATOM     85  C   UNL A   1      44.651  26.527  35.708  1.00  0.00     0.173 A 
ATOM     86  C   UNL A   1      45.980  28.367  34.914  1.00  0.00     0.173 A 
ATOM     87  F   UNL A   1      43.519  25.807  35.705  1.00  0.00    -0.203 F 
ATOM     88  C   UNL A   1      45.663  26.185  36.600  1.00  0.00     0.198 A 
ATOM     89  C   UNL A   1      47.000  28.007  35.790  1.00  0.00     0.198 A 
ATOM     90  F   UNL A   1      46.157  29.434  34.120  1.00  0.00    -0.203 F 
ATOM     91  F   UNL A   1      45.492  25.156  37.442  1.00  0.00    -0.200 F 
ATOM     92  C   UNL A   1      46.836  26.924  36.640  1.00  0.00     0.200 A 
ATOM     93  F   UNL A   1      48.136  28.718  35.822  1.00  0.00    -0.200 F 
ATOM     94  F   UNL A   1      47.805  26.599  37.506  1.00  0.00    -0.200 F 
ENDBRANCH  61  84
ENDBRANCH  35  36
ENDBRANCH  28  30
ENDBRANCH  27  28
ENDBRANCH  26  27
ENDBRANCH   1  26
TORSDOF 13
ENDMDL
MODEL 3
REMARK VINA RESULT:     -12.9      4.465      9.728
REMARK SMILES CC1(C)[C@@](C)(C(=O)Nc2ccc(Cl)cc2Cl)CC[C@]1(C)C(=O)OCCOC(=O)c1ccc(-c2c3nc(c(-c4c(F)c(F)c(F)c(F)c4F)c4ccc([nH]4)c(-c4c(F)c(F)c(F)c(F)c4F)c4nc(c(-c5c(F)c(F)c(F)c(F)c5F)c5ccc2[nH]5)C=C4)C=C3)cc1
REMARK SMILES IDX 24 1 23 2 21 3 22 4 19 5 1 6 2 7 3 8 4 9 5 10 17 11 18 12
REMARK SMILES IDX 20 13 6 14 7 15 8 16 9 18 10 19 15 20 11 21 14 22 16 23
REMARK SMILES IDX 12 24 13 25 25 26 26 27 27 28 28 29 29 30 30 31 91 32 31 33
REMARK SMILES IDX 90 34 32 35 33 36 34 37 84 38 35 39 89 40 83 41 85 42 36 43
REMARK SMILES IDX 88 44 82 45 81 46 37 48 69 49 49 50 68 51 50 52 53 53 67 54
REMARK SMILES IDX 86 55 51 56 52 57 66 59 87 60 54 61 38 62 39 63 47 64 40 65
REMARK SMILES IDX 41 66 45 67 48 68 42 69 43 70 46 71 44 72 70 73 71 74 79 75
REMARK SMILES IDX 72 76 73 77 77 78 80 79 74 80 75 81 78 82 76 83 55 84 56 85
REMARK SMILES IDX 64 86 57 87 58 88 62 89 65 90 59 91 60 92 63 93 61 94
REMARK H PARENT 8 17 85 47 53 58
REMARK Flexibility Score: inf
ROOT
ATOM      1  C   UNL A   1      34.989  21.075  25.529  1.00  0.00     0.274 C 
ENDROOT
BRANCH   1   2
ATOM      2  O   UNL A   1      34.173  21.233  24.345  1.00  0.00    -0.462 OA
BRANCH   2   3
ATOM      3  C   UNL A   1      32.881  21.611  24.527  1.00  0.00     0.312 C 
ATOM      4  O   UNL A   1      32.030  20.896  25.044  1.00  0.00    -0.252 OA
BRANCH   3   5
ATOM      5  C   UNL A   1      32.568  23.017  23.957  1.00  0.00     0.071 C 
ATOM      6  C   UNL A   1      34.051  24.724  25.102  1.00  0.00     0.013 C 
ATOM      7  C   UNL A   1      32.584  24.243  24.981  1.00  0.00    -0.005 C 
ATOM      8  C   UNL A   1      32.117  23.843  26.407  1.00  0.00     0.013 C 
ATOM      9  C   UNL A   1      31.520  25.298  24.389  1.00  0.00     0.053 C 
ATOM     10  C   UNL A   1      30.564  26.063  25.348  1.00  0.00     0.022 C 
ATOM     11  C   UNL A   1      30.513  24.367  23.628  1.00  0.00     0.018 C 
ATOM     12  C   UNL A   1      31.133  23.004  23.419  1.00  0.00     0.020 C 
ATOM     13  C   UNL A   1      33.524  23.157  22.749  1.00  0.00     0.024 C 
BRANCH   9  14
ATOM     14  C   UNL A   1      32.100  26.322  23.384  1.00  0.00     0.230 C 
ATOM     15  O   UNL A   1      32.143  26.040  22.176  1.00  0.00    -0.274 OA
ATOM     16  N   UNL A   1      32.567  27.565  23.667  1.00  0.00    -0.324 N 
ATOM     17  H   UNL A   1      32.729  28.062  22.833  1.00  0.00     0.170 HD
BRANCH  16  18
ATOM     18  C   UNL A   1      32.894  28.370  24.779  1.00  0.00     0.060 A 
ATOM     19  C   UNL A   1      34.025  28.228  25.576  1.00  0.00     0.029 A 
ATOM     20  C   UNL A   1      32.034  29.452  25.074  1.00  0.00     0.066 A 
ATOM     21  C   UNL A   1      34.327  29.138  26.595  1.00  0.00     0.023 A 
ATOM     22  C   UNL A   1      32.316  30.359  26.102  1.00  0.00     0.043 A 
ATOM     23  Cl  UNL A   1      30.579  29.704  24.166  1.00  0.00    -0.082 Cl
ATOM     24  C   UNL A   1      33.475  30.203  26.850  1.00  0.00     0.042 A 
ATOM     25  Cl  UNL A   1      33.862  31.327  28.089  1.00  0.00    -0.084 Cl
ENDBRANCH  16  18
ENDBRANCH   9  14
ENDBRANCH   3   5
ENDBRANCH   2   3
ENDBRANCH   1   2
BRANCH   1  26
ATOM     26  C   UNL A   1      36.421  20.677  25.150  1.00  0.00     0.275 C 
BRANCH  26  27
ATOM     27  O   UNL A   1      37.306  21.757  25.480  1.00  0.00    -0.458 OA
BRANCH  27  28
ATOM     28  C   UNL A   1      38.557  21.422  25.879  1.00  0.00     0.338 C 
ATOM     29  O   UNL A   1      39.090  20.335  25.751  1.00  0.00    -0.246 OA
BRANCH  28  30
ATOM     30  C   UNL A   1      39.242  22.620  26.439  1.00  0.00     0.060 A 
ATOM     31  C   UNL A   1      38.792  23.900  26.126  1.00  0.00     0.016 A 
ATOM     32  C   UNL A   1      40.400  22.486  27.203  1.00  0.00     0.016 A 
ATOM     33  C   UNL A   1      39.551  25.026  26.443  1.00  0.00     0.010 A 
ATOM     34  C   UNL A   1      41.092  23.630  27.639  1.00  0.00     0.010 A 
ATOM     35  C   UNL A   1      40.703  24.919  27.230  1.00  0.00    -0.014 A 
BRANCH  35  36
ATOM     36  C   UNL A   1      41.499  26.137  27.589  1.00  0.00     0.031 A 
ATOM     37  C   UNL A   1      40.914  27.192  28.498  1.00  0.00     0.074 A 
ATOM     38  C   UNL A   1      42.756  26.313  27.127  1.00  0.00     0.049 A 
ATOM     39  N   UNL A   1      41.336  28.410  28.738  1.00  0.00    -0.248 NA
ATOM     40  C   UNL A   1      39.679  26.839  29.214  1.00  0.00     0.031 C 
ATOM     41  C   UNL A   1      43.491  25.377  26.274  1.00  0.00     0.029 A 
ATOM     42  N   UNL A   1      43.649  27.343  27.322  1.00  0.00    -0.354 N 
ATOM     43  C   UNL A   1      40.373  28.995  29.553  1.00  0.00     0.074 A 
ATOM     44  C   UNL A   1      39.354  27.992  29.784  1.00  0.00     0.031 C 
ATOM     45  C   UNL A   1      44.732  25.842  26.070  1.00  0.00     0.029 A 
ATOM     46  C   UNL A   1      44.850  27.160  26.680  1.00  0.00     0.049 A 
ATOM     47  H   UNL A   1      43.445  28.136  27.869  1.00  0.00     0.167 HD
ATOM     48  C   UNL A   1      40.338  30.254  30.052  1.00  0.00     0.037 A 
ATOM     49  C   UNL A   1      45.916  27.974  26.545  1.00  0.00     0.037 A 
ATOM     50  C   UNL A   1      41.396  31.221  29.904  1.00  0.00     0.049 A 
ATOM     51  C   UNL A   1      45.872  29.351  27.143  1.00  0.00     0.074 A 
ATOM     52  C   UNL A   1      41.457  32.517  30.391  1.00  0.00     0.029 A 
ATOM     53  N   UNL A   1      42.594  30.987  29.247  1.00  0.00    -0.354 N 
ATOM     54  N   UNL A   1      44.911  29.928  27.822  1.00  0.00    -0.248 NA
ATOM     55  C   UNL A   1      47.053  30.201  26.932  1.00  0.00     0.031 C 
ATOM     56  C   UNL A   1      42.683  33.075  30.009  1.00  0.00     0.029 A 
ATOM     57  C   UNL A   1      43.402  32.113  29.320  1.00  0.00     0.049 A 
ATOM     58  H   UNL A   1      42.836  30.146  28.797  1.00  0.00     0.167 HD
ATOM     59  C   UNL A   1      45.368  31.203  28.119  1.00  0.00     0.074 A 
ATOM     60  C   UNL A   1      46.706  31.307  27.575  1.00  0.00     0.031 C 
ATOM     61  C   UNL A   1      44.730  32.204  28.773  1.00  0.00     0.037 A 
BRANCH  48  62
ATOM     62  C   UNL A   1      39.096  30.684  30.779  1.00  0.00     0.064 A 
ATOM     63  C   UNL A   1      38.940  30.516  32.162  1.00  0.00     0.173 A 
ATOM     64  C   UNL A   1      38.062  31.326  30.076  1.00  0.00     0.173 A 
ATOM     65  F   UNL A   1      39.890  29.897  32.878  1.00  0.00    -0.203 F 
ATOM     66  C   UNL A   1      37.787  30.956  32.811  1.00  0.00     0.198 A 
ATOM     67  C   UNL A   1      36.925  31.788  30.732  1.00  0.00     0.198 A 
ATOM     68  F   UNL A   1      38.163  31.517  28.751  1.00  0.00    -0.203 F 
ATOM     69  F   UNL A   1      37.641  30.748  34.127  1.00  0.00    -0.200 F 
ATOM     70  C   UNL A   1      36.786  31.599  32.097  1.00  0.00     0.200 A 
ATOM     71  F   UNL A   1      35.966  32.421  30.042  1.00  0.00    -0.200 F 
ATOM     72  F   UNL A   1      35.683  32.030  32.726  1.00  0.00    -0.200 F 
ENDBRANCH  48  62
BRANCH  49  73
ATOM     73  C   UNL A   1      47.098  27.520  25.766  1.00  0.00     0.064 A 
ATOM     74  C   UNL A   1      47.151  27.683  24.375  1.00  0.00     0.173 A 
ATOM     75  C   UNL A   1      48.203  26.929  26.396  1.00  0.00     0.173 A 
ATOM     76  F   UNL A   1      46.106  28.213  23.722  1.00  0.00    -0.203 F 
ATOM     77  C   UNL A   1      48.263  27.269  23.644  1.00  0.00     0.198 A 
ATOM     78  C   UNL A   1      49.328  26.546  25.669  1.00  0.00     0.198 A 
ATOM     79  F   UNL A   1      48.200  26.747  27.725  1.00  0.00    -0.203 F 
ATOM     80  F   UNL A   1      48.272  27.400  22.310  1.00  0.00    -0.200 F 
ATOM     81  C   UNL A   1      49.355  26.712  24.294  1.00  0.00     0.200 A 
ATOM     82  F   UNL A   1      50.386  26.023  26.304  1.00  0.00    -0.200 F 
ATOM     83  F   UNL A   1      50.430  26.328  23.593  1.00  0.00    -0.200 F 
ENDBRANCH  49  73
BRANCH  61  84
ATOM     84  C   UNL A   1      45.488  33.486  28.954  1.00  0.00     0.064 A 
ATOM     85  C   UNL A   1      46.292  33.708  30.081  1.00  0.00     0.173 A 
ATOM     86  C   UNL A   1      45.402  34.503  27.993  1.00  0.00     0.173 A 
ATOM     87  F   UNL A   1      46.392  32.770  31.035  1.00  0.00    -0.203 F 
ATOM     88  C   UNL A   1      46.956  34.919  30.256  1.00  0.00     0.198 A 
ATOM     89  C   UNL A   1      46.087  35.703  28.160  1.00  0.00     0.198 A 
ATOM     90  F   UNL A   1      44.649  34.336  26.895  1.00  0.00    -0.203 F 
ATOM     91  F   UNL A   1      47.673  35.133  31.368  1.00  0.00    -0.200 F 
ATOM     92  C   UNL A   1      46.854  35.914  29.296  1.00  0.00     0.200 A 
ATOM     93  F   UNL A   1      45.994  36.661  27.228  1.00  0.00    -0.200 F 
ATOM     94  F   UNL A   1      47.486  37.083  29.471  1.00  0.00    -0.200 F 
ENDBRANCH  61  84
ENDBRANCH  35  36
ENDBRANCH  28  30
ENDBRANCH  27  28
ENDBRANCH  26  27
ENDBRANCH   1  26
TORSDOF 13
ENDMDL
