MODEL 1
REMARK VINA RESULT:     -11.3      0.000      0.000
REMARK SMILES CCNC(=O)NC(=O)[C@@H](C)[NH2+][C@](C)(CC)C(=O)OCCOC(=O)c1ccc(-c2c3nc(c(-c4c(F)c(F)c(F)c(F)c4F)c4ccc([nH]4)c(-c4c(F)c(F)c(F)c(F)c4F)c4nc(c(-c5c(F)c(F)c(F)c(F)c5F)c5ccc2[nH]5)C=C4)C=C3)cc1
REMARK SMILES IDX 19 1 18 2 16 3 17 4 12 5 13 6 11 7 9 10 10 11 7 12 3 13 4 14
REMARK SMILES IDX 5 16 6 17 8 19 2 20 1 21 14 22 15 23 20 24 21 25 22 26 23 27
REMARK SMILES IDX 24 28 25 29 86 30 26 31 85 32 27 33 28 34 29 35 79 36 30 37
REMARK SMILES IDX 84 38 78 39 80 40 31 41 83 42 77 43 76 44 32 46 64 47 44 48
REMARK SMILES IDX 63 49 45 50 48 51 62 52 81 53 46 54 47 55 61 57 82 58 49 59
REMARK SMILES IDX 33 60 34 61 42 62 35 63 36 64 40 65 43 66 37 67 38 68 41 69
REMARK SMILES IDX 39 70 65 71 66 72 74 73 67 74 68 75 72 76 75 77 69 78 70 79
REMARK SMILES IDX 73 80 71 81 50 82 51 83 59 84 52 85 53 86 57 87 60 88 54 89
REMARK SMILES IDX 55 90 58 91 56 92
REMARK H PARENT 11 8 11 9 3 15 6 18 80 45 48 56
REMARK Flexibility Score: inf
ROOT
ATOM      1  C   UNL A   1      31.575  28.982  25.474  1.00  0.00     0.274 C 
ENDROOT
BRANCH   1   2
ATOM      2  O   UNL A   1      32.777  28.199  25.300  1.00  0.00    -0.457 OA
BRANCH   2   3
ATOM      3  C   UNL A   1      33.198  28.007  24.015  1.00  0.00     0.367 C 
ATOM      4  O   UNL A   1      33.569  28.923  23.287  1.00  0.00    -0.245 OA
BRANCH   3   5
ATOM      5  C   UNL A   1      33.078  26.520  23.545  1.00  0.00     0.191 C 
ATOM      6  C   UNL A   1      33.614  26.350  22.109  1.00  0.00     0.092 C 
BRANCH   5   7
ATOM      7  N   UNL A   1      31.642  26.103  23.647  1.00  0.00    -0.322 N 
ATOM      8  H   UNL A   1      31.154  26.839  24.155  1.00  0.00     0.347 HD
ATOM      9  H   UNL A   1      31.367  25.951  22.675  1.00  0.00     0.347 HD
BRANCH   7  10
ATOM     10  C   UNL A   1      31.302  24.825  24.307  1.00  0.00     0.270 C 
ATOM     11  C   UNL A   1      30.644  23.685  23.520  1.00  0.00     0.086 C 
BRANCH  10  12
ATOM     12  C   UNL A   1      30.416  25.087  25.542  1.00  0.00     0.285 C 
ATOM     13  N   UNL A   1      31.560  22.298  27.013  1.00  0.00    -0.338 N 
ATOM     14  C   UNL A   1      30.491  23.121  27.025  1.00  0.00     0.321 C 
ATOM     15  H   UNL A   1      31.385  21.405  27.388  1.00  0.00     0.165 HD
ATOM     16  O   UNL A   1      29.432  22.691  27.487  1.00  0.00    -0.248 OA
ATOM     17  N   UNL A   1      30.624  24.446  26.745  1.00  0.00    -0.273 N 
ATOM     18  H   UNL A   1      30.905  25.019  27.495  1.00  0.00     0.175 HD
ATOM     19  O   UNL A   1      29.553  25.971  25.501  1.00  0.00    -0.268 OA
BRANCH  13  20
ATOM     20  C   UNL A   1      32.910  22.489  26.550  1.00  0.00     0.114 C 
ATOM     21  C   UNL A   1      33.957  22.462  27.640  1.00  0.00     0.027 C 
ENDBRANCH  13  20
ENDBRANCH  10  12
ENDBRANCH   7  10
ENDBRANCH   5   7
BRANCH   5  22
ATOM     22  C   UNL A   1      33.863  25.554  24.489  1.00  0.00     0.077 C 
ATOM     23  C   UNL A   1      34.659  24.435  23.817  1.00  0.00     0.011 C 
ENDBRANCH   5  22
ENDBRANCH   3   5
ENDBRANCH   2   3
ENDBRANCH   1   2
BRANCH   1  24
ATOM     24  C   UNL A   1      31.880  30.442  25.795  1.00  0.00     0.275 C 
BRANCH  24  25
ATOM     25  O   UNL A   1      32.535  30.515  27.068  1.00  0.00    -0.458 OA
BRANCH  25  26
ATOM     26  C   UNL A   1      33.226  31.648  27.309  1.00  0.00     0.338 C 
ATOM     27  O   UNL A   1      32.829  32.797  27.243  1.00  0.00    -0.246 OA
BRANCH  26  28
ATOM     28  C   UNL A   1      34.583  31.288  27.745  1.00  0.00     0.060 A 
ATOM     29  C   UNL A   1      34.859  29.960  28.066  1.00  0.00     0.016 A 
ATOM     30  C   UNL A   1      35.531  32.281  27.969  1.00  0.00     0.016 A 
ATOM     31  C   UNL A   1      36.057  29.616  28.679  1.00  0.00     0.010 A 
ATOM     32  C   UNL A   1      36.758  31.932  28.537  1.00  0.00     0.010 A 
ATOM     33  C   UNL A   1      37.008  30.606  28.939  1.00  0.00    -0.014 A 
BRANCH  33  34
ATOM     34  C   UNL A   1      38.194  30.291  29.767  1.00  0.00     0.031 A 
ATOM     35  C   UNL A   1      39.275  29.431  29.177  1.00  0.00     0.074 A 
ATOM     36  C   UNL A   1      38.332  30.796  31.005  1.00  0.00     0.049 A 
ATOM     37  N   UNL A   1      40.285  28.844  29.762  1.00  0.00    -0.248 NA
ATOM     38  C   UNL A   1      39.196  29.191  27.726  1.00  0.00     0.031 C 
ATOM     39  C   UNL A   1      37.408  31.729  31.649  1.00  0.00     0.029 A 
ATOM     40  N   UNL A   1      39.313  30.595  31.942  1.00  0.00    -0.354 N 
ATOM     41  C   UNL A   1      40.915  28.106  28.769  1.00  0.00     0.074 A 
ATOM     42  C   UNL A   1      40.190  28.336  27.539  1.00  0.00     0.031 C 
ATOM     43  C   UNL A   1      37.878  32.038  32.868  1.00  0.00     0.029 A 
ATOM     44  C   UNL A   1      39.089  31.263  33.119  1.00  0.00     0.049 A 
ATOM     45  H   UNL A   1      40.102  30.028  31.784  1.00  0.00     0.167 HD
ATOM     46  C   UNL A   1      41.994  27.297  28.886  1.00  0.00     0.037 A 
ATOM     47  C   UNL A   1      39.763  31.214  34.284  1.00  0.00     0.037 A 
ATOM     48  C   UNL A   1      42.742  27.131  30.103  1.00  0.00     0.049 A 
ATOM     49  C   UNL A   1      40.941  30.287  34.402  1.00  0.00     0.074 A 
ATOM     50  C   UNL A   1      43.852  26.341  30.340  1.00  0.00     0.029 A 
ATOM     51  N   UNL A   1      42.458  27.791  31.291  1.00  0.00    -0.354 N 
ATOM     52  N   UNL A   1      41.478  29.510  33.491  1.00  0.00    -0.248 NA
ATOM     53  C   UNL A   1      41.588  30.206  35.717  1.00  0.00     0.031 C 
ATOM     54  C   UNL A   1      44.226  26.505  31.679  1.00  0.00     0.029 A 
ATOM     55  C   UNL A   1      43.368  27.422  32.267  1.00  0.00     0.049 A 
ATOM     56  H   UNL A   1      41.720  28.429  31.420  1.00  0.00     0.167 HD
ATOM     57  C   UNL A   1      42.525  28.851  34.119  1.00  0.00     0.074 A 
ATOM     58  C   UNL A   1      42.562  29.337  35.484  1.00  0.00     0.031 C 
ATOM     59  C   UNL A   1      43.376  27.923  33.616  1.00  0.00     0.037 A 
BRANCH  46  60
ATOM     60  C   UNL A   1      42.381  26.490  27.683  1.00  0.00     0.064 A 
ATOM     61  C   UNL A   1      41.808  25.243  27.403  1.00  0.00     0.173 A 
ATOM     62  C   UNL A   1      43.356  26.981  26.799  1.00  0.00     0.173 A 
ATOM     63  F   UNL A   1      40.890  24.720  28.230  1.00  0.00    -0.203 F 
ATOM     64  C   UNL A   1      42.216  24.501  26.295  1.00  0.00     0.198 A 
ATOM     65  C   UNL A   1      43.743  26.249  25.680  1.00  0.00     0.198 A 
ATOM     66  F   UNL A   1      43.937  28.169  27.024  1.00  0.00    -0.203 F 
ATOM     67  F   UNL A   1      41.693  23.287  26.074  1.00  0.00    -0.200 F 
ATOM     68  C   UNL A   1      43.178  25.007  25.433  1.00  0.00     0.200 A 
ATOM     69  F   UNL A   1      44.669  26.741  24.847  1.00  0.00    -0.200 F 
ATOM     70  F   UNL A   1      43.572  24.291  24.370  1.00  0.00    -0.200 F 
ENDBRANCH  46  60
BRANCH  47  71
ATOM     71  C   UNL A   1      39.313  32.037  35.435  1.00  0.00     0.064 A 
ATOM     72  C   UNL A   1      39.689  33.382  35.546  1.00  0.00     0.173 A 
ATOM     73  C   UNL A   1      38.486  31.505  36.435  1.00  0.00     0.173 A 
ATOM     74  F   UNL A   1      40.501  33.928  34.629  1.00  0.00    -0.203 F 
ATOM     75  C   UNL A   1      39.255  34.163  36.615  1.00  0.00     0.198 A 
ATOM     76  C   UNL A   1      38.031  32.294  37.489  1.00  0.00     0.198 A 
ATOM     77  F   UNL A   1      38.104  30.221  36.377  1.00  0.00    -0.203 F 
ATOM     78  F   UNL A   1      39.652  35.439  36.714  1.00  0.00    -0.200 F 
ATOM     79  C   UNL A   1      38.419  33.622  37.580  1.00  0.00     0.200 A 
ATOM     80  F   UNL A   1      37.215  31.768  38.413  1.00  0.00    -0.200 F 
ATOM     81  F   UNL A   1      37.991  34.377  38.601  1.00  0.00    -0.200 F 
ENDBRANCH  47  71
BRANCH  59  82
ATOM     82  C   UNL A   1      44.423  27.395  34.548  1.00  0.00     0.064 A 
ATOM     83  C   UNL A   1      44.194  26.256  35.332  1.00  0.00     0.173 A 
ATOM     84  C   UNL A   1      45.675  28.022  34.637  1.00  0.00     0.173 A 
ATOM     85  F   UNL A   1      43.006  25.635  35.290  1.00  0.00    -0.203 F 
ATOM     86  C   UNL A   1      45.176  25.774  36.193  1.00  0.00     0.198 A 
ATOM     87  C   UNL A   1      46.661  27.524  35.483  1.00  0.00     0.198 A 
ATOM     88  F   UNL A   1      45.939  29.111  33.903  1.00  0.00    -0.203 F 
ATOM     89  F   UNL A   1      44.924  24.710  36.965  1.00  0.00    -0.200 F 
ATOM     90  C   UNL A   1      46.409  26.406  36.264  1.00  0.00     0.200 A 
ATOM     91  F   UNL A   1      47.854  28.131  35.547  1.00  0.00    -0.200 F 
ATOM     92  F   UNL A   1      47.354  25.943  37.095  1.00  0.00    -0.200 F 
ENDBRANCH  59  82
ENDBRANCH  33  34
ENDBRANCH  26  28
ENDBRANCH  25  26
ENDBRANCH  24  25
ENDBRANCH   1  24
TORSDOF 16
ENDMDL
MODEL 2
REMARK VINA RESULT:     -11.2      4.633      9.777
REMARK SMILES CCNC(=O)NC(=O)[C@@H](C)[NH2+][C@](C)(CC)C(=O)OCCOC(=O)c1ccc(-c2c3nc(c(-c4c(F)c(F)c(F)c(F)c4F)c4ccc([nH]4)c(-c4c(F)c(F)c(F)c(F)c4F)c4nc(c(-c5c(F)c(F)c(F)c(F)c5F)c5ccc2[nH]5)C=C4)C=C3)cc1
REMARK SMILES IDX 19 1 18 2 16 3 17 4 12 5 13 6 11 7 9 10 10 11 7 12 3 13 4 14
REMARK SMILES IDX 5 16 6 17 8 19 2 20 1 21 14 22 15 23 20 24 21 25 22 26 23 27
REMARK SMILES IDX 24 28 25 29 86 30 26 31 85 32 27 33 28 34 29 35 79 36 30 37
REMARK SMILES IDX 84 38 78 39 80 40 31 41 83 42 77 43 76 44 32 46 64 47 44 48
REMARK SMILES IDX 63 49 45 50 48 51 62 52 81 53 46 54 47 55 61 57 82 58 49 59
REMARK SMILES IDX 33 60 34 61 42 62 35 63 36 64 40 65 43 66 37 67 38 68 41 69
REMARK SMILES IDX 39 70 65 71 66 72 74 73 67 74 68 75 72 76 75 77 69 78 70 79
REMARK SMILES IDX 73 80 71 81 50 82 51 83 59 84 52 85 53 86 57 87 60 88 54 89
REMARK SMILES IDX 55 90 58 91 56 92
REMARK H PARENT 11 8 11 9 3 15 6 18 80 45 48 56
REMARK Flexibility Score: inf
ROOT
ATOM      1  C   UNL A   1      35.922  20.735  24.980  1.00  0.00     0.274 C 
ENDROOT
BRANCH   1   2
ATOM      2  O   UNL A   1      35.421  22.089  25.036  1.00  0.00    -0.457 OA
BRANCH   2   3
ATOM      3  C   UNL A   1      34.970  22.621  23.862  1.00  0.00     0.367 C 
ATOM      4  O   UNL A   1      35.718  23.007  22.969  1.00  0.00    -0.245 OA
BRANCH   3   5
ATOM      5  C   UNL A   1      33.413  22.765  23.811  1.00  0.00     0.191 C 
ATOM      6  C   UNL A   1      32.984  23.726  22.684  1.00  0.00     0.092 C 
BRANCH   5   7
ATOM      7  N   UNL A   1      32.934  23.243  25.150  1.00  0.00    -0.322 N 
ATOM      8  H   UNL A   1      32.027  22.808  25.314  1.00  0.00     0.347 HD
ATOM      9  H   UNL A   1      33.693  22.982  25.782  1.00  0.00     0.347 HD
BRANCH   7  10
ATOM     10  C   UNL A   1      32.767  24.691  25.387  1.00  0.00     0.270 C 
ATOM     11  C   UNL A   1      33.969  25.573  25.749  1.00  0.00     0.086 C 
BRANCH  10  12
ATOM     12  C   UNL A   1      31.694  24.930  26.468  1.00  0.00     0.285 C 
ATOM     13  N   UNL A   1      31.492  28.170  25.621  1.00  0.00    -0.338 N 
ATOM     14  C   UNL A   1      31.268  27.349  26.669  1.00  0.00     0.321 C 
ATOM     15  H   UNL A   1      31.591  29.117  25.867  1.00  0.00     0.165 HD
ATOM     16  O   UNL A   1      31.213  27.845  27.794  1.00  0.00    -0.248 OA
ATOM     17  N   UNL A   1      30.895  26.054  26.476  1.00  0.00    -0.273 N 
ATOM     18  H   UNL A   1      29.934  25.900  26.322  1.00  0.00     0.175 HD
ATOM     19  O   UNL A   1      31.458  24.049  27.303  1.00  0.00    -0.268 OA
BRANCH  13  20
ATOM     20  C   UNL A   1      31.612  27.910  24.209  1.00  0.00     0.114 C 
ATOM     21  C   UNL A   1      32.771  28.612  23.540  1.00  0.00     0.027 C 
ENDBRANCH  13  20
ENDBRANCH  10  12
ENDBRANCH   7  10
ENDBRANCH   5   7
BRANCH   5  22
ATOM     22  C   UNL A   1      32.714  21.386  23.585  1.00  0.00     0.077 C 
ATOM     23  C   UNL A   1      32.159  20.687  24.825  1.00  0.00     0.011 C 
ENDBRANCH   5  22
ENDBRANCH   3   5
ENDBRANCH   2   3
ENDBRANCH   1   2
BRANCH   1  24
ATOM     24  C   UNL A   1      37.444  20.687  24.903  1.00  0.00     0.275 C 
BRANCH  24  25
ATOM     25  O   UNL A   1      37.988  21.711  25.747  1.00  0.00    -0.458 OA
BRANCH  25  26
ATOM     26  C   UNL A   1      39.240  21.495  26.199  1.00  0.00     0.338 C 
ATOM     27  O   UNL A   1      39.911  20.484  26.098  1.00  0.00    -0.246 OA
BRANCH  26  28
ATOM     28  C   UNL A   1      39.738  22.733  26.814  1.00  0.00     0.060 A 
ATOM     29  C   UNL A   1      39.255  23.958  26.354  1.00  0.00     0.016 A 
ATOM     30  C   UNL A   1      40.778  22.687  27.737  1.00  0.00     0.016 A 
ATOM     31  C   UNL A   1      39.848  25.147  26.756  1.00  0.00     0.010 A 
ATOM     32  C   UNL A   1      41.343  23.883  28.185  1.00  0.00     0.010 A 
ATOM     33  C   UNL A   1      40.913  25.116  27.660  1.00  0.00    -0.014 A 
BRANCH  33  34
ATOM     34  C   UNL A   1      41.680  26.351  27.939  1.00  0.00     0.031 A 
ATOM     35  C   UNL A   1      41.048  27.412  28.795  1.00  0.00     0.074 A 
ATOM     36  C   UNL A   1      42.933  26.511  27.479  1.00  0.00     0.049 A 
ATOM     37  N   UNL A   1      41.418  28.648  28.998  1.00  0.00    -0.248 NA
ATOM     38  C   UNL A   1      39.822  27.024  29.513  1.00  0.00     0.031 C 
ATOM     39  C   UNL A   1      43.696  25.513  26.731  1.00  0.00     0.029 A 
ATOM     40  N   UNL A   1      43.787  27.579  27.583  1.00  0.00    -0.354 N 
ATOM     41  C   UNL A   1      40.432  29.207  29.801  1.00  0.00     0.074 A 
ATOM     42  C   UNL A   1      39.460  28.169  30.069  1.00  0.00     0.031 C 
ATOM     43  C   UNL A   1      44.915  26.006  26.462  1.00  0.00     0.029 A 
ATOM     44  C   UNL A   1      44.987  27.381  26.946  1.00  0.00     0.049 A 
ATOM     45  H   UNL A   1      43.562  28.406  28.067  1.00  0.00     0.167 HD
ATOM     46  C   UNL A   1      40.346  30.478  30.257  1.00  0.00     0.037 A 
ATOM     47  C   UNL A   1      46.008  28.235  26.740  1.00  0.00     0.037 A 
ATOM     48  C   UNL A   1      41.354  31.479  30.034  1.00  0.00     0.049 A 
ATOM     49  C   UNL A   1      45.879  29.651  27.228  1.00  0.00     0.074 A 
ATOM     50  C   UNL A   1      41.376  32.798  30.447  1.00  0.00     0.029 A 
ATOM     51  N   UNL A   1      42.539  31.254  29.345  1.00  0.00    -0.354 N 
ATOM     52  N   UNL A   1      44.901  30.210  27.900  1.00  0.00    -0.248 NA
ATOM     53  C   UNL A   1      46.981  30.565  26.901  1.00  0.00     0.031 C 
ATOM     54  C   UNL A   1      42.564  33.379  29.989  1.00  0.00     0.029 A 
ATOM     55  C   UNL A   1      43.296  32.413  29.316  1.00  0.00     0.049 A 
ATOM     56  H   UNL A   1      42.802  30.398  28.939  1.00  0.00     0.167 HD
ATOM     57  C   UNL A   1      45.268  31.535  28.082  1.00  0.00     0.074 A 
ATOM     58  C   UNL A   1      46.571  31.692  27.465  1.00  0.00     0.031 C 
ATOM     59  C   UNL A   1      44.589  32.536  28.694  1.00  0.00     0.037 A 
BRANCH  46  60
ATOM     60  C   UNL A   1      39.092  30.864  30.981  1.00  0.00     0.064 A 
ATOM     61  C   UNL A   1      38.971  30.764  32.374  1.00  0.00     0.173 A 
ATOM     62  C   UNL A   1      37.985  31.338  30.257  1.00  0.00     0.173 A 
ATOM     63  F   UNL A   1      39.990  30.295  33.108  1.00  0.00    -0.203 F 
ATOM     64  C   UNL A   1      37.778  31.098  33.014  1.00  0.00     0.198 A 
ATOM     65  C   UNL A   1      36.805  31.694  30.902  1.00  0.00     0.198 A 
ATOM     66  F   UNL A   1      38.050  31.450  28.922  1.00  0.00    -0.203 F 
ATOM     67  F   UNL A   1      37.666  30.945  34.341  1.00  0.00    -0.200 F 
ATOM     68  C   UNL A   1      36.699  31.567  32.279  1.00  0.00     0.200 A 
ATOM     69  F   UNL A   1      35.766  32.151  30.190  1.00  0.00    -0.200 F 
ATOM     70  F   UNL A   1      35.552  31.884  32.896  1.00  0.00    -0.200 F 
ENDBRANCH  46  60
BRANCH  47  71
ATOM     71  C   UNL A   1      47.215  27.781  26.004  1.00  0.00     0.064 A 
ATOM     72  C   UNL A   1      48.352  27.340  26.695  1.00  0.00     0.173 A 
ATOM     73  C   UNL A   1      47.253  27.761  24.602  1.00  0.00     0.173 A 
ATOM     74  F   UNL A   1      48.374  27.367  28.035  1.00  0.00    -0.203 F 
ATOM     75  C   UNL A   1      49.481  26.897  26.009  1.00  0.00     0.198 A 
ATOM     76  C   UNL A   1      48.372  27.292  23.918  1.00  0.00     0.198 A 
ATOM     77  F   UNL A   1      46.192  28.178  23.896  1.00  0.00    -0.203 F 
ATOM     78  F   UNL A   1      50.567  26.508  26.692  1.00  0.00    -0.200 F 
ATOM     79  C   UNL A   1      49.487  26.864  24.622  1.00  0.00     0.200 A 
ATOM     80  F   UNL A   1      48.369  27.253  22.579  1.00  0.00    -0.200 F 
ATOM     81  F   UNL A   1      50.569  26.425  23.964  1.00  0.00    -0.200 F 
ENDBRANCH  47  71
BRANCH  59  82
ATOM     82  C   UNL A   1      45.258  33.875  28.739  1.00  0.00     0.064 A 
ATOM     83  C   UNL A   1      45.038  34.835  27.741  1.00  0.00     0.173 A 
ATOM     84  C   UNL A   1      46.107  34.208  29.804  1.00  0.00     0.173 A 
ATOM     85  F   UNL A   1      44.246  34.552  26.696  1.00  0.00    -0.203 F 
ATOM     86  C   UNL A   1      45.664  36.076  27.796  1.00  0.00     0.198 A 
ATOM     87  C   UNL A   1      46.714  35.458  29.867  1.00  0.00     0.198 A 
ATOM     88  F   UNL A   1      46.343  33.323  30.783  1.00  0.00    -0.203 F 
ATOM     89  F   UNL A   1      45.475  36.964  26.811  1.00  0.00    -0.200 F 
ATOM     90  C   UNL A   1      46.498  36.388  28.860  1.00  0.00     0.200 A 
ATOM     91  F   UNL A   1      47.515  35.762  30.897  1.00  0.00    -0.200 F 
ATOM     92  F   UNL A   1      47.103  37.583  28.910  1.00  0.00    -0.200 F 
ENDBRANCH  59  82
ENDBRANCH  33  34
ENDBRANCH  26  28
ENDBRANCH  25  26
ENDBRANCH  24  25
ENDBRANCH   1  24
TORSDOF 16
ENDMDL
MODEL 3
REMARK VINA RESULT:     -11.2      1.351      2.685
REMARK SMILES CCNC(=O)NC(=O)[C@@H](C)[NH2+][C@](C)(CC)C(=O)OCCOC(=O)c1ccc(-c2c3nc(c(-c4c(F)c(F)c(F)c(F)c4F)c4ccc([nH]4)c(-c4c(F)c(F)c(F)c(F)c4F)c4nc(c(-c5c(F)c(F)c(F)c(F)c5F)c5ccc2[nH]5)C=C4)C=C3)cc1
REMARK SMILES IDX 19 1 18 2 16 3 17 4 12 5 13 6 11 7 9 10 10 11 7 12 3 13 4 14
REMARK SMILES IDX 5 16 6 17 8 19 2 20 1 21 14 22 15 23 20 24 21 25 22 26 23 27
REMARK SMILES IDX 24 28 25 29 86 30 26 31 85 32 27 33 28 34 29 35 79 36 30 37
REMARK SMILES IDX 84 38 78 39 80 40 31 41 83 42 77 43 76 44 32 46 64 47 44 48
REMARK SMILES IDX 63 49 45 50 48 51 62 52 81 53 46 54 47 55 61 57 82 58 49 59
REMARK SMILES IDX 33 60 34 61 42 62 35 63 36 64 40 65 43 66 37 67 38 68 41 69
REMARK SMILES IDX 39 70 65 71 66 72 74 73 67 74 68 75 72 76 75 77 69 78 70 79
REMARK SMILES IDX 73 80 71 81 50 82 51 83 59 84 52 85 53 86 57 87 60 88 54 89
REMARK SMILES IDX 55 90 58 91 56 92
REMARK H PARENT 11 8 11 9 3 15 6 18 80 45 48 56
REMARK Flexibility Score: inf
ROOT
ATOM      1  C   UNL A   1      32.393  29.754  25.297  1.00  0.00     0.274 C 
ENDROOT
BRANCH   1   2
ATOM      2  O   UNL A   1      31.392  29.350  24.337  1.00  0.00    -0.457 OA
BRANCH   2   3
ATOM      3  C   UNL A   1      30.904  28.080  24.464  1.00  0.00     0.367 C 
ATOM      4  O   UNL A   1      31.101  27.382  25.453  1.00  0.00    -0.245 OA
BRANCH   3   5
ATOM      5  C   UNL A   1      30.145  27.584  23.189  1.00  0.00     0.191 C 
ATOM      6  C   UNL A   1      29.356  26.293  23.485  1.00  0.00     0.092 C 
BRANCH   5   7
ATOM      7  N   UNL A   1      31.144  27.375  22.091  1.00  0.00    -0.322 N 
ATOM      8  H   UNL A   1      30.714  26.748  21.413  1.00  0.00     0.347 HD
ATOM      9  H   UNL A   1      31.354  28.323  21.775  1.00  0.00     0.347 HD
BRANCH   7  10
ATOM     10  C   UNL A   1      32.473  26.815  22.414  1.00  0.00     0.270 C 
ATOM     11  C   UNL A   1      33.723  27.705  22.411  1.00  0.00     0.086 C 
BRANCH  10  12
ATOM     12  C   UNL A   1      32.777  25.612  21.499  1.00  0.00     0.285 C 
ATOM     13  N   UNL A   1      33.242  23.637  24.170  1.00  0.00    -0.338 N 
ATOM     14  C   UNL A   1      33.594  23.735  22.871  1.00  0.00     0.321 C 
ATOM     15  H   UNL A   1      33.834  23.060  24.705  1.00  0.00     0.165 HD
ATOM     16  O   UNL A   1      34.589  23.117  22.490  1.00  0.00    -0.248 OA
ATOM     17  N   UNL A   1      32.761  24.313  21.962  1.00  0.00    -0.273 N 
ATOM     18  H   UNL A   1      32.059  23.731  21.590  1.00  0.00     0.175 HD
ATOM     19  O   UNL A   1      32.941  25.790  20.286  1.00  0.00    -0.268 OA
BRANCH  13  20
ATOM     20  C   UNL A   1      32.158  24.223  24.916  1.00  0.00     0.114 C 
ATOM     21  C   UNL A   1      32.013  23.700  26.327  1.00  0.00     0.027 C 
ENDBRANCH  13  20
ENDBRANCH  10  12
ENDBRANCH   7  10
ENDBRANCH   5   7
BRANCH   5  22
ATOM     22  C   UNL A   1      29.153  28.664  22.653  1.00  0.00     0.077 C 
ATOM     23  C   UNL A   1      27.689  28.519  23.068  1.00  0.00     0.011 C 
ENDBRANCH   5  22
ENDBRANCH   3   5
ENDBRANCH   2   3
ENDBRANCH   1   2
BRANCH   1  24
ATOM     24  C   UNL A   1      31.867  30.803  26.270  1.00  0.00     0.275 C 
BRANCH  24  25
ATOM     25  O   UNL A   1      32.713  30.835  27.427  1.00  0.00    -0.458 OA
BRANCH  25  26
ATOM     26  C   UNL A   1      33.487  31.932  27.559  1.00  0.00     0.338 C 
ATOM     27  O   UNL A   1      33.167  33.098  27.414  1.00  0.00    -0.246 OA
BRANCH  26  28
ATOM     28  C   UNL A   1      34.830  31.512  27.982  1.00  0.00     0.060 A 
ATOM     29  C   UNL A   1      35.039  30.182  28.345  1.00  0.00     0.016 A 
ATOM     30  C   UNL A   1      35.836  32.457  28.155  1.00  0.00     0.016 A 
ATOM     31  C   UNL A   1      36.228  29.792  28.948  1.00  0.00     0.010 A 
ATOM     32  C   UNL A   1      37.053  32.060  28.713  1.00  0.00     0.010 A 
ATOM     33  C   UNL A   1      37.237  30.736  29.155  1.00  0.00    -0.014 A 
BRANCH  33  34
ATOM     34  C   UNL A   1      38.420  30.383  29.973  1.00  0.00     0.031 A 
ATOM     35  C   UNL A   1      39.477  29.504  29.366  1.00  0.00     0.074 A 
ATOM     36  C   UNL A   1      38.577  30.870  31.216  1.00  0.00     0.049 A 
ATOM     37  N   UNL A   1      40.476  28.887  29.938  1.00  0.00    -0.248 NA
ATOM     38  C   UNL A   1      39.384  29.283  27.913  1.00  0.00     0.031 C 
ATOM     39  C   UNL A   1      37.680  31.817  31.876  1.00  0.00     0.029 A 
ATOM     40  N   UNL A   1      39.559  30.635  32.144  1.00  0.00    -0.354 N 
ATOM     41  C   UNL A   1      41.083  28.146  28.933  1.00  0.00     0.074 A 
ATOM     42  C   UNL A   1      40.356  28.408  27.710  1.00  0.00     0.031 C 
ATOM     43  C   UNL A   1      38.164  32.100  33.095  1.00  0.00     0.029 A 
ATOM     44  C   UNL A   1      39.358  31.294  33.331  1.00  0.00     0.049 A 
ATOM     45  H   UNL A   1      40.333  30.051  31.975  1.00  0.00     0.167 HD
ATOM     46  C   UNL A   1      42.143  27.311  29.033  1.00  0.00     0.037 A 
ATOM     47  C   UNL A   1      40.037  31.216  34.490  1.00  0.00     0.037 A 
ATOM     48  C   UNL A   1      42.893  27.112  30.244  1.00  0.00     0.049 A 
ATOM     49  C   UNL A   1      41.193  30.259  34.590  1.00  0.00     0.074 A 
ATOM     50  C   UNL A   1      43.985  26.293  30.465  1.00  0.00     0.029 A 
ATOM     51  N   UNL A   1      42.633  27.765  31.441  1.00  0.00    -0.354 N 
ATOM     52  N   UNL A   1      41.706  29.480  33.668  1.00  0.00    -0.248 NA
ATOM     53  C   UNL A   1      41.846  30.147  35.901  1.00  0.00     0.031 C 
ATOM     54  C   UNL A   1      44.372  26.433  31.804  1.00  0.00     0.029 A 
ATOM     55  C   UNL A   1      43.539  27.362  32.407  1.00  0.00     0.049 A 
ATOM     56  H   UNL A   1      41.910  28.418  31.582  1.00  0.00     0.167 HD
ATOM     57  C   UNL A   1      42.741  28.790  34.281  1.00  0.00     0.074 A 
ATOM     58  C   UNL A   1      42.797  29.258  35.652  1.00  0.00     0.031 C 
ATOM     59  C   UNL A   1      43.567  27.848  33.763  1.00  0.00     0.037 A 
BRANCH  46  60
ATOM     60  C   UNL A   1      42.504  26.509  27.819  1.00  0.00     0.064 A 
ATOM     61  C   UNL A   1      41.917  25.267  27.541  1.00  0.00     0.173 A 
ATOM     62  C   UNL A   1      43.467  26.998  26.921  1.00  0.00     0.173 A 
ATOM     63  F   UNL A   1      41.010  24.746  28.380  1.00  0.00    -0.203 F 
ATOM     64  C   UNL A   1      42.301  24.530  26.422  1.00  0.00     0.198 A 
ATOM     65  C   UNL A   1      43.829  26.272  25.792  1.00  0.00     0.198 A 
ATOM     66  F   UNL A   1      44.060  28.181  27.145  1.00  0.00    -0.203 F 
ATOM     67  F   UNL A   1      41.765  23.321  26.201  1.00  0.00    -0.200 F 
ATOM     68  C   UNL A   1      43.252  25.035  25.546  1.00  0.00     0.200 A 
ATOM     69  F   UNL A   1      44.744  26.763  24.945  1.00  0.00    -0.200 F 
ATOM     70  F   UNL A   1      43.622  24.323  24.472  1.00  0.00    -0.200 F 
ENDBRANCH  46  60
BRANCH  47  71
ATOM     71  C   UNL A   1      39.613  32.035  35.654  1.00  0.00     0.064 A 
ATOM     72  C   UNL A   1      38.625  31.573  36.534  1.00  0.00     0.173 A 
ATOM     73  C   UNL A   1      40.196  33.283  35.921  1.00  0.00     0.173 A 
ATOM     74  F   UNL A   1      38.020  30.400  36.305  1.00  0.00    -0.203 F 
ATOM     75  C   UNL A   1      38.238  32.330  37.638  1.00  0.00     0.198 A 
ATOM     76  C   UNL A   1      39.826  34.026  37.039  1.00  0.00     0.198 A 
ATOM     77  F   UNL A   1      41.142  33.770  35.105  1.00  0.00    -0.203 F 
ATOM     78  F   UNL A   1      37.269  31.881  38.449  1.00  0.00    -0.200 F 
ATOM     79  C   UNL A   1      38.844  33.551  37.895  1.00  0.00     0.200 A 
ATOM     80  F   UNL A   1      40.423  35.199  37.289  1.00  0.00    -0.200 F 
ATOM     81  F   UNL A   1      38.479  34.272  38.964  1.00  0.00    -0.200 F 
ENDBRANCH  47  71
BRANCH  59  82
ATOM     82  C   UNL A   1      44.607  27.283  34.682  1.00  0.00     0.064 A 
ATOM     83  C   UNL A   1      45.857  27.898  34.834  1.00  0.00     0.173 A 
ATOM     84  C   UNL A   1      44.338  26.131  35.434  1.00  0.00     0.173 A 
ATOM     85  F   UNL A   1      46.162  28.993  34.121  1.00  0.00    -0.203 F 
ATOM     86  C   UNL A   1      46.814  27.365  35.692  1.00  0.00     0.198 A 
ATOM     87  C   UNL A   1      45.289  25.613  36.307  1.00  0.00     0.198 A 
ATOM     88  F   UNL A   1      43.154  25.512  35.323  1.00  0.00    -0.203 F 
ATOM     89  F   UNL A   1      48.017  27.943  35.792  1.00  0.00    -0.200 F 
ATOM     90  C   UNL A   1      46.528  26.226  36.430  1.00  0.00     0.200 A 
ATOM     91  F   UNL A   1      45.010  24.516  37.024  1.00  0.00    -0.200 F 
ATOM     92  F   UNL A   1      47.451  25.712  37.255  1.00  0.00    -0.200 F 
ENDBRANCH  59  82
ENDBRANCH  33  34
ENDBRANCH  26  28
ENDBRANCH  25  26
ENDBRANCH  24  25
ENDBRANCH   1  24
TORSDOF 16
ENDMDL
