MODEL 1
REMARK VINA RESULT:     -13.3      0.000      0.000
REMARK SMILES Cc1cccc(S(=O)(=O)Nc2cc(C(=O)OCCOC(=O)c3ccc(-c4c5nc(c(-c6c(F)c(F)c(F)c(F)c6F)c6ccc([nH]6)c(-c6c(F)c(F)c(F)c(F)c6F)c6nc(c(-c7c(F)c(F)c(F)c(F)c7F)c7ccc4[nH]7)C=C6)C=C5)cc3)ccc2N2CCC[C@H](C[NH+]3CCCC3)C2)c1
REMARK SMILES IDX 17 1 16 2 14 3 15 4 13 5 11 6 12 7 87 8 86 9 85 10 10 11
REMARK SMILES IDX 7 13 8 14 9 15 6 16 1 17 2 18 3 19 100 20 4 21 5 22 88 23
REMARK SMILES IDX 89 24 99 25 90 26 92 27 91 28 93 29 94 30 95 31 98 32 96 34
REMARK SMILES IDX 97 35 18 36 19 37 20 38 21 39 22 40 23 41 84 42 24 43 83 44
REMARK SMILES IDX 25 45 26 46 27 47 77 48 28 49 82 50 76 51 78 52 29 53 81 54
REMARK SMILES IDX 75 55 74 56 30 58 62 59 42 60 61 61 43 62 46 63 60 64 79 65
REMARK SMILES IDX 44 66 45 67 59 69 80 70 47 71 31 72 32 73 40 74 33 75 34 76
REMARK SMILES IDX 38 77 41 78 35 79 36 80 39 81 37 82 63 83 64 84 72 85 65 86
REMARK SMILES IDX 66 87 70 88 73 89 67 90 68 91 71 92 69 93 48 94 49 95 57 96
REMARK SMILES IDX 50 97 51 98 55 99 58 100 52 101 53 102 56 103 54 104
REMARK H PARENT 10 12 94 33 78 57 46 68
REMARK Flexibility Score: inf
ROOT
ATOM      1  C   UNL A   1      36.394  20.549  25.370  1.00  0.00     0.275 C 
ENDROOT
BRANCH   1   2
ATOM      2  O   UNL A   1      35.207  20.581  24.564  1.00  0.00    -0.458 OA
BRANCH   2   3
ATOM      3  C   UNL A   1      34.329  21.492  25.024  1.00  0.00     0.338 C 
ATOM      4  O   UNL A   1      33.915  21.567  26.172  1.00  0.00    -0.246 OA
BRANCH   3   5
ATOM      5  C   UNL A   1      33.812  22.451  24.049  1.00  0.00     0.062 A 
ATOM      6  C   UNL A   1      32.014  24.094  24.018  1.00  0.00     0.073 A 
ATOM      7  C   UNL A   1      32.489  22.814  24.298  1.00  0.00     0.044 A 
ATOM      8  C   UNL A   1      32.840  24.985  23.270  1.00  0.00     0.061 A 
ATOM      9  C   UNL A   1      34.149  24.528  22.938  1.00  0.00     0.029 A 
ATOM     10  C   UNL A   1      34.649  23.287  23.337  1.00  0.00     0.018 A 
BRANCH   6  11
ATOM     11  N   UNL A   1      30.846  24.543  24.732  1.00  0.00    -0.277 N 
ATOM     12  H   UNL A   1      29.991  24.531  24.244  1.00  0.00     0.180 HD
BRANCH  11  13
ATOM     13  S   UNL A   1      30.807  25.087  26.325  1.00  0.00     0.261 S 
ATOM     14  O   UNL A   1      31.342  24.053  27.185  1.00  0.00    -0.201 OA
ATOM     15  O   UNL A   1      29.440  25.546  26.490  1.00  0.00    -0.201 OA
BRANCH  13  16
ATOM     16  C   UNL A   1      31.829  26.541  26.552  1.00  0.00     0.088 A 
ATOM     17  C   UNL A   1      31.718  30.354  26.785  1.00  0.00     0.044 C 
ATOM     18  C   UNL A   1      32.215  28.940  26.716  1.00  0.00    -0.050 A 
ATOM     19  C   UNL A   1      33.584  28.739  26.539  1.00  0.00     0.003 A 
ATOM     20  C   UNL A   1      31.341  27.829  26.772  1.00  0.00     0.025 A 
ATOM     21  C   UNL A   1      34.082  27.451  26.390  1.00  0.00     0.002 A 
ATOM     22  C   UNL A   1      33.209  26.360  26.379  1.00  0.00     0.022 A 
ENDBRANCH  13  16
ENDBRANCH  11  13
ENDBRANCH   6  11
BRANCH   8  23
ATOM     23  N   UNL A   1      32.514  26.277  22.828  1.00  0.00    -0.369 N 
ATOM     24  C   UNL A   1      33.646  27.226  22.762  1.00  0.00     0.116 C 
ATOM     25  C   UNL A   1      31.373  26.599  21.970  1.00  0.00     0.126 C 
ATOM     26  C   UNL A   1      33.163  28.642  23.055  1.00  0.00     0.022 C 
ATOM     27  C   UNL A   1      30.865  28.046  22.181  1.00  0.00     0.064 C 
ATOM     28  C   UNL A   1      32.045  29.023  22.094  1.00  0.00     0.013 C 
BRANCH  27  29
ATOM     29  C   UNL A   1      30.023  28.129  23.483  1.00  0.00     0.267 C 
BRANCH  29  30
ATOM     30  N   UNL A   1      28.967  29.139  23.613  1.00  0.00    -0.335 N 
ATOM     31  C   UNL A   1      27.873  29.052  22.649  1.00  0.00     0.262 C 
ATOM     32  C   UNL A   1      29.398  30.533  23.674  1.00  0.00     0.262 C 
ATOM     33  H   UNL A   1      28.620  28.871  24.534  1.00  0.00     0.348 HD
ATOM     34  C   UNL A   1      28.151  30.142  21.633  1.00  0.00     0.067 C 
ATOM     35  C   UNL A   1      28.819  31.235  22.449  1.00  0.00     0.067 C 
ENDBRANCH  29  30
ENDBRANCH  27  29
ENDBRANCH   8  23
ENDBRANCH   3   5
ENDBRANCH   2   3
ENDBRANCH   1   2
BRANCH   1  36
ATOM     36  C   UNL A   1      37.474  21.496  24.853  1.00  0.00     0.275 C 
BRANCH  36  37
ATOM     37  O   UNL A   1      37.978  22.571  25.697  1.00  0.00    -0.458 OA
BRANCH  37  38
ATOM     38  C   UNL A   1      39.248  22.647  26.171  1.00  0.00     0.338 C 
ATOM     39  O   UNL A   1      40.023  21.698  26.154  1.00  0.00    -0.246 OA
BRANCH  38  40
ATOM     40  C   UNL A   1      39.597  23.928  26.832  1.00  0.00     0.060 A 
ATOM     41  C   UNL A   1      40.521  24.815  26.237  1.00  0.00     0.016 A 
ATOM     42  C   UNL A   1      38.934  24.301  27.989  1.00  0.00     0.016 A 
ATOM     43  C   UNL A   1      40.713  26.110  26.746  1.00  0.00     0.010 A 
ATOM     44  C   UNL A   1      39.046  25.600  28.427  1.00  0.00     0.010 A 
ATOM     45  C   UNL A   1      39.962  26.508  27.846  1.00  0.00    -0.014 A 
BRANCH  45  46
ATOM     46  C   UNL A   1      40.136  27.731  28.642  1.00  0.00     0.031 A 
ATOM     47  C   UNL A   1      39.274  28.938  28.590  1.00  0.00     0.074 A 
ATOM     48  C   UNL A   1      40.986  27.525  29.676  1.00  0.00     0.049 A 
ATOM     49  N   UNL A   1      39.077  29.662  29.639  1.00  0.00    -0.248 NA
ATOM     50  C   UNL A   1      38.514  29.437  27.438  1.00  0.00     0.031 C 
ATOM     51  C   UNL A   1      41.177  28.237  30.929  1.00  0.00     0.029 A 
ATOM     52  N   UNL A   1      42.056  26.610  29.658  1.00  0.00    -0.354 N 
ATOM     53  C   UNL A   1      38.164  30.646  29.354  1.00  0.00     0.074 A 
ATOM     54  C   UNL A   1      37.774  30.423  27.987  1.00  0.00     0.031 C 
ATOM     55  C   UNL A   1      42.443  28.034  31.340  1.00  0.00     0.029 A 
ATOM     56  C   UNL A   1      43.111  27.306  30.270  1.00  0.00     0.049 A 
ATOM     57  H   UNL A   1      42.064  25.694  29.299  1.00  0.00     0.167 HD
ATOM     58  C   UNL A   1      37.923  31.565  30.328  1.00  0.00     0.037 A 
ATOM     59  C   UNL A   1      44.085  27.812  29.454  1.00  0.00     0.037 A 
ATOM     60  C   UNL A   1      39.162  31.752  31.064  1.00  0.00     0.049 A 
ATOM     61  C   UNL A   1      44.120  29.322  29.516  1.00  0.00     0.074 A 
ATOM     62  C   UNL A   1      39.681  31.312  32.266  1.00  0.00     0.029 A 
ATOM     63  N   UNL A   1      40.222  32.258  30.327  1.00  0.00    -0.354 N 
ATOM     64  N   UNL A   1      43.081  30.078  29.752  1.00  0.00    -0.248 NA
ATOM     65  C   UNL A   1      45.359  30.080  29.418  1.00  0.00     0.031 C 
ATOM     66  C   UNL A   1      41.101  31.440  32.178  1.00  0.00     0.029 A 
ATOM     67  C   UNL A   1      41.418  31.987  30.942  1.00  0.00     0.049 A 
ATOM     68  H   UNL A   1      40.129  32.746  29.477  1.00  0.00     0.167 HD
ATOM     69  C   UNL A   1      43.497  31.372  29.929  1.00  0.00     0.074 A 
ATOM     70  C   UNL A   1      44.927  31.324  29.684  1.00  0.00     0.031 C 
ATOM     71  C   UNL A   1      42.657  32.385  30.295  1.00  0.00     0.037 A 
BRANCH  58  72
ATOM     72  C   UNL A   1      36.635  32.257  30.684  1.00  0.00     0.064 A 
ATOM     73  C   UNL A   1      36.116  33.259  29.826  1.00  0.00     0.173 A 
ATOM     74  C   UNL A   1      35.978  32.136  31.919  1.00  0.00     0.173 A 
ATOM     75  F   UNL A   1      36.631  33.470  28.607  1.00  0.00    -0.203 F 
ATOM     76  C   UNL A   1      35.074  34.112  30.203  1.00  0.00     0.198 A 
ATOM     77  C   UNL A   1      34.930  32.990  32.295  1.00  0.00     0.198 A 
ATOM     78  F   UNL A   1      36.337  31.201  32.804  1.00  0.00    -0.203 F 
ATOM     79  F   UNL A   1      34.665  35.076  29.366  1.00  0.00    -0.200 F 
ATOM     80  C   UNL A   1      34.492  33.987  31.445  1.00  0.00     0.200 A 
ATOM     81  F   UNL A   1      34.364  32.858  33.504  1.00  0.00    -0.200 F 
ATOM     82  F   UNL A   1      33.517  34.827  31.824  1.00  0.00    -0.200 F 
ENDBRANCH  58  72
BRANCH  59  83
ATOM     83  C   UNL A   1      44.323  26.948  28.245  1.00  0.00     0.064 A 
ATOM     84  C   UNL A   1      44.006  27.493  26.976  1.00  0.00     0.173 A 
ATOM     85  C   UNL A   1      45.155  25.822  28.252  1.00  0.00     0.173 A 
ATOM     86  F   UNL A   1      43.219  28.580  26.893  1.00  0.00    -0.203 F 
ATOM     87  C   UNL A   1      44.596  27.027  25.801  1.00  0.00     0.198 A 
ATOM     88  C   UNL A   1      45.712  25.329  27.062  1.00  0.00     0.198 A 
ATOM     89  F   UNL A   1      45.512  25.247  29.409  1.00  0.00    -0.203 F 
ATOM     90  F   UNL A   1      44.378  27.666  24.642  1.00  0.00    -0.200 F 
ATOM     91  C   UNL A   1      45.462  25.952  25.847  1.00  0.00     0.200 A 
ATOM     92  F   UNL A   1      46.563  24.291  27.101  1.00  0.00    -0.200 F 
ATOM     93  F   UNL A   1      46.083  25.540  24.732  1.00  0.00    -0.200 F 
ENDBRANCH  59  83
BRANCH  71  94
ATOM     94  C   UNL A   1      42.932  33.862  30.109  1.00  0.00     0.064 A 
ATOM     95  C   UNL A   1      43.055  34.768  31.175  1.00  0.00     0.173 A 
ATOM     96  C   UNL A   1      43.276  34.381  28.834  1.00  0.00     0.173 A 
ATOM     97  F   UNL A   1      42.914  34.377  32.448  1.00  0.00    -0.203 F 
ATOM     98  C   UNL A   1      43.407  36.105  30.977  1.00  0.00     0.198 A 
ATOM     99  C   UNL A   1      43.702  35.696  28.652  1.00  0.00     0.198 A 
ATOM    100  F   UNL A   1      43.257  33.619  27.731  1.00  0.00    -0.203 F 
ATOM    101  F   UNL A   1      43.455  36.936  32.026  1.00  0.00    -0.200 F 
ATOM    102  C   UNL A   1      43.743  36.565  29.720  1.00  0.00     0.200 A 
ATOM    103  F   UNL A   1      44.101  36.104  27.438  1.00  0.00    -0.200 F 
ATOM    104  F   UNL A   1      44.136  37.833  29.546  1.00  0.00    -0.200 F 
ENDBRANCH  71  94
ENDBRANCH  45  46
ENDBRANCH  38  40
ENDBRANCH  37  38
ENDBRANCH  36  37
ENDBRANCH   1  36
TORSDOF 17
ENDMDL
MODEL 2
REMARK VINA RESULT:     -13.2      3.265      9.464
REMARK SMILES Cc1cccc(S(=O)(=O)Nc2cc(C(=O)OCCOC(=O)c3ccc(-c4c5nc(c(-c6c(F)c(F)c(F)c(F)c6F)c6ccc([nH]6)c(-c6c(F)c(F)c(F)c(F)c6F)c6nc(c(-c7c(F)c(F)c(F)c(F)c7F)c7ccc4[nH]7)C=C6)C=C5)cc3)ccc2N2CCC[C@H](C[NH+]3CCCC3)C2)c1
REMARK SMILES IDX 17 1 16 2 14 3 15 4 13 5 11 6 12 7 87 8 86 9 85 10 10 11
REMARK SMILES IDX 7 13 8 14 9 15 6 16 1 17 2 18 3 19 100 20 4 21 5 22 88 23
REMARK SMILES IDX 89 24 99 25 90 26 92 27 91 28 93 29 94 30 95 31 98 32 96 34
REMARK SMILES IDX 97 35 18 36 19 37 20 38 21 39 22 40 23 41 84 42 24 43 83 44
REMARK SMILES IDX 25 45 26 46 27 47 77 48 28 49 82 50 76 51 78 52 29 53 81 54
REMARK SMILES IDX 75 55 74 56 30 58 62 59 42 60 61 61 43 62 46 63 60 64 79 65
REMARK SMILES IDX 44 66 45 67 59 69 80 70 47 71 31 72 32 73 40 74 33 75 34 76
REMARK SMILES IDX 38 77 41 78 35 79 36 80 39 81 37 82 63 83 64 84 72 85 65 86
REMARK SMILES IDX 66 87 70 88 73 89 67 90 68 91 71 92 69 93 48 94 49 95 57 96
REMARK SMILES IDX 50 97 51 98 55 99 58 100 52 101 53 102 56 103 54 104
REMARK H PARENT 10 12 94 33 78 57 46 68
REMARK Flexibility Score: inf
ROOT
ATOM      1  C   UNL A   1      31.986  30.365  25.789  1.00  0.00     0.275 C 
ENDROOT
BRANCH   1   2
ATOM      2  O   UNL A   1      32.394  29.136  25.170  1.00  0.00    -0.458 OA
BRANCH   2   3
ATOM      3  C   UNL A   1      31.355  28.517  24.579  1.00  0.00     0.338 C 
ATOM      4  O   UNL A   1      30.628  29.004  23.724  1.00  0.00    -0.246 OA
BRANCH   3   5
ATOM      5  C   UNL A   1      31.063  27.156  25.026  1.00  0.00     0.062 A 
ATOM      6  C   UNL A   1      31.527  24.918  24.186  1.00  0.00     0.073 A 
ATOM      7  C   UNL A   1      31.096  26.228  23.987  1.00  0.00     0.044 A 
ATOM      8  C   UNL A   1      31.740  24.460  25.520  1.00  0.00     0.061 A 
ATOM      9  C   UNL A   1      31.585  25.418  26.565  1.00  0.00     0.029 A 
ATOM     10  C   UNL A   1      31.273  26.759  26.331  1.00  0.00     0.018 A 
BRANCH   6  11
ATOM     11  N   UNL A   1      32.002  24.190  23.037  1.00  0.00    -0.277 N 
ATOM     12  H   UNL A   1      31.387  23.532  22.639  1.00  0.00     0.180 HD
BRANCH  11  13
ATOM     13  S   UNL A   1      33.513  24.359  22.311  1.00  0.00     0.261 S 
ATOM     14  O   UNL A   1      33.690  25.741  21.920  1.00  0.00    -0.201 OA
ATOM     15  O   UNL A   1      33.526  23.305  21.314  1.00  0.00    -0.201 OA
BRANCH  13  16
ATOM     16  C   UNL A   1      34.840  23.960  23.447  1.00  0.00     0.088 A 
ATOM     17  C   UNL A   1      37.267  21.189  24.462  1.00  0.00     0.044 C 
ATOM     18  C   UNL A   1      36.507  22.482  24.429  1.00  0.00    -0.050 A 
ATOM     19  C   UNL A   1      36.637  23.342  25.519  1.00  0.00     0.003 A 
ATOM     20  C   UNL A   1      35.640  22.820  23.365  1.00  0.00     0.025 A 
ATOM     21  C   UNL A   1      35.893  24.513  25.571  1.00  0.00     0.002 A 
ATOM     22  C   UNL A   1      34.987  24.812  24.550  1.00  0.00     0.022 A 
ENDBRANCH  13  16
ENDBRANCH  11  13
ENDBRANCH   6  11
BRANCH   8  23
ATOM     23  N   UNL A   1      32.100  23.166  25.928  1.00  0.00    -0.369 N 
ATOM     24  C   UNL A   1      32.943  23.096  27.140  1.00  0.00     0.116 C 
ATOM     25  C   UNL A   1      31.334  21.956  25.626  1.00  0.00     0.126 C 
ATOM     26  C   UNL A   1      33.881  21.898  27.062  1.00  0.00     0.022 C 
ATOM     27  C   UNL A   1      32.223  20.689  25.582  1.00  0.00     0.064 C 
ATOM     28  C   UNL A   1      33.081  20.620  26.853  1.00  0.00     0.013 C 
BRANCH  27  29
ATOM     29  C   UNL A   1      33.006  20.635  24.242  1.00  0.00     0.267 C 
BRANCH  29  30
ATOM     30  N   UNL A   1      33.467  19.348  23.710  1.00  0.00    -0.335 N 
ATOM     31  C   UNL A   1      32.423  18.406  23.316  1.00  0.00     0.262 C 
ATOM     32  C   UNL A   1      34.445  18.620  24.515  1.00  0.00     0.262 C 
ATOM     33  H   UNL A   1      33.936  19.694  22.874  1.00  0.00     0.348 HD
ATOM     34  C   UNL A   1      32.356  17.393  24.442  1.00  0.00     0.067 C 
ATOM     35  C   UNL A   1      33.789  17.308  24.938  1.00  0.00     0.067 C 
ENDBRANCH  29  30
ENDBRANCH  27  29
ENDBRANCH   8  23
ENDBRANCH   3   5
ENDBRANCH   2   3
ENDBRANCH   1   2
BRANCH   1  36
ATOM     36  C   UNL A   1      32.590  30.545  27.179  1.00  0.00     0.275 C 
BRANCH  36  37
ATOM     37  O   UNL A   1      33.931  30.056  27.470  1.00  0.00    -0.458 OA
BRANCH  37  38
ATOM     38  C   UNL A   1      34.827  30.692  28.267  1.00  0.00     0.338 C 
ATOM     39  O   UNL A   1      34.594  31.769  28.804  1.00  0.00    -0.246 OA
BRANCH  38  40
ATOM     40  C   UNL A   1      36.165  30.057  28.341  1.00  0.00     0.060 A 
ATOM     41  C   UNL A   1      37.079  30.180  27.271  1.00  0.00     0.016 A 
ATOM     42  C   UNL A   1      36.557  29.424  29.509  1.00  0.00     0.016 A 
ATOM     43  C   UNL A   1      38.411  29.755  27.403  1.00  0.00     0.010 A 
ATOM     44  C   UNL A   1      37.883  29.101  29.674  1.00  0.00     0.010 A 
ATOM     45  C   UNL A   1      38.818  29.218  28.619  1.00  0.00    -0.014 A 
BRANCH  45  46
ATOM     46  C   UNL A   1      40.094  28.549  28.911  1.00  0.00     0.031 A 
ATOM     47  C   UNL A   1      40.408  27.119  28.665  1.00  0.00     0.074 A 
ATOM     48  C   UNL A   1      41.079  29.451  29.135  1.00  0.00     0.049 A 
ATOM     49  N   UNL A   1      41.603  26.743  28.358  1.00  0.00    -0.248 NA
ATOM     50  C   UNL A   1      39.470  25.991  28.673  1.00  0.00     0.031 C 
ATOM     51  C   UNL A   1      42.527  29.340  29.067  1.00  0.00     0.029 A 
ATOM     52  N   UNL A   1      40.878  30.728  29.693  1.00  0.00    -0.354 N 
ATOM     53  C   UNL A   1      41.603  25.400  28.077  1.00  0.00     0.074 A 
ATOM     54  C   UNL A   1      40.234  24.980  28.208  1.00  0.00     0.031 C 
ATOM     55  C   UNL A   1      43.059  30.266  29.888  1.00  0.00     0.029 A 
ATOM     56  C   UNL A   1      41.943  30.877  30.596  1.00  0.00     0.049 A 
ATOM     57  H   UNL A   1      40.158  31.369  29.496  1.00  0.00     0.167 HD
ATOM     58  C   UNL A   1      42.811  24.820  27.836  1.00  0.00     0.037 A 
ATOM     59  C   UNL A   1      41.664  30.718  31.925  1.00  0.00     0.037 A 
ATOM     60  C   UNL A   1      43.794  25.512  28.652  1.00  0.00     0.049 A 
ATOM     61  C   UNL A   1      42.401  29.530  32.500  1.00  0.00     0.074 A 
ATOM     62  C   UNL A   1      44.750  26.486  28.445  1.00  0.00     0.029 A 
ATOM     63  N   UNL A   1      43.602  25.420  30.023  1.00  0.00    -0.354 N 
ATOM     64  N   UNL A   1      42.726  28.461  31.822  1.00  0.00    -0.248 NA
ATOM     65  C   UNL A   1      42.915  29.512  33.862  1.00  0.00     0.031 C 
ATOM     66  C   UNL A   1      45.029  27.074  29.717  1.00  0.00     0.029 A 
ATOM     67  C   UNL A   1      44.266  26.426  30.678  1.00  0.00     0.049 A 
ATOM     68  H   UNL A   1      43.062  24.726  30.466  1.00  0.00     0.167 HD
ATOM     69  C   UNL A   1      43.546  27.675  32.588  1.00  0.00     0.074 A 
ATOM     70  C   UNL A   1      43.612  28.364  33.864  1.00  0.00     0.031 C 
ATOM     71  C   UNL A   1      44.142  26.537  32.121  1.00  0.00     0.037 A 
BRANCH  58  72
ATOM     72  C   UNL A   1      43.160  23.714  26.878  1.00  0.00     0.064 A 
ATOM     73  C   UNL A   1      42.714  22.394  27.138  1.00  0.00     0.173 A 
ATOM     74  C   UNL A   1      44.074  23.833  25.819  1.00  0.00     0.173 A 
ATOM     75  F   UNL A   1      41.823  22.135  28.105  1.00  0.00    -0.203 F 
ATOM     76  C   UNL A   1      43.197  21.282  26.442  1.00  0.00     0.198 A 
ATOM     77  C   UNL A   1      44.556  22.717  25.118  1.00  0.00     0.198 A 
ATOM     78  F   UNL A   1      44.540  25.026  25.440  1.00  0.00    -0.203 F 
ATOM     79  F   UNL A   1      42.777  20.053  26.773  1.00  0.00    -0.200 F 
ATOM     80  C   UNL A   1      44.131  21.442  25.442  1.00  0.00     0.200 A 
ATOM     81  F   UNL A   1      45.461  22.882  24.142  1.00  0.00    -0.200 F 
ATOM     82  F   UNL A   1      44.624  20.375  24.797  1.00  0.00    -0.200 F 
ENDBRANCH  58  72
BRANCH  59  83
ATOM     83  C   UNL A   1      40.276  31.181  32.278  1.00  0.00     0.064 A 
ATOM     84  C   UNL A   1      39.319  30.192  32.614  1.00  0.00     0.173 A 
ATOM     85  C   UNL A   1      39.973  32.497  32.648  1.00  0.00     0.173 A 
ATOM     86  F   UNL A   1      39.548  28.906  32.296  1.00  0.00    -0.203 F 
ATOM     87  C   UNL A   1      38.197  30.480  33.392  1.00  0.00     0.198 A 
ATOM     88  C   UNL A   1      38.820  32.789  33.393  1.00  0.00     0.198 A 
ATOM     89  F   UNL A   1      40.825  33.495  32.377  1.00  0.00    -0.203 F 
ATOM     90  F   UNL A   1      37.397  29.487  33.807  1.00  0.00    -0.200 F 
ATOM     91  C   UNL A   1      37.957  31.779  33.795  1.00  0.00     0.200 A 
ATOM     92  F   UNL A   1      38.585  34.047  33.798  1.00  0.00    -0.200 F 
ATOM     93  F   UNL A   1      36.916  32.052  34.597  1.00  0.00    -0.200 F 
ENDBRANCH  59  83
BRANCH  71  94
ATOM     94  C   UNL A   1      44.699  25.423  32.983  1.00  0.00     0.064 A 
ATOM     95  C   UNL A   1      46.064  25.096  33.041  1.00  0.00     0.173 A 
ATOM     96  C   UNL A   1      43.881  24.766  33.938  1.00  0.00     0.173 A 
ATOM     97  F   UNL A   1      46.973  25.750  32.307  1.00  0.00    -0.203 F 
ATOM     98  C   UNL A   1      46.560  24.130  33.918  1.00  0.00     0.198 A 
ATOM     99  C   UNL A   1      44.393  23.860  34.865  1.00  0.00     0.198 A 
ATOM    100  F   UNL A   1      42.568  25.018  34.036  1.00  0.00    -0.203 F 
ATOM    101  F   UNL A   1      47.862  23.821  33.890  1.00  0.00    -0.200 F 
ATOM    102  C   UNL A   1      45.729  23.523  34.838  1.00  0.00     0.200 A 
ATOM    103  F   UNL A   1      43.588  23.340  35.802  1.00  0.00    -0.200 F 
ATOM    104  F   UNL A   1      46.221  22.640  35.716  1.00  0.00    -0.200 F 
ENDBRANCH  71  94
ENDBRANCH  45  46
ENDBRANCH  38  40
ENDBRANCH  37  38
ENDBRANCH  36  37
ENDBRANCH   1  36
TORSDOF 17
ENDMDL
MODEL 3
REMARK VINA RESULT:     -13.0      2.349      4.485
REMARK SMILES Cc1cccc(S(=O)(=O)Nc2cc(C(=O)OCCOC(=O)c3ccc(-c4c5nc(c(-c6c(F)c(F)c(F)c(F)c6F)c6ccc([nH]6)c(-c6c(F)c(F)c(F)c(F)c6F)c6nc(c(-c7c(F)c(F)c(F)c(F)c7F)c7ccc4[nH]7)C=C6)C=C5)cc3)ccc2N2CCC[C@H](C[NH+]3CCCC3)C2)c1
REMARK SMILES IDX 17 1 16 2 14 3 15 4 13 5 11 6 12 7 87 8 86 9 85 10 10 11
REMARK SMILES IDX 7 13 8 14 9 15 6 16 1 17 2 18 3 19 100 20 4 21 5 22 88 23
REMARK SMILES IDX 89 24 99 25 90 26 92 27 91 28 93 29 94 30 95 31 98 32 96 34
REMARK SMILES IDX 97 35 18 36 19 37 20 38 21 39 22 40 23 41 84 42 24 43 83 44
REMARK SMILES IDX 25 45 26 46 27 47 77 48 28 49 82 50 76 51 78 52 29 53 81 54
REMARK SMILES IDX 75 55 74 56 30 58 62 59 42 60 61 61 43 62 46 63 60 64 79 65
REMARK SMILES IDX 44 66 45 67 59 69 80 70 47 71 31 72 32 73 40 74 33 75 34 76
REMARK SMILES IDX 38 77 41 78 35 79 36 80 39 81 37 82 63 83 64 84 72 85 65 86
REMARK SMILES IDX 66 87 70 88 73 89 67 90 68 91 71 92 69 93 48 94 49 95 57 96
REMARK SMILES IDX 50 97 51 98 55 99 58 100 52 101 53 102 56 103 54 104
REMARK H PARENT 10 12 94 33 78 57 46 68
REMARK Flexibility Score: inf
ROOT
ATOM      1  C   UNL A   1      40.037  20.514  26.738  1.00  0.00     0.275 C 
ENDROOT
BRANCH   1   2
ATOM      2  O   UNL A   1      39.364  21.606  26.094  1.00  0.00    -0.458 OA
BRANCH   2   3
ATOM      3  C   UNL A   1      38.308  21.176  25.378  1.00  0.00     0.338 C 
ATOM      4  O   UNL A   1      38.062  20.010  25.102  1.00  0.00    -0.246 OA
BRANCH   3   5
ATOM      5  C   UNL A   1      37.401  22.203  24.868  1.00  0.00     0.062 A 
ATOM      6  C   UNL A   1      35.029  22.308  24.327  1.00  0.00     0.073 A 
ATOM      7  C   UNL A   1      36.265  21.668  24.263  1.00  0.00     0.044 A 
ATOM      8  C   UNL A   1      34.969  23.637  24.841  1.00  0.00     0.061 A 
ATOM      9  C   UNL A   1      36.183  24.190  25.348  1.00  0.00     0.029 A 
ATOM     10  C   UNL A   1      37.386  23.482  25.388  1.00  0.00     0.018 A 
BRANCH   6  11
ATOM     11  N   UNL A   1      33.850  21.502  24.137  1.00  0.00    -0.277 N 
ATOM     12  H   UNL A   1      33.440  21.513  23.243  1.00  0.00     0.180 HD
BRANCH  11  13
ATOM     13  S   UNL A   1      33.107  20.542  25.306  1.00  0.00     0.261 S 
ATOM     14  O   UNL A   1      31.673  20.717  25.210  1.00  0.00    -0.201 OA
ATOM     15  O   UNL A   1      33.810  20.892  26.525  1.00  0.00    -0.201 OA
BRANCH  13  16
ATOM     16  C   UNL A   1      33.443  18.802  25.042  1.00  0.00     0.088 A 
ATOM     17  C   UNL A   1      32.148  15.288  25.800  1.00  0.00     0.044 C 
ATOM     18  C   UNL A   1      33.003  16.423  25.320  1.00  0.00    -0.050 A 
ATOM     19  C   UNL A   1      34.291  16.126  24.874  1.00  0.00     0.003 A 
ATOM     20  C   UNL A   1      32.563  17.767  25.356  1.00  0.00     0.025 A 
ATOM     21  C   UNL A   1      35.147  17.151  24.494  1.00  0.00     0.002 A 
ATOM     22  C   UNL A   1      34.732  18.482  24.594  1.00  0.00     0.022 A 
ENDBRANCH  13  16
ENDBRANCH  11  13
ENDBRANCH   6  11
BRANCH   8  23
ATOM     23  N   UNL A   1      33.841  24.470  24.918  1.00  0.00    -0.369 N 
ATOM     24  C   UNL A   1      33.051  24.580  23.674  1.00  0.00     0.116 C 
ATOM     25  C   UNL A   1      33.117  24.776  26.152  1.00  0.00     0.126 C 
ATOM     26  C   UNL A   1      32.419  25.963  23.572  1.00  0.00     0.022 C 
ATOM     27  C   UNL A   1      32.406  26.150  26.096  1.00  0.00     0.064 C 
ATOM     28  C   UNL A   1      31.576  26.245  24.808  1.00  0.00     0.013 C 
BRANCH  27  29
ATOM     29  C   UNL A   1      33.436  27.291  26.313  1.00  0.00     0.267 C 
BRANCH  29  30
ATOM     30  N   UNL A   1      33.206  28.302  27.350  1.00  0.00    -0.335 N 
ATOM     31  C   UNL A   1      31.889  28.934  27.350  1.00  0.00     0.262 C 
ATOM     32  C   UNL A   1      34.208  29.359  27.468  1.00  0.00     0.262 C 
ATOM     33  H   UNL A   1      33.284  27.695  28.166  1.00  0.00     0.348 HD
ATOM     34  C   UNL A   1      32.102  30.296  26.720  1.00  0.00     0.067 C 
ATOM     35  C   UNL A   1      33.508  30.677  27.148  1.00  0.00     0.067 C 
ENDBRANCH  29  30
ENDBRANCH  27  29
ENDBRANCH   8  23
ENDBRANCH   3   5
ENDBRANCH   2   3
ENDBRANCH   1   2
BRANCH   1  36
ATOM     36  C   UNL A   1      41.388  20.204  26.098  1.00  0.00     0.275 C 
BRANCH  36  37
ATOM     37  O   UNL A   1      42.580  20.940  26.496  1.00  0.00    -0.458 OA
BRANCH  37  38
ATOM     38  C   UNL A   1      43.195  21.880  25.735  1.00  0.00     0.338 C 
ATOM     39  O   UNL A   1      43.808  21.609  24.709  1.00  0.00    -0.246 OA
BRANCH  38  40
ATOM     40  C   UNL A   1      43.186  23.251  26.299  1.00  0.00     0.060 A 
ATOM     41  C   UNL A   1      43.401  24.371  25.466  1.00  0.00     0.016 A 
ATOM     42  C   UNL A   1      42.863  23.439  27.633  1.00  0.00     0.016 A 
ATOM     43  C   UNL A   1      43.202  25.678  25.943  1.00  0.00     0.010 A 
ATOM     44  C   UNL A   1      42.572  24.708  28.071  1.00  0.00     0.010 A 
ATOM     45  C   UNL A   1      42.776  25.846  27.256  1.00  0.00    -0.014 A 
BRANCH  45  46
ATOM     46  C   UNL A   1      42.688  27.108  28.004  1.00  0.00     0.031 A 
ATOM     47  C   UNL A   1      41.540  28.048  28.003  1.00  0.00     0.074 A 
ATOM     48  C   UNL A   1      43.644  27.176  28.962  1.00  0.00     0.049 A 
ATOM     49  N   UNL A   1      41.247  28.744  29.049  1.00  0.00    -0.248 NA
ATOM     50  C   UNL A   1      40.585  28.280  26.914  1.00  0.00     0.031 C 
ATOM     51  C   UNL A   1      43.744  27.970  30.176  1.00  0.00     0.029 A 
ATOM     52  N   UNL A   1      44.911  26.569  28.868  1.00  0.00    -0.354 N 
ATOM     53  C   UNL A   1      40.088  29.444  28.825  1.00  0.00     0.074 A 
ATOM     54  C   UNL A   1      39.660  29.066  27.505  1.00  0.00     0.031 C 
ATOM     55  C   UNL A   1      45.048  28.120  30.475  1.00  0.00     0.029 A 
ATOM     56  C   UNL A   1      45.793  27.541  29.365  1.00  0.00     0.049 A 
ATOM     57  H   UNL A   1      45.128  25.670  28.530  1.00  0.00     0.167 HD
ATOM     58  C   UNL A   1      39.696  30.314  29.795  1.00  0.00     0.037 A 
ATOM     59  C   UNL A   1      46.532  28.242  28.452  1.00  0.00     0.037 A 
ATOM     60  C   UNL A   1      40.899  30.848  30.412  1.00  0.00     0.049 A 
ATOM     61  C   UNL A   1      46.177  29.712  28.477  1.00  0.00     0.074 A 
ATOM     62  C   UNL A   1      41.611  30.612  31.571  1.00  0.00     0.029 A 
ATOM     63  N   UNL A   1      41.726  31.576  29.570  1.00  0.00    -0.354 N 
ATOM     64  N   UNL A   1      44.998  30.184  28.788  1.00  0.00    -0.248 NA
ATOM     65  C   UNL A   1      47.162  30.759  28.249  1.00  0.00     0.031 C 
ATOM     66  C   UNL A   1      42.936  31.098  31.352  1.00  0.00     0.029 A 
ATOM     67  C   UNL A   1      42.998  31.651  30.080  1.00  0.00     0.049 A 
ATOM     68  H   UNL A   1      41.440  31.984  28.721  1.00  0.00     0.167 HD
ATOM     69  C   UNL A   1      45.075  31.548  28.897  1.00  0.00     0.074 A 
ATOM     70  C   UNL A   1      46.443  31.860  28.525  1.00  0.00     0.031 C 
ATOM     71  C   UNL A   1      44.032  32.326  29.315  1.00  0.00     0.037 A 
BRANCH  58  72
ATOM     72  C   UNL A   1      38.306  30.665  30.251  1.00  0.00     0.064 A 
ATOM     73  C   UNL A   1      37.438  31.368  29.378  1.00  0.00     0.173 A 
ATOM     74  C   UNL A   1      37.837  30.527  31.568  1.00  0.00     0.173 A 
ATOM     75  F   UNL A   1      37.747  31.555  28.087  1.00  0.00    -0.203 F 
ATOM     76  C   UNL A   1      36.238  31.944  29.806  1.00  0.00     0.198 A 
ATOM     77  C   UNL A   1      36.630  31.101  31.996  1.00  0.00     0.198 A 
ATOM     78  F   UNL A   1      38.536  29.848  32.481  1.00  0.00    -0.203 F 
ATOM     79  F   UNL A   1      35.487  32.644  28.944  1.00  0.00    -0.200 F 
ATOM     80  C   UNL A   1      35.842  31.823  31.121  1.00  0.00     0.200 A 
ATOM     81  F   UNL A   1      36.249  30.975  33.276  1.00  0.00    -0.200 F 
ATOM     82  F   UNL A   1      34.710  32.404  31.543  1.00  0.00    -0.200 F 
ENDBRANCH  58  72
BRANCH  59  83
ATOM     83  C   UNL A   1      46.887  27.415  27.247  1.00  0.00     0.064 A 
ATOM     84  C   UNL A   1      46.256  27.737  26.020  1.00  0.00     0.173 A 
ATOM     85  C   UNL A   1      48.036  26.618  27.170  1.00  0.00     0.173 A 
ATOM     86  F   UNL A   1      45.153  28.505  26.018  1.00  0.00    -0.203 F 
ATOM     87  C   UNL A   1      46.816  27.399  24.788  1.00  0.00     0.198 A 
ATOM     88  C   UNL A   1      48.572  26.244  25.928  1.00  0.00     0.198 A 
ATOM     89  F   UNL A   1      48.701  26.273  28.281  1.00  0.00    -0.203 F 
ATOM     90  F   UNL A   1      46.260  27.850  23.654  1.00  0.00    -0.200 F 
ATOM     91  C   UNL A   1      47.984  26.665  24.743  1.00  0.00     0.200 A 
ATOM     92  F   UNL A   1      49.713  25.539  25.876  1.00  0.00    -0.200 F 
ATOM     93  F   UNL A   1      48.563  26.393  23.563  1.00  0.00    -0.200 F 
ENDBRANCH  59  83
BRANCH  71  94
ATOM     94  C   UNL A   1      43.896  33.814  29.070  1.00  0.00     0.064 A 
ATOM     95  C   UNL A   1      43.623  34.370  27.809  1.00  0.00     0.173 A 
ATOM     96  C   UNL A   1      43.848  34.727  30.155  1.00  0.00     0.173 A 
ATOM     97  F   UNL A   1      43.483  33.604  26.720  1.00  0.00    -0.203 F 
ATOM     98  C   UNL A   1      43.406  35.738  27.632  1.00  0.00     0.198 A 
ATOM     99  C   UNL A   1      43.553  36.078  29.983  1.00  0.00     0.198 A 
ATOM    100  F   UNL A   1      44.035  34.330  31.422  1.00  0.00    -0.203 F 
ATOM    101  F   UNL A   1      43.205  36.219  26.399  1.00  0.00    -0.200 F 
ATOM    102  C   UNL A   1      43.357  36.589  28.719  1.00  0.00     0.200 A 
ATOM    103  F   UNL A   1      43.431  36.875  31.055  1.00  0.00    -0.200 F 
ATOM    104  F   UNL A   1      43.091  37.890  28.548  1.00  0.00    -0.200 F 
ENDBRANCH  71  94
ENDBRANCH  45  46
ENDBRANCH  38  40
ENDBRANCH  37  38
ENDBRANCH  36  37
ENDBRANCH   1  36
TORSDOF 17
ENDMDL
