MODEL 1
REMARK VINA RESULT:     -12.9      0.000      0.000
REMARK SMILES C[C@]12C[C@@H](O)[C@@H]3[C@@H](CCC4=CC(=O)CC[C@]43C)[C@H]1CC[C@]2(O)C(=O)COC(=O)CCC(=O)OCCOC(=O)c1ccc(-c2c3nc(c(-c4c(F)c(F)c(F)c(F)c4F)c4ccc([nH]4)c(-c4c(F)c(F)c(F)c(F)c4F)c4nc(c(-c5c(F)c(F)c(F)c(F)c5F)c5ccc2[nH]5)C=C4)C=C3)cc1
REMARK SMILES IDX 31 1 32 2 30 3 29 4 27 5 28 6 26 7 25 8 23 9 24 10 21 11
REMARK SMILES IDX 17 12 16 13 15 14 10 15 6 16 14 17 11 18 9 19 7 20 4 21
REMARK SMILES IDX 12 22 8 23 18 24 3 25 13 26 2 27 19 28 1 29 20 30 5 31 22 33
REMARK SMILES IDX 33 35 34 36 35 37 36 38 37 39 38 40 39 41 40 42 101 43 41 44
REMARK SMILES IDX 100 45 42 46 43 47 44 48 94 49 45 50 99 51 93 52 95 53 46 54
REMARK SMILES IDX 98 55 92 56 91 57 47 59 79 60 59 61 78 62 60 63 63 64 77 65
REMARK SMILES IDX 96 66 61 67 62 68 76 70 97 71 64 72 48 73 49 74 57 75 50 76
REMARK SMILES IDX 51 77 55 78 58 79 52 80 53 81 56 82 54 83 80 84 81 85 89 86
REMARK SMILES IDX 82 87 83 88 87 89 90 90 84 91 85 92 88 93 86 94 65 95 66 96
REMARK SMILES IDX 74 97 67 98 68 99 72 100 75 101 69 102 70 103 73 104 71 105
REMARK H PARENT 5 32 22 34 95 58 63 69
REMARK Flexibility Score: inf
ROOT
ATOM      1  C   UNL A   1      38.799  21.121  25.700  1.00  0.00     0.306 C 
ATOM      2  O   UNL A   1      38.882  22.256  26.154  1.00  0.00    -0.252 OA
ENDROOT
BRANCH   1   3
ATOM      3  C   UNL A   1      37.526  20.608  25.023  1.00  0.00     0.134 C 
BRANCH   3   4
ATOM      4  C   UNL A   1      37.299  19.104  24.945  1.00  0.00     0.134 C 
BRANCH   4   5
ATOM      5  C   UNL A   1      35.837  18.772  24.765  1.00  0.00     0.306 C 
ATOM      6  O   UNL A   1      35.365  17.707  24.410  1.00  0.00    -0.252 OA
BRANCH   5   7
ATOM      7  O   UNL A   1      35.125  19.880  25.036  1.00  0.00    -0.458 OA
BRANCH   7   8
ATOM      8  C   UNL A   1      33.787  19.954  24.661  1.00  0.00     0.311 C 
BRANCH   8   9
ATOM      9  C   UNL A   1      32.851  21.124  24.821  1.00  0.00     0.202 C 
ATOM     10  O   UNL A   1      31.665  20.797  25.047  1.00  0.00    -0.293 OA
BRANCH   9  11
ATOM     11  C   UNL A   1      33.214  22.639  24.812  1.00  0.00     0.132 C 
ATOM     12  C   UNL A   1      32.716  28.731  22.400  1.00  0.00     0.016 C 
ATOM     13  C   UNL A   1      32.747  28.031  23.783  1.00  0.00    -0.005 C 
ATOM     14  C   UNL A   1      33.139  29.154  24.815  1.00  0.00     0.020 C 
ATOM     15  C   UNL A   1      31.356  27.603  24.260  1.00  0.00    -0.060 C 
ATOM     16  C   UNL A   1      33.803  26.837  23.808  1.00  0.00     0.031 C 
ATOM     17  C   UNL A   1      31.943  30.004  25.316  1.00  0.00     0.081 C 
ATOM     18  C   UNL A   1      30.306  28.421  24.041  1.00  0.00     0.047 C 
ATOM     19  C   UNL A   1      31.346  26.876  25.588  1.00  0.00     0.032 C 
ATOM     20  C   UNL A   1      33.721  26.001  25.129  1.00  0.00    -0.000 C 
ATOM     21  C   UNL A   1      34.002  25.851  22.587  1.00  0.00     0.119 C 
ATOM     22  C   UNL A   1      30.653  29.813  24.521  1.00  0.00     0.155 C 
ATOM     23  C   UNL A   1      32.275  25.699  25.523  1.00  0.00     0.009 C 
ATOM     24  C   UNL A   1      34.599  24.730  24.990  1.00  0.00     0.002 C 
ATOM     25  C   UNL A   1      33.413  24.429  22.778  1.00  0.00     0.042 C 
ATOM     26  O   UNL A   1      29.895  30.745  24.266  1.00  0.00    -0.295 OA
ATOM     27  C   UNL A   1      34.099  23.653  23.954  1.00  0.00     0.009 C 
ATOM     28  C   UNL A   1      34.812  23.929  26.259  1.00  0.00     0.008 C 
ATOM     29  C   UNL A   1      35.381  22.996  23.435  1.00  0.00     0.015 C 
ATOM     30  C   UNL A   1      33.728  22.865  26.269  1.00  0.00     0.044 C 
BRANCH  21  31
ATOM     31  O   UNL A   1      33.588  26.350  21.328  1.00  0.00    -0.393 OA
ATOM     32  H   UNL A   1      34.077  27.164  21.127  1.00  0.00     0.210 HD
ENDBRANCH  21  31
BRANCH  11  33
ATOM     33  O   UNL A   1      31.836  23.070  24.718  1.00  0.00    -0.381 OA
ATOM     34  H   UNL A   1      31.667  23.757  25.381  1.00  0.00     0.212 HD
ENDBRANCH  11  33
ENDBRANCH   9  11
ENDBRANCH   8   9
ENDBRANCH   7   8
ENDBRANCH   5   7
ENDBRANCH   4   5
ENDBRANCH   3   4
ENDBRANCH   1   3
BRANCH   1  35
ATOM     35  O   UNL A   1      39.766  20.188  25.817  1.00  0.00    -0.462 OA
BRANCH  35  36
ATOM     36  C   UNL A   1      40.869  20.378  26.735  1.00  0.00     0.274 C 
BRANCH  36  37
ATOM     37  C   UNL A   1      42.148  20.671  25.957  1.00  0.00     0.275 C 
BRANCH  37  38
ATOM     38  O   UNL A   1      42.824  21.776  26.564  1.00  0.00    -0.458 OA
BRANCH  38  39
ATOM     39  C   UNL A   1      42.836  22.907  25.814  1.00  0.00     0.338 C 
ATOM     40  O   UNL A   1      42.835  23.015  24.605  1.00  0.00    -0.246 OA
BRANCH  39  41
ATOM     41  C   UNL A   1      42.571  24.015  26.737  1.00  0.00     0.060 A 
ATOM     42  C   UNL A   1      43.303  25.197  26.584  1.00  0.00     0.016 A 
ATOM     43  C   UNL A   1      41.574  23.903  27.701  1.00  0.00     0.016 A 
ATOM     44  C   UNL A   1      43.013  26.304  27.363  1.00  0.00     0.010 A 
ATOM     45  C   UNL A   1      41.309  24.997  28.513  1.00  0.00     0.010 A 
ATOM     46  C   UNL A   1      42.024  26.196  28.338  1.00  0.00    -0.014 A 
BRANCH  46  47
ATOM     47  C   UNL A   1      41.789  27.305  29.272  1.00  0.00     0.031 A 
ATOM     48  C   UNL A   1      42.620  27.361  30.512  1.00  0.00     0.074 A 
ATOM     49  C   UNL A   1      40.812  28.190  29.020  1.00  0.00     0.049 A 
ATOM     50  N   UNL A   1      42.442  28.066  31.592  1.00  0.00    -0.248 NA
ATOM     51  C   UNL A   1      43.804  26.484  30.545  1.00  0.00     0.031 C 
ATOM     52  C   UNL A   1      40.009  28.238  27.798  1.00  0.00     0.029 A 
ATOM     53  N   UNL A   1      40.305  29.195  29.799  1.00  0.00    -0.354 N 
ATOM     54  C   UNL A   1      43.466  27.692  32.450  1.00  0.00     0.074 A 
ATOM     55  C   UNL A   1      44.265  26.700  31.769  1.00  0.00     0.031 C 
ATOM     56  C   UNL A   1      39.077  29.196  27.928  1.00  0.00     0.029 A 
ATOM     57  C   UNL A   1      39.183  29.778  29.262  1.00  0.00     0.049 A 
ATOM     58  H   UNL A   1      40.703  29.471  30.656  1.00  0.00     0.167 HD
ATOM     59  C   UNL A   1      43.693  28.142  33.704  1.00  0.00     0.037 A 
ATOM     60  C   UNL A   1      38.309  30.632  29.827  1.00  0.00     0.037 A 
ATOM     61  C   UNL A   1      42.882  29.143  34.341  1.00  0.00     0.049 A 
ATOM     62  C   UNL A   1      38.553  31.060  31.251  1.00  0.00     0.074 A 
ATOM     63  C   UNL A   1      43.038  29.711  35.590  1.00  0.00     0.029 A 
ATOM     64  N   UNL A   1      41.755  29.719  33.771  1.00  0.00    -0.354 N 
ATOM     65  N   UNL A   1      39.527  30.724  32.063  1.00  0.00    -0.248 NA
ATOM     66  C   UNL A   1      37.569  31.976  31.843  1.00  0.00     0.031 C 
ATOM     67  C   UNL A   1      41.967  30.585  35.803  1.00  0.00     0.029 A 
ATOM     68  C   UNL A   1      41.180  30.608  34.661  1.00  0.00     0.049 A 
ATOM     69  H   UNL A   1      41.415  29.523  32.868  1.00  0.00     0.167 HD
ATOM     70  C   UNL A   1      39.289  31.403  33.250  1.00  0.00     0.074 A 
ATOM     71  C   UNL A   1      38.089  32.188  33.043  1.00  0.00     0.031 C 
ATOM     72  C   UNL A   1      39.988  31.378  34.411  1.00  0.00     0.037 A 
BRANCH  59  73
ATOM     73  C   UNL A   1      44.821  27.534  34.480  1.00  0.00     0.064 A 
ATOM     74  C   UNL A   1      46.105  28.093  34.486  1.00  0.00     0.173 A 
ATOM     75  C   UNL A   1      44.588  26.408  35.284  1.00  0.00     0.173 A 
ATOM     76  F   UNL A   1      46.385  29.156  33.716  1.00  0.00    -0.203 F 
ATOM     77  C   UNL A   1      47.119  27.545  35.269  1.00  0.00     0.198 A 
ATOM     78  C   UNL A   1      45.595  25.879  36.085  1.00  0.00     0.198 A 
ATOM     79  F   UNL A   1      43.377  25.831  35.305  1.00  0.00    -0.203 F 
ATOM     80  F   UNL A   1      48.348  28.077  35.240  1.00  0.00    -0.200 F 
ATOM     81  C   UNL A   1      46.859  26.447  36.077  1.00  0.00     0.200 A 
ATOM     82  F   UNL A   1      45.339  24.824  36.872  1.00  0.00    -0.200 F 
ATOM     83  F   UNL A   1      47.830  25.935  36.846  1.00  0.00    -0.200 F 
ENDBRANCH  59  73
BRANCH  60  84
ATOM     84  C   UNL A   1      37.103  31.082  29.082  1.00  0.00     0.064 A 
ATOM     85  C   UNL A   1      36.997  32.394  28.604  1.00  0.00     0.173 A 
ATOM     86  C   UNL A   1      36.013  30.222  28.870  1.00  0.00     0.173 A 
ATOM     87  F   UNL A   1      38.002  33.260  28.798  1.00  0.00    -0.203 F 
ATOM     88  C   UNL A   1      35.836  32.841  27.975  1.00  0.00     0.198 A 
ATOM     89  C   UNL A   1      34.867  30.659  28.208  1.00  0.00     0.198 A 
ATOM     90  F   UNL A   1      36.059  28.955  29.305  1.00  0.00    -0.203 F 
ATOM     91  F   UNL A   1      35.738  34.120  27.587  1.00  0.00    -0.200 F 
ATOM     92  C   UNL A   1      34.774  31.973  27.773  1.00  0.00     0.200 A 
ATOM     93  F   UNL A   1      33.850  29.811  28.002  1.00  0.00    -0.200 F 
ATOM     94  F   UNL A   1      33.656  32.404  27.174  1.00  0.00    -0.200 F 
ENDBRANCH  60  84
BRANCH  72  95
ATOM     95  C   UNL A   1      39.486  32.246  35.526  1.00  0.00     0.064 A 
ATOM     96  C   UNL A   1      38.604  31.753  36.499  1.00  0.00     0.173 A 
ATOM     97  C   UNL A   1      39.934  33.569  35.651  1.00  0.00     0.173 A 
ATOM     98  F   UNL A   1      38.137  30.499  36.414  1.00  0.00    -0.203 F 
ATOM     99  C   UNL A   1      38.170  32.564  37.543  1.00  0.00     0.198 A 
ATOM    100  C   UNL A   1      39.526  34.365  36.716  1.00  0.00     0.198 A 
ATOM    101  F   UNL A   1      40.786  34.083  34.750  1.00  0.00    -0.203 F 
ATOM    102  F   UNL A   1      37.288  32.089  38.434  1.00  0.00    -0.200 F 
ATOM    103  C   UNL A   1      38.638  33.865  37.656  1.00  0.00     0.200 A 
ATOM    104  F   UNL A   1      39.994  35.615  36.833  1.00  0.00    -0.200 F 
ATOM    105  F   UNL A   1      38.229  34.639  38.670  1.00  0.00    -0.200 F 
ENDBRANCH  72  95
ENDBRANCH  46  47
ENDBRANCH  39  41
ENDBRANCH  38  39
ENDBRANCH  37  38
ENDBRANCH  36  37
ENDBRANCH  35  36
ENDBRANCH   1  35
TORSDOF 19
ENDMDL
MODEL 2
REMARK VINA RESULT:     -12.6      3.160      9.319
REMARK SMILES C[C@]12C[C@@H](O)[C@@H]3[C@@H](CCC4=CC(=O)CC[C@]43C)[C@H]1CC[C@]2(O)C(=O)COC(=O)CCC(=O)OCCOC(=O)c1ccc(-c2c3nc(c(-c4c(F)c(F)c(F)c(F)c4F)c4ccc([nH]4)c(-c4c(F)c(F)c(F)c(F)c4F)c4nc(c(-c5c(F)c(F)c(F)c(F)c5F)c5ccc2[nH]5)C=C4)C=C3)cc1
REMARK SMILES IDX 31 1 32 2 30 3 29 4 27 5 28 6 26 7 25 8 23 9 24 10 21 11
REMARK SMILES IDX 17 12 16 13 15 14 10 15 6 16 14 17 11 18 9 19 7 20 4 21
REMARK SMILES IDX 12 22 8 23 18 24 3 25 13 26 2 27 19 28 1 29 20 30 5 31 22 33
REMARK SMILES IDX 33 35 34 36 35 37 36 38 37 39 38 40 39 41 40 42 101 43 41 44
REMARK SMILES IDX 100 45 42 46 43 47 44 48 94 49 45 50 99 51 93 52 95 53 46 54
REMARK SMILES IDX 98 55 92 56 91 57 47 59 79 60 59 61 78 62 60 63 63 64 77 65
REMARK SMILES IDX 96 66 61 67 62 68 76 70 97 71 64 72 48 73 49 74 57 75 50 76
REMARK SMILES IDX 51 77 55 78 58 79 52 80 53 81 56 82 54 83 80 84 81 85 89 86
REMARK SMILES IDX 82 87 83 88 87 89 90 90 84 91 85 92 88 93 86 94 65 95 66 96
REMARK SMILES IDX 74 97 67 98 68 99 72 100 75 101 69 102 70 103 73 104 71 105
REMARK H PARENT 5 32 22 34 95 58 63 69
REMARK Flexibility Score: inf
ROOT
ATOM      1  C   UNL A   1      34.393  33.172  29.281  1.00  0.00     0.306 C 
ATOM      2  O   UNL A   1      34.400  32.506  30.310  1.00  0.00    -0.252 OA
ENDROOT
BRANCH   1   3
ATOM      3  C   UNL A   1      34.400  32.524  27.895  1.00  0.00     0.134 C 
BRANCH   3   4
ATOM      4  C   UNL A   1      35.274  31.296  27.672  1.00  0.00     0.134 C 
BRANCH   4   5
ATOM      5  C   UNL A   1      34.442  30.051  27.477  1.00  0.00     0.306 C 
ATOM      6  O   UNL A   1      34.849  28.925  27.252  1.00  0.00    -0.252 OA
BRANCH   5   7
ATOM      7  O   UNL A   1      33.147  30.401  27.562  1.00  0.00    -0.458 OA
BRANCH   7   8
ATOM      8  C   UNL A   1      32.194  29.723  26.808  1.00  0.00     0.311 C 
BRANCH   8   9
ATOM      9  C   UNL A   1      31.746  28.292  26.964  1.00  0.00     0.202 C 
ATOM     10  O   UNL A   1      31.018  28.094  27.961  1.00  0.00    -0.293 OA
BRANCH   9  11
ATOM     11  C   UNL A   1      32.025  27.099  26.002  1.00  0.00     0.132 C 
ATOM     12  C   UNL A   1      35.088  21.514  24.385  1.00  0.00     0.016 C 
ATOM     13  C   UNL A   1      33.655  22.105  24.341  1.00  0.00    -0.005 C 
ATOM     14  C   UNL A   1      32.874  21.239  23.284  1.00  0.00     0.020 C 
ATOM     15  C   UNL A   1      32.871  21.851  25.633  1.00  0.00    -0.060 C 
ATOM     16  C   UNL A   1      33.672  23.643  23.922  1.00  0.00     0.031 C 
ATOM     17  C   UNL A   1      32.274  19.927  23.853  1.00  0.00     0.081 C 
ATOM     18  C   UNL A   1      32.994  20.659  26.252  1.00  0.00     0.047 C 
ATOM     19  C   UNL A   1      31.480  22.449  25.649  1.00  0.00     0.032 C 
ATOM     20  C   UNL A   1      32.260  24.307  24.049  1.00  0.00    -0.000 C 
ATOM     21  C   UNL A   1      34.766  24.656  24.448  1.00  0.00     0.119 C 
ATOM     22  C   UNL A   1      32.777  19.551  25.245  1.00  0.00     0.155 C 
ATOM     23  C   UNL A   1      31.562  23.918  25.353  1.00  0.00     0.009 C 
ATOM     24  C   UNL A   1      32.392  25.840  23.855  1.00  0.00     0.002 C 
ATOM     25  C   UNL A   1      34.280  25.660  25.527  1.00  0.00     0.042 C 
ATOM     26  O   UNL A   1      33.006  18.389  25.568  1.00  0.00    -0.295 OA
ATOM     27  C   UNL A   1      33.162  26.617  24.990  1.00  0.00     0.009 C 
ATOM     28  C   UNL A   1      31.091  26.606  23.722  1.00  0.00     0.008 C 
ATOM     29  C   UNL A   1      33.822  27.795  24.267  1.00  0.00     0.015 C 
ATOM     30  C   UNL A   1      30.735  27.075  25.122  1.00  0.00     0.044 C 
BRANCH  21  31
ATOM     31  O   UNL A   1      35.978  24.071  24.884  1.00  0.00    -0.393 OA
ATOM     32  H   UNL A   1      35.829  23.133  25.087  1.00  0.00     0.210 HD
ENDBRANCH  21  31
BRANCH  11  33
ATOM     33  O   UNL A   1      31.914  26.103  27.044  1.00  0.00    -0.381 OA
ATOM     34  H   UNL A   1      31.990  25.218  26.654  1.00  0.00     0.212 HD
ENDBRANCH  11  33
ENDBRANCH   9  11
ENDBRANCH   8   9
ENDBRANCH   7   8
ENDBRANCH   5   7
ENDBRANCH   4   5
ENDBRANCH   3   4
ENDBRANCH   1   3
BRANCH   1  35
ATOM     35  O   UNL A   1      34.460  34.519  29.252  1.00  0.00    -0.462 OA
BRANCH  35  36
ATOM     36  C   UNL A   1      33.322  35.307  28.831  1.00  0.00     0.274 C 
BRANCH  36  37
ATOM     37  C   UNL A   1      32.920  36.273  29.940  1.00  0.00     0.275 C 
BRANCH  37  38
ATOM     38  O   UNL A   1      32.438  35.528  31.061  1.00  0.00    -0.458 OA
BRANCH  38  39
ATOM     39  C   UNL A   1      32.863  35.988  32.266  1.00  0.00     0.338 C 
ATOM     40  O   UNL A   1      32.334  36.801  32.995  1.00  0.00    -0.246 OA
BRANCH  39  41
ATOM     41  C   UNL A   1      33.964  35.111  32.676  1.00  0.00     0.060 A 
ATOM     42  C   UNL A   1      35.275  35.573  32.516  1.00  0.00     0.016 A 
ATOM     43  C   UNL A   1      33.700  33.877  33.259  1.00  0.00     0.016 A 
ATOM     44  C   UNL A   1      36.341  34.825  32.986  1.00  0.00     0.010 A 
ATOM     45  C   UNL A   1      34.768  33.104  33.693  1.00  0.00     0.010 A 
ATOM     46  C   UNL A   1      36.084  33.581  33.561  1.00  0.00    -0.014 A 
BRANCH  46  47
ATOM     47  C   UNL A   1      37.199  32.704  33.941  1.00  0.00     0.031 A 
ATOM     48  C   UNL A   1      37.906  32.990  35.224  1.00  0.00     0.074 A 
ATOM     49  C   UNL A   1      37.585  31.722  33.110  1.00  0.00     0.049 A 
ATOM     50  N   UNL A   1      39.052  32.542  35.653  1.00  0.00    -0.248 NA
ATOM     51  C   UNL A   1      37.236  33.926  36.145  1.00  0.00     0.031 C 
ATOM     52  C   UNL A   1      36.899  31.342  31.875  1.00  0.00     0.029 A 
ATOM     53  N   UNL A   1      38.672  30.893  33.164  1.00  0.00    -0.354 N 
ATOM     54  C   UNL A   1      39.262  33.170  36.872  1.00  0.00     0.074 A 
ATOM     55  C   UNL A   1      38.127  34.029  37.121  1.00  0.00     0.031 C 
ATOM     56  C   UNL A   1      37.609  30.380  31.263  1.00  0.00     0.029 A 
ATOM     57  C   UNL A   1      38.824  30.130  32.032  1.00  0.00     0.049 A 
ATOM     58  H   UNL A   1      39.284  30.849  33.934  1.00  0.00     0.167 HD
ATOM     59  C   UNL A   1      40.328  33.037  37.692  1.00  0.00     0.037 A 
ATOM     60  C   UNL A   1      39.867  29.374  31.644  1.00  0.00     0.037 A 
ATOM     61  C   UNL A   1      41.431  32.159  37.414  1.00  0.00     0.049 A 
ATOM     62  C   UNL A   1      41.070  29.302  32.549  1.00  0.00     0.074 A 
ATOM     63  C   UNL A   1      42.546  31.905  38.188  1.00  0.00     0.029 A 
ATOM     64  N   UNL A   1      41.555  31.394  36.262  1.00  0.00    -0.354 N 
ATOM     65  N   UNL A   1      41.270  29.879  33.710  1.00  0.00    -0.248 NA
ATOM     66  C   UNL A   1      42.198  28.485  32.085  1.00  0.00     0.031 C 
ATOM     67  C   UNL A   1      43.377  31.035  37.475  1.00  0.00     0.029 A 
ATOM     68  C   UNL A   1      42.750  30.698  36.285  1.00  0.00     0.049 A 
ATOM     69  H   UNL A   1      40.890  31.354  35.535  1.00  0.00     0.167 HD
ATOM     70  C   UNL A   1      42.531  29.478  34.126  1.00  0.00     0.074 A 
ATOM     71  C   UNL A   1      43.041  28.589  33.102  1.00  0.00     0.031 C 
ATOM     72  C   UNL A   1      43.216  29.815  35.247  1.00  0.00     0.037 A 
BRANCH  59  73
ATOM     73  C   UNL A   1      40.378  33.880  38.929  1.00  0.00     0.064 A 
ATOM     74  C   UNL A   1      39.831  33.449  40.145  1.00  0.00     0.173 A 
ATOM     75  C   UNL A   1      41.046  35.114  38.906  1.00  0.00     0.173 A 
ATOM     76  F   UNL A   1      39.163  32.288  40.213  1.00  0.00    -0.203 F 
ATOM     77  C   UNL A   1      39.950  34.225  41.296  1.00  0.00     0.198 A 
ATOM     78  C   UNL A   1      41.186  35.873  40.064  1.00  0.00     0.198 A 
ATOM     79  F   UNL A   1      41.577  35.575  37.765  1.00  0.00    -0.203 F 
ATOM     80  F   UNL A   1      39.397  33.808  42.443  1.00  0.00    -0.200 F 
ATOM     81  C   UNL A   1      40.638  35.429  41.257  1.00  0.00     0.200 A 
ATOM     82  F   UNL A   1      41.858  37.033  40.026  1.00  0.00    -0.200 F 
ATOM     83  F   UNL A   1      40.770  36.163  42.371  1.00  0.00    -0.200 F 
ENDBRANCH  59  73
BRANCH  60  84
ATOM     84  C   UNL A   1      39.853  28.687  30.325  1.00  0.00     0.064 A 
ATOM     85  C   UNL A   1      39.305  27.404  30.184  1.00  0.00     0.173 A 
ATOM     86  C   UNL A   1      40.424  29.278  29.186  1.00  0.00     0.173 A 
ATOM     87  F   UNL A   1      38.765  26.787  31.245  1.00  0.00    -0.203 F 
ATOM     88  C   UNL A   1      39.361  26.726  28.967  1.00  0.00     0.198 A 
ATOM     89  C   UNL A   1      40.445  28.614  27.961  1.00  0.00     0.198 A 
ATOM     90  F   UNL A   1      40.961  30.504  29.261  1.00  0.00    -0.203 F 
ATOM     91  F   UNL A   1      38.889  25.475  28.880  1.00  0.00    -0.200 F 
ATOM     92  C   UNL A   1      39.927  27.332  27.856  1.00  0.00     0.200 A 
ATOM     93  F   UNL A   1      40.979  29.211  26.887  1.00  0.00    -0.200 F 
ATOM     94  F   UNL A   1      39.985  26.678  26.689  1.00  0.00    -0.200 F 
ENDBRANCH  60  84
BRANCH  72  95
ATOM     95  C   UNL A   1      44.569  29.197  35.429  1.00  0.00     0.064 A 
ATOM     96  C   UNL A   1      45.724  29.791  34.901  1.00  0.00     0.173 A 
ATOM     97  C   UNL A   1      44.716  28.024  36.185  1.00  0.00     0.173 A 
ATOM     98  F   UNL A   1      45.632  30.904  34.159  1.00  0.00    -0.203 F 
ATOM     99  C   UNL A   1      46.977  29.218  35.103  1.00  0.00     0.198 A 
ATOM    100  C   UNL A   1      45.974  27.475  36.415  1.00  0.00     0.198 A 
ATOM    101  F   UNL A   1      43.642  27.423  36.719  1.00  0.00    -0.203 F 
ATOM    102  F   UNL A   1      48.062  29.775  34.547  1.00  0.00    -0.200 F 
ATOM    103  C   UNL A   1      47.101  28.067  35.867  1.00  0.00     0.200 A 
ATOM    104  F   UNL A   1      46.093  26.374  37.169  1.00  0.00    -0.200 F 
ATOM    105  F   UNL A   1      48.309  27.526  36.071  1.00  0.00    -0.200 F 
ENDBRANCH  72  95
ENDBRANCH  46  47
ENDBRANCH  39  41
ENDBRANCH  38  39
ENDBRANCH  37  38
ENDBRANCH  36  37
ENDBRANCH  35  36
ENDBRANCH   1  35
TORSDOF 19
ENDMDL
MODEL 3
REMARK VINA RESULT:     -12.6      5.000      7.212
REMARK SMILES C[C@]12C[C@@H](O)[C@@H]3[C@@H](CCC4=CC(=O)CC[C@]43C)[C@H]1CC[C@]2(O)C(=O)COC(=O)CCC(=O)OCCOC(=O)c1ccc(-c2c3nc(c(-c4c(F)c(F)c(F)c(F)c4F)c4ccc([nH]4)c(-c4c(F)c(F)c(F)c(F)c4F)c4nc(c(-c5c(F)c(F)c(F)c(F)c5F)c5ccc2[nH]5)C=C4)C=C3)cc1
REMARK SMILES IDX 31 1 32 2 30 3 29 4 27 5 28 6 26 7 25 8 23 9 24 10 21 11
REMARK SMILES IDX 17 12 16 13 15 14 10 15 6 16 14 17 11 18 9 19 7 20 4 21
REMARK SMILES IDX 12 22 8 23 18 24 3 25 13 26 2 27 19 28 1 29 20 30 5 31 22 33
REMARK SMILES IDX 33 35 34 36 35 37 36 38 37 39 38 40 39 41 40 42 101 43 41 44
REMARK SMILES IDX 100 45 42 46 43 47 44 48 94 49 45 50 99 51 93 52 95 53 46 54
REMARK SMILES IDX 98 55 92 56 91 57 47 59 79 60 59 61 78 62 60 63 63 64 77 65
REMARK SMILES IDX 96 66 61 67 62 68 76 70 97 71 64 72 48 73 49 74 57 75 50 76
REMARK SMILES IDX 51 77 55 78 58 79 52 80 53 81 56 82 54 83 80 84 81 85 89 86
REMARK SMILES IDX 82 87 83 88 87 89 90 90 84 91 85 92 88 93 86 94 65 95 66 96
REMARK SMILES IDX 74 97 67 98 68 99 72 100 75 101 69 102 70 103 73 104 71 105
REMARK H PARENT 5 32 22 34 95 58 63 69
REMARK Flexibility Score: inf
ROOT
ATOM      1  C   UNL A   1      42.304  21.155  27.253  1.00  0.00     0.306 C 
ATOM      2  O   UNL A   1      42.623  21.847  28.214  1.00  0.00    -0.252 OA
ENDROOT
BRANCH   1   3
ATOM      3  C   UNL A   1      41.407  21.687  26.133  1.00  0.00     0.134 C 
BRANCH   3   4
ATOM      4  C   UNL A   1      39.898  21.544  26.280  1.00  0.00     0.134 C 
BRANCH   4   5
ATOM      5  C   UNL A   1      39.243  22.868  26.595  1.00  0.00     0.306 C 
ATOM      6  O   UNL A   1      39.574  23.664  27.456  1.00  0.00    -0.252 OA
BRANCH   5   7
ATOM      7  O   UNL A   1      38.191  23.015  25.772  1.00  0.00    -0.458 OA
BRANCH   7   8
ATOM      8  C   UNL A   1      37.665  21.908  25.113  1.00  0.00     0.311 C 
BRANCH   8   9
ATOM      9  C   UNL A   1      36.211  21.570  24.901  1.00  0.00     0.202 C 
ATOM     10  O   UNL A   1      35.957  20.348  24.983  1.00  0.00    -0.293 OA
BRANCH   9  11
ATOM     11  C   UNL A   1      35.029  22.559  24.675  1.00  0.00     0.132 C 
ATOM     12  C   UNL A   1      30.408  26.701  26.838  1.00  0.00     0.016 C 
ATOM     13  C   UNL A   1      31.466  26.633  25.706  1.00  0.00    -0.005 C 
ATOM     14  C   UNL A   1      30.993  27.674  24.624  1.00  0.00     0.020 C 
ATOM     15  C   UNL A   1      32.828  27.187  26.136  1.00  0.00    -0.060 C 
ATOM     16  C   UNL A   1      31.563  25.168  25.088  1.00  0.00     0.031 C 
ATOM     17  C   UNL A   1      31.442  29.132  24.903  1.00  0.00     0.081 C 
ATOM     18  C   UNL A   1      32.873  28.288  26.915  1.00  0.00     0.047 C 
ATOM     19  C   UNL A   1      33.904  27.100  25.074  1.00  0.00     0.032 C 
ATOM     20  C   UNL A   1      32.749  25.030  24.074  1.00  0.00    -0.000 C 
ATOM     21  C   UNL A   1      31.493  23.861  25.977  1.00  0.00     0.119 C 
ATOM     22  C   UNL A   1      32.004  29.365  26.304  1.00  0.00     0.155 C 
ATOM     23  C   UNL A   1      34.028  25.681  24.602  1.00  0.00     0.009 C 
ATOM     24  C   UNL A   1      32.930  23.538  23.693  1.00  0.00     0.002 C 
ATOM     25  C   UNL A   1      32.843  23.125  26.186  1.00  0.00     0.042 C 
ATOM     26  O   UNL A   1      31.778  30.390  26.939  1.00  0.00    -0.295 OA
ATOM     27  C   UNL A   1      33.442  22.588  24.841  1.00  0.00     0.009 C 
ATOM     28  C   UNL A   1      33.885  23.257  22.549  1.00  0.00     0.008 C 
ATOM     29  C   UNL A   1      32.809  21.229  24.524  1.00  0.00     0.015 C 
ATOM     30  C   UNL A   1      35.238  22.990  23.188  1.00  0.00     0.044 C 
BRANCH  21  31
ATOM     31  O   UNL A   1      30.860  24.014  27.234  1.00  0.00    -0.393 OA
ATOM     32  H   UNL A   1      31.198  24.813  27.670  1.00  0.00     0.210 HD
ENDBRANCH  21  31
BRANCH  11  33
ATOM     33  O   UNL A   1      35.580  23.572  25.549  1.00  0.00    -0.381 OA
ATOM     34  H   UNL A   1      35.059  23.611  26.366  1.00  0.00     0.212 HD
ENDBRANCH  11  33
ENDBRANCH   9  11
ENDBRANCH   8   9
ENDBRANCH   7   8
ENDBRANCH   5   7
ENDBRANCH   4   5
ENDBRANCH   3   4
ENDBRANCH   1   3
BRANCH   1  35
ATOM     35  O   UNL A   1      42.629  19.853  27.118  1.00  0.00    -0.462 OA
BRANCH  35  36
ATOM     36  C   UNL A   1      42.450  19.175  25.853  1.00  0.00     0.274 C 
BRANCH  36  37
ATOM     37  C   UNL A   1      43.551  18.136  25.660  1.00  0.00     0.275 C 
BRANCH  37  38
ATOM     38  O   UNL A   1      44.800  18.805  25.472  1.00  0.00    -0.458 OA
BRANCH  38  39
ATOM     39  C   UNL A   1      44.909  19.472  24.295  1.00  0.00     0.338 C 
ATOM     40  O   UNL A   1      44.732  19.055  23.169  1.00  0.00    -0.246 OA
BRANCH  39  41
ATOM     41  C   UNL A   1      45.017  20.894  24.637  1.00  0.00     0.060 A 
ATOM     42  C   UNL A   1      44.472  21.832  23.753  1.00  0.00     0.016 A 
ATOM     43  C   UNL A   1      45.597  21.286  25.838  1.00  0.00     0.016 A 
ATOM     44  C   UNL A   1      44.455  23.176  24.085  1.00  0.00     0.010 A 
ATOM     45  C   UNL A   1      45.621  22.637  26.155  1.00  0.00     0.010 A 
ATOM     46  C   UNL A   1      45.045  23.578  25.282  1.00  0.00    -0.014 A 
BRANCH  46  47
ATOM     47  C   UNL A   1      45.169  25.007  25.596  1.00  0.00     0.031 A 
ATOM     48  C   UNL A   1      46.520  25.631  25.487  1.00  0.00     0.074 A 
ATOM     49  C   UNL A   1      44.093  25.689  26.023  1.00  0.00     0.049 A 
ATOM     50  N   UNL A   1      46.939  26.778  25.943  1.00  0.00    -0.248 NA
ATOM     51  C   UNL A   1      47.549  24.845  24.782  1.00  0.00     0.031 C 
ATOM     52  C   UNL A   1      42.730  25.163  26.087  1.00  0.00     0.029 A 
ATOM     53  N   UNL A   1      43.991  26.960  26.519  1.00  0.00    -0.354 N 
ATOM     54  C   UNL A   1      48.286  26.835  25.618  1.00  0.00     0.074 A 
ATOM     55  C   UNL A   1      48.619  25.613  24.924  1.00  0.00     0.031 C 
ATOM     56  C   UNL A   1      41.931  26.092  26.637  1.00  0.00     0.029 A 
ATOM     57  C   UNL A   1      42.743  27.244  27.017  1.00  0.00     0.049 A 
ATOM     58  H   UNL A   1      44.735  27.605  26.519  1.00  0.00     0.167 HD
ATOM     59  C   UNL A   1      49.157  27.829  25.898  1.00  0.00     0.037 A 
ATOM     60  C   UNL A   1      42.335  28.291  27.758  1.00  0.00     0.037 A 
ATOM     61  C   UNL A   1      48.781  29.038  26.579  1.00  0.00     0.049 A 
ATOM     62  C   UNL A   1      43.349  29.349  28.113  1.00  0.00     0.074 A 
ATOM     63  C   UNL A   1      49.563  30.136  26.881  1.00  0.00     0.029 A 
ATOM     64  N   UNL A   1      47.509  29.300  27.068  1.00  0.00    -0.354 N 
ATOM     65  N   UNL A   1      44.620  29.419  27.796  1.00  0.00    -0.248 NA
ATOM     66  C   UNL A   1      42.876  30.466  28.940  1.00  0.00     0.031 C 
ATOM     67  C   UNL A   1      48.780  31.035  27.611  1.00  0.00     0.029 A 
ATOM     68  C   UNL A   1      47.494  30.526  27.708  1.00  0.00     0.049 A 
ATOM     69  H   UNL A   1      46.732  28.701  26.974  1.00  0.00     0.167 HD
ATOM     70  C   UNL A   1      45.093  30.594  28.361  1.00  0.00     0.074 A 
ATOM     71  C   UNL A   1      43.964  31.218  29.023  1.00  0.00     0.031 C 
ATOM     72  C   UNL A   1      46.344  31.115  28.347  1.00  0.00     0.037 A 
BRANCH  59  73
ATOM     73  C   UNL A   1      50.593  27.639  25.517  1.00  0.00     0.064 A 
ATOM     74  C   UNL A   1      51.062  27.913  24.225  1.00  0.00     0.173 A 
ATOM     75  C   UNL A   1      51.526  27.239  26.486  1.00  0.00     0.173 A 
ATOM     76  F   UNL A   1      50.206  28.276  23.257  1.00  0.00    -0.203 F 
ATOM     77  C   UNL A   1      52.415  27.791  23.915  1.00  0.00     0.198 A 
ATOM     78  C   UNL A   1      52.880  27.144  26.180  1.00  0.00     0.198 A 
ATOM     79  F   UNL A   1      51.126  26.957  27.734  1.00  0.00    -0.203 F 
ATOM     80  F   UNL A   1      52.839  28.030  22.667  1.00  0.00    -0.200 F 
ATOM     81  C   UNL A   1      53.324  27.419  24.896  1.00  0.00     0.200 A 
ATOM     82  F   UNL A   1      53.757  26.794  27.131  1.00  0.00    -0.200 F 
ATOM     83  F   UNL A   1      54.627  27.324  24.601  1.00  0.00    -0.200 F 
ENDBRANCH  59  73
BRANCH  60  84
ATOM     84  C   UNL A   1      40.939  28.360  28.266  1.00  0.00     0.064 A 
ATOM     85  C   UNL A   1      39.919  28.941  27.501  1.00  0.00     0.173 A 
ATOM     86  C   UNL A   1      40.602  27.886  29.544  1.00  0.00     0.173 A 
ATOM     87  F   UNL A   1      40.193  29.427  26.281  1.00  0.00    -0.203 F 
ATOM     88  C   UNL A   1      38.627  29.078  28.006  1.00  0.00     0.198 A 
ATOM     89  C   UNL A   1      39.302  27.990  30.033  1.00  0.00     0.198 A 
ATOM     90  F   UNL A   1      41.537  27.319  30.322  1.00  0.00    -0.203 F 
ATOM     91  F   UNL A   1      37.689  29.697  27.276  1.00  0.00    -0.200 F 
ATOM     92  C   UNL A   1      38.318  28.599  29.269  1.00  0.00     0.200 A 
ATOM     93  F   UNL A   1      39.005  27.510  31.249  1.00  0.00    -0.200 F 
ATOM     94  F   UNL A   1      37.078  28.736  29.756  1.00  0.00    -0.200 F 
ENDBRANCH  60  84
BRANCH  72  95
ATOM     95  C   UNL A   1      46.543  32.429  29.040  1.00  0.00     0.064 A 
ATOM     96  C   UNL A   1      46.949  32.497  30.380  1.00  0.00     0.173 A 
ATOM     97  C   UNL A   1      46.376  33.633  28.338  1.00  0.00     0.173 A 
ATOM     98  F   UNL A   1      47.107  31.374  31.096  1.00  0.00    -0.203 F 
ATOM     99  C   UNL A   1      47.155  33.726  31.001  1.00  0.00     0.198 A 
ATOM    100  C   UNL A   1      46.619  34.857  28.951  1.00  0.00     0.198 A 
ATOM    101  F   UNL A   1      45.998  33.619  27.051  1.00  0.00    -0.203 F 
ATOM    102  F   UNL A   1      47.494  33.769  32.297  1.00  0.00    -0.200 F 
ATOM    103  C   UNL A   1      47.000  34.903  30.284  1.00  0.00     0.200 A 
ATOM    104  F   UNL A   1      46.486  35.992  28.252  1.00  0.00    -0.200 F 
ATOM    105  F   UNL A   1      47.213  36.084  30.880  1.00  0.00    -0.200 F 
ENDBRANCH  72  95
ENDBRANCH  46  47
ENDBRANCH  39  41
ENDBRANCH  38  39
ENDBRANCH  37  38
ENDBRANCH  36  37
ENDBRANCH  35  36
ENDBRANCH   1  35
TORSDOF 19
ENDMDL
