MODEL 1
REMARK VINA RESULT:     -12.2      0.000      0.000
REMARK SMILES CC[C@@H](C)[C@@H](C(=O)OCCOC(=O)c1ccc(-c2c3nc(c(-c4c(F)c(F)c(F)c(F)c4F)c4ccc([nH]4)c(-c4c(F)c(F)c(F)c(F)c4F)c4nc(c(-c5c(F)c(F)c(F)c(F)c5F)c5ccc2[nH]5)C=C4)C=C3)cc1)N1C(=O)/C(=C/c2ccc(O)cc2)SC1=S
REMARK SMILES IDX 9 1 8 2 6 3 7 4 5 5 3 6 4 7 2 8 1 9 77 10 78 11 90 12 79 13
REMARK SMILES IDX 80 14 89 15 91 16 81 17 82 18 83 19 88 20 84 21 87 22 85 23
REMARK SMILES IDX 86 24 10 26 11 27 12 28 13 29 14 30 15 31 76 32 16 33 75 34
REMARK SMILES IDX 17 35 18 36 19 37 69 38 20 39 74 40 68 41 70 42 21 43 73 44
REMARK SMILES IDX 67 45 66 46 22 48 54 49 34 50 53 51 35 52 38 53 52 54 71 55
REMARK SMILES IDX 36 56 37 57 51 59 72 60 39 61 23 62 24 63 32 64 25 65 26 66
REMARK SMILES IDX 30 67 33 68 27 69 28 70 31 71 29 72 55 73 56 74 64 75 57 76
REMARK SMILES IDX 58 77 62 78 65 79 59 80 60 81 63 82 61 83 40 84 41 85 49 86
REMARK SMILES IDX 42 87 43 88 47 89 50 90 44 91 45 92 48 93 46 94
REMARK H PARENT 86 25 70 47 38 58
REMARK Flexibility Score: inf
ROOT
ATOM      1  C   UNL A   1      31.567  27.803  27.079  1.00  0.00     0.274 C 
ENDROOT
BRANCH   1   2
ATOM      2  O   UNL A   1      32.437  26.800  26.515  1.00  0.00    -0.461 OA
BRANCH   2   3
ATOM      3  C   UNL A   1      31.880  25.641  26.095  1.00  0.00     0.329 C 
ATOM      4  O   UNL A   1      31.403  24.820  26.873  1.00  0.00    -0.250 OA
BRANCH   3   5
ATOM      5  C   UNL A   1      32.005  25.384  24.566  1.00  0.00     0.204 C 
BRANCH   5   6
ATOM      6  C   UNL A   1      33.330  24.777  23.995  1.00  0.00     0.020 C 
ATOM      7  C   UNL A   1      33.023  24.044  22.671  1.00  0.00     0.010 C 
BRANCH   6   8
ATOM      8  C   UNL A   1      34.110  23.803  24.914  1.00  0.00     0.002 C 
ATOM      9  C   UNL A   1      35.448  24.380  25.377  1.00  0.00     0.004 C 
ENDBRANCH   6   8
ENDBRANCH   5   6
BRANCH   5  10
ATOM     10  N   UNL A   1      31.532  26.648  23.866  1.00  0.00    -0.278 N 
ATOM     11  C   UNL A   1      30.148  26.819  23.760  1.00  0.00     0.267 C 
ATOM     12  C   UNL A   1      32.284  27.712  23.383  1.00  0.00     0.149 C 
ATOM     13  O   UNL A   1      29.293  26.002  24.073  1.00  0.00    -0.268 OA
ATOM     14  C   UNL A   1      29.816  28.158  23.193  1.00  0.00     0.081 C 
ATOM     15  S   UNL A   1      31.239  28.879  22.576  1.00  0.00    -0.054 SA
ATOM     16  S   UNL A   1      33.916  28.046  23.437  1.00  0.00    -0.052 S 
ATOM     17  C   UNL A   1      28.594  28.711  23.220  1.00  0.00     0.029 C 
BRANCH  17  18
ATOM     18  C   UNL A   1      28.278  30.019  22.624  1.00  0.00    -0.024 A 
ATOM     19  C   UNL A   1      28.235  31.183  23.399  1.00  0.00     0.012 A 
ATOM     20  C   UNL A   1      28.083  30.111  21.239  1.00  0.00     0.012 A 
ATOM     21  C   UNL A   1      28.021  32.425  22.792  1.00  0.00     0.047 A 
ATOM     22  C   UNL A   1      27.867  31.352  20.632  1.00  0.00     0.047 A 
ATOM     23  C   UNL A   1      27.843  32.500  21.415  1.00  0.00     0.115 A 
BRANCH  23  24
ATOM     24  O   UNL A   1      27.653  33.730  20.862  1.00  0.00    -0.508 OA
ATOM     25  H   UNL A   1      26.967  33.863  20.238  1.00  0.00     0.293 HD
ENDBRANCH  23  24
ENDBRANCH  17  18
ENDBRANCH   5  10
ENDBRANCH   3   5
ENDBRANCH   2   3
ENDBRANCH   1   2
BRANCH   1  26
ATOM     26  C   UNL A   1      31.878  29.186  26.507  1.00  0.00     0.275 C 
BRANCH  26  27
ATOM     27  O   UNL A   1      32.270  30.093  27.553  1.00  0.00    -0.458 OA
BRANCH  27  28
ATOM     28  C   UNL A   1      33.098  31.084  27.166  1.00  0.00     0.338 C 
ATOM     29  O   UNL A   1      32.812  32.081  26.514  1.00  0.00    -0.246 OA
BRANCH  28  30
ATOM     30  C   UNL A   1      34.418  30.870  27.766  1.00  0.00     0.060 A 
ATOM     31  C   UNL A   1      34.797  29.563  28.070  1.00  0.00     0.016 A 
ATOM     32  C   UNL A   1      35.228  31.941  28.130  1.00  0.00     0.016 A 
ATOM     33  C   UNL A   1      35.951  29.315  28.792  1.00  0.00     0.010 A 
ATOM     34  C   UNL A   1      36.426  31.688  28.808  1.00  0.00     0.010 A 
ATOM     35  C   UNL A   1      36.781  30.374  29.162  1.00  0.00    -0.014 A 
BRANCH  35  36
ATOM     36  C   UNL A   1      37.984  30.088  29.975  1.00  0.00     0.031 A 
ATOM     37  C   UNL A   1      39.125  29.337  29.359  1.00  0.00     0.074 A 
ATOM     38  C   UNL A   1      38.084  30.572  31.228  1.00  0.00     0.049 A 
ATOM     39  N   UNL A   1      40.170  28.805  29.935  1.00  0.00    -0.248 NA
ATOM     40  C   UNL A   1      39.082  29.155  27.899  1.00  0.00     0.031 C 
ATOM     41  C   UNL A   1      37.096  31.428  31.885  1.00  0.00     0.029 A 
ATOM     42  N   UNL A   1      39.082  30.444  32.158  1.00  0.00    -0.354 N 
ATOM     43  C   UNL A   1      40.865  28.156  28.925  1.00  0.00     0.074 A 
ATOM     44  C   UNL A   1      40.149  28.397  27.691  1.00  0.00     0.031 C 
ATOM     45  C   UNL A   1      37.569  31.804  33.083  1.00  0.00     0.029 A 
ATOM     46  C   UNL A   1      38.842  31.133  33.321  1.00  0.00     0.049 A 
ATOM     47  H   UNL A   1      39.895  29.909  32.007  1.00  0.00     0.167 HD
ATOM     48  C   UNL A   1      41.982  27.401  29.042  1.00  0.00     0.037 A 
ATOM     49  C   UNL A   1      39.559  31.185  34.460  1.00  0.00     0.037 A 
ATOM     50  C   UNL A   1      42.695  27.218  30.277  1.00  0.00     0.049 A 
ATOM     51  C   UNL A   1      40.790  30.324  34.569  1.00  0.00     0.074 A 
ATOM     52  C   UNL A   1      43.774  26.395  30.546  1.00  0.00     0.029 A 
ATOM     53  N   UNL A   1      42.413  27.905  31.450  1.00  0.00    -0.354 N 
ATOM     54  N   UNL A   1      41.355  29.568  33.657  1.00  0.00    -0.248 NA
ATOM     55  C   UNL A   1      41.454  30.282  35.879  1.00  0.00     0.031 C 
ATOM     56  C   UNL A   1      44.129  26.566  31.888  1.00  0.00     0.029 A 
ATOM     57  C   UNL A   1      43.297  27.526  32.444  1.00  0.00     0.049 A 
ATOM     58  H   UNL A   1      41.690  28.565  31.557  1.00  0.00     0.167 HD
ATOM     59  C   UNL A   1      42.439  28.967  34.279  1.00  0.00     0.074 A 
ATOM     60  C   UNL A   1      42.471  29.467  35.638  1.00  0.00     0.031 C 
ATOM     61  C   UNL A   1      43.316  28.062  33.780  1.00  0.00     0.037 A 
BRANCH  48  62
ATOM     62  C   UNL A   1      42.438  26.648  27.829  1.00  0.00     0.064 A 
ATOM     63  C   UNL A   1      43.411  27.153  26.956  1.00  0.00     0.173 A 
ATOM     64  C   UNL A   1      41.894  25.385  27.548  1.00  0.00     0.173 A 
ATOM     65  F   UNL A   1      43.946  28.364  27.168  1.00  0.00    -0.203 F 
ATOM     66  C   UNL A   1      43.811  26.425  25.836  1.00  0.00     0.198 A 
ATOM     67  C   UNL A   1      42.313  24.650  26.444  1.00  0.00     0.198 A 
ATOM     68  F   UNL A   1      40.958  24.859  28.353  1.00  0.00    -0.203 F 
ATOM     69  F   UNL A   1      44.715  26.940  24.992  1.00  0.00    -0.200 F 
ATOM     70  C   UNL A   1      43.267  25.173  25.585  1.00  0.00     0.200 A 
ATOM     71  F   UNL A   1      41.793  23.438  26.210  1.00  0.00    -0.200 F 
ATOM     72  F   UNL A   1      43.658  24.473  24.512  1.00  0.00    -0.200 F 
ENDBRANCH  48  62
BRANCH  49  73
ATOM     73  C   UNL A   1      39.125  32.047  35.591  1.00  0.00     0.064 A 
ATOM     74  C   UNL A   1      39.571  33.373  35.686  1.00  0.00     0.173 A 
ATOM     75  C   UNL A   1      38.274  31.575  36.600  1.00  0.00     0.173 A 
ATOM     76  F   UNL A   1      40.411  33.865  34.763  1.00  0.00    -0.203 F 
ATOM     77  C   UNL A   1      39.192  34.188  36.751  1.00  0.00     0.198 A 
ATOM     78  C   UNL A   1      37.867  32.400  37.646  1.00  0.00     0.198 A 
ATOM     79  F   UNL A   1      37.823  30.313  36.564  1.00  0.00    -0.203 F 
ATOM     80  F   UNL A   1      39.672  35.435  36.843  1.00  0.00    -0.200 F 
ATOM     81  C   UNL A   1      38.333  33.703  37.727  1.00  0.00     0.200 A 
ATOM     82  F   UNL A   1      37.027  31.932  38.579  1.00  0.00    -0.200 F 
ATOM     83  F   UNL A   1      37.963  34.488  38.748  1.00  0.00    -0.200 F 
ENDBRANCH  49  73
BRANCH  61  84
ATOM     84  C   UNL A   1      44.393  27.573  34.698  1.00  0.00     0.064 A 
ATOM     85  C   UNL A   1      44.219  26.421  35.478  1.00  0.00     0.173 A 
ATOM     86  C   UNL A   1      45.635  28.223  34.743  1.00  0.00     0.173 A 
ATOM     87  F   UNL A   1      43.044  25.775  35.475  1.00  0.00    -0.203 F 
ATOM     88  C   UNL A   1      45.249  25.943  36.282  1.00  0.00     0.198 A 
ATOM     89  C   UNL A   1      46.670  27.730  35.531  1.00  0.00     0.198 A 
ATOM     90  F   UNL A   1      45.849  29.325  34.008  1.00  0.00    -0.203 F 
ATOM     91  F   UNL A   1      45.055  24.857  37.042  1.00  0.00    -0.200 F 
ATOM     92  C   UNL A   1      46.475  26.592  36.302  1.00  0.00     0.200 A 
ATOM     93  F   UNL A   1      47.858  28.350  35.542  1.00  0.00    -0.200 F 
ATOM     94  F   UNL A   1      47.470  26.122  37.067  1.00  0.00    -0.200 F 
ENDBRANCH  61  84
ENDBRANCH  35  36
ENDBRANCH  28  30
ENDBRANCH  27  28
ENDBRANCH  26  27
ENDBRANCH   1  26
TORSDOF 16
ENDMDL
MODEL 2
REMARK VINA RESULT:     -12.2      4.962     10.530
REMARK SMILES CC[C@@H](C)[C@@H](C(=O)OCCOC(=O)c1ccc(-c2c3nc(c(-c4c(F)c(F)c(F)c(F)c4F)c4ccc([nH]4)c(-c4c(F)c(F)c(F)c(F)c4F)c4nc(c(-c5c(F)c(F)c(F)c(F)c5F)c5ccc2[nH]5)C=C4)C=C3)cc1)N1C(=O)/C(=C/c2ccc(O)cc2)SC1=S
REMARK SMILES IDX 9 1 8 2 6 3 7 4 5 5 3 6 4 7 2 8 1 9 77 10 78 11 90 12 79 13
REMARK SMILES IDX 80 14 89 15 91 16 81 17 82 18 83 19 88 20 84 21 87 22 85 23
REMARK SMILES IDX 86 24 10 26 11 27 12 28 13 29 14 30 15 31 76 32 16 33 75 34
REMARK SMILES IDX 17 35 18 36 19 37 69 38 20 39 74 40 68 41 70 42 21 43 73 44
REMARK SMILES IDX 67 45 66 46 22 48 54 49 34 50 53 51 35 52 38 53 52 54 71 55
REMARK SMILES IDX 36 56 37 57 51 59 72 60 39 61 23 62 24 63 32 64 25 65 26 66
REMARK SMILES IDX 30 67 33 68 27 69 28 70 31 71 29 72 55 73 56 74 64 75 57 76
REMARK SMILES IDX 58 77 62 78 65 79 59 80 60 81 63 82 61 83 40 84 41 85 49 86
REMARK SMILES IDX 42 87 43 88 47 89 50 90 44 91 45 92 48 93 46 94
REMARK H PARENT 86 25 70 47 38 58
REMARK Flexibility Score: inf
ROOT
ATOM      1  C   UNL A   1      36.472  22.906  23.452  1.00  0.00     0.274 C 
ENDROOT
BRANCH   1   2
ATOM      2  O   UNL A   1      35.630  23.818  24.189  1.00  0.00    -0.461 OA
BRANCH   2   3
ATOM      3  C   UNL A   1      34.458  24.193  23.628  1.00  0.00     0.329 C 
ATOM      4  O   UNL A   1      34.397  24.716  22.519  1.00  0.00    -0.250 OA
BRANCH   3   5
ATOM      5  C   UNL A   1      33.219  24.021  24.551  1.00  0.00     0.204 C 
BRANCH   5   6
ATOM      6  C   UNL A   1      32.957  25.063  25.688  1.00  0.00     0.020 C 
ATOM      7  C   UNL A   1      31.459  25.041  26.063  1.00  0.00     0.010 C 
BRANCH   6   8
ATOM      8  C   UNL A   1      33.358  26.533  25.401  1.00  0.00     0.002 C 
ATOM      9  C   UNL A   1      32.197  27.507  25.607  1.00  0.00     0.004 C 
ENDBRANCH   6   8
ENDBRANCH   5   6
BRANCH   5  10
ATOM     10  N   UNL A   1      33.205  22.570  25.005  1.00  0.00    -0.278 N 
ATOM     11  C   UNL A   1      32.820  21.623  24.050  1.00  0.00     0.267 C 
ATOM     12  C   UNL A   1      33.603  22.031  26.222  1.00  0.00     0.149 C 
ATOM     13  O   UNL A   1      32.390  21.862  22.930  1.00  0.00    -0.268 OA
ATOM     14  C   UNL A   1      32.993  20.237  24.570  1.00  0.00     0.081 C 
ATOM     15  S   UNL A   1      33.291  20.297  26.253  1.00  0.00    -0.054 SA
ATOM     16  S   UNL A   1      34.289  22.716  27.580  1.00  0.00    -0.052 S 
ATOM     17  C   UNL A   1      32.964  19.132  23.809  1.00  0.00     0.029 C 
BRANCH  17  18
ATOM     18  C   UNL A   1      33.101  17.769  24.346  1.00  0.00    -0.024 A 
ATOM     19  C   UNL A   1      32.120  17.205  25.169  1.00  0.00     0.012 A 
ATOM     20  C   UNL A   1      34.208  16.993  23.972  1.00  0.00     0.012 A 
ATOM     21  C   UNL A   1      32.234  15.877  25.592  1.00  0.00     0.047 A 
ATOM     22  C   UNL A   1      34.324  15.667  24.396  1.00  0.00     0.047 A 
ATOM     23  C   UNL A   1      33.331  15.118  25.200  1.00  0.00     0.115 A 
BRANCH  23  24
ATOM     24  O   UNL A   1      33.396  13.824  25.621  1.00  0.00    -0.508 OA
ATOM     25  H   UNL A   1      32.631  13.402  25.959  1.00  0.00     0.293 HD
ENDBRANCH  23  24
ENDBRANCH  17  18
ENDBRANCH   5  10
ENDBRANCH   3   5
ENDBRANCH   2   3
ENDBRANCH   1   2
BRANCH   1  26
ATOM     26  C   UNL A   1      36.793  21.662  24.281  1.00  0.00     0.275 C 
BRANCH  26  27
ATOM     27  O   UNL A   1      37.199  22.030  25.612  1.00  0.00    -0.458 OA
BRANCH  27  28
ATOM     28  C   UNL A   1      38.451  21.660  25.949  1.00  0.00     0.338 C 
ATOM     29  O   UNL A   1      38.995  20.586  25.725  1.00  0.00    -0.246 OA
BRANCH  28  30
ATOM     30  C   UNL A   1      39.152  22.809  26.529  1.00  0.00     0.060 A 
ATOM     31  C   UNL A   1      38.709  24.087  26.193  1.00  0.00     0.016 A 
ATOM     32  C   UNL A   1      40.296  22.640  27.303  1.00  0.00     0.016 A 
ATOM     33  C   UNL A   1      39.434  25.204  26.568  1.00  0.00     0.010 A 
ATOM     34  C   UNL A   1      40.998  23.772  27.734  1.00  0.00     0.010 A 
ATOM     35  C   UNL A   1      40.581  25.059  27.349  1.00  0.00    -0.014 A 
BRANCH  35  36
ATOM     36  C   UNL A   1      41.366  26.264  27.697  1.00  0.00     0.031 A 
ATOM     37  C   UNL A   1      40.780  27.277  28.633  1.00  0.00     0.074 A 
ATOM     38  C   UNL A   1      42.626  26.406  27.243  1.00  0.00     0.049 A 
ATOM     39  N   UNL A   1      41.195  28.484  28.908  1.00  0.00    -0.248 NA
ATOM     40  C   UNL A   1      39.559  26.880  29.353  1.00  0.00     0.031 C 
ATOM     41  C   UNL A   1      43.348  25.422  26.435  1.00  0.00     0.029 A 
ATOM     42  N   UNL A   1      43.534  27.414  27.428  1.00  0.00    -0.354 N 
ATOM     43  C   UNL A   1      40.246  29.021  29.766  1.00  0.00     0.074 A 
ATOM     44  C   UNL A   1      39.255  27.994  30.004  1.00  0.00     0.031 C 
ATOM     45  C   UNL A   1      44.609  25.845  26.253  1.00  0.00     0.029 A 
ATOM     46  C   UNL A   1      44.752  27.174  26.840  1.00  0.00     0.049 A 
ATOM     47  H   UNL A   1      43.334  28.235  27.934  1.00  0.00     0.167 HD
ATOM     48  C   UNL A   1      40.203  30.275  30.273  1.00  0.00     0.037 A 
ATOM     49  C   UNL A   1      45.844  27.956  26.760  1.00  0.00     0.037 A 
ATOM     50  C   UNL A   1      41.229  31.259  30.055  1.00  0.00     0.049 A 
ATOM     51  C   UNL A   1      45.765  29.352  27.320  1.00  0.00     0.074 A 
ATOM     52  C   UNL A   1      41.249  32.592  30.424  1.00  0.00     0.029 A 
ATOM     53  N   UNL A   1      42.440  30.997  29.429  1.00  0.00    -0.354 N 
ATOM     54  N   UNL A   1      44.790  29.922  27.987  1.00  0.00    -0.248 NA
ATOM     55  C   UNL A   1      46.917  30.230  27.072  1.00  0.00     0.031 C 
ATOM     56  C   UNL A   1      42.464  33.142  30.001  1.00  0.00     0.029 A 
ATOM     57  C   UNL A   1      43.216  32.142  29.404  1.00  0.00     0.049 A 
ATOM     58  H   UNL A   1      42.707  30.125  29.059  1.00  0.00     0.167 HD
ATOM     59  C   UNL A   1      45.210  31.219  28.242  1.00  0.00     0.074 A 
ATOM     60  C   UNL A   1      46.540  31.345  27.683  1.00  0.00     0.031 C 
ATOM     61  C   UNL A   1      44.546  32.226  28.860  1.00  0.00     0.037 A 
BRANCH  48  62
ATOM     62  C   UNL A   1      38.972  30.674  31.029  1.00  0.00     0.064 A 
ATOM     63  C   UNL A   1      38.884  30.578  32.424  1.00  0.00     0.173 A 
ATOM     64  C   UNL A   1      37.861  31.178  30.332  1.00  0.00     0.173 A 
ATOM     65  F   UNL A   1      39.909  30.083  33.133  1.00  0.00    -0.203 F 
ATOM     66  C   UNL A   1      37.722  30.958  33.093  1.00  0.00     0.198 A 
ATOM     67  C   UNL A   1      36.712  31.581  31.006  1.00  0.00     0.198 A 
ATOM     68  F   UNL A   1      37.895  31.288  28.996  1.00  0.00    -0.203 F 
ATOM     69  F   UNL A   1      37.643  30.824  34.424  1.00  0.00    -0.200 F 
ATOM     70  C   UNL A   1      36.641  31.464  32.385  1.00  0.00     0.200 A 
ATOM     71  F   UNL A   1      35.674  32.077  30.320  1.00  0.00    -0.200 F 
ATOM     72  F   UNL A   1      35.528  31.834  33.032  1.00  0.00    -0.200 F 
ENDBRANCH  48  62
BRANCH  49  73
ATOM     73  C   UNL A   1      47.085  27.463  26.106  1.00  0.00     0.064 A 
ATOM     74  C   UNL A   1      47.285  27.645  24.731  1.00  0.00     0.173 A 
ATOM     75  C   UNL A   1      48.088  26.795  26.825  1.00  0.00     0.173 A 
ATOM     76  F   UNL A   1      46.344  28.251  23.992  1.00  0.00    -0.203 F 
ATOM     77  C   UNL A   1      48.433  27.169  24.098  1.00  0.00     0.198 A 
ATOM     78  C   UNL A   1      49.250  26.350  26.199  1.00  0.00     0.198 A 
ATOM     79  F   UNL A   1      47.946  26.585  28.142  1.00  0.00    -0.203 F 
ATOM     80  F   UNL A   1      48.575  27.314  22.774  1.00  0.00    -0.200 F 
ATOM     81  C   UNL A   1      49.419  26.529  24.835  1.00  0.00     0.200 A 
ATOM     82  F   UNL A   1      50.205  25.744  26.917  1.00  0.00    -0.200 F 
ATOM     83  F   UNL A   1      50.524  26.077  24.228  1.00  0.00    -0.200 F 
ENDBRANCH  49  73
BRANCH  61  84
ATOM     84  C   UNL A   1      45.254  33.540  28.984  1.00  0.00     0.064 A 
ATOM     85  C   UNL A   1      45.132  34.529  27.998  1.00  0.00     0.173 A 
ATOM     86  C   UNL A   1      46.003  33.836  30.132  1.00  0.00     0.173 A 
ATOM     87  F   UNL A   1      44.436  34.284  26.878  1.00  0.00    -0.203 F 
ATOM     88  C   UNL A   1      45.746  35.768  28.153  1.00  0.00     0.198 A 
ATOM     89  C   UNL A   1      46.597  35.084  30.293  1.00  0.00     0.198 A 
ATOM     90  F   UNL A   1      46.141  32.922  31.104  1.00  0.00    -0.203 F 
ATOM     91  F   UNL A   1      45.641  36.691  27.187  1.00  0.00    -0.200 F 
ATOM     92  C   UNL A   1      46.471  36.047  29.303  1.00  0.00     0.200 A 
ATOM     93  F   UNL A   1      47.288  35.357  31.408  1.00  0.00    -0.200 F 
ATOM     94  F   UNL A   1      47.051  37.246  29.455  1.00  0.00    -0.200 F 
ENDBRANCH  61  84
ENDBRANCH  35  36
ENDBRANCH  28  30
ENDBRANCH  27  28
ENDBRANCH  26  27
ENDBRANCH   1  26
TORSDOF 16
ENDMDL
MODEL 3
REMARK VINA RESULT:     -12.2      2.176      4.916
REMARK SMILES CC[C@@H](C)[C@@H](C(=O)OCCOC(=O)c1ccc(-c2c3nc(c(-c4c(F)c(F)c(F)c(F)c4F)c4ccc([nH]4)c(-c4c(F)c(F)c(F)c(F)c4F)c4nc(c(-c5c(F)c(F)c(F)c(F)c5F)c5ccc2[nH]5)C=C4)C=C3)cc1)N1C(=O)/C(=C/c2ccc(O)cc2)SC1=S
REMARK SMILES IDX 9 1 8 2 6 3 7 4 5 5 3 6 4 7 2 8 1 9 77 10 78 11 90 12 79 13
REMARK SMILES IDX 80 14 89 15 91 16 81 17 82 18 83 19 88 20 84 21 87 22 85 23
REMARK SMILES IDX 86 24 10 26 11 27 12 28 13 29 14 30 15 31 76 32 16 33 75 34
REMARK SMILES IDX 17 35 18 36 19 37 69 38 20 39 74 40 68 41 70 42 21 43 73 44
REMARK SMILES IDX 67 45 66 46 22 48 54 49 34 50 53 51 35 52 38 53 52 54 71 55
REMARK SMILES IDX 36 56 37 57 51 59 72 60 39 61 23 62 24 63 32 64 25 65 26 66
REMARK SMILES IDX 30 67 33 68 27 69 28 70 31 71 29 72 55 73 56 74 64 75 57 76
REMARK SMILES IDX 58 77 62 78 65 79 59 80 60 81 63 82 61 83 40 84 41 85 49 86
REMARK SMILES IDX 42 87 43 88 47 89 50 90 44 91 45 92 48 93 46 94
REMARK H PARENT 86 25 70 47 38 58
REMARK Flexibility Score: inf
ROOT
ATOM      1  C   UNL A   1      31.870  28.122  27.089  1.00  0.00     0.274 C 
ENDROOT
BRANCH   1   2
ATOM      2  O   UNL A   1      31.457  27.237  26.026  1.00  0.00    -0.461 OA
BRANCH   2   3
ATOM      3  C   UNL A   1      31.932  25.971  26.034  1.00  0.00     0.329 C 
ATOM      4  O   UNL A   1      31.596  25.147  26.881  1.00  0.00    -0.250 OA
BRANCH   3   5
ATOM      5  C   UNL A   1      33.024  25.686  24.965  1.00  0.00     0.204 C 
BRANCH   5   6
ATOM      6  C   UNL A   1      33.161  26.641  23.733  1.00  0.00     0.020 C 
ATOM      7  C   UNL A   1      33.793  25.866  22.556  1.00  0.00     0.010 C 
BRANCH   6   8
ATOM      8  C   UNL A   1      33.973  27.945  23.940  1.00  0.00     0.002 C 
ATOM      9  C   UNL A   1      33.444  29.104  23.095  1.00  0.00     0.004 C 
ENDBRANCH   6   8
ENDBRANCH   5   6
BRANCH   5  10
ATOM     10  N   UNL A   1      32.925  24.210  24.616  1.00  0.00    -0.278 N 
ATOM     11  C   UNL A   1      33.926  23.380  25.129  1.00  0.00     0.267 C 
ATOM     12  C   UNL A   1      31.925  23.543  23.919  1.00  0.00     0.149 C 
ATOM     13  O   UNL A   1      34.927  23.744  25.733  1.00  0.00    -0.268 OA
ATOM     14  C   UNL A   1      33.633  21.946  24.844  1.00  0.00     0.081 C 
ATOM     15  S   UNL A   1      32.352  21.845  23.716  1.00  0.00    -0.054 SA
ATOM     16  S   UNL A   1      30.471  24.054  23.281  1.00  0.00    -0.052 S 
ATOM     17  C   UNL A   1      34.257  20.913  25.430  1.00  0.00     0.029 C 
BRANCH  17  18
ATOM     18  C   UNL A   1      33.978  19.504  25.109  1.00  0.00    -0.024 A 
ATOM     19  C   UNL A   1      34.943  18.686  24.511  1.00  0.00     0.012 A 
ATOM     20  C   UNL A   1      32.742  18.952  25.472  1.00  0.00     0.012 A 
ATOM     21  C   UNL A   1      34.681  17.329  24.299  1.00  0.00     0.047 A 
ATOM     22  C   UNL A   1      32.479  17.596  25.258  1.00  0.00     0.047 A 
ATOM     23  C   UNL A   1      33.454  16.794  24.678  1.00  0.00     0.115 A 
BRANCH  23  24
ATOM     24  O   UNL A   1      33.246  15.464  24.468  1.00  0.00    -0.508 OA
ATOM     25  H   UNL A   1      32.535  15.180  23.927  1.00  0.00     0.293 HD
ENDBRANCH  23  24
ENDBRANCH  17  18
ENDBRANCH   5  10
ENDBRANCH   3   5
ENDBRANCH   2   3
ENDBRANCH   1   2
BRANCH   1  26
ATOM     26  C   UNL A   1      31.767  29.585  26.658  1.00  0.00     0.275 C 
BRANCH  26  27
ATOM     27  O   UNL A   1      33.065  30.109  26.325  1.00  0.00    -0.458 OA
BRANCH  27  28
ATOM     28  C   UNL A   1      33.442  31.191  27.034  1.00  0.00     0.338 C 
ATOM     29  O   UNL A   1      32.782  32.197  27.264  1.00  0.00    -0.246 OA
BRANCH  28  30
ATOM     30  C   UNL A   1      34.757  30.940  27.632  1.00  0.00     0.060 A 
ATOM     31  C   UNL A   1      35.068  29.636  28.010  1.00  0.00     0.016 A 
ATOM     32  C   UNL A   1      35.629  31.985  27.921  1.00  0.00     0.016 A 
ATOM     33  C   UNL A   1      36.217  29.368  28.734  1.00  0.00     0.010 A 
ATOM     34  C   UNL A   1      36.821  31.708  28.600  1.00  0.00     0.010 A 
ATOM     35  C   UNL A   1      37.109  30.399  29.029  1.00  0.00    -0.014 A 
BRANCH  35  36
ATOM     36  C   UNL A   1      38.306  30.097  29.845  1.00  0.00     0.031 A 
ATOM     37  C   UNL A   1      39.437  29.329  29.232  1.00  0.00     0.074 A 
ATOM     38  C   UNL A   1      38.411  30.581  31.098  1.00  0.00     0.049 A 
ATOM     39  N   UNL A   1      40.473  28.782  29.811  1.00  0.00    -0.248 NA
ATOM     40  C   UNL A   1      39.395  29.146  27.773  1.00  0.00     0.031 C 
ATOM     41  C   UNL A   1      37.433  31.452  31.752  1.00  0.00     0.029 A 
ATOM     42  N   UNL A   1      39.405  30.440  32.030  1.00  0.00    -0.354 N 
ATOM     43  C   UNL A   1      41.160  28.122  28.803  1.00  0.00     0.074 A 
ATOM     44  C   UNL A   1      40.451  28.372  27.567  1.00  0.00     0.031 C 
ATOM     45  C   UNL A   1      37.910  31.823  32.951  1.00  0.00     0.029 A 
ATOM     46  C   UNL A   1      39.173  31.133  33.192  1.00  0.00     0.049 A 
ATOM     47  H   UNL A   1      40.210  29.893  31.881  1.00  0.00     0.167 HD
ATOM     48  C   UNL A   1      42.266  27.351  28.923  1.00  0.00     0.037 A 
ATOM     49  C   UNL A   1      39.888  31.176  34.332  1.00  0.00     0.037 A 
ATOM     50  C   UNL A   1      42.974  27.159  30.160  1.00  0.00     0.049 A 
ATOM     51  C   UNL A   1      41.106  30.297  34.444  1.00  0.00     0.074 A 
ATOM     52  C   UNL A   1      44.040  26.320  30.432  1.00  0.00     0.029 A 
ATOM     53  N   UNL A   1      42.699  27.851  31.332  1.00  0.00    -0.354 N 
ATOM     54  N   UNL A   1      41.662  29.533  33.535  1.00  0.00    -0.248 NA
ATOM     55  C   UNL A   1      41.766  30.248  35.756  1.00  0.00     0.031 C 
ATOM     56  C   UNL A   1      44.395  26.488  31.775  1.00  0.00     0.029 A 
ATOM     57  C   UNL A   1      43.576  27.461  32.328  1.00  0.00     0.049 A 
ATOM     58  H   UNL A   1      41.986  28.522  31.437  1.00  0.00     0.167 HD
ATOM     59  C   UNL A   1      42.735  28.916  34.160  1.00  0.00     0.074 A 
ATOM     60  C   UNL A   1      42.772  29.417  35.518  1.00  0.00     0.031 C 
ATOM     61  C   UNL A   1      43.600  27.998  33.663  1.00  0.00     0.037 A 
BRANCH  48  62
ATOM     62  C   UNL A   1      42.713  26.590  27.712  1.00  0.00     0.064 A 
ATOM     63  C   UNL A   1      43.680  27.089  26.829  1.00  0.00     0.173 A 
ATOM     64  C   UNL A   1      42.167  25.324  27.444  1.00  0.00     0.173 A 
ATOM     65  F   UNL A   1      44.216  28.301  27.028  1.00  0.00    -0.203 F 
ATOM     66  C   UNL A   1      44.072  26.354  25.711  1.00  0.00     0.198 A 
ATOM     67  C   UNL A   1      42.579  24.582  26.342  1.00  0.00     0.198 A 
ATOM     68  F   UNL A   1      41.238  24.803  28.259  1.00  0.00    -0.203 F 
ATOM     69  F   UNL A   1      44.970  26.863  24.857  1.00  0.00    -0.200 F 
ATOM     70  C   UNL A   1      43.527  25.100  25.473  1.00  0.00     0.200 A 
ATOM     71  F   UNL A   1      42.057  23.368  26.120  1.00  0.00    -0.200 F 
ATOM     72  F   UNL A   1      43.910  24.393  24.401  1.00  0.00    -0.200 F 
ENDBRANCH  48  62
BRANCH  49  73
ATOM     73  C   UNL A   1      39.465  32.046  35.461  1.00  0.00     0.064 A 
ATOM     74  C   UNL A   1      39.970  33.348  35.584  1.00  0.00     0.173 A 
ATOM     75  C   UNL A   1      38.564  31.604  36.441  1.00  0.00     0.173 A 
ATOM     76  F   UNL A   1      40.858  33.809  34.690  1.00  0.00    -0.203 F 
ATOM     77  C   UNL A   1      39.601  34.169  36.649  1.00  0.00     0.198 A 
ATOM     78  C   UNL A   1      38.168  32.437  37.486  1.00  0.00     0.198 A 
ATOM     79  F   UNL A   1      38.055  30.366  36.378  1.00  0.00    -0.203 F 
ATOM     80  F   UNL A   1      40.137  35.391  36.768  1.00  0.00    -0.200 F 
ATOM     81  C   UNL A   1      38.693  33.716  37.594  1.00  0.00     0.200 A 
ATOM     82  F   UNL A   1      37.281  31.999  38.390  1.00  0.00    -0.200 F 
ATOM     83  F   UNL A   1      38.333  34.506  38.615  1.00  0.00    -0.200 F 
ENDBRANCH  49  73
BRANCH  61  84
ATOM     84  C   UNL A   1      44.668  27.494  34.584  1.00  0.00     0.064 A 
ATOM     85  C   UNL A   1      45.899  28.155  34.703  1.00  0.00     0.173 A 
ATOM     86  C   UNL A   1      44.430  26.383  35.406  1.00  0.00     0.173 A 
ATOM     87  F   UNL A   1      46.174  29.215  33.927  1.00  0.00    -0.203 F 
ATOM     88  C   UNL A   1      46.861  27.712  35.606  1.00  0.00     0.198 A 
ATOM     89  C   UNL A   1      45.386  25.957  36.323  1.00  0.00     0.198 A 
ATOM     90  F   UNL A   1      43.264  25.724  35.331  1.00  0.00    -0.203 F 
ATOM     91  F   UNL A   1      48.042  28.341  35.685  1.00  0.00    -0.200 F 
ATOM     92  C   UNL A   1      46.600  26.620  36.420  1.00  0.00     0.200 A 
ATOM     93  F   UNL A   1      45.130  24.908  37.117  1.00  0.00    -0.200 F 
ATOM     94  F   UNL A   1      47.523  26.204  37.298  1.00  0.00    -0.200 F 
ENDBRANCH  61  84
ENDBRANCH  35  36
ENDBRANCH  28  30
ENDBRANCH  27  28
ENDBRANCH  26  27
ENDBRANCH   1  26
TORSDOF 16
ENDMDL
