MODEL 1
REMARK VINA RESULT:     -13.2      0.000      0.000
REMARK SMILES COc1cc(CC(=O)N[C@@H](CC(=O)OCCOC(=O)c2ccc(-c3c4nc(c(-c5c(F)c(F)c(F)c(F)c5F)c5ccc([nH]5)c(-c5c(F)c(F)c(F)c(F)c5F)c5nc(c(-c6c(F)c(F)c(F)c(F)c6F)c6ccc3[nH]6)C=C5)C=C4)cc2)c2cccs2)ccc1C
REMARK SMILES IDX 14 1 12 2 13 3 11 4 10 5 9 6 7 7 8 8 6 10 5 11 3 12 4 13
REMARK SMILES IDX 90 14 89 15 91 16 88 17 2 18 1 19 83 20 84 21 87 22 85 23
REMARK SMILES IDX 86 24 15 25 16 26 17 27 18 28 19 29 20 30 21 31 82 32 22 33
REMARK SMILES IDX 81 34 23 35 24 36 25 37 75 38 26 39 80 40 74 41 76 42 27 43
REMARK SMILES IDX 79 44 73 45 72 46 28 48 60 49 40 50 59 51 41 52 44 53 58 54
REMARK SMILES IDX 77 55 42 56 43 57 57 59 78 60 45 61 29 62 30 63 38 64 31 65
REMARK SMILES IDX 32 66 36 67 39 68 33 69 34 70 37 71 35 72 61 73 62 74 70 75
REMARK SMILES IDX 63 76 64 77 68 78 71 79 65 80 66 81 69 82 67 83 46 84 47 85
REMARK SMILES IDX 55 86 48 87 49 88 53 89 56 90 50 91 51 92 54 93 52 94
REMARK H PARENT 9 9 76 47 44 58
REMARK Flexibility Score: inf
ROOT
ATOM      1  O   UNL A   1      31.727  29.229  26.269  1.00  0.00    -0.462 OA
ENDROOT
BRANCH   1   2
ATOM      2  C   UNL A   1      31.503  28.159  25.463  1.00  0.00     0.308 C 
ATOM      3  O   UNL A   1      31.135  27.068  25.848  1.00  0.00    -0.252 OA
BRANCH   2   4
ATOM      4  C   UNL A   1      31.742  28.519  24.014  1.00  0.00     0.153 C 
BRANCH   4   5
ATOM      5  C   UNL A   1      30.824  27.746  23.061  1.00  0.00     0.133 C 
BRANCH   5   6
ATOM      6  N   UNL A   1      31.569  27.353  21.881  1.00  0.00    -0.348 N 
ATOM      7  C   UNL A   1      32.343  26.229  21.762  1.00  0.00     0.224 C 
ATOM      8  O   UNL A   1      33.320  26.266  21.012  1.00  0.00    -0.275 OA
ATOM      9  H   UNL A   1      31.513  27.944  21.096  1.00  0.00     0.164 HD
BRANCH   7  10
ATOM     10  C   UNL A   1      31.915  24.942  22.446  1.00  0.00     0.135 C 
BRANCH  10  11
ATOM     11  C   UNL A   1      32.739  24.455  23.616  1.00  0.00    -0.035 A 
ATOM     12  C   UNL A   1      33.390  22.615  25.099  1.00  0.00     0.122 A 
ATOM     13  C   UNL A   1      32.624  23.118  24.040  1.00  0.00     0.051 A 
ATOM     14  C   UNL A   1      34.310  23.454  25.744  1.00  0.00    -0.009 A 
ATOM     15  C   UNL A   1      34.437  24.786  25.315  1.00  0.00     0.007 A 
ATOM     16  C   UNL A   1      35.203  22.962  26.851  1.00  0.00     0.048 C 
ATOM     17  C   UNL A   1      33.659  25.284  24.263  1.00  0.00     0.005 A 
BRANCH  12  18
ATOM     18  O   UNL A   1      33.272  21.341  25.585  1.00  0.00    -0.496 OA
ATOM     19  C   UNL A   1      33.786  20.293  24.770  1.00  0.00     0.278 C 
ENDBRANCH  12  18
ENDBRANCH  10  11
ENDBRANCH   7  10
ENDBRANCH   5   6
BRANCH   5  20
ATOM     20  C   UNL A   1      29.558  28.523  22.760  1.00  0.00     0.027 A 
ATOM     21  C   UNL A   1      28.272  28.142  23.118  1.00  0.00     0.017 A 
ATOM     22  S   UNL A   1      29.542  30.057  21.988  1.00  0.00    -0.147 S 
ATOM     23  C   UNL A   1      27.308  29.159  22.876  1.00  0.00     0.012 A 
ATOM     24  C   UNL A   1      27.872  30.270  22.295  1.00  0.00     0.065 A 
ENDBRANCH   5  20
ENDBRANCH   4   5
ENDBRANCH   2   4
ENDBRANCH   1   2
BRANCH   1  25
ATOM     25  C   UNL A   1      32.928  29.953  26.029  1.00  0.00     0.274 C 
BRANCH  25  26
ATOM     26  C   UNL A   1      34.078  29.399  26.883  1.00  0.00     0.275 C 
BRANCH  26  27
ATOM     27  O   UNL A   1      34.636  30.220  27.958  1.00  0.00    -0.458 OA
BRANCH  27  28
ATOM     28  C   UNL A   1      35.823  30.867  28.077  1.00  0.00     0.338 C 
ATOM     29  O   UNL A   1      35.915  32.085  27.997  1.00  0.00    -0.246 OA
BRANCH  28  30
ATOM     30  C   UNL A   1      37.021  30.072  28.372  1.00  0.00     0.060 A 
ATOM     31  C   UNL A   1      37.076  29.295  29.542  1.00  0.00     0.016 A 
ATOM     32  C   UNL A   1      38.046  30.031  27.440  1.00  0.00     0.016 A 
ATOM     33  C   UNL A   1      38.110  28.372  29.718  1.00  0.00     0.010 A 
ATOM     34  C   UNL A   1      38.988  29.035  27.547  1.00  0.00     0.010 A 
ATOM     35  C   UNL A   1      39.049  28.228  28.697  1.00  0.00    -0.014 A 
BRANCH  35  36
ATOM     36  C   UNL A   1      40.319  27.523  28.837  1.00  0.00     0.031 A 
ATOM     37  C   UNL A   1      40.554  26.106  28.510  1.00  0.00     0.074 A 
ATOM     38  C   UNL A   1      41.323  28.372  29.143  1.00  0.00     0.049 A 
ATOM     39  N   UNL A   1      41.662  25.495  28.760  1.00  0.00    -0.248 NA
ATOM     40  C   UNL A   1      39.567  25.232  27.894  1.00  0.00     0.031 C 
ATOM     41  C   UNL A   1      42.763  28.210  29.073  1.00  0.00     0.029 A 
ATOM     42  N   UNL A   1      41.147  29.610  29.791  1.00  0.00    -0.354 N 
ATOM     43  C   UNL A   1      41.654  24.283  28.099  1.00  0.00     0.074 A 
ATOM     44  C   UNL A   1      40.295  24.136  27.641  1.00  0.00     0.031 C 
ATOM     45  C   UNL A   1      43.323  29.099  29.915  1.00  0.00     0.029 A 
ATOM     46  C   UNL A   1      42.231  29.716  30.664  1.00  0.00     0.049 A 
ATOM     47  H   UNL A   1      40.418  30.257  29.658  1.00  0.00     0.167 HD
ATOM     48  C   UNL A   1      42.850  23.643  27.922  1.00  0.00     0.037 A 
ATOM     49  C   UNL A   1      42.004  29.560  32.002  1.00  0.00     0.037 A 
ATOM     50  C   UNL A   1      43.877  24.270  28.759  1.00  0.00     0.049 A 
ATOM     51  C   UNL A   1      42.798  28.407  32.560  1.00  0.00     0.074 A 
ATOM     52  C   UNL A   1      44.872  25.196  28.494  1.00  0.00     0.029 A 
ATOM     53  N   UNL A   1      43.730  24.236  30.145  1.00  0.00    -0.354 N 
ATOM     54  N   UNL A   1      43.077  27.318  31.897  1.00  0.00    -0.248 NA
ATOM     55  C   UNL A   1      43.383  28.436  33.893  1.00  0.00     0.031 C 
ATOM     56  C   UNL A   1      45.241  25.803  29.724  1.00  0.00     0.029 A 
ATOM     57  C   UNL A   1      44.499  25.218  30.738  1.00  0.00     0.049 A 
ATOM     58  H   UNL A   1      43.159  23.600  30.633  1.00  0.00     0.167 HD
ATOM     59  C   UNL A   1      43.933  26.554  32.645  1.00  0.00     0.074 A 
ATOM     60  C   UNL A   1      44.073  27.285  33.895  1.00  0.00     0.031 C 
ATOM     61  C   UNL A   1      44.500  25.402  32.181  1.00  0.00     0.037 A 
BRANCH  48  62
ATOM     62  C   UNL A   1      43.171  22.662  26.801  1.00  0.00     0.064 A 
ATOM     63  C   UNL A   1      42.654  21.342  26.834  1.00  0.00     0.173 A 
ATOM     64  C   UNL A   1      44.046  22.905  25.726  1.00  0.00     0.173 A 
ATOM     65  F   UNL A   1      41.734  20.971  27.734  1.00  0.00    -0.203 F 
ATOM     66  C   UNL A   1      43.065  20.340  25.945  1.00  0.00     0.198 A 
ATOM     67  C   UNL A   1      44.478  21.895  24.852  1.00  0.00     0.198 A 
ATOM     68  F   UNL A   1      44.482  24.134  25.441  1.00  0.00    -0.203 F 
ATOM     69  F   UNL A   1      42.554  19.104  26.054  1.00  0.00    -0.200 F 
ATOM     70  C   UNL A   1      44.000  20.609  24.972  1.00  0.00     0.200 A 
ATOM     71  F   UNL A   1      45.365  22.187  23.889  1.00  0.00    -0.200 F 
ATOM     72  F   UNL A   1      44.420  19.644  24.142  1.00  0.00    -0.200 F 
ENDBRANCH  48  62
BRANCH  49  73
ATOM     73  C   UNL A   1      40.635  29.962  32.467  1.00  0.00     0.064 A 
ATOM     74  C   UNL A   1      40.236  31.315  32.356  1.00  0.00     0.173 A 
ATOM     75  C   UNL A   1      39.630  29.037  32.779  1.00  0.00     0.173 A 
ATOM     76  F   UNL A   1      41.143  32.261  32.063  1.00  0.00    -0.203 F 
ATOM     77  C   UNL A   1      38.898  31.702  32.457  1.00  0.00     0.198 A 
ATOM     78  C   UNL A   1      38.292  29.433  32.903  1.00  0.00     0.198 A 
ATOM     79  F   UNL A   1      39.920  27.734  32.906  1.00  0.00    -0.203 F 
ATOM     80  F   UNL A   1      38.556  32.983  32.254  1.00  0.00    -0.200 F 
ATOM     81  C   UNL A   1      37.925  30.757  32.720  1.00  0.00     0.200 A 
ATOM     82  F   UNL A   1      37.344  28.515  33.145  1.00  0.00    -0.200 F 
ATOM     83  F   UNL A   1      36.633  31.113  32.771  1.00  0.00    -0.200 F 
ENDBRANCH  49  73
BRANCH  61  84
ATOM     84  C   UNL A   1      45.223  24.396  33.038  1.00  0.00     0.064 A 
ATOM     85  C   UNL A   1      46.491  24.631  33.596  1.00  0.00     0.173 A 
ATOM     86  C   UNL A   1      44.578  23.210  33.460  1.00  0.00     0.173 A 
ATOM     87  F   UNL A   1      47.146  25.780  33.383  1.00  0.00    -0.203 F 
ATOM     88  C   UNL A   1      47.104  23.710  34.447  1.00  0.00     0.198 A 
ATOM     89  C   UNL A   1      45.166  22.325  34.361  1.00  0.00     0.198 A 
ATOM     90  F   UNL A   1      43.347  22.889  33.037  1.00  0.00    -0.203 F 
ATOM     91  F   UNL A   1      48.337  23.958  34.911  1.00  0.00    -0.200 F 
ATOM     92  C   UNL A   1      46.437  22.564  34.839  1.00  0.00     0.200 A 
ATOM     93  F   UNL A   1      44.483  21.250  34.779  1.00  0.00    -0.200 F 
ATOM     94  F   UNL A   1      47.009  21.708  35.696  1.00  0.00    -0.200 F 
ENDBRANCH  61  84
ENDBRANCH  35  36
ENDBRANCH  28  30
ENDBRANCH  27  28
ENDBRANCH  26  27
ENDBRANCH  25  26
ENDBRANCH   1  25
TORSDOF 17
ENDMDL
MODEL 2
REMARK VINA RESULT:     -13.1      1.385      2.307
REMARK SMILES COc1cc(CC(=O)N[C@@H](CC(=O)OCCOC(=O)c2ccc(-c3c4nc(c(-c5c(F)c(F)c(F)c(F)c5F)c5ccc([nH]5)c(-c5c(F)c(F)c(F)c(F)c5F)c5nc(c(-c6c(F)c(F)c(F)c(F)c6F)c6ccc3[nH]6)C=C5)C=C4)cc2)c2cccs2)ccc1C
REMARK SMILES IDX 14 1 12 2 13 3 11 4 10 5 9 6 7 7 8 8 6 10 5 11 3 12 4 13
REMARK SMILES IDX 90 14 89 15 91 16 88 17 2 18 1 19 83 20 84 21 87 22 85 23
REMARK SMILES IDX 86 24 15 25 16 26 17 27 18 28 19 29 20 30 21 31 82 32 22 33
REMARK SMILES IDX 81 34 23 35 24 36 25 37 75 38 26 39 80 40 74 41 76 42 27 43
REMARK SMILES IDX 79 44 73 45 72 46 28 48 60 49 40 50 59 51 41 52 44 53 58 54
REMARK SMILES IDX 77 55 42 56 43 57 57 59 78 60 45 61 29 62 30 63 38 64 31 65
REMARK SMILES IDX 32 66 36 67 39 68 33 69 34 70 37 71 35 72 61 73 62 74 70 75
REMARK SMILES IDX 63 76 64 77 68 78 71 79 65 80 66 81 69 82 67 83 46 84 47 85
REMARK SMILES IDX 55 86 48 87 49 88 53 89 56 90 50 91 51 92 54 93 52 94
REMARK H PARENT 9 9 76 47 44 58
REMARK Flexibility Score: inf
ROOT
ATOM      1  O   UNL A   1      32.124  29.704  24.995  1.00  0.00    -0.462 OA
ENDROOT
BRANCH   1   2
ATOM      2  C   UNL A   1      31.849  28.858  23.970  1.00  0.00     0.308 C 
ATOM      3  O   UNL A   1      32.131  29.065  22.807  1.00  0.00    -0.252 OA
BRANCH   2   4
ATOM      4  C   UNL A   1      31.173  27.604  24.475  1.00  0.00     0.153 C 
BRANCH   4   5
ATOM      5  C   UNL A   1      32.018  26.348  24.238  1.00  0.00     0.133 C 
BRANCH   5   6
ATOM      6  N   UNL A   1      32.030  26.031  22.823  1.00  0.00    -0.348 N 
ATOM      7  C   UNL A   1      33.126  25.631  22.103  1.00  0.00     0.224 C 
ATOM      8  O   UNL A   1      33.182  25.925  20.908  1.00  0.00    -0.275 OA
ATOM      9  H   UNL A   1      31.178  26.109  22.337  1.00  0.00     0.164 HD
BRANCH   7  10
ATOM     10  C   UNL A   1      34.169  24.737  22.750  1.00  0.00     0.135 C 
BRANCH  10  11
ATOM     11  C   UNL A   1      33.754  23.340  23.148  1.00  0.00    -0.035 A 
ATOM     12  C   UNL A   1      33.919  21.476  24.732  1.00  0.00     0.122 A 
ATOM     13  C   UNL A   1      34.297  22.755  24.308  1.00  0.00     0.051 A 
ATOM     14  C   UNL A   1      32.960  20.762  23.998  1.00  0.00    -0.009 A 
ATOM     15  C   UNL A   1      32.406  21.347  22.847  1.00  0.00     0.007 A 
ATOM     16  C   UNL A   1      32.468  19.406  24.429  1.00  0.00     0.048 C 
ATOM     17  C   UNL A   1      32.799  22.622  22.424  1.00  0.00     0.005 A 
BRANCH  12  18
ATOM     18  O   UNL A   1      34.461  20.843  25.818  1.00  0.00    -0.496 OA
ATOM     19  C   UNL A   1      34.352  21.512  27.070  1.00  0.00     0.278 C 
ENDBRANCH  12  18
ENDBRANCH  10  11
ENDBRANCH   7  10
ENDBRANCH   5   6
BRANCH   5  20
ATOM     20  C   UNL A   1      31.569  25.201  25.122  1.00  0.00     0.027 A 
ATOM     21  C   UNL A   1      30.674  24.204  24.758  1.00  0.00     0.017 A 
ATOM     22  S   UNL A   1      32.178  24.921  26.702  1.00  0.00    -0.147 S 
ATOM     23  C   UNL A   1      30.594  23.158  25.718  1.00  0.00     0.012 A 
ATOM     24  C   UNL A   1      31.391  23.406  26.811  1.00  0.00     0.065 A 
ENDBRANCH   5  20
ENDBRANCH   4   5
ENDBRANCH   2   4
ENDBRANCH   1   2
BRANCH   1  25
ATOM     25  C   UNL A   1      33.349  29.477  25.684  1.00  0.00     0.274 C 
BRANCH  25  26
ATOM     26  C   UNL A   1      33.499  30.448  26.865  1.00  0.00     0.275 C 
BRANCH  26  27
ATOM     27  O   UNL A   1      34.616  30.282  27.795  1.00  0.00    -0.458 OA
BRANCH  27  28
ATOM     28  C   UNL A   1      35.824  30.896  27.873  1.00  0.00     0.338 C 
ATOM     29  O   UNL A   1      35.953  32.107  27.746  1.00  0.00    -0.246 OA
BRANCH  28  30
ATOM     30  C   UNL A   1      37.001  30.075  28.181  1.00  0.00     0.060 A 
ATOM     31  C   UNL A   1      37.032  29.307  29.358  1.00  0.00     0.016 A 
ATOM     32  C   UNL A   1      38.028  30.000  27.254  1.00  0.00     0.016 A 
ATOM     33  C   UNL A   1      38.043  28.361  29.547  1.00  0.00     0.010 A 
ATOM     34  C   UNL A   1      38.945  28.983  27.374  1.00  0.00     0.010 A 
ATOM     35  C   UNL A   1      38.982  28.185  28.531  1.00  0.00    -0.014 A 
BRANCH  35  36
ATOM     36  C   UNL A   1      40.234  27.451  28.683  1.00  0.00     0.031 A 
ATOM     37  C   UNL A   1      40.413  26.006  28.458  1.00  0.00     0.074 A 
ATOM     38  C   UNL A   1      41.274  28.287  28.890  1.00  0.00     0.049 A 
ATOM     39  N   UNL A   1      41.511  25.379  28.718  1.00  0.00    -0.248 NA
ATOM     40  C   UNL A   1      39.379  25.122  27.944  1.00  0.00     0.031 C 
ATOM     41  C   UNL A   1      42.705  28.072  28.785  1.00  0.00     0.029 A 
ATOM     42  N   UNL A   1      41.159  29.575  29.446  1.00  0.00    -0.354 N 
ATOM     43  C   UNL A   1      41.442  24.121  28.153  1.00  0.00     0.074 A 
ATOM     44  C   UNL A   1      40.064  23.986  27.753  1.00  0.00     0.031 C 
ATOM     45  C   UNL A   1      43.321  29.004  29.537  1.00  0.00     0.029 A 
ATOM     46  C   UNL A   1      42.276  29.711  30.272  1.00  0.00     0.049 A 
ATOM     47  H   UNL A   1      40.446  30.235  29.287  1.00  0.00     0.167 HD
ATOM     48  C   UNL A   1      42.610  23.430  27.986  1.00  0.00     0.037 A 
ATOM     49  C   UNL A   1      42.091  29.665  31.625  1.00  0.00     0.037 A 
ATOM     50  C   UNL A   1      43.686  24.085  28.739  1.00  0.00     0.049 A 
ATOM     51  C   UNL A   1      42.870  28.532  32.243  1.00  0.00     0.074 A 
ATOM     52  C   UNL A   1      44.699  24.954  28.370  1.00  0.00     0.029 A 
ATOM     53  N   UNL A   1      43.587  24.161  30.127  1.00  0.00    -0.354 N 
ATOM     54  N   UNL A   1      43.091  27.386  31.657  1.00  0.00    -0.248 NA
ATOM     55  C   UNL A   1      43.502  28.642  33.550  1.00  0.00     0.031 C 
ATOM     56  C   UNL A   1      45.129  25.640  29.537  1.00  0.00     0.029 A 
ATOM     57  C   UNL A   1      44.406  25.158  30.617  1.00  0.00     0.049 A 
ATOM     58  H   UNL A   1      43.014  23.582  30.681  1.00  0.00     0.167 HD
ATOM     59  C   UNL A   1      43.949  26.654  32.433  1.00  0.00     0.074 A 
ATOM     60  C   UNL A   1      44.156  27.472  33.618  1.00  0.00     0.031 C 
ATOM     61  C   UNL A   1      44.464  25.451  32.041  1.00  0.00     0.037 A 
BRANCH  48  62
ATOM     62  C   UNL A   1      42.861  22.357  26.935  1.00  0.00     0.064 A 
ATOM     63  C   UNL A   1      42.240  21.087  27.043  1.00  0.00     0.173 A 
ATOM     64  C   UNL A   1      43.763  22.460  25.859  1.00  0.00     0.173 A 
ATOM     65  F   UNL A   1      41.285  20.850  27.952  1.00  0.00    -0.203 F 
ATOM     66  C   UNL A   1      42.576  20.000  26.226  1.00  0.00     0.198 A 
ATOM     67  C   UNL A   1      44.120  21.365  25.056  1.00  0.00     0.198 A 
ATOM     68  F   UNL A   1      44.299  23.630  25.502  1.00  0.00    -0.203 F 
ATOM     69  F   UNL A   1      41.967  18.819  26.405  1.00  0.00    -0.200 F 
ATOM     70  C   UNL A   1      43.539  20.131  25.251  1.00  0.00     0.200 A 
ATOM     71  F   UNL A   1      45.036  21.523  24.089  1.00  0.00    -0.200 F 
ATOM     72  F   UNL A   1      43.887  19.085  24.490  1.00  0.00    -0.200 F 
ENDBRANCH  48  62
BRANCH  49  73
ATOM     73  C   UNL A   1      40.753  30.146  32.102  1.00  0.00     0.064 A 
ATOM     74  C   UNL A   1      39.737  29.202  32.382  1.00  0.00     0.173 A 
ATOM     75  C   UNL A   1      40.520  31.461  32.527  1.00  0.00     0.173 A 
ATOM     76  F   UNL A   1      39.886  27.923  32.003  1.00  0.00    -0.203 F 
ATOM     77  C   UNL A   1      38.602  29.534  33.124  1.00  0.00     0.198 A 
ATOM     78  C   UNL A   1      39.369  31.796  33.252  1.00  0.00     0.198 A 
ATOM     79  F   UNL A   1      41.428  32.420  32.302  1.00  0.00    -0.203 F 
ATOM     80  F   UNL A   1      37.710  28.585  33.443  1.00  0.00    -0.200 F 
ATOM     81  C   UNL A   1      38.425  30.831  33.568  1.00  0.00     0.200 A 
ATOM     82  F   UNL A   1      39.201  33.050  33.696  1.00  0.00    -0.200 F 
ATOM     83  F   UNL A   1      37.362  31.148  34.323  1.00  0.00    -0.200 F 
ENDBRANCH  49  73
BRANCH  61  84
ATOM     84  C   UNL A   1      45.186  24.490  32.949  1.00  0.00     0.064 A 
ATOM     85  C   UNL A   1      46.445  24.761  33.511  1.00  0.00     0.173 A 
ATOM     86  C   UNL A   1      44.546  23.317  33.413  1.00  0.00     0.173 A 
ATOM     87  F   UNL A   1      47.091  25.906  33.257  1.00  0.00    -0.203 F 
ATOM     88  C   UNL A   1      47.055  23.883  34.408  1.00  0.00     0.198 A 
ATOM     89  C   UNL A   1      45.131  22.476  34.358  1.00  0.00     0.198 A 
ATOM     90  F   UNL A   1      43.324  22.966  32.989  1.00  0.00    -0.203 F 
ATOM     91  F   UNL A   1      48.280  24.162  34.875  1.00  0.00    -0.200 F 
ATOM     92  C   UNL A   1      46.394  22.748  34.840  1.00  0.00     0.200 A 
ATOM     93  F   UNL A   1      44.452  21.414  34.813  1.00  0.00    -0.200 F 
ATOM     94  F   UNL A   1      46.963  21.935  35.739  1.00  0.00    -0.200 F 
ENDBRANCH  61  84
ENDBRANCH  35  36
ENDBRANCH  28  30
ENDBRANCH  27  28
ENDBRANCH  26  27
ENDBRANCH  25  26
ENDBRANCH   1  25
TORSDOF 17
ENDMDL
MODEL 3
REMARK VINA RESULT:     -13.1      4.088     10.298
REMARK SMILES COc1cc(CC(=O)N[C@@H](CC(=O)OCCOC(=O)c2ccc(-c3c4nc(c(-c5c(F)c(F)c(F)c(F)c5F)c5ccc([nH]5)c(-c5c(F)c(F)c(F)c(F)c5F)c5nc(c(-c6c(F)c(F)c(F)c(F)c6F)c6ccc3[nH]6)C=C5)C=C4)cc2)c2cccs2)ccc1C
REMARK SMILES IDX 14 1 12 2 13 3 11 4 10 5 9 6 7 7 8 8 6 10 5 11 3 12 4 13
REMARK SMILES IDX 90 14 89 15 91 16 88 17 2 18 1 19 83 20 84 21 87 22 85 23
REMARK SMILES IDX 86 24 15 25 16 26 17 27 18 28 19 29 20 30 21 31 82 32 22 33
REMARK SMILES IDX 81 34 23 35 24 36 25 37 75 38 26 39 80 40 74 41 76 42 27 43
REMARK SMILES IDX 79 44 73 45 72 46 28 48 60 49 40 50 59 51 41 52 44 53 58 54
REMARK SMILES IDX 77 55 42 56 43 57 57 59 78 60 45 61 29 62 30 63 38 64 31 65
REMARK SMILES IDX 32 66 36 67 39 68 33 69 34 70 37 71 35 72 61 73 62 74 70 75
REMARK SMILES IDX 63 76 64 77 68 78 71 79 65 80 66 81 69 82 67 83 46 84 47 85
REMARK SMILES IDX 55 86 48 87 49 88 53 89 56 90 50 91 51 92 54 93 52 94
REMARK H PARENT 9 9 76 47 44 58
REMARK Flexibility Score: inf
ROOT
ATOM      1  O   UNL A   1      35.912  23.011  24.346  1.00  0.00    -0.462 OA
ENDROOT
BRANCH   1   2
ATOM      2  C   UNL A   1      34.638  22.658  24.035  1.00  0.00     0.308 C 
ATOM      3  O   UNL A   1      34.043  23.022  23.041  1.00  0.00    -0.252 OA
BRANCH   2   4
ATOM      4  C   UNL A   1      34.071  21.722  25.077  1.00  0.00     0.153 C 
BRANCH   4   5
ATOM      5  C   UNL A   1      32.633  21.297  24.759  1.00  0.00     0.133 C 
BRANCH   5   6
ATOM      6  N   UNL A   1      31.782  21.570  25.901  1.00  0.00    -0.348 N 
ATOM      7  C   UNL A   1      31.302  22.801  26.263  1.00  0.00     0.224 C 
ATOM      8  O   UNL A   1      31.097  23.023  27.458  1.00  0.00    -0.275 OA
ATOM      9  H   UNL A   1      31.525  20.805  26.464  1.00  0.00     0.164 HD
BRANCH   7  10
ATOM     10  C   UNL A   1      30.915  23.806  25.192  1.00  0.00     0.135 C 
BRANCH  10  11
ATOM     11  C   UNL A   1      31.564  25.170  25.235  1.00  0.00    -0.035 A 
ATOM     12  C   UNL A   1      31.403  27.581  24.825  1.00  0.00     0.122 A 
ATOM     13  C   UNL A   1      30.853  26.295  24.775  1.00  0.00     0.051 A 
ATOM     14  C   UNL A   1      32.685  27.763  25.362  1.00  0.00    -0.009 A 
ATOM     15  C   UNL A   1      33.393  26.645  25.833  1.00  0.00     0.007 A 
ATOM     16  C   UNL A   1      33.311  29.126  25.496  1.00  0.00     0.048 C 
ATOM     17  C   UNL A   1      32.841  25.361  25.770  1.00  0.00     0.005 A 
BRANCH  12  18
ATOM     18  O   UNL A   1      30.774  28.696  24.337  1.00  0.00    -0.496 OA
ATOM     19  C   UNL A   1      30.501  28.719  22.941  1.00  0.00     0.278 C 
ENDBRANCH  12  18
ENDBRANCH  10  11
ENDBRANCH   7  10
ENDBRANCH   5   6
BRANCH   5  20
ATOM     20  C   UNL A   1      32.573  19.861  24.277  1.00  0.00     0.027 A 
ATOM     21  C   UNL A   1      32.308  19.457  22.976  1.00  0.00     0.017 A 
ATOM     22  S   UNL A   1      32.913  18.505  25.274  1.00  0.00    -0.147 S 
ATOM     23  C   UNL A   1      32.510  18.063  22.778  1.00  0.00     0.012 A 
ATOM     24  C   UNL A   1      32.877  17.431  23.943  1.00  0.00     0.065 A 
ENDBRANCH   5  20
ENDBRANCH   4   5
ENDBRANCH   2   4
ENDBRANCH   1   2
BRANCH   1  25
ATOM     25  C   UNL A   1      36.315  22.781  25.691  1.00  0.00     0.274 C 
BRANCH  25  26
ATOM     26  C   UNL A   1      37.411  23.773  26.109  1.00  0.00     0.275 C 
BRANCH  26  27
ATOM     27  O   UNL A   1      38.800  23.320  26.184  1.00  0.00    -0.458 OA
BRANCH  27  28
ATOM     28  C   UNL A   1      39.820  23.669  27.009  1.00  0.00     0.338 C 
ATOM     29  O   UNL A   1      40.697  22.880  27.336  1.00  0.00    -0.246 OA
BRANCH  28  30
ATOM     30  C   UNL A   1      39.896  25.061  27.470  1.00  0.00     0.060 A 
ATOM     31  C   UNL A   1      40.298  26.072  26.580  1.00  0.00     0.016 A 
ATOM     32  C   UNL A   1      39.477  25.366  28.755  1.00  0.00     0.016 A 
ATOM     33  C   UNL A   1      40.161  27.415  26.943  1.00  0.00     0.010 A 
ATOM     34  C   UNL A   1      39.217  26.681  29.063  1.00  0.00     0.010 A 
ATOM     35  C   UNL A   1      39.589  27.710  28.180  1.00  0.00    -0.014 A 
BRANCH  35  36
ATOM     36  C   UNL A   1      39.625  29.024  28.813  1.00  0.00     0.031 A 
ATOM     37  C   UNL A   1      38.627  30.092  28.631  1.00  0.00     0.074 A 
ATOM     38  C   UNL A   1      40.604  29.098  29.741  1.00  0.00     0.049 A 
ATOM     39  N   UNL A   1      38.762  31.279  29.118  1.00  0.00    -0.248 NA
ATOM     40  C   UNL A   1      37.397  29.943  27.869  1.00  0.00     0.031 C 
ATOM     41  C   UNL A   1      40.827  30.044  30.818  1.00  0.00     0.029 A 
ATOM     42  N   UNL A   1      41.767  28.304  29.733  1.00  0.00    -0.354 N 
ATOM     43  C   UNL A   1      37.556  31.941  29.002  1.00  0.00     0.074 A 
ATOM     44  C   UNL A   1      36.765  31.092  28.146  1.00  0.00     0.031 C 
ATOM     45  C   UNL A   1      42.134  30.005  31.141  1.00  0.00     0.029 A 
ATOM     46  C   UNL A   1      42.789  29.160  30.147  1.00  0.00     0.049 A 
ATOM     47  H   UNL A   1      41.842  27.354  29.489  1.00  0.00     0.167 HD
ATOM     48  C   UNL A   1      37.362  33.057  29.768  1.00  0.00     0.037 A 
ATOM     49  C   UNL A   1      43.690  29.590  29.214  1.00  0.00     0.037 A 
ATOM     50  C   UNL A   1      38.637  33.485  30.353  1.00  0.00     0.049 A 
ATOM     51  C   UNL A   1      43.679  31.093  29.097  1.00  0.00     0.074 A 
ATOM     52  C   UNL A   1      39.209  33.305  31.601  1.00  0.00     0.029 A 
ATOM     53  N   UNL A   1      39.665  33.890  29.503  1.00  0.00    -0.354 N 
ATOM     54  N   UNL A   1      42.614  31.834  29.247  1.00  0.00    -0.248 NA
ATOM     55  C   UNL A   1      44.890  31.866  28.859  1.00  0.00     0.031 C 
ATOM     56  C   UNL A   1      40.610  33.492  31.468  1.00  0.00     0.029 A 
ATOM     57  C   UNL A   1      40.883  33.824  30.150  1.00  0.00     0.049 A 
ATOM     58  H   UNL A   1      39.540  34.183  28.571  1.00  0.00     0.167 HD
ATOM     59  C   UNL A   1      42.988  33.151  29.224  1.00  0.00     0.074 A 
ATOM     60  C   UNL A   1      44.416  33.118  28.953  1.00  0.00     0.031 C 
ATOM     61  C   UNL A   1      42.118  34.175  29.466  1.00  0.00     0.037 A 
BRANCH  48  62
ATOM     62  C   UNL A   1      36.011  33.589  30.230  1.00  0.00     0.064 A 
ATOM     63  C   UNL A   1      35.140  34.228  29.312  1.00  0.00     0.173 A 
ATOM     64  C   UNL A   1      35.547  33.600  31.559  1.00  0.00     0.173 A 
ATOM     65  F   UNL A   1      35.383  34.223  27.995  1.00  0.00    -0.203 F 
ATOM     66  C   UNL A   1      33.979  34.906  29.707  1.00  0.00     0.198 A 
ATOM     67  C   UNL A   1      34.399  34.301  31.959  1.00  0.00     0.198 A 
ATOM     68  F   UNL A   1      36.149  32.893  32.519  1.00  0.00    -0.203 F 
ATOM     69  F   UNL A   1      33.218  35.513  28.786  1.00  0.00    -0.200 F 
ATOM     70  C   UNL A   1      33.624  34.969  31.036  1.00  0.00     0.200 A 
ATOM     71  F   UNL A   1      34.052  34.321  33.255  1.00  0.00    -0.200 F 
ATOM     72  F   UNL A   1      32.534  35.645  31.421  1.00  0.00    -0.200 F 
ENDBRANCH  48  62
BRANCH  49  73
ATOM     73  C   UNL A   1      43.931  28.644  28.076  1.00  0.00     0.064 A 
ATOM     74  C   UNL A   1      44.615  27.429  28.317  1.00  0.00     0.173 A 
ATOM     75  C   UNL A   1      43.304  28.771  26.829  1.00  0.00     0.173 A 
ATOM     76  F   UNL A   1      45.244  27.235  29.488  1.00  0.00    -0.203 F 
ATOM     77  C   UNL A   1      44.592  26.372  27.406  1.00  0.00     0.198 A 
ATOM     78  C   UNL A   1      43.301  27.716  25.907  1.00  0.00     0.198 A 
ATOM     79  F   UNL A   1      42.635  29.889  26.515  1.00  0.00    -0.203 F 
ATOM     80  F   UNL A   1      45.178  25.207  27.718  1.00  0.00    -0.200 F 
ATOM     81  C   UNL A   1      43.924  26.513  26.204  1.00  0.00     0.200 A 
ATOM     82  F   UNL A   1      42.643  27.846  24.746  1.00  0.00    -0.200 F 
ATOM     83  F   UNL A   1      43.855  25.487  25.344  1.00  0.00    -0.200 F 
ENDBRANCH  49  73
BRANCH  61  84
ATOM     84  C   UNL A   1      42.405  35.628  29.193  1.00  0.00     0.064 A 
ATOM     85  C   UNL A   1      43.271  36.403  29.984  1.00  0.00     0.173 A 
ATOM     86  C   UNL A   1      41.933  36.249  28.013  1.00  0.00     0.173 A 
ATOM     87  F   UNL A   1      43.891  35.886  31.053  1.00  0.00    -0.203 F 
ATOM     88  C   UNL A   1      43.576  37.726  29.662  1.00  0.00     0.198 A 
ATOM     89  C   UNL A   1      42.292  37.548  27.662  1.00  0.00     0.198 A 
ATOM     90  F   UNL A   1      41.135  35.604  27.150  1.00  0.00    -0.203 F 
ATOM     91  F   UNL A   1      44.365  38.439  30.478  1.00  0.00    -0.200 F 
ATOM     92  C   UNL A   1      43.097  38.294  28.497  1.00  0.00     0.200 A 
ATOM     93  F   UNL A   1      41.870  38.063  26.499  1.00  0.00    -0.200 F 
ATOM     94  F   UNL A   1      43.433  39.548  28.167  1.00  0.00    -0.200 F 
ENDBRANCH  61  84
ENDBRANCH  35  36
ENDBRANCH  28  30
ENDBRANCH  27  28
ENDBRANCH  26  27
ENDBRANCH  25  26
ENDBRANCH   1  25
TORSDOF 17
ENDMDL
