MODEL 1
REMARK VINA RESULT:     -12.1      0.000      0.000
REMARK SMILES O=C(OCCOC(=O)c1ccc(-c2c3nc(c(-c4c(F)c(F)c(F)c(F)c4F)c4ccc([nH]4)c(-c4c(F)c(F)c(F)c(F)c4F)c4nc(c(-c5c(F)c(F)c(F)c(F)c5F)c5ccc2[nH]5)C=C4)C=C3)cc1)c1ccc(N/C=C\C(=O)c2ccco2)cc1
REMARK SMILES IDX 4 1 3 2 2 3 1 4 72 5 73 6 87 7 74 8 86 9 75 10 76 11 77 13
REMARK SMILES IDX 78 14 79 15 80 16 81 17 82 18 85 19 83 20 84 21 5 22 6 23
REMARK SMILES IDX 7 24 8 25 9 26 10 27 71 28 11 29 70 30 12 31 13 32 14 33
REMARK SMILES IDX 64 34 15 35 69 36 63 37 65 38 16 39 68 40 62 41 61 42 17 44
REMARK SMILES IDX 49 45 29 46 48 47 30 48 33 49 47 50 66 51 31 52 32 53 46 55
REMARK SMILES IDX 67 56 34 57 18 58 19 59 27 60 20 61 21 62 25 63 28 64 22 65
REMARK SMILES IDX 23 66 26 67 24 68 50 69 51 70 59 71 52 72 53 73 57 74 60 75
REMARK SMILES IDX 54 76 55 77 58 78 56 79 35 80 36 81 44 82 37 83 38 84 42 85
REMARK SMILES IDX 45 86 39 87 40 88 43 89 41 90
REMARK H PARENT 76 12 65 43 33 54
REMARK Flexibility Score: inf
ROOT
ATOM      1  C   UNL A   1      42.581  20.535  26.139  1.00  0.00     0.275 C 
ENDROOT
BRANCH   1   2
ATOM      2  O   UNL A   1      41.190  20.740  25.830  1.00  0.00    -0.458 OA
BRANCH   2   3
ATOM      3  C   UNL A   1      40.242  21.377  26.562  1.00  0.00     0.338 C 
ATOM      4  O   UNL A   1      40.407  21.513  27.772  1.00  0.00    -0.246 OA
BRANCH   3   5
ATOM      5  C   UNL A   1      38.903  21.725  25.999  1.00  0.00     0.060 A 
ATOM      6  C   UNL A   1      38.020  20.848  25.369  1.00  0.00     0.018 A 
ATOM      7  C   UNL A   1      38.495  23.056  26.159  1.00  0.00     0.018 A 
ATOM      8  C   UNL A   1      36.700  21.227  25.097  1.00  0.00     0.027 A 
ATOM      9  C   UNL A   1      37.194  23.444  25.833  1.00  0.00     0.027 A 
ATOM     10  C   UNL A   1      36.255  22.515  25.373  1.00  0.00     0.038 A 
BRANCH  10  11
ATOM     11  N   UNL A   1      34.920  22.916  25.246  1.00  0.00    -0.362 N 
ATOM     12  H   UNL A   1      34.739  23.565  24.528  1.00  0.00     0.166 HD
BRANCH  11  13
ATOM     13  C   UNL A   1      33.829  22.532  25.981  1.00  0.00     0.087 C 
ATOM     14  C   UNL A   1      32.935  21.570  25.706  1.00  0.00     0.074 C 
BRANCH  14  15
ATOM     15  C   UNL A   1      33.014  20.602  24.567  1.00  0.00     0.222 C 
ATOM     16  O   UNL A   1      32.899  21.050  23.428  1.00  0.00    -0.286 OA
BRANCH  15  17
ATOM     17  C   UNL A   1      33.212  19.200  24.872  1.00  0.00     0.173 A 
ATOM     18  C   UNL A   1      34.267  18.336  24.626  1.00  0.00     0.054 A 
ATOM     19  O   UNL A   1      32.151  18.488  25.356  1.00  0.00    -0.461 OA
ATOM     20  C   UNL A   1      33.809  17.033  24.926  1.00  0.00     0.043 A 
ATOM     21  C   UNL A   1      32.523  17.186  25.375  1.00  0.00     0.196 A 
ENDBRANCH  15  17
ENDBRANCH  14  15
ENDBRANCH  11  13
ENDBRANCH  10  11
ENDBRANCH   3   5
ENDBRANCH   2   3
ENDBRANCH   1   2
BRANCH   1  22
ATOM     22  C   UNL A   1      43.549  21.430  25.358  1.00  0.00     0.275 C 
BRANCH  22  23
ATOM     23  O   UNL A   1      42.944  22.634  24.859  1.00  0.00    -0.458 OA
BRANCH  23  24
ATOM     24  C   UNL A   1      43.725  23.749  24.939  1.00  0.00     0.338 C 
ATOM     25  O   UNL A   1      44.703  23.991  24.264  1.00  0.00    -0.246 OA
BRANCH  24  26
ATOM     26  C   UNL A   1      43.155  24.715  25.914  1.00  0.00     0.060 A 
ATOM     27  C   UNL A   1      43.721  25.997  25.984  1.00  0.00     0.016 A 
ATOM     28  C   UNL A   1      42.090  24.391  26.755  1.00  0.00     0.016 A 
ATOM     29  C   UNL A   1      43.227  26.952  26.885  1.00  0.00     0.010 A 
ATOM     30  C   UNL A   1      41.590  25.352  27.647  1.00  0.00     0.010 A 
ATOM     31  C   UNL A   1      42.158  26.640  27.735  1.00  0.00    -0.014 A 
BRANCH  31  32
ATOM     32  C   UNL A   1      41.715  27.563  28.824  1.00  0.00     0.031 A 
ATOM     33  C   UNL A   1      42.389  27.457  30.167  1.00  0.00     0.074 A 
ATOM     34  C   UNL A   1      40.733  28.476  28.675  1.00  0.00     0.049 A 
ATOM     35  N   UNL A   1      42.100  28.053  31.297  1.00  0.00    -0.248 NA
ATOM     36  C   UNL A   1      43.561  26.570  30.237  1.00  0.00     0.031 C 
ATOM     37  C   UNL A   1      40.049  28.813  27.432  1.00  0.00     0.029 A 
ATOM     38  N   UNL A   1      40.113  29.276  29.614  1.00  0.00    -0.354 N 
ATOM     39  C   UNL A   1      43.066  27.634  32.200  1.00  0.00     0.074 A 
ATOM     40  C   UNL A   1      43.898  26.669  31.513  1.00  0.00     0.031 C 
ATOM     41  C   UNL A   1      39.053  29.679  27.695  1.00  0.00     0.029 A 
ATOM     42  C   UNL A   1      39.012  29.944  29.131  1.00  0.00     0.049 A 
ATOM     43  H   UNL A   1      40.430  29.359  30.543  1.00  0.00     0.167 HD
ATOM     44  C   UNL A   1      43.280  28.047  33.472  1.00  0.00     0.037 A 
ATOM     45  C   UNL A   1      38.064  30.655  29.776  1.00  0.00     0.037 A 
ATOM     46  C   UNL A   1      42.469  29.007  34.173  1.00  0.00     0.049 A 
ATOM     47  C   UNL A   1      38.182  30.923  31.248  1.00  0.00     0.074 A 
ATOM     48  C   UNL A   1      42.657  29.532  35.439  1.00  0.00     0.029 A 
ATOM     49  N   UNL A   1      41.304  29.569  33.676  1.00  0.00    -0.354 N 
ATOM     50  N   UNL A   1      39.117  30.550  32.083  1.00  0.00    -0.248 NA
ATOM     51  C   UNL A   1      37.130  31.755  31.855  1.00  0.00     0.031 C 
ATOM     52  C   UNL A   1      41.573  30.364  35.735  1.00  0.00     0.029 A 
ATOM     53  C   UNL A   1      40.741  30.404  34.628  1.00  0.00     0.049 A 
ATOM     54  H   UNL A   1      40.932  29.399  32.781  1.00  0.00     0.167 HD
ATOM     55  C   UNL A   1      38.804  31.155  33.294  1.00  0.00     0.074 A 
ATOM     56  C   UNL A   1      37.570  31.881  33.099  1.00  0.00     0.031 C 
ATOM     57  C   UNL A   1      39.515  31.138  34.446  1.00  0.00     0.037 A 
BRANCH  44  58
ATOM     58  C   UNL A   1      44.454  27.453  34.190  1.00  0.00     0.064 A 
ATOM     59  C   UNL A   1      45.713  28.073  34.173  1.00  0.00     0.173 A 
ATOM     60  C   UNL A   1      44.317  26.255  34.905  1.00  0.00     0.173 A 
ATOM     61  F   UNL A   1      45.896  29.214  33.492  1.00  0.00    -0.203 F 
ATOM     62  C   UNL A   1      46.804  27.491  34.812  1.00  0.00     0.198 A 
ATOM     63  C   UNL A   1      45.403  25.693  35.570  1.00  0.00     0.198 A 
ATOM     64  F   UNL A   1      43.133  25.628  34.957  1.00  0.00    -0.203 F 
ATOM     65  F   UNL A   1      48.011  28.066  34.729  1.00  0.00    -0.200 F 
ATOM     66  C   UNL A   1      46.647  26.305  35.512  1.00  0.00     0.200 A 
ATOM     67  F   UNL A   1      45.248  24.553  36.257  1.00  0.00    -0.200 F 
ATOM     68  F   UNL A   1      47.699  25.744  36.124  1.00  0.00    -0.200 F 
ENDBRANCH  44  58
BRANCH  45  69
ATOM     69  C   UNL A   1      36.860  31.140  29.055  1.00  0.00     0.064 A 
ATOM     70  C   UNL A   1      36.702  32.481  28.688  1.00  0.00     0.173 A 
ATOM     71  C   UNL A   1      35.806  30.257  28.779  1.00  0.00     0.173 A 
ATOM     72  F   UNL A   1      37.651  33.374  28.996  1.00  0.00    -0.203 F 
ATOM     73  C   UNL A   1      35.546  32.911  28.035  1.00  0.00     0.198 A 
ATOM     74  C   UNL A   1      34.667  30.679  28.100  1.00  0.00     0.198 A 
ATOM     75  F   UNL A   1      35.885  28.982  29.183  1.00  0.00    -0.203 F 
ATOM     76  F   UNL A   1      35.404  34.203  27.713  1.00  0.00    -0.200 F 
ATOM     77  C   UNL A   1      34.539  32.007  27.726  1.00  0.00     0.200 A 
ATOM     78  F   UNL A   1      33.696  29.804  27.810  1.00  0.00    -0.200 F 
ATOM     79  F   UNL A   1      33.439  32.419  27.081  1.00  0.00    -0.200 F 
ENDBRANCH  45  69
BRANCH  57  80
ATOM     80  C   UNL A   1      39.037  32.002  35.576  1.00  0.00     0.064 A 
ATOM     81  C   UNL A   1      38.220  31.509  36.603  1.00  0.00     0.173 A 
ATOM     82  C   UNL A   1      39.450  33.341  35.650  1.00  0.00     0.173 A 
ATOM     83  F   UNL A   1      37.778  30.243  36.565  1.00  0.00    -0.203 F 
ATOM     84  C   UNL A   1      37.828  32.330  37.657  1.00  0.00     0.198 A 
ATOM     85  C   UNL A   1      39.080  34.150  36.720  1.00  0.00     0.198 A 
ATOM     86  F   UNL A   1      40.229  33.863  34.691  1.00  0.00    -0.203 F 
ATOM     87  F   UNL A   1      37.016  31.850  38.611  1.00  0.00    -0.200 F 
ATOM     88  C   UNL A   1      38.266  33.645  37.722  1.00  0.00     0.200 A 
ATOM     89  F   UNL A   1      39.513  35.417  36.783  1.00  0.00    -0.200 F 
ATOM     90  F   UNL A   1      37.898  34.427  38.745  1.00  0.00    -0.200 F 
ENDBRANCH  57  80
ENDBRANCH  31  32
ENDBRANCH  24  26
ENDBRANCH  23  24
ENDBRANCH  22  23
ENDBRANCH   1  22
TORSDOF 15
ENDMDL
MODEL 2
REMARK VINA RESULT:     -11.9      0.497      1.272
REMARK SMILES O=C(OCCOC(=O)c1ccc(-c2c3nc(c(-c4c(F)c(F)c(F)c(F)c4F)c4ccc([nH]4)c(-c4c(F)c(F)c(F)c(F)c4F)c4nc(c(-c5c(F)c(F)c(F)c(F)c5F)c5ccc2[nH]5)C=C4)C=C3)cc1)c1ccc(N/C=C\C(=O)c2ccco2)cc1
REMARK SMILES IDX 4 1 3 2 2 3 1 4 72 5 73 6 87 7 74 8 86 9 75 10 76 11 77 13
REMARK SMILES IDX 78 14 79 15 80 16 81 17 82 18 85 19 83 20 84 21 5 22 6 23
REMARK SMILES IDX 7 24 8 25 9 26 10 27 71 28 11 29 70 30 12 31 13 32 14 33
REMARK SMILES IDX 64 34 15 35 69 36 63 37 65 38 16 39 68 40 62 41 61 42 17 44
REMARK SMILES IDX 49 45 29 46 48 47 30 48 33 49 47 50 66 51 31 52 32 53 46 55
REMARK SMILES IDX 67 56 34 57 18 58 19 59 27 60 20 61 21 62 25 63 28 64 22 65
REMARK SMILES IDX 23 66 26 67 24 68 50 69 51 70 59 71 52 72 53 73 57 74 60 75
REMARK SMILES IDX 54 76 55 77 58 78 56 79 35 80 36 81 44 82 37 83 38 84 42 85
REMARK SMILES IDX 45 86 39 87 40 88 43 89 41 90
REMARK H PARENT 76 12 65 43 33 54
REMARK Flexibility Score: inf
ROOT
ATOM      1  C   UNL A   1      42.715  20.683  26.049  1.00  0.00     0.275 C 
ENDROOT
BRANCH   1   2
ATOM      2  O   UNL A   1      41.327  20.940  25.770  1.00  0.00    -0.458 OA
BRANCH   2   3
ATOM      3  C   UNL A   1      40.353  21.361  26.616  1.00  0.00     0.338 C 
ATOM      4  O   UNL A   1      40.422  21.066  27.807  1.00  0.00    -0.246 OA
BRANCH   3   5
ATOM      5  C   UNL A   1      39.086  21.980  26.126  1.00  0.00     0.060 A 
ATOM      6  C   UNL A   1      38.101  21.350  25.366  1.00  0.00     0.018 A 
ATOM      7  C   UNL A   1      38.864  23.312  26.503  1.00  0.00     0.018 A 
ATOM      8  C   UNL A   1      36.851  21.950  25.167  1.00  0.00     0.027 A 
ATOM      9  C   UNL A   1      37.636  23.926  26.252  1.00  0.00     0.027 A 
ATOM     10  C   UNL A   1      36.585  23.225  25.653  1.00  0.00     0.038 A 
BRANCH  10  11
ATOM     11  N   UNL A   1      35.321  23.824  25.601  1.00  0.00    -0.362 N 
ATOM     12  H   UNL A   1      35.267  24.655  25.075  1.00  0.00     0.166 HD
BRANCH  11  13
ATOM     13  C   UNL A   1      34.147  23.416  26.178  1.00  0.00     0.087 C 
ATOM     14  C   UNL A   1      33.178  22.655  25.648  1.00  0.00     0.074 C 
BRANCH  14  15
ATOM     15  C   UNL A   1      33.233  21.967  24.321  1.00  0.00     0.222 C 
ATOM     16  O   UNL A   1      33.291  22.671  23.315  1.00  0.00    -0.286 OA
BRANCH  15  17
ATOM     17  C   UNL A   1      33.206  20.519  24.297  1.00  0.00     0.173 A 
ATOM     18  C   UNL A   1      34.096  19.565  24.766  1.00  0.00     0.054 A 
ATOM     19  O   UNL A   1      32.232  19.903  23.563  1.00  0.00    -0.461 OA
ATOM     20  C   UNL A   1      33.671  18.320  24.251  1.00  0.00     0.043 A 
ATOM     21  C   UNL A   1      32.530  18.582  23.540  1.00  0.00     0.196 A 
ENDBRANCH  15  17
ENDBRANCH  14  15
ENDBRANCH  11  13
ENDBRANCH  10  11
ENDBRANCH   3   5
ENDBRANCH   2   3
ENDBRANCH   1   2
BRANCH   1  22
ATOM     22  C   UNL A   1      43.699  21.558  25.264  1.00  0.00     0.275 C 
BRANCH  22  23
ATOM     23  O   UNL A   1      43.115  22.770  24.759  1.00  0.00    -0.458 OA
BRANCH  23  24
ATOM     24  C   UNL A   1      43.888  23.884  24.898  1.00  0.00     0.338 C 
ATOM     25  O   UNL A   1      44.882  24.154  24.257  1.00  0.00    -0.246 OA
BRANCH  24  26
ATOM     26  C   UNL A   1      43.289  24.814  25.892  1.00  0.00     0.060 A 
ATOM     27  C   UNL A   1      43.729  26.146  25.902  1.00  0.00     0.016 A 
ATOM     28  C   UNL A   1      42.315  24.408  26.805  1.00  0.00     0.016 A 
ATOM     29  C   UNL A   1      43.202  27.069  26.818  1.00  0.00     0.010 A 
ATOM     30  C   UNL A   1      41.780  25.337  27.711  1.00  0.00     0.010 A 
ATOM     31  C   UNL A   1      42.224  26.676  27.740  1.00  0.00    -0.014 A 
BRANCH  31  32
ATOM     32  C   UNL A   1      41.762  27.577  28.839  1.00  0.00     0.031 A 
ATOM     33  C   UNL A   1      42.430  27.459  30.185  1.00  0.00     0.074 A 
ATOM     34  C   UNL A   1      40.769  28.478  28.697  1.00  0.00     0.049 A 
ATOM     35  N   UNL A   1      42.125  28.035  31.322  1.00  0.00    -0.248 NA
ATOM     36  C   UNL A   1      43.612  26.587  30.250  1.00  0.00     0.031 C 
ATOM     37  C   UNL A   1      40.089  28.825  27.455  1.00  0.00     0.029 A 
ATOM     38  N   UNL A   1      40.133  29.256  29.644  1.00  0.00    -0.354 N 
ATOM     39  C   UNL A   1      43.091  27.615  32.225  1.00  0.00     0.074 A 
ATOM     40  C   UNL A   1      43.940  26.671  31.529  1.00  0.00     0.031 C 
ATOM     41  C   UNL A   1      39.080  29.674  27.725  1.00  0.00     0.029 A 
ATOM     42  C   UNL A   1      39.027  29.917  29.164  1.00  0.00     0.049 A 
ATOM     43  H   UNL A   1      40.443  29.330  30.576  1.00  0.00     0.167 HD
ATOM     44  C   UNL A   1      43.291  28.013  33.504  1.00  0.00     0.037 A 
ATOM     45  C   UNL A   1      38.065  30.606  29.813  1.00  0.00     0.037 A 
ATOM     46  C   UNL A   1      42.464  28.951  34.213  1.00  0.00     0.049 A 
ATOM     47  C   UNL A   1      38.171  30.853  31.290  1.00  0.00     0.074 A 
ATOM     48  C   UNL A   1      42.637  29.460  35.489  1.00  0.00     0.029 A 
ATOM     49  N   UNL A   1      41.295  29.505  33.718  1.00  0.00    -0.354 N 
ATOM     50  N   UNL A   1      39.105  30.481  32.125  1.00  0.00    -0.248 NA
ATOM     51  C   UNL A   1      37.104  31.663  31.901  1.00  0.00     0.031 C 
ATOM     52  C   UNL A   1      41.540  30.274  35.790  1.00  0.00     0.029 A 
ATOM     53  C   UNL A   1      40.715  30.319  34.678  1.00  0.00     0.049 A 
ATOM     54  H   UNL A   1      40.931  29.344  32.817  1.00  0.00     0.167 HD
ATOM     55  C   UNL A   1      38.777  31.064  33.343  1.00  0.00     0.074 A 
ATOM     56  C   UNL A   1      37.533  31.777  33.150  1.00  0.00     0.031 C 
ATOM     57  C   UNL A   1      39.480  31.039  34.499  1.00  0.00     0.037 A 
BRANCH  44  58
ATOM     58  C   UNL A   1      44.469  27.423  34.221  1.00  0.00     0.064 A 
ATOM     59  C   UNL A   1      45.698  28.097  34.286  1.00  0.00     0.173 A 
ATOM     60  C   UNL A   1      44.364  26.176  34.852  1.00  0.00     0.173 A 
ATOM     61  F   UNL A   1      45.850  29.287  33.687  1.00  0.00    -0.203 F 
ATOM     62  C   UNL A   1      46.794  27.521  34.922  1.00  0.00     0.198 A 
ATOM     63  C   UNL A   1      45.454  25.619  35.515  1.00  0.00     0.198 A 
ATOM     64  F   UNL A   1      43.209  25.496  34.823  1.00  0.00    -0.203 F 
ATOM     65  F   UNL A   1      47.976  28.152  34.917  1.00  0.00    -0.200 F 
ATOM     66  C   UNL A   1      46.670  26.286  35.539  1.00  0.00     0.200 A 
ATOM     67  F   UNL A   1      45.330  24.430  36.121  1.00  0.00    -0.200 F 
ATOM     68  F   UNL A   1      47.727  25.731  36.147  1.00  0.00    -0.200 F 
ENDBRANCH  44  58
BRANCH  45  69
ATOM     69  C   UNL A   1      36.859  31.086  29.091  1.00  0.00     0.064 A 
ATOM     70  C   UNL A   1      35.829  30.222  28.707  1.00  0.00     0.173 A 
ATOM     71  C   UNL A   1      36.758  32.433  28.716  1.00  0.00     0.173 A 
ATOM     72  F   UNL A   1      35.917  28.914  28.980  1.00  0.00    -0.203 F 
ATOM     73  C   UNL A   1      34.721  30.700  28.006  1.00  0.00     0.198 A 
ATOM     74  C   UNL A   1      35.639  32.916  28.044  1.00  0.00     0.198 A 
ATOM     75  F   UNL A   1      37.759  33.278  28.998  1.00  0.00    -0.203 F 
ATOM     76  F   UNL A   1      33.756  29.852  27.625  1.00  0.00    -0.200 F 
ATOM     77  C   UNL A   1      34.619  32.048  27.691  1.00  0.00     0.200 A 
ATOM     78  F   UNL A   1      35.549  34.217  27.738  1.00  0.00    -0.200 F 
ATOM     79  F   UNL A   1      33.544  32.507  27.035  1.00  0.00    -0.200 F 
ENDBRANCH  45  69
BRANCH  57  80
ATOM     80  C   UNL A   1      38.984  31.880  35.638  1.00  0.00     0.064 A 
ATOM     81  C   UNL A   1      38.188  31.356  36.666  1.00  0.00     0.173 A 
ATOM     82  C   UNL A   1      39.357  33.231  35.720  1.00  0.00     0.173 A 
ATOM     83  F   UNL A   1      37.784  30.077  36.622  1.00  0.00    -0.203 F 
ATOM     84  C   UNL A   1      37.778  32.156  37.729  1.00  0.00     0.198 A 
ATOM     85  C   UNL A   1      38.969  34.021  36.798  1.00  0.00     0.198 A 
ATOM     86  F   UNL A   1      40.114  33.783  34.760  1.00  0.00    -0.203 F 
ATOM     87  F   UNL A   1      36.988  31.645  38.684  1.00  0.00    -0.200 F 
ATOM     88  C   UNL A   1      38.177  33.483  37.800  1.00  0.00     0.200 A 
ATOM     89  F   UNL A   1      39.365  35.299  36.868  1.00  0.00    -0.200 F 
ATOM     90  F   UNL A   1      37.793  34.247  38.832  1.00  0.00    -0.200 F 
ENDBRANCH  57  80
ENDBRANCH  31  32
ENDBRANCH  24  26
ENDBRANCH  23  24
ENDBRANCH  22  23
ENDBRANCH   1  22
TORSDOF 15
ENDMDL
MODEL 3
REMARK VINA RESULT:     -11.8      1.565      2.909
REMARK SMILES O=C(OCCOC(=O)c1ccc(-c2c3nc(c(-c4c(F)c(F)c(F)c(F)c4F)c4ccc([nH]4)c(-c4c(F)c(F)c(F)c(F)c4F)c4nc(c(-c5c(F)c(F)c(F)c(F)c5F)c5ccc2[nH]5)C=C4)C=C3)cc1)c1ccc(N/C=C\C(=O)c2ccco2)cc1
REMARK SMILES IDX 4 1 3 2 2 3 1 4 72 5 73 6 87 7 74 8 86 9 75 10 76 11 77 13
REMARK SMILES IDX 78 14 79 15 80 16 81 17 82 18 85 19 83 20 84 21 5 22 6 23
REMARK SMILES IDX 7 24 8 25 9 26 10 27 71 28 11 29 70 30 12 31 13 32 14 33
REMARK SMILES IDX 64 34 15 35 69 36 63 37 65 38 16 39 68 40 62 41 61 42 17 44
REMARK SMILES IDX 49 45 29 46 48 47 30 48 33 49 47 50 66 51 31 52 32 53 46 55
REMARK SMILES IDX 67 56 34 57 18 58 19 59 27 60 20 61 21 62 25 63 28 64 22 65
REMARK SMILES IDX 23 66 26 67 24 68 50 69 51 70 59 71 52 72 53 73 57 74 60 75
REMARK SMILES IDX 54 76 55 77 58 78 56 79 35 80 36 81 44 82 37 83 38 84 42 85
REMARK SMILES IDX 45 86 39 87 40 88 43 89 41 90
REMARK H PARENT 76 12 65 43 33 54
REMARK Flexibility Score: inf
ROOT
ATOM      1  C   UNL A   1      42.643  20.351  26.206  1.00  0.00     0.275 C 
ENDROOT
BRANCH   1   2
ATOM      2  O   UNL A   1      41.262  20.606  25.890  1.00  0.00    -0.458 OA
BRANCH   2   3
ATOM      3  C   UNL A   1      40.327  21.255  26.628  1.00  0.00     0.338 C 
ATOM      4  O   UNL A   1      40.403  21.228  27.854  1.00  0.00    -0.246 OA
BRANCH   3   5
ATOM      5  C   UNL A   1      39.084  21.818  26.021  1.00  0.00     0.060 A 
ATOM      6  C   UNL A   1      38.175  21.129  25.217  1.00  0.00     0.018 A 
ATOM      7  C   UNL A   1      38.800  23.156  26.326  1.00  0.00     0.018 A 
ATOM      8  C   UNL A   1      36.928  21.684  24.903  1.00  0.00     0.027 A 
ATOM      9  C   UNL A   1      37.577  23.723  25.961  1.00  0.00     0.027 A 
ATOM     10  C   UNL A   1      36.593  22.969  25.315  1.00  0.00     0.038 A 
BRANCH  10  11
ATOM     11  N   UNL A   1      35.321  23.528  25.146  1.00  0.00    -0.362 N 
ATOM     12  H   UNL A   1      35.024  23.632  24.213  1.00  0.00     0.166 HD
BRANCH  11  13
ATOM     13  C   UNL A   1      34.429  23.950  26.096  1.00  0.00     0.087 C 
ATOM     14  C   UNL A   1      33.563  24.972  26.032  1.00  0.00     0.074 C 
BRANCH  14  15
ATOM     15  C   UNL A   1      33.292  25.814  24.825  1.00  0.00     0.222 C 
ATOM     16  O   UNL A   1      33.448  25.297  23.721  1.00  0.00    -0.286 OA
BRANCH  15  17
ATOM     17  C   UNL A   1      32.873  27.186  25.027  1.00  0.00     0.173 A 
ATOM     18  C   UNL A   1      31.753  27.736  25.632  1.00  0.00     0.054 A 
ATOM     19  O   UNL A   1      33.580  28.176  24.405  1.00  0.00    -0.461 OA
ATOM     20  C   UNL A   1      31.754  29.114  25.319  1.00  0.00     0.043 A 
ATOM     21  C   UNL A   1      32.891  29.328  24.584  1.00  0.00     0.196 A 
ENDBRANCH  15  17
ENDBRANCH  14  15
ENDBRANCH  11  13
ENDBRANCH  10  11
ENDBRANCH   3   5
ENDBRANCH   2   3
ENDBRANCH   1   2
BRANCH   1  22
ATOM     22  C   UNL A   1      43.648  21.178  25.396  1.00  0.00     0.275 C 
BRANCH  22  23
ATOM     23  O   UNL A   1      43.084  22.369  24.823  1.00  0.00    -0.458 OA
BRANCH  23  24
ATOM     24  C   UNL A   1      43.874  23.477  24.903  1.00  0.00     0.338 C 
ATOM     25  O   UNL A   1      44.860  23.708  24.234  1.00  0.00    -0.246 OA
BRANCH  24  26
ATOM     26  C   UNL A   1      43.305  24.454  25.869  1.00  0.00     0.060 A 
ATOM     27  C   UNL A   1      43.811  25.763  25.863  1.00  0.00     0.016 A 
ATOM     28  C   UNL A   1      42.297  24.114  26.772  1.00  0.00     0.016 A 
ATOM     29  C   UNL A   1      43.314  26.728  26.752  1.00  0.00     0.010 A 
ATOM     30  C   UNL A   1      41.794  25.085  27.651  1.00  0.00     0.010 A 
ATOM     31  C   UNL A   1      42.303  26.401  27.663  1.00  0.00    -0.014 A 
BRANCH  31  32
ATOM     32  C   UNL A   1      41.868  27.344  28.738  1.00  0.00     0.031 A 
ATOM     33  C   UNL A   1      42.571  27.282  30.069  1.00  0.00     0.074 A 
ATOM     34  C   UNL A   1      40.868  28.237  28.587  1.00  0.00     0.049 A 
ATOM     35  N   UNL A   1      42.295  27.903  31.190  1.00  0.00    -0.248 NA
ATOM     36  C   UNL A   1      43.758  26.416  30.137  1.00  0.00     0.031 C 
ATOM     37  C   UNL A   1      40.153  28.532  27.350  1.00  0.00     0.029 A 
ATOM     38  N   UNL A   1      40.255  29.051  29.519  1.00  0.00    -0.354 N 
ATOM     39  C   UNL A   1      43.286  27.522  32.083  1.00  0.00     0.074 A 
ATOM     40  C   UNL A   1      44.119  26.552  31.403  1.00  0.00     0.031 C 
ATOM     41  C   UNL A   1      39.149  29.389  27.613  1.00  0.00     0.029 A 
ATOM     42  C   UNL A   1      39.134  29.690  29.042  1.00  0.00     0.049 A 
ATOM     43  H   UNL A   1      40.589  29.163  30.438  1.00  0.00     0.167 HD
ATOM     44  C   UNL A   1      43.519  27.970  33.339  1.00  0.00     0.037 A 
ATOM     45  C   UNL A   1      38.187  30.402  29.688  1.00  0.00     0.037 A 
ATOM     46  C   UNL A   1      42.708  28.935  34.032  1.00  0.00     0.049 A 
ATOM     47  C   UNL A   1      38.332  30.709  31.151  1.00  0.00     0.074 A 
ATOM     48  C   UNL A   1      42.914  29.495  35.281  1.00  0.00     0.029 A 
ATOM     49  N   UNL A   1      41.524  29.466  33.546  1.00  0.00    -0.354 N 
ATOM     50  N   UNL A   1      39.289  30.372  31.975  1.00  0.00    -0.248 NA
ATOM     51  C   UNL A   1      37.279  31.540  31.758  1.00  0.00     0.031 C 
ATOM     52  C   UNL A   1      41.822  30.317  35.578  1.00  0.00     0.029 A 
ATOM     53  C   UNL A   1      40.968  30.316  34.488  1.00  0.00     0.049 A 
ATOM     54  H   UNL A   1      41.137  29.268  32.663  1.00  0.00     0.167 HD
ATOM     55  C   UNL A   1      38.992  31.002  33.177  1.00  0.00     0.074 A 
ATOM     56  C   UNL A   1      37.742  31.704  32.989  1.00  0.00     0.031 C 
ATOM     57  C   UNL A   1      39.726  31.026  34.314  1.00  0.00     0.037 A 
BRANCH  44  58
ATOM     58  C   UNL A   1      44.717  27.413  34.047  1.00  0.00     0.064 A 
ATOM     59  C   UNL A   1      45.975  28.029  33.954  1.00  0.00     0.173 A 
ATOM     60  C   UNL A   1      44.605  26.255  34.829  1.00  0.00     0.173 A 
ATOM     61  F   UNL A   1      46.134  29.132  33.207  1.00  0.00    -0.203 F 
ATOM     62  C   UNL A   1      47.087  27.479  34.585  1.00  0.00     0.198 A 
ATOM     63  C   UNL A   1      45.713  25.728  35.485  1.00  0.00     0.198 A 
ATOM     64  F   UNL A   1      43.423  25.634  34.955  1.00  0.00    -0.203 F 
ATOM     65  F   UNL A   1      48.291  28.047  34.430  1.00  0.00    -0.200 F 
ATOM     66  C   UNL A   1      46.955  26.333  35.352  1.00  0.00     0.200 A 
ATOM     67  F   UNL A   1      45.582  24.626  36.237  1.00  0.00    -0.200 F 
ATOM     68  F   UNL A   1      48.027  25.803  35.957  1.00  0.00    -0.200 F 
ENDBRANCH  44  58
BRANCH  45  69
ATOM     69  C   UNL A   1      36.961  30.850  28.981  1.00  0.00     0.064 A 
ATOM     70  C   UNL A   1      36.747  32.189  28.638  1.00  0.00     0.173 A 
ATOM     71  C   UNL A   1      35.943  29.929  28.694  1.00  0.00     0.173 A 
ATOM     72  F   UNL A   1      37.660  33.115  28.958  1.00  0.00    -0.203 F 
ATOM     73  C   UNL A   1      35.571  32.582  27.997  1.00  0.00     0.198 A 
ATOM     74  C   UNL A   1      34.784  30.316  28.027  1.00  0.00     0.198 A 
ATOM     75  F   UNL A   1      36.076  28.651  29.074  1.00  0.00    -0.203 F 
ATOM     76  F   UNL A   1      35.374  33.873  27.699  1.00  0.00    -0.200 F 
ATOM     77  C   UNL A   1      34.600  31.644  27.676  1.00  0.00     0.200 A 
ATOM     78  F   UNL A   1      33.849  29.407  27.725  1.00  0.00    -0.200 F 
ATOM     79  F   UNL A   1      33.482  32.022  27.043  1.00  0.00    -0.200 F 
ENDBRANCH  45  69
BRANCH  57  80
ATOM     80  C   UNL A   1      39.258  31.911  35.431  1.00  0.00     0.064 A 
ATOM     81  C   UNL A   1      39.564  33.277  35.483  1.00  0.00     0.173 A 
ATOM     82  C   UNL A   1      38.443  31.381  36.444  1.00  0.00     0.173 A 
ATOM     83  F   UNL A   1      40.359  33.827  34.552  1.00  0.00    -0.203 F 
ATOM     84  C   UNL A   1      39.080  34.078  36.514  1.00  0.00     0.198 A 
ATOM     85  C   UNL A   1      37.937  32.190  37.458  1.00  0.00     0.198 A 
ATOM     86  F   UNL A   1      38.124  30.078  36.444  1.00  0.00    -0.203 F 
ATOM     87  F   UNL A   1      39.414  35.376  36.566  1.00  0.00    -0.200 F 
ATOM     88  C   UNL A   1      38.259  33.538  37.494  1.00  0.00     0.200 A 
ATOM     89  F   UNL A   1      37.137  31.665  38.396  1.00  0.00    -0.200 F 
ATOM     90  F   UNL A   1      37.782  34.314  38.477  1.00  0.00    -0.200 F 
ENDBRANCH  57  80
ENDBRANCH  31  32
ENDBRANCH  24  26
ENDBRANCH  23  24
ENDBRANCH  22  23
ENDBRANCH   1  22
TORSDOF 15
ENDMDL
