MODEL 1
REMARK VINA RESULT:     -14.7      0.000      0.000
REMARK SMILES O=C(OCCOC(=O)[C@H]1CC=CC[C@H]1C(=O)Nc1ccc(S(=O)(=O)N2CCc3ccccc32)cc1)c1ccc(-c2c3nc(c(-c4c(F)c(F)c(F)c(F)c4F)c4ccc([nH]4)c(-c4c(F)c(F)c(F)c(F)c4F)c4nc(c(-c5c(F)c(F)c(F)c(F)c5F)c5ccc2[nH]5)C=C4)C=C3)cc1
REMARK SMILES IDX 5 1 4 2 3 3 2 4 1 5 36 6 37 7 98 8 38 9 97 10 39 11 40 12
REMARK SMILES IDX 41 13 91 14 42 15 96 16 90 17 92 18 43 19 95 20 89 21 88 22
REMARK SMILES IDX 44 24 76 25 56 26 75 27 57 28 60 29 74 30 93 31 58 32 59 33
REMARK SMILES IDX 73 35 94 36 61 37 45 38 46 39 54 40 47 41 48 42 52 43 55 44
REMARK SMILES IDX 49 45 50 46 53 47 51 48 77 49 78 50 86 51 79 52 80 53 84 54
REMARK SMILES IDX 87 55 81 56 82 57 85 58 83 59 62 60 63 61 71 62 64 63 65 64
REMARK SMILES IDX 69 65 72 66 66 67 67 68 70 69 68 70 6 71 7 72 8 73 9 74
REMARK SMILES IDX 10 75 14 76 11 77 13 78 12 79 15 80 16 81 17 82 18 84 19 85
REMARK SMILES IDX 35 86 20 87 34 88 21 89 22 90 23 91 24 92 25 93 26 94 33 95
REMARK SMILES IDX 27 96 28 97 32 98 29 99 31 100 30 101
REMARK H PARENT 92 23 60 34 17 83
REMARK Flexibility Score: inf
ROOT
ATOM      1  C   UNL A   1      37.520  22.563  25.739  1.00  0.00     0.274 C 
ENDROOT
BRANCH   1   2
ATOM      2  C   UNL A   1      38.628  21.420  25.441  1.00  0.00     0.275 C 
BRANCH   2   3
ATOM      3  O   UNL A   1      39.931  21.383  26.167  1.00  0.00    -0.458 OA
BRANCH   3   4
ATOM      4  C   UNL A   1      41.024  22.249  26.087  1.00  0.00     0.338 C 
ATOM      5  O   UNL A   1      42.045  21.949  25.489  1.00  0.00    -0.246 OA
BRANCH   4   6
ATOM      6  C   UNL A   1      40.994  23.470  26.961  1.00  0.00     0.060 A 
ATOM      7  C   UNL A   1      42.141  24.501  26.400  1.00  0.00     0.016 A 
ATOM      8  C   UNL A   1      39.617  24.084  27.807  1.00  0.00     0.016 A 
ATOM      9  C   UNL A   1      42.085  26.242  26.615  1.00  0.00     0.010 A 
ATOM     10  C   UNL A   1      39.380  25.787  28.180  1.00  0.00     0.010 A 
ATOM     11  C   UNL A   1      40.594  27.021  27.629  1.00  0.00    -0.014 A 
BRANCH  11  12
ATOM     12  C   UNL A   1      40.435  28.087  28.824  1.00  0.00     0.031 A 
ATOM     13  C   UNL A   1      39.316  29.206  28.845  1.00  0.00     0.074 A 
ATOM     14  C   UNL A   1      41.311  28.105  29.838  1.00  0.00     0.049 A 
ATOM     15  N   UNL A   1      38.870  29.929  29.859  1.00  0.00    -0.248 NA
ATOM     16  C   UNL A   1      38.588  29.549  27.608  1.00  0.00     0.031 C 
ATOM     17  C   UNL A   1      42.488  27.266  29.917  1.00  0.00     0.029 A 
ATOM     18  N   UNL A   1      41.297  28.788  31.027  1.00  0.00    -0.354 N 
ATOM     19  C   UNL A   1      37.779  30.670  29.377  1.00  0.00     0.074 A 
ATOM     20  C   UNL A   1      37.589  30.309  28.006  1.00  0.00     0.031 C 
ATOM     21  C   UNL A   1      42.955  27.298  31.171  1.00  0.00     0.029 A 
ATOM     22  C   UNL A   1      42.247  28.341  31.911  1.00  0.00     0.049 A 
ATOM     23  H   UNL A   1      40.670  29.522  31.225  1.00  0.00     0.167 HD
ATOM     24  C   UNL A   1      37.041  31.656  29.944  1.00  0.00     0.037 A 
ATOM     25  C   UNL A   1      42.560  28.761  33.151  1.00  0.00     0.037 A 
ATOM     26  C   UNL A   1      37.386  32.271  31.187  1.00  0.00     0.049 A 
ATOM     27  C   UNL A   1      41.824  29.945  33.717  1.00  0.00     0.074 A 
ATOM     28  C   UNL A   1      36.830  33.384  31.789  1.00  0.00     0.029 A 
ATOM     29  N   UNL A   1      38.455  31.871  31.970  1.00  0.00    -0.354 N 
ATOM     30  N   UNL A   1      40.780  30.583  33.242  1.00  0.00    -0.248 NA
ATOM     31  C   UNL A   1      42.358  30.511  34.962  1.00  0.00     0.031 C 
ATOM     32  C   UNL A   1      37.624  33.713  32.891  1.00  0.00     0.029 A 
ATOM     33  C   UNL A   1      38.612  32.748  33.025  1.00  0.00     0.049 A 
ATOM     34  H   UNL A   1      39.017  31.082  31.801  1.00  0.00     0.167 HD
ATOM     35  C   UNL A   1      40.549  31.639  34.113  1.00  0.00     0.074 A 
ATOM     36  C   UNL A   1      41.534  31.529  35.169  1.00  0.00     0.031 C 
ATOM     37  C   UNL A   1      39.621  32.626  34.041  1.00  0.00     0.037 A 
BRANCH  24  38
ATOM     38  C   UNL A   1      35.904  32.240  29.135  1.00  0.00     0.064 A 
ATOM     39  C   UNL A   1      35.877  33.596  28.771  1.00  0.00     0.173 A 
ATOM     40  C   UNL A   1      34.812  31.443  28.751  1.00  0.00     0.173 A 
ATOM     41  F   UNL A   1      36.875  34.413  29.138  1.00  0.00    -0.203 F 
ATOM     42  C   UNL A   1      34.798  34.132  28.065  1.00  0.00     0.198 A 
ATOM     43  C   UNL A   1      33.746  31.977  28.030  1.00  0.00     0.198 A 
ATOM     44  F   UNL A   1      34.770  30.147  29.091  1.00  0.00    -0.203 F 
ATOM     45  F   UNL A   1      34.774  35.438  27.767  1.00  0.00    -0.200 F 
ATOM     46  C   UNL A   1      33.736  33.322  27.692  1.00  0.00     0.200 A 
ATOM     47  F   UNL A   1      32.719  31.192  27.675  1.00  0.00    -0.200 F 
ATOM     48  F   UNL A   1      32.696  33.839  27.022  1.00  0.00    -0.200 F 
ENDBRANCH  24  38
BRANCH  25  49
ATOM     49  C   UNL A   1      43.703  28.131  33.869  1.00  0.00     0.064 A 
ATOM     50  C   UNL A   1      45.008  28.631  33.769  1.00  0.00     0.173 A 
ATOM     51  C   UNL A   1      43.499  27.023  34.711  1.00  0.00     0.173 A 
ATOM     52  F   UNL A   1      45.274  29.655  32.945  1.00  0.00    -0.203 F 
ATOM     53  C   UNL A   1      46.054  28.060  34.495  1.00  0.00     0.198 A 
ATOM     54  C   UNL A   1      44.530  26.494  35.479  1.00  0.00     0.198 A 
ATOM     55  F   UNL A   1      42.277  26.481  34.825  1.00  0.00    -0.203 F 
ATOM     56  F   UNL A   1      47.302  28.526  34.348  1.00  0.00    -0.200 F 
ATOM     57  C   UNL A   1      45.809  27.008  35.366  1.00  0.00     0.200 A 
ATOM     58  F   UNL A   1      44.276  25.495  36.335  1.00  0.00    -0.200 F 
ATOM     59  F   UNL A   1      46.808  26.483  36.089  1.00  0.00    -0.200 F 
ENDBRANCH  25  49
BRANCH  37  60
ATOM     60  C   UNL A   1      39.625  33.655  35.129  1.00  0.00     0.064 A 
ATOM     61  C   UNL A   1      40.289  34.881  34.978  1.00  0.00     0.173 A 
ATOM     62  C   UNL A   1      38.912  33.429  36.314  1.00  0.00     0.173 A 
ATOM     63  F   UNL A   1      40.986  35.140  33.862  1.00  0.00    -0.203 F 
ATOM     64  C   UNL A   1      40.269  35.829  35.996  1.00  0.00     0.198 A 
ATOM     65  C   UNL A   1      38.865  34.393  37.314  1.00  0.00     0.198 A 
ATOM     66  F   UNL A   1      38.244  32.279  36.494  1.00  0.00    -0.203 F 
ATOM     67  F   UNL A   1      40.956  36.972  35.857  1.00  0.00    -0.200 F 
ATOM     68  C   UNL A   1      39.554  35.586  37.160  1.00  0.00     0.200 A 
ATOM     69  F   UNL A   1      38.155  34.167  38.428  1.00  0.00    -0.200 F 
ATOM     70  F   UNL A   1      39.532  36.503  38.137  1.00  0.00    -0.200 F 
ENDBRANCH  37  60
ENDBRANCH  11  12
ENDBRANCH   4   6
ENDBRANCH   3   4
ENDBRANCH   2   3
ENDBRANCH   1   2
BRANCH   1  71
ATOM     71  O   UNL A   1      36.165  22.163  26.250  1.00  0.00    -0.462 OA
BRANCH  71  72
ATOM     72  C   UNL A   1      35.135  21.300  25.982  1.00  0.00     0.310 C 
ATOM     73  O   UNL A   1      34.244  21.253  26.840  1.00  0.00    -0.252 OA
BRANCH  72  74
ATOM     74  C   UNL A   1      34.879  20.449  24.668  1.00  0.00     0.116 C 
ATOM     75  C   UNL A   1      35.967  18.824  24.626  1.00  0.00     0.043 C 
ATOM     76  C   UNL A   1      33.076  20.230  24.130  1.00  0.00     0.097 C 
ATOM     77  C   UNL A   1      34.892  16.916  24.656  1.00  0.00    -0.030 C 
ATOM     78  C   UNL A   1      32.313  18.458  23.945  1.00  0.00     0.041 C 
ATOM     79  C   UNL A   1      33.304  16.865  24.360  1.00  0.00    -0.030 C 
BRANCH  76  80
ATOM     80  C   UNL A   1      32.163  21.427  24.624  1.00  0.00     0.228 C 
ATOM     81  O   UNL A   1      31.422  21.231  25.598  1.00  0.00    -0.274 OA
ATOM     82  N   UNL A   1      31.926  22.569  23.882  1.00  0.00    -0.326 N 
ATOM     83  H   UNL A   1      31.042  22.620  23.451  1.00  0.00     0.169 HD
BRANCH  82  84
ATOM     84  C   UNL A   1      32.780  23.680  23.653  1.00  0.00     0.041 A 
ATOM     85  C   UNL A   1      32.700  24.425  22.495  1.00  0.00     0.027 A 
ATOM     86  C   UNL A   1      33.769  24.043  24.591  1.00  0.00     0.027 A 
ATOM     87  C   UNL A   1      33.332  25.668  22.433  1.00  0.00     0.024 A 
ATOM     88  C   UNL A   1      34.327  25.364  24.585  1.00  0.00     0.024 A 
ATOM     89  C   UNL A   1      33.943  26.232  23.568  1.00  0.00     0.088 A 
BRANCH  89  90
ATOM     90  S   UNL A   1      33.558  28.016  23.674  1.00  0.00     0.264 S 
ATOM     91  O   UNL A   1      34.242  28.442  24.880  1.00  0.00    -0.201 OA
ATOM     92  O   UNL A   1      33.983  28.512  22.375  1.00  0.00    -0.201 OA
BRANCH  90  93
ATOM     93  N   UNL A   1      31.956  28.476  23.837  1.00  0.00    -0.266 N 
ATOM     94  C   UNL A   1      31.213  29.324  22.885  1.00  0.00     0.140 C 
ATOM     95  C   UNL A   1      31.033  27.621  24.444  1.00  0.00     0.055 A 
ATOM     96  C   UNL A   1      29.906  28.564  22.572  1.00  0.00     0.060 C 
ATOM     97  C   UNL A   1      29.900  27.520  23.645  1.00  0.00    -0.022 A 
ATOM     98  C   UNL A   1      31.176  26.963  25.640  1.00  0.00     0.027 A 
ATOM     99  C   UNL A   1      29.002  26.506  23.883  1.00  0.00     0.006 A 
ATOM    100  C   UNL A   1      30.244  25.980  25.924  1.00  0.00     0.002 A 
ATOM    101  C   UNL A   1      29.208  25.705  25.013  1.00  0.00     0.000 A 
ENDBRANCH  90  93
ENDBRANCH  89  90
ENDBRANCH  82  84
ENDBRANCH  76  80
ENDBRANCH  72  74
ENDBRANCH  71  72
ENDBRANCH   1  71
TORSDOF 15
ENDMDL
MODEL 2
REMARK VINA RESULT:     -14.1      3.978      9.548
REMARK SMILES O=C(OCCOC(=O)[C@H]1CC=CC[C@H]1C(=O)Nc1ccc(S(=O)(=O)N2CCc3ccccc32)cc1)c1ccc(-c2c3nc(c(-c4c(F)c(F)c(F)c(F)c4F)c4ccc([nH]4)c(-c4c(F)c(F)c(F)c(F)c4F)c4nc(c(-c5c(F)c(F)c(F)c(F)c5F)c5ccc2[nH]5)C=C4)C=C3)cc1
REMARK SMILES IDX 5 1 4 2 3 3 2 4 1 5 36 6 37 7 98 8 38 9 97 10 39 11 40 12
REMARK SMILES IDX 41 13 91 14 42 15 96 16 90 17 92 18 43 19 95 20 89 21 88 22
REMARK SMILES IDX 44 24 76 25 56 26 75 27 57 28 60 29 74 30 93 31 58 32 59 33
REMARK SMILES IDX 73 35 94 36 61 37 45 38 46 39 54 40 47 41 48 42 52 43 55 44
REMARK SMILES IDX 49 45 50 46 53 47 51 48 77 49 78 50 86 51 79 52 80 53 84 54
REMARK SMILES IDX 87 55 81 56 82 57 85 58 83 59 62 60 63 61 71 62 64 63 65 64
REMARK SMILES IDX 69 65 72 66 66 67 67 68 70 69 68 70 6 71 7 72 8 73 9 74
REMARK SMILES IDX 10 75 14 76 11 77 13 78 12 79 15 80 16 81 17 82 18 84 19 85
REMARK SMILES IDX 35 86 20 87 34 88 21 89 22 90 23 91 24 92 25 93 26 94 33 95
REMARK SMILES IDX 27 96 28 97 32 98 29 99 31 100 30 101
REMARK H PARENT 92 23 60 34 17 83
REMARK Flexibility Score: inf
ROOT
ATOM      1  C   UNL A   1      34.184  29.377  27.367  1.00  0.00     0.274 C 
ENDROOT
BRANCH   1   2
ATOM      2  C   UNL A   1      33.476  30.830  27.469  1.00  0.00     0.275 C 
BRANCH   2   3
ATOM      3  O   UNL A   1      34.173  32.002  28.075  1.00  0.00    -0.458 OA
BRANCH   3   4
ATOM      4  C   UNL A   1      34.724  32.154  29.348  1.00  0.00     0.338 C 
ATOM      5  O   UNL A   1      34.222  32.885  30.188  1.00  0.00    -0.246 OA
BRANCH   4   6
ATOM      6  C   UNL A   1      36.090  31.573  29.576  1.00  0.00     0.060 A 
ATOM      7  C   UNL A   1      35.994  30.599  30.893  1.00  0.00     0.016 A 
ATOM      8  C   UNL A   1      37.285  31.271  28.362  1.00  0.00     0.016 A 
ATOM      9  C   UNL A   1      37.059  29.236  31.186  1.00  0.00     0.010 A 
ATOM     10  C   UNL A   1      38.488  29.993  28.474  1.00  0.00     0.010 A 
ATOM     11  C   UNL A   1      38.493  28.864  29.897  1.00  0.00    -0.014 A 
BRANCH  11  12
ATOM     12  C   UNL A   1      40.072  28.558  29.974  1.00  0.00     0.031 A 
ATOM     13  C   UNL A   1      41.090  29.452  30.791  1.00  0.00     0.074 A 
ATOM     14  C   UNL A   1      40.601  27.544  29.275  1.00  0.00     0.049 A 
ATOM     15  N   UNL A   1      42.316  29.171  31.199  1.00  0.00    -0.248 NA
ATOM     16  C   UNL A   1      40.699  30.806  31.231  1.00  0.00     0.031 C 
ATOM     17  C   UNL A   1      39.860  26.713  28.351  1.00  0.00     0.029 A 
ATOM     18  N   UNL A   1      41.855  26.992  29.302  1.00  0.00    -0.354 N 
ATOM     19  C   UNL A   1      42.730  30.244  32.004  1.00  0.00     0.074 A 
ATOM     20  C   UNL A   1      41.644  31.171  32.072  1.00  0.00     0.031 C 
ATOM     21  C   UNL A   1      40.585  25.622  28.077  1.00  0.00     0.029 A 
ATOM     22  C   UNL A   1      41.930  25.802  28.622  1.00  0.00     0.049 A 
ATOM     23  H   UNL A   1      42.622  27.406  29.762  1.00  0.00     0.167 HD
ATOM     24  C   UNL A   1      43.929  30.536  32.566  1.00  0.00     0.037 A 
ATOM     25  C   UNL A   1      42.973  24.979  28.403  1.00  0.00     0.037 A 
ATOM     26  C   UNL A   1      45.126  29.810  32.271  1.00  0.00     0.049 A 
ATOM     27  C   UNL A   1      44.328  25.382  28.916  1.00  0.00     0.074 A 
ATOM     28  C   UNL A   1      46.428  30.100  32.634  1.00  0.00     0.029 A 
ATOM     29  N   UNL A   1      45.165  28.696  31.451  1.00  0.00    -0.354 N 
ATOM     30  N   UNL A   1      44.660  26.379  29.701  1.00  0.00    -0.248 NA
ATOM     31  C   UNL A   1      45.467  24.580  28.451  1.00  0.00     0.031 C 
ATOM     32  C   UNL A   1      47.266  29.212  31.953  1.00  0.00     0.029 A 
ATOM     33  C   UNL A   1      46.476  28.314  31.249  1.00  0.00     0.049 A 
ATOM     34  H   UNL A   1      44.378  28.245  31.071  1.00  0.00     0.167 HD
ATOM     35  C   UNL A   1      46.044  26.342  29.803  1.00  0.00     0.074 A 
ATOM     36  C   UNL A   1      46.485  25.196  29.036  1.00  0.00     0.031 C 
ATOM     37  C   UNL A   1      46.882  27.187  30.455  1.00  0.00     0.037 A 
BRANCH  24  38
ATOM     38  C   UNL A   1      44.028  31.790  33.405  1.00  0.00     0.064 A 
ATOM     39  C   UNL A   1      43.796  31.771  34.790  1.00  0.00     0.173 A 
ATOM     40  C   UNL A   1      44.323  33.029  32.813  1.00  0.00     0.173 A 
ATOM     41  F   UNL A   1      43.478  30.624  35.406  1.00  0.00    -0.203 F 
ATOM     42  C   UNL A   1      43.845  32.946  35.545  1.00  0.00     0.198 A 
ATOM     43  C   UNL A   1      44.390  34.196  33.573  1.00  0.00     0.198 A 
ATOM     44  F   UNL A   1      44.531  33.113  31.491  1.00  0.00    -0.203 F 
ATOM     45  F   UNL A   1      43.577  32.911  36.858  1.00  0.00    -0.200 F 
ATOM     46  C   UNL A   1      44.146  34.155  34.937  1.00  0.00     0.200 A 
ATOM     47  F   UNL A   1      44.677  35.364  32.980  1.00  0.00    -0.200 F 
ATOM     48  F   UNL A   1      44.184  35.283  35.660  1.00  0.00    -0.200 F 
ENDBRANCH  24  38
BRANCH  25  49
ATOM     49  C   UNL A   1      42.782  23.768  27.555  1.00  0.00     0.064 A 
ATOM     50  C   UNL A   1      43.071  23.770  26.184  1.00  0.00     0.173 A 
ATOM     51  C   UNL A   1      42.337  22.560  28.120  1.00  0.00     0.173 A 
ATOM     52  F   UNL A   1      43.453  24.904  25.579  1.00  0.00    -0.203 F 
ATOM     53  C   UNL A   1      42.940  22.609  25.421  1.00  0.00     0.198 A 
ATOM     54  C   UNL A   1      42.264  21.391  27.371  1.00  0.00     0.198 A 
ATOM     55  F   UNL A   1      42.016  22.504  29.421  1.00  0.00    -0.203 F 
ATOM     56  F   UNL A   1      43.178  22.646  24.102  1.00  0.00    -0.200 F 
ATOM     57  C   UNL A   1      42.559  21.417  26.019  1.00  0.00     0.200 A 
ATOM     58  F   UNL A   1      41.920  20.241  27.965  1.00  0.00    -0.200 F 
ATOM     59  F   UNL A   1      42.467  20.295  25.292  1.00  0.00    -0.200 F 
ENDBRANCH  25  49
BRANCH  37  60
ATOM     60  C   UNL A   1      48.349  26.903  30.368  1.00  0.00     0.064 A 
ATOM     61  C   UNL A   1      48.979  26.014  31.252  1.00  0.00     0.173 A 
ATOM     62  C   UNL A   1      49.121  27.488  29.355  1.00  0.00     0.173 A 
ATOM     63  F   UNL A   1      48.280  25.431  32.238  1.00  0.00    -0.203 F 
ATOM     64  C   UNL A   1      50.341  25.753  31.146  1.00  0.00     0.198 A 
ATOM     65  C   UNL A   1      50.474  27.198  29.231  1.00  0.00     0.198 A 
ATOM     66  F   UNL A   1      48.557  28.329  28.475  1.00  0.00    -0.203 F 
ATOM     67  F   UNL A   1      50.936  24.945  32.033  1.00  0.00    -0.200 F 
ATOM     68  C   UNL A   1      51.086  26.341  30.133  1.00  0.00     0.200 A 
ATOM     69  F   UNL A   1      51.187  27.749  28.239  1.00  0.00    -0.200 F 
ATOM     70  F   UNL A   1      52.397  26.084  30.030  1.00  0.00    -0.200 F 
ENDBRANCH  37  60
ENDBRANCH  11  12
ENDBRANCH   4   6
ENDBRANCH   3   4
ENDBRANCH   2   3
ENDBRANCH   1   2
BRANCH   1  71
ATOM     71  O   UNL A   1      33.349  28.169  27.054  1.00  0.00    -0.462 OA
BRANCH  71  72
ATOM     72  C   UNL A   1      32.063  27.809  26.746  1.00  0.00     0.310 C 
ATOM     73  O   UNL A   1      31.302  27.673  27.712  1.00  0.00    -0.252 OA
BRANCH  72  74
ATOM     74  C   UNL A   1      31.399  27.664  25.312  1.00  0.00     0.116 C 
ATOM     75  C   UNL A   1      32.505  28.463  23.910  1.00  0.00     0.043 C 
ATOM     76  C   UNL A   1      30.648  25.978  24.886  1.00  0.00     0.097 C 
ATOM     77  C   UNL A   1      33.298  27.106  22.384  1.00  0.00    -0.030 C 
ATOM     78  C   UNL A   1      31.270  24.984  23.342  1.00  0.00     0.041 C 
ATOM     79  C   UNL A   1      32.703  25.613  22.227  1.00  0.00    -0.030 C 
BRANCH  76  80
ATOM     80  C   UNL A   1      30.181  25.195  26.182  1.00  0.00     0.228 C 
ATOM     81  O   UNL A   1      29.044  25.421  26.622  1.00  0.00    -0.274 OA
ATOM     82  N   UNL A   1      31.041  24.500  27.012  1.00  0.00    -0.326 N 
ATOM     83  H   UNL A   1      31.259  24.943  27.864  1.00  0.00     0.169 HD
BRANCH  82  84
ATOM     84  C   UNL A   1      31.655  23.237  26.806  1.00  0.00     0.041 A 
ATOM     85  C   UNL A   1      31.233  22.384  25.807  1.00  0.00     0.027 A 
ATOM     86  C   UNL A   1      32.701  22.791  27.640  1.00  0.00     0.027 A 
ATOM     87  C   UNL A   1      32.036  21.302  25.442  1.00  0.00     0.024 A 
ATOM     88  C   UNL A   1      33.589  21.754  27.201  1.00  0.00     0.024 A 
ATOM     89  C   UNL A   1      33.323  21.136  25.983  1.00  0.00     0.088 A 
BRANCH  89  90
ATOM     90  S   UNL A   1      34.500  20.631  24.678  1.00  0.00     0.264 S 
ATOM     91  O   UNL A   1      35.300  19.606  25.318  1.00  0.00    -0.201 OA
ATOM     92  O   UNL A   1      33.620  20.292  23.571  1.00  0.00    -0.201 OA
BRANCH  90  93
ATOM     93  N   UNL A   1      35.565  21.777  24.081  1.00  0.00    -0.266 N 
ATOM     94  C   UNL A   1      35.177  23.046  23.435  1.00  0.00     0.140 C 
ATOM     95  C   UNL A   1      36.801  21.984  24.700  1.00  0.00     0.055 A 
ATOM     96  C   UNL A   1      35.980  24.151  24.154  1.00  0.00     0.060 C 
ATOM     97  C   UNL A   1      36.992  23.345  24.908  1.00  0.00    -0.022 A 
ATOM     98  C   UNL A   1      37.716  21.027  25.062  1.00  0.00     0.027 A 
ATOM     99  C   UNL A   1      37.981  23.757  25.771  1.00  0.00     0.006 A 
ATOM    100  C   UNL A   1      38.753  21.438  25.881  1.00  0.00     0.002 A 
ATOM    101  C   UNL A   1      38.839  22.781  26.292  1.00  0.00     0.000 A 
ENDBRANCH  90  93
ENDBRANCH  89  90
ENDBRANCH  82  84
ENDBRANCH  76  80
ENDBRANCH  72  74
ENDBRANCH  71  72
ENDBRANCH   1  71
TORSDOF 15
ENDMDL
MODEL 3
REMARK VINA RESULT:     -14.1      2.278      7.116
REMARK SMILES O=C(OCCOC(=O)[C@H]1CC=CC[C@H]1C(=O)Nc1ccc(S(=O)(=O)N2CCc3ccccc32)cc1)c1ccc(-c2c3nc(c(-c4c(F)c(F)c(F)c(F)c4F)c4ccc([nH]4)c(-c4c(F)c(F)c(F)c(F)c4F)c4nc(c(-c5c(F)c(F)c(F)c(F)c5F)c5ccc2[nH]5)C=C4)C=C3)cc1
REMARK SMILES IDX 5 1 4 2 3 3 2 4 1 5 36 6 37 7 98 8 38 9 97 10 39 11 40 12
REMARK SMILES IDX 41 13 91 14 42 15 96 16 90 17 92 18 43 19 95 20 89 21 88 22
REMARK SMILES IDX 44 24 76 25 56 26 75 27 57 28 60 29 74 30 93 31 58 32 59 33
REMARK SMILES IDX 73 35 94 36 61 37 45 38 46 39 54 40 47 41 48 42 52 43 55 44
REMARK SMILES IDX 49 45 50 46 53 47 51 48 77 49 78 50 86 51 79 52 80 53 84 54
REMARK SMILES IDX 87 55 81 56 82 57 85 58 83 59 62 60 63 61 71 62 64 63 65 64
REMARK SMILES IDX 69 65 72 66 66 67 67 68 70 69 68 70 6 71 7 72 8 73 9 74
REMARK SMILES IDX 10 75 14 76 11 77 13 78 12 79 15 80 16 81 17 82 18 84 19 85
REMARK SMILES IDX 35 86 20 87 34 88 21 89 22 90 23 91 24 92 25 93 26 94 33 95
REMARK SMILES IDX 27 96 28 97 32 98 29 99 31 100 30 101
REMARK H PARENT 92 23 60 34 17 83
REMARK Flexibility Score: inf
ROOT
ATOM      1  C   UNL A   1      37.303  22.882  25.907  1.00  0.00     0.274 C 
ENDROOT
BRANCH   1   2
ATOM      2  C   UNL A   1      38.453  21.773  25.641  1.00  0.00     0.275 C 
BRANCH   2   3
ATOM      3  O   UNL A   1      39.733  21.771  26.410  1.00  0.00    -0.458 OA
BRANCH   3   4
ATOM      4  C   UNL A   1      40.940  22.417  26.138  1.00  0.00     0.338 C 
ATOM      5  O   UNL A   1      41.845  21.868  25.529  1.00  0.00    -0.246 OA
BRANCH   4   6
ATOM      6  C   UNL A   1      41.182  23.730  26.826  1.00  0.00     0.060 A 
ATOM      7  C   UNL A   1      41.640  24.807  25.675  1.00  0.00     0.016 A 
ATOM      8  C   UNL A   1      40.408  24.283  28.269  1.00  0.00     0.016 A 
ATOM      9  C   UNL A   1      41.412  26.542  25.809  1.00  0.00     0.010 A 
ATOM     10  C   UNL A   1      40.124  25.979  28.637  1.00  0.00     0.010 A 
ATOM     11  C   UNL A   1      40.607  27.265  27.448  1.00  0.00    -0.014 A 
BRANCH  11  12
ATOM     12  C   UNL A   1      40.945  28.453  28.480  1.00  0.00     0.031 A 
ATOM     13  C   UNL A   1      42.386  28.686  29.092  1.00  0.00     0.074 A 
ATOM     14  C   UNL A   1      39.976  29.268  28.919  1.00  0.00     0.049 A 
ATOM     15  N   UNL A   1      42.885  29.759  29.682  1.00  0.00    -0.248 NA
ATOM     16  C   UNL A   1      43.403  27.618  29.021  1.00  0.00     0.031 C 
ATOM     17  C   UNL A   1      38.573  29.117  28.596  1.00  0.00     0.029 A 
ATOM     18  N   UNL A   1      40.037  30.425  29.651  1.00  0.00    -0.354 N 
ATOM     19  C   UNL A   1      44.246  29.499  29.911  1.00  0.00     0.074 A 
ATOM     20  C   UNL A   1      44.527  28.200  29.381  1.00  0.00     0.031 C 
ATOM     21  C   UNL A   1      37.935  30.250  28.915  1.00  0.00     0.029 A 
ATOM     22  C   UNL A   1      38.844  31.104  29.677  1.00  0.00     0.049 A 
ATOM     23  H   UNL A   1      40.852  30.737  30.109  1.00  0.00     0.167 HD
ATOM     24  C   UNL A   1      45.191  30.191  30.593  1.00  0.00     0.037 A 
ATOM     25  C   UNL A   1      38.498  32.249  30.296  1.00  0.00     0.037 A 
ATOM     26  C   UNL A   1      44.891  31.330  31.403  1.00  0.00     0.049 A 
ATOM     27  C   UNL A   1      39.519  32.936  31.161  1.00  0.00     0.074 A 
ATOM     28  C   UNL A   1      45.716  32.017  32.274  1.00  0.00     0.029 A 
ATOM     29  N   UNL A   1      43.628  31.885  31.508  1.00  0.00    -0.354 N 
ATOM     30  N   UNL A   1      40.795  32.675  31.312  1.00  0.00    -0.248 NA
ATOM     31  C   UNL A   1      39.029  34.039  31.997  1.00  0.00     0.031 C 
ATOM     32  C   UNL A   1      44.924  32.930  32.977  1.00  0.00     0.029 A 
ATOM     33  C   UNL A   1      43.633  32.874  32.471  1.00  0.00     0.049 A 
ATOM     34  H   UNL A   1      42.845  31.615  30.977  1.00  0.00     0.167 HD
ATOM     35  C   UNL A   1      41.255  33.560  32.278  1.00  0.00     0.074 A 
ATOM     36  C   UNL A   1      40.130  34.396  32.644  1.00  0.00     0.031 C 
ATOM     37  C   UNL A   1      42.489  33.665  32.832  1.00  0.00     0.037 A 
BRANCH  24  38
ATOM     38  C   UNL A   1      46.593  29.623  30.629  1.00  0.00     0.064 A 
ATOM     39  C   UNL A   1      47.559  29.981  29.675  1.00  0.00     0.173 A 
ATOM     40  C   UNL A   1      46.962  28.684  31.607  1.00  0.00     0.173 A 
ATOM     41  F   UNL A   1      47.255  30.847  28.698  1.00  0.00    -0.203 F 
ATOM     42  C   UNL A   1      48.835  29.412  29.693  1.00  0.00     0.198 A 
ATOM     43  C   UNL A   1      48.242  28.133  31.633  1.00  0.00     0.198 A 
ATOM     44  F   UNL A   1      46.074  28.286  32.530  1.00  0.00    -0.203 F 
ATOM     45  F   UNL A   1      49.727  29.735  28.746  1.00  0.00    -0.200 F 
ATOM     46  C   UNL A   1      49.177  28.493  30.674  1.00  0.00     0.200 A 
ATOM     47  F   UNL A   1      48.567  27.241  32.580  1.00  0.00    -0.200 F 
ATOM     48  F   UNL A   1      50.398  27.941  30.685  1.00  0.00    -0.200 F 
ENDBRANCH  24  38
BRANCH  25  49
ATOM     49  C   UNL A   1      37.090  32.728  30.211  1.00  0.00     0.064 A 
ATOM     50  C   UNL A   1      36.156  32.468  31.222  1.00  0.00     0.173 A 
ATOM     51  C   UNL A   1      36.659  33.498  29.116  1.00  0.00     0.173 A 
ATOM     52  F   UNL A   1      36.494  31.699  32.268  1.00  0.00    -0.203 F 
ATOM     53  C   UNL A   1      34.858  32.976  31.149  1.00  0.00     0.198 A 
ATOM     54  C   UNL A   1      35.385  34.052  29.074  1.00  0.00     0.198 A 
ATOM     55  F   UNL A   1      37.498  33.755  28.102  1.00  0.00    -0.203 F 
ATOM     56  F   UNL A   1      33.968  32.675  32.106  1.00  0.00    -0.200 F 
ATOM     57  C   UNL A   1      34.481  33.785  30.088  1.00  0.00     0.200 A 
ATOM     58  F   UNL A   1      35.041  34.853  28.056  1.00  0.00    -0.200 F 
ATOM     59  F   UNL A   1      33.245  34.300  30.036  1.00  0.00    -0.200 F 
ENDBRANCH  25  49
BRANCH  37  60
ATOM     60  C   UNL A   1      42.685  34.715  33.880  1.00  0.00     0.064 A 
ATOM     61  C   UNL A   1      42.999  36.040  33.544  1.00  0.00     0.173 A 
ATOM     62  C   UNL A   1      42.505  34.401  35.234  1.00  0.00     0.173 A 
ATOM     63  F   UNL A   1      43.183  36.387  32.261  1.00  0.00    -0.203 F 
ATOM     64  C   UNL A   1      43.165  37.004  34.533  1.00  0.00     0.198 A 
ATOM     65  C   UNL A   1      42.636  35.374  36.217  1.00  0.00     0.198 A 
ATOM     66  F   UNL A   1      42.183  33.151  35.602  1.00  0.00    -0.203 F 
ATOM     67  F   UNL A   1      43.520  38.252  34.196  1.00  0.00    -0.200 F 
ATOM     68  C   UNL A   1      42.977  36.672  35.867  1.00  0.00     0.200 A 
ATOM     69  F   UNL A   1      42.433  35.057  37.503  1.00  0.00    -0.200 F 
ATOM     70  F   UNL A   1      43.132  37.603  36.818  1.00  0.00    -0.200 F 
ENDBRANCH  37  60
ENDBRANCH  11  12
ENDBRANCH   4   6
ENDBRANCH   3   4
ENDBRANCH   2   3
ENDBRANCH   1   2
BRANCH   1  71
ATOM     71  O   UNL A   1      35.900  22.434  26.202  1.00  0.00    -0.462 OA
BRANCH  71  72
ATOM     72  C   UNL A   1      35.061  21.364  26.028  1.00  0.00     0.310 C 
ATOM     73  O   UNL A   1      34.320  21.107  26.986  1.00  0.00    -0.252 OA
BRANCH  72  74
ATOM     74  C   UNL A   1      34.834  20.494  24.721  1.00  0.00     0.116 C 
ATOM     75  C   UNL A   1      35.923  18.869  24.727  1.00  0.00     0.043 C 
ATOM     76  C   UNL A   1      33.044  20.266  24.147  1.00  0.00     0.097 C 
ATOM     77  C   UNL A   1      34.847  16.961  24.762  1.00  0.00    -0.030 C 
ATOM     78  C   UNL A   1      32.284  18.491  23.972  1.00  0.00     0.041 C 
ATOM     79  C   UNL A   1      33.267  16.905  24.432  1.00  0.00    -0.030 C 
BRANCH  76  80
ATOM     80  C   UNL A   1      32.119  21.470  24.603  1.00  0.00     0.228 C 
ATOM     81  O   UNL A   1      31.381  21.299  25.584  1.00  0.00    -0.274 OA
ATOM     82  N   UNL A   1      31.872  22.586  23.825  1.00  0.00    -0.326 N 
ATOM     83  H   UNL A   1      30.987  22.615  23.394  1.00  0.00     0.169 HD
BRANCH  82  84
ATOM     84  C   UNL A   1      32.716  23.696  23.561  1.00  0.00     0.041 A 
ATOM     85  C   UNL A   1      32.627  24.405  22.381  1.00  0.00     0.027 A 
ATOM     86  C   UNL A   1      33.703  24.096  24.485  1.00  0.00     0.027 A 
ATOM     87  C   UNL A   1      33.248  25.651  22.280  1.00  0.00     0.024 A 
ATOM     88  C   UNL A   1      34.250  25.421  24.437  1.00  0.00     0.024 A 
ATOM     89  C   UNL A   1      33.856  26.255  23.395  1.00  0.00     0.088 A 
BRANCH  89  90
ATOM     90  S   UNL A   1      33.456  28.038  23.448  1.00  0.00     0.264 S 
ATOM     91  O   UNL A   1      34.202  28.521  24.593  1.00  0.00    -0.201 OA
ATOM     92  O   UNL A   1      33.800  28.481  22.107  1.00  0.00    -0.201 OA
BRANCH  90  93
ATOM     93  N   UNL A   1      31.861  28.489  23.683  1.00  0.00    -0.266 N 
ATOM     94  C   UNL A   1      31.061  29.306  22.750  1.00  0.00     0.140 C 
ATOM     95  C   UNL A   1      30.978  27.641  24.358  1.00  0.00     0.055 A 
ATOM     96  C   UNL A   1      29.747  28.528  22.524  1.00  0.00     0.060 C 
ATOM     97  C   UNL A   1      29.807  27.511  23.622  1.00  0.00    -0.022 A 
ATOM     98  C   UNL A   1      31.190  27.015  25.561  1.00  0.00     0.027 A 
ATOM     99  C   UNL A   1      28.932  26.496  23.931  1.00  0.00     0.006 A 
ATOM    100  C   UNL A   1      30.283  26.031  25.917  1.00  0.00     0.002 A 
ATOM    101  C   UNL A   1      29.204  25.725  25.068  1.00  0.00     0.000 A 
ENDBRANCH  90  93
ENDBRANCH  89  90
ENDBRANCH  82  84
ENDBRANCH  76  80
ENDBRANCH  72  74
ENDBRANCH  71  72
ENDBRANCH   1  71
TORSDOF 15
ENDMDL
