MODEL 1
REMARK VINA RESULT:     -12.5      0.000      0.000
REMARK SMILES O=C(OCCOC(=O)c1cn(C2CN(C(=O)c3c[nH]nn3)C2)nn1)c1ccc(-c2c3nc(c(-c4c(F)c(F)c(F)c(F)c4F)c4ccc([nH]4)c(-c4c(F)c(F)c(F)c(F)c4F)c4nc(c(-c5c(F)c(F)c(F)c(F)c5F)c5ccc2[nH]5)C=C4)C=C3)cc1
REMARK SMILES IDX 4 1 3 2 2 3 1 4 25 5 26 6 87 7 27 8 86 9 28 10 29 11 30 12
REMARK SMILES IDX 80 13 31 14 85 15 79 16 81 17 32 18 84 19 78 20 77 21 33 23
REMARK SMILES IDX 65 24 45 25 64 26 46 27 49 28 63 29 82 30 47 31 48 32 62 34
REMARK SMILES IDX 83 35 50 36 34 37 35 38 43 39 36 40 37 41 41 42 44 43 38 44
REMARK SMILES IDX 39 45 42 46 40 47 66 48 67 49 75 50 68 51 69 52 73 53 76 54
REMARK SMILES IDX 70 55 71 56 74 57 72 58 51 59 52 60 60 61 53 62 54 63 58 64
REMARK SMILES IDX 61 65 55 66 56 67 59 68 57 69 5 70 6 71 7 72 8 73 9 74 10 75
REMARK SMILES IDX 24 76 11 77 23 78 12 79 13 80 22 81 14 82 15 83 16 84 17 85
REMARK SMILES IDX 18 86 21 87 19 88 20 89
REMARK H PARENT 81 22 49 33 19 90
REMARK Flexibility Score: inf
ROOT
ATOM      1  C   UNL A   1      43.909  21.830  25.002  1.00  0.00     0.275 C 
ENDROOT
BRANCH   1   2
ATOM      2  O   UNL A   1      43.603  23.157  24.533  1.00  0.00    -0.458 OA
BRANCH   2   3
ATOM      3  C   UNL A   1      44.220  24.315  24.880  1.00  0.00     0.338 C 
ATOM      4  O   UNL A   1      45.338  24.579  24.448  1.00  0.00    -0.246 OA
BRANCH   3   5
ATOM      5  C   UNL A   1      43.662  25.180  25.957  1.00  0.00     0.060 A 
ATOM      6  C   UNL A   1      44.218  26.397  26.352  1.00  0.00     0.016 A 
ATOM      7  C   UNL A   1      42.543  24.692  26.655  1.00  0.00     0.016 A 
ATOM      8  C   UNL A   1      43.623  27.154  27.362  1.00  0.00     0.010 A 
ATOM      9  C   UNL A   1      41.951  25.443  27.678  1.00  0.00     0.010 A 
ATOM     10  C   UNL A   1      42.488  26.686  28.030  1.00  0.00    -0.014 A 
BRANCH  10  11
ATOM     11  C   UNL A   1      41.952  27.480  29.156  1.00  0.00     0.031 A 
ATOM     12  C   UNL A   1      42.595  27.365  30.506  1.00  0.00     0.074 A 
ATOM     13  C   UNL A   1      40.976  28.381  28.944  1.00  0.00     0.049 A 
ATOM     14  N   UNL A   1      42.356  28.054  31.592  1.00  0.00    -0.248 NA
ATOM     15  C   UNL A   1      43.683  26.384  30.639  1.00  0.00     0.031 C 
ATOM     16  C   UNL A   1      40.343  28.659  27.654  1.00  0.00     0.029 A 
ATOM     17  N   UNL A   1      40.336  29.224  29.814  1.00  0.00    -0.354 N 
ATOM     18  C   UNL A   1      43.329  27.665  32.501  1.00  0.00     0.074 A 
ATOM     19  C   UNL A   1      44.092  26.603  31.881  1.00  0.00     0.031 C 
ATOM     20  C   UNL A   1      39.344  29.541  27.835  1.00  0.00     0.029 A 
ATOM     21  C   UNL A   1      39.284  29.901  29.246  1.00  0.00     0.049 A 
ATOM     22  H   UNL A   1      40.603  29.332  30.755  1.00  0.00     0.167 HD
ATOM     23  C   UNL A   1      43.598  28.193  33.718  1.00  0.00     0.037 A 
ATOM     24  C   UNL A   1      38.363  30.695  29.819  1.00  0.00     0.037 A 
ATOM     25  C   UNL A   1      42.795  29.198  34.358  1.00  0.00     0.049 A 
ATOM     26  C   UNL A   1      38.501  31.037  31.275  1.00  0.00     0.074 A 
ATOM     27  C   UNL A   1      42.964  29.788  35.599  1.00  0.00     0.029 A 
ATOM     28  N   UNL A   1      41.643  29.743  33.812  1.00  0.00    -0.354 N 
ATOM     29  N   UNL A   1      39.445  30.697  32.117  1.00  0.00    -0.248 NA
ATOM     30  C   UNL A   1      37.461  31.899  31.852  1.00  0.00     0.031 C 
ATOM     31  C   UNL A   1      41.888  30.656  35.820  1.00  0.00     0.029 A 
ATOM     32  C   UNL A   1      41.072  30.639  34.700  1.00  0.00     0.049 A 
ATOM     33  H   UNL A   1      41.282  29.524  32.922  1.00  0.00     0.167 HD
ATOM     34  C   UNL A   1      39.150  31.351  33.303  1.00  0.00     0.074 A 
ATOM     35  C   UNL A   1      37.921  32.086  33.081  1.00  0.00     0.031 C 
ATOM     36  C   UNL A   1      39.854  31.369  34.461  1.00  0.00     0.037 A 
BRANCH  23  37
ATOM     37  C   UNL A   1      44.835  27.704  34.408  1.00  0.00     0.064 A 
ATOM     38  C   UNL A   1      46.068  28.350  34.211  1.00  0.00     0.173 A 
ATOM     39  C   UNL A   1      44.799  26.606  35.275  1.00  0.00     0.173 A 
ATOM     40  F   UNL A   1      46.155  29.399  33.379  1.00  0.00    -0.203 F 
ATOM     41  C   UNL A   1      47.223  27.897  34.841  1.00  0.00     0.198 A 
ATOM     42  C   UNL A   1      45.954  26.167  35.919  1.00  0.00     0.198 A 
ATOM     43  F   UNL A   1      43.647  25.956  35.495  1.00  0.00    -0.203 F 
ATOM     44  F   UNL A   1      48.395  28.503  34.607  1.00  0.00    -0.200 F 
ATOM     45  C   UNL A   1      47.165  26.808  35.697  1.00  0.00     0.200 A 
ATOM     46  F   UNL A   1      45.898  25.117  36.751  1.00  0.00    -0.200 F 
ATOM     47  F   UNL A   1      48.277  26.370  36.302  1.00  0.00    -0.200 F 
ENDBRANCH  23  37
BRANCH  24  48
ATOM     48  C   UNL A   1      37.178  31.155  29.055  1.00  0.00     0.064 A 
ATOM     49  C   UNL A   1      37.003  32.491  28.678  1.00  0.00     0.173 A 
ATOM     50  C   UNL A   1      36.136  30.256  28.791  1.00  0.00     0.173 A 
ATOM     51  F   UNL A   1      37.959  33.392  28.941  1.00  0.00    -0.203 F 
ATOM     52  C   UNL A   1      35.811  32.915  28.091  1.00  0.00     0.198 A 
ATOM     53  C   UNL A   1      34.950  30.677  28.197  1.00  0.00     0.198 A 
ATOM     54  F   UNL A   1      36.266  28.972  29.149  1.00  0.00    -0.203 F 
ATOM     55  F   UNL A   1      35.641  34.210  27.790  1.00  0.00    -0.200 F 
ATOM     56  C   UNL A   1      34.785  32.009  27.856  1.00  0.00     0.200 A 
ATOM     57  F   UNL A   1      33.957  29.803  27.992  1.00  0.00    -0.200 F 
ATOM     58  F   UNL A   1      33.627  32.429  27.326  1.00  0.00    -0.200 F 
ENDBRANCH  24  48
BRANCH  36  59
ATOM     59  C   UNL A   1      39.354  32.284  35.538  1.00  0.00     0.064 A 
ATOM     60  C   UNL A   1      39.745  33.627  35.611  1.00  0.00     0.173 A 
ATOM     61  C   UNL A   1      38.478  31.795  36.518  1.00  0.00     0.173 A 
ATOM     62  F   UNL A   1      40.604  34.131  34.713  1.00  0.00    -0.203 F 
ATOM     63  C   UNL A   1      39.299  34.443  36.648  1.00  0.00     0.198 A 
ATOM     64  C   UNL A   1      38.010  32.620  37.536  1.00  0.00     0.198 A 
ATOM     65  F   UNL A   1      38.078  30.515  36.491  1.00  0.00    -0.203 F 
ATOM     66  F   UNL A   1      39.730  35.709  36.736  1.00  0.00    -0.200 F 
ATOM     67  C   UNL A   1      38.428  33.940  37.605  1.00  0.00     0.200 A 
ATOM     68  F   UNL A   1      37.165  32.134  38.455  1.00  0.00    -0.200 F 
ATOM     69  F   UNL A   1      38.004  34.726  38.605  1.00  0.00    -0.200 F 
ENDBRANCH  36  59
ENDBRANCH  10  11
ENDBRANCH   3   5
ENDBRANCH   2   3
ENDBRANCH   1   2
BRANCH   1  70
ATOM     70  C   UNL A   1      42.857  21.226  25.940  1.00  0.00     0.275 C 
BRANCH  70  71
ATOM     71  O   UNL A   1      41.509  21.536  25.555  1.00  0.00    -0.457 OA
BRANCH  71  72
ATOM     72  C   UNL A   1      40.598  21.380  26.567  1.00  0.00     0.360 C 
ATOM     73  O   UNL A   1      40.866  20.905  27.665  1.00  0.00    -0.244 OA
BRANCH  72  74
ATOM     74  C   UNL A   1      39.290  21.914  26.237  1.00  0.00     0.190 A 
ATOM     75  C   UNL A   1      38.184  21.288  25.692  1.00  0.00     0.147 A 
ATOM     76  N   UNL A   1      38.982  23.230  26.475  1.00  0.00    -0.123 NA
ATOM     77  N   UNL A   1      37.220  22.264  25.701  1.00  0.00    -0.245 N 
ATOM     78  N   UNL A   1      37.733  23.440  26.095  1.00  0.00    -0.066 NA
BRANCH  77  79
ATOM     79  C   UNL A   1      35.803  22.134  25.550  1.00  0.00     0.148 C 
ATOM     80  C   UNL A   1      35.201  22.618  24.221  1.00  0.00     0.149 C 
ATOM     81  C   UNL A   1      35.391  20.711  25.102  1.00  0.00     0.149 C 
ATOM     82  N   UNL A   1      34.432  21.388  24.246  1.00  0.00    -0.333 N 
ATOM     83  C   UNL A   1      33.083  21.162  24.110  1.00  0.00     0.276 C 
ATOM     84  O   UNL A   1      32.266  22.058  23.923  1.00  0.00    -0.267 OA
BRANCH  83  85
ATOM     85  C   UNL A   1      32.701  19.765  24.254  1.00  0.00     0.170 A 
ATOM     86  C   UNL A   1      32.531  18.825  23.260  1.00  0.00     0.141 A 
ATOM     87  N   UNL A   1      32.420  19.176  25.469  1.00  0.00    -0.125 NA
ATOM     88  N   UNL A   1      32.151  17.703  23.929  1.00  0.00    -0.265 N 
ATOM     89  N   UNL A   1      32.087  17.912  25.252  1.00  0.00    -0.069 NA
ATOM     90  H   UNL A   1      31.950  16.842  23.495  1.00  0.00     0.191 HD
ENDBRANCH  83  85
ENDBRANCH  77  79
ENDBRANCH  72  74
ENDBRANCH  71  72
ENDBRANCH  70  71
ENDBRANCH   1  70
TORSDOF 13
ENDMDL
MODEL 2
REMARK VINA RESULT:     -12.3      4.581      6.487
REMARK SMILES O=C(OCCOC(=O)c1cn(C2CN(C(=O)c3c[nH]nn3)C2)nn1)c1ccc(-c2c3nc(c(-c4c(F)c(F)c(F)c(F)c4F)c4ccc([nH]4)c(-c4c(F)c(F)c(F)c(F)c4F)c4nc(c(-c5c(F)c(F)c(F)c(F)c5F)c5ccc2[nH]5)C=C4)C=C3)cc1
REMARK SMILES IDX 4 1 3 2 2 3 1 4 25 5 26 6 87 7 27 8 86 9 28 10 29 11 30 12
REMARK SMILES IDX 80 13 31 14 85 15 79 16 81 17 32 18 84 19 78 20 77 21 33 23
REMARK SMILES IDX 65 24 45 25 64 26 46 27 49 28 63 29 82 30 47 31 48 32 62 34
REMARK SMILES IDX 83 35 50 36 34 37 35 38 43 39 36 40 37 41 41 42 44 43 38 44
REMARK SMILES IDX 39 45 42 46 40 47 66 48 67 49 75 50 68 51 69 52 73 53 76 54
REMARK SMILES IDX 70 55 71 56 74 57 72 58 51 59 52 60 60 61 53 62 54 63 58 64
REMARK SMILES IDX 61 65 55 66 56 67 59 68 57 69 5 70 6 71 7 72 8 73 9 74 10 75
REMARK SMILES IDX 24 76 11 77 23 78 12 79 13 80 22 81 14 82 15 83 16 84 17 85
REMARK SMILES IDX 18 86 21 87 19 88 20 89
REMARK H PARENT 81 22 49 33 19 90
REMARK Flexibility Score: inf
ROOT
ATOM      1  C   UNL A   1      40.314  20.396  26.329  1.00  0.00     0.275 C 
ENDROOT
BRANCH   1   2
ATOM      2  O   UNL A   1      40.338  21.805  26.035  1.00  0.00    -0.458 OA
BRANCH   2   3
ATOM      3  C   UNL A   1      39.364  22.715  26.289  1.00  0.00     0.338 C 
ATOM      4  O   UNL A   1      38.230  22.556  25.849  1.00  0.00    -0.246 OA
BRANCH   3   5
ATOM      5  C   UNL A   1      39.695  24.027  26.912  1.00  0.00     0.060 A 
ATOM      6  C   UNL A   1      40.617  24.934  26.388  1.00  0.00     0.016 A 
ATOM      7  C   UNL A   1      39.080  24.326  28.141  1.00  0.00     0.016 A 
ATOM      8  C   UNL A   1      40.858  26.151  27.028  1.00  0.00     0.010 A 
ATOM      9  C   UNL A   1      39.329  25.540  28.793  1.00  0.00     0.010 A 
ATOM     10  C   UNL A   1      40.218  26.463  28.231  1.00  0.00    -0.014 A 
BRANCH  10  11
ATOM     11  C   UNL A   1      40.579  27.722  28.918  1.00  0.00     0.031 A 
ATOM     12  C   UNL A   1      41.953  27.871  29.500  1.00  0.00     0.074 A 
ATOM     13  C   UNL A   1      39.725  28.761  28.916  1.00  0.00     0.049 A 
ATOM     14  N   UNL A   1      42.507  28.927  30.038  1.00  0.00    -0.248 NA
ATOM     15  C   UNL A   1      42.836  26.698  29.421  1.00  0.00     0.031 C 
ATOM     16  C   UNL A   1      38.402  28.772  28.292  1.00  0.00     0.029 A 
ATOM     17  N   UNL A   1      39.838  30.009  29.471  1.00  0.00    -0.354 N 
ATOM     18  C   UNL A   1      43.830  28.577  30.264  1.00  0.00     0.074 A 
ATOM     19  C   UNL A   1      43.969  27.182  29.910  1.00  0.00     0.031 C 
ATOM     20  C   UNL A   1      37.791  29.937  28.575  1.00  0.00     0.029 A 
ATOM     21  C   UNL A   1      38.688  30.754  29.382  1.00  0.00     0.049 A 
ATOM     22  H   UNL A   1      40.664  30.339  29.893  1.00  0.00     0.167 HD
ATOM     23  C   UNL A   1      44.848  29.370  30.672  1.00  0.00     0.037 A 
ATOM     24  C   UNL A   1      38.394  31.949  29.923  1.00  0.00     0.037 A 
ATOM     25  C   UNL A   1      44.691  30.737  31.091  1.00  0.00     0.049 A 
ATOM     26  C   UNL A   1      39.469  32.702  30.653  1.00  0.00     0.074 A 
ATOM     27  C   UNL A   1      45.652  31.625  31.543  1.00  0.00     0.029 A 
ATOM     28  N   UNL A   1      43.477  31.405  31.136  1.00  0.00    -0.354 N 
ATOM     29  N   UNL A   1      40.727  32.383  30.829  1.00  0.00    -0.248 NA
ATOM     30  C   UNL A   1      39.089  33.997  31.234  1.00  0.00     0.031 C 
ATOM     31  C   UNL A   1      45.009  32.816  31.904  1.00  0.00     0.029 A 
ATOM     32  C   UNL A   1      43.656  32.684  31.637  1.00  0.00     0.049 A 
ATOM     33  H   UNL A   1      42.613  31.026  30.855  1.00  0.00     0.167 HD
ATOM     34  C   UNL A   1      41.305  33.460  31.483  1.00  0.00     0.074 A 
ATOM     35  C   UNL A   1      40.252  34.431  31.700  1.00  0.00     0.031 C 
ATOM     36  C   UNL A   1      42.600  33.642  31.839  1.00  0.00     0.037 A 
BRANCH  23  37
ATOM     37  C   UNL A   1      46.222  28.773  30.646  1.00  0.00     0.064 A 
ATOM     38  C   UNL A   1      46.993  28.799  29.472  1.00  0.00     0.173 A 
ATOM     39  C   UNL A   1      46.782  28.186  31.788  1.00  0.00     0.173 A 
ATOM     40  F   UNL A   1      46.494  29.339  28.349  1.00  0.00    -0.203 F 
ATOM     41  C   UNL A   1      48.266  28.238  29.438  1.00  0.00     0.198 A 
ATOM     42  C   UNL A   1      48.064  27.643  31.754  1.00  0.00     0.198 A 
ATOM     43  F   UNL A   1      46.086  28.136  32.933  1.00  0.00    -0.203 F 
ATOM     44  F   UNL A   1      48.967  28.239  28.295  1.00  0.00    -0.200 F 
ATOM     45  C   UNL A   1      48.802  27.664  30.579  1.00  0.00     0.200 A 
ATOM     46  F   UNL A   1      48.585  27.092  32.860  1.00  0.00    -0.200 F 
ATOM     47  F   UNL A   1      50.027  27.122  30.545  1.00  0.00    -0.200 F 
ENDBRANCH  23  37
BRANCH  24  48
ATOM     48  C   UNL A   1      37.010  32.480  29.883  1.00  0.00     0.064 A 
ATOM     49  C   UNL A   1      36.535  33.253  28.818  1.00  0.00     0.173 A 
ATOM     50  C   UNL A   1      36.171  32.303  30.992  1.00  0.00     0.173 A 
ATOM     51  F   UNL A   1      37.316  33.477  27.752  1.00  0.00    -0.203 F 
ATOM     52  C   UNL A   1      35.279  33.858  28.881  1.00  0.00     0.198 A 
ATOM     53  C   UNL A   1      34.914  32.898  31.051  1.00  0.00     0.198 A 
ATOM     54  F   UNL A   1      36.598  31.577  32.033  1.00  0.00    -0.203 F 
ATOM     55  F   UNL A   1      34.867  34.642  27.875  1.00  0.00    -0.200 F 
ATOM     56  C   UNL A   1      34.474  33.684  29.998  1.00  0.00     0.200 A 
ATOM     57  F   UNL A   1      34.150  32.743  32.139  1.00  0.00    -0.200 F 
ATOM     58  F   UNL A   1      33.283  34.296  30.069  1.00  0.00    -0.200 F 
ENDBRANCH  24  48
BRANCH  36  59
ATOM     59  C   UNL A   1      42.958  34.978  32.415  1.00  0.00     0.064 A 
ATOM     60  C   UNL A   1      42.748  35.285  33.766  1.00  0.00     0.173 A 
ATOM     61  C   UNL A   1      43.508  35.970  31.589  1.00  0.00     0.173 A 
ATOM     62  F   UNL A   1      42.197  34.378  34.586  1.00  0.00    -0.203 F 
ATOM     63  C   UNL A   1      43.049  36.549  34.264  1.00  0.00     0.198 A 
ATOM     64  C   UNL A   1      43.836  37.223  32.097  1.00  0.00     0.198 A 
ATOM     65  F   UNL A   1      43.725  35.724  30.288  1.00  0.00    -0.203 F 
ATOM     66  F   UNL A   1      42.786  36.843  35.545  1.00  0.00    -0.200 F 
ATOM     67  C   UNL A   1      43.597  37.515  33.431  1.00  0.00     0.200 A 
ATOM     68  F   UNL A   1      44.371  38.151  31.292  1.00  0.00    -0.200 F 
ATOM     69  F   UNL A   1      43.883  38.733  33.912  1.00  0.00    -0.200 F 
ENDBRANCH  36  59
ENDBRANCH  10  11
ENDBRANCH   3   5
ENDBRANCH   2   3
ENDBRANCH   1   2
BRANCH   1  70
ATOM     70  C   UNL A   1      41.697  19.744  26.447  1.00  0.00     0.275 C 
BRANCH  70  71
ATOM     71  O   UNL A   1      42.349  19.564  25.180  1.00  0.00    -0.457 OA
BRANCH  71  72
ATOM     72  C   UNL A   1      43.696  19.333  25.284  1.00  0.00     0.360 C 
ATOM     73  O   UNL A   1      44.202  18.217  25.294  1.00  0.00    -0.244 OA
BRANCH  72  74
ATOM     74  C   UNL A   1      44.479  20.554  25.297  1.00  0.00     0.190 A 
ATOM     75  C   UNL A   1      44.071  21.874  25.361  1.00  0.00     0.147 A 
ATOM     76  N   UNL A   1      45.851  20.515  25.263  1.00  0.00    -0.123 NA
ATOM     77  N   UNL A   1      45.247  22.575  25.441  1.00  0.00    -0.245 N 
ATOM     78  N   UNL A   1      46.303  21.757  25.299  1.00  0.00    -0.066 NA
BRANCH  77  79
ATOM     79  C   UNL A   1      45.462  23.934  25.832  1.00  0.00     0.148 C 
ATOM     80  C   UNL A   1      46.382  24.777  24.933  1.00  0.00     0.149 C 
ATOM     81  C   UNL A   1      44.320  24.866  25.364  1.00  0.00     0.149 C 
ATOM     82  N   UNL A   1      45.377  25.815  25.062  1.00  0.00    -0.333 N 
ATOM     83  C   UNL A   1      45.483  27.136  25.426  1.00  0.00     0.276 C 
ATOM     84  O   UNL A   1      46.549  27.672  25.713  1.00  0.00    -0.267 OA
BRANCH  83  85
ATOM     85  C   UNL A   1      44.209  27.836  25.489  1.00  0.00     0.170 A 
ATOM     86  C   UNL A   1      43.769  28.711  26.459  1.00  0.00     0.141 A 
ATOM     87  N   UNL A   1      43.214  27.689  24.546  1.00  0.00    -0.125 NA
ATOM     88  N   UNL A   1      42.516  29.053  26.052  1.00  0.00    -0.265 N 
ATOM     89  N   UNL A   1      42.185  28.441  24.905  1.00  0.00    -0.069 NA
ATOM     90  H   UNL A   1      41.926  29.673  26.539  1.00  0.00     0.191 HD
ENDBRANCH  83  85
ENDBRANCH  77  79
ENDBRANCH  72  74
ENDBRANCH  71  72
ENDBRANCH  70  71
ENDBRANCH   1  70
TORSDOF 13
ENDMDL
MODEL 3
REMARK VINA RESULT:     -12.2      1.089      1.806
REMARK SMILES O=C(OCCOC(=O)c1cn(C2CN(C(=O)c3c[nH]nn3)C2)nn1)c1ccc(-c2c3nc(c(-c4c(F)c(F)c(F)c(F)c4F)c4ccc([nH]4)c(-c4c(F)c(F)c(F)c(F)c4F)c4nc(c(-c5c(F)c(F)c(F)c(F)c5F)c5ccc2[nH]5)C=C4)C=C3)cc1
REMARK SMILES IDX 4 1 3 2 2 3 1 4 25 5 26 6 87 7 27 8 86 9 28 10 29 11 30 12
REMARK SMILES IDX 80 13 31 14 85 15 79 16 81 17 32 18 84 19 78 20 77 21 33 23
REMARK SMILES IDX 65 24 45 25 64 26 46 27 49 28 63 29 82 30 47 31 48 32 62 34
REMARK SMILES IDX 83 35 50 36 34 37 35 38 43 39 36 40 37 41 41 42 44 43 38 44
REMARK SMILES IDX 39 45 42 46 40 47 66 48 67 49 75 50 68 51 69 52 73 53 76 54
REMARK SMILES IDX 70 55 71 56 74 57 72 58 51 59 52 60 60 61 53 62 54 63 58 64
REMARK SMILES IDX 61 65 55 66 56 67 59 68 57 69 5 70 6 71 7 72 8 73 9 74 10 75
REMARK SMILES IDX 24 76 11 77 23 78 12 79 13 80 22 81 14 82 15 83 16 84 17 85
REMARK SMILES IDX 18 86 21 87 19 88 20 89
REMARK H PARENT 81 22 49 33 19 90
REMARK Flexibility Score: inf
ROOT
ATOM      1  C   UNL A   1      43.822  21.607  25.383  1.00  0.00     0.275 C 
ENDROOT
BRANCH   1   2
ATOM      2  O   UNL A   1      43.511  22.812  24.659  1.00  0.00    -0.458 OA
BRANCH   2   3
ATOM      3  C   UNL A   1      44.039  24.048  24.853  1.00  0.00     0.338 C 
ATOM      4  O   UNL A   1      45.069  24.384  24.276  1.00  0.00    -0.246 OA
BRANCH   3   5
ATOM      5  C   UNL A   1      43.516  24.937  25.927  1.00  0.00     0.060 A 
ATOM      6  C   UNL A   1      44.136  26.118  26.338  1.00  0.00     0.016 A 
ATOM      7  C   UNL A   1      42.360  24.511  26.605  1.00  0.00     0.016 A 
ATOM      8  C   UNL A   1      43.570  26.902  27.345  1.00  0.00     0.010 A 
ATOM      9  C   UNL A   1      41.797  25.288  27.625  1.00  0.00     0.010 A 
ATOM     10  C   UNL A   1      42.400  26.496  27.993  1.00  0.00    -0.014 A 
BRANCH  10  11
ATOM     11  C   UNL A   1      41.894  27.313  29.117  1.00  0.00     0.031 A 
ATOM     12  C   UNL A   1      42.545  27.193  30.463  1.00  0.00     0.074 A 
ATOM     13  C   UNL A   1      40.941  28.238  28.904  1.00  0.00     0.049 A 
ATOM     14  N   UNL A   1      42.332  27.897  31.544  1.00  0.00    -0.248 NA
ATOM     15  C   UNL A   1      43.608  26.185  30.595  1.00  0.00     0.031 C 
ATOM     16  C   UNL A   1      40.304  28.521  27.617  1.00  0.00     0.029 A 
ATOM     17  N   UNL A   1      40.329  29.104  29.772  1.00  0.00    -0.354 N 
ATOM     18  C   UNL A   1      43.303  27.490  32.448  1.00  0.00     0.074 A 
ATOM     19  C   UNL A   1      44.032  26.403  31.832  1.00  0.00     0.031 C 
ATOM     20  C   UNL A   1      39.330  29.431  27.798  1.00  0.00     0.029 A 
ATOM     21  C   UNL A   1      39.291  29.804  29.207  1.00  0.00     0.049 A 
ATOM     22  H   UNL A   1      40.606  29.213  30.711  1.00  0.00     0.167 HD
ATOM     23  C   UNL A   1      43.595  28.021  33.659  1.00  0.00     0.037 A 
ATOM     24  C   UNL A   1      38.396  30.626  29.781  1.00  0.00     0.037 A 
ATOM     25  C   UNL A   1      42.823  29.052  34.297  1.00  0.00     0.049 A 
ATOM     26  C   UNL A   1      38.554  30.976  31.233  1.00  0.00     0.074 A 
ATOM     27  C   UNL A   1      43.018  29.647  35.532  1.00  0.00     0.029 A 
ATOM     28  N   UNL A   1      41.681  29.622  33.755  1.00  0.00    -0.354 N 
ATOM     29  N   UNL A   1      39.496  30.619  32.070  1.00  0.00    -0.248 NA
ATOM     30  C   UNL A   1      37.541  31.870  31.810  1.00  0.00     0.031 C 
ATOM     31  C   UNL A   1      41.966  30.545  35.753  1.00  0.00     0.029 A 
ATOM     32  C   UNL A   1      41.141  30.540  34.641  1.00  0.00     0.049 A 
ATOM     33  H   UNL A   1      41.308  29.405  32.870  1.00  0.00     0.167 HD
ATOM     34  C   UNL A   1      39.227  31.290  33.252  1.00  0.00     0.074 A 
ATOM     35  C   UNL A   1      38.016  32.055  33.034  1.00  0.00     0.031 C 
ATOM     36  C   UNL A   1      39.941  31.300  34.405  1.00  0.00     0.037 A 
BRANCH  23  37
ATOM     37  C   UNL A   1      44.825  27.506  34.343  1.00  0.00     0.064 A 
ATOM     38  C   UNL A   1      46.071  28.119  34.134  1.00  0.00     0.173 A 
ATOM     39  C   UNL A   1      44.767  26.414  35.217  1.00  0.00     0.173 A 
ATOM     40  F   UNL A   1      46.178  29.161  33.295  1.00  0.00    -0.203 F 
ATOM     41  C   UNL A   1      47.219  27.641  34.758  1.00  0.00     0.198 A 
ATOM     42  C   UNL A   1      45.916  25.950  35.856  1.00  0.00     0.198 A 
ATOM     43  F   UNL A   1      43.601  25.794  35.450  1.00  0.00    -0.203 F 
ATOM     44  F   UNL A   1      48.404  28.217  34.512  1.00  0.00    -0.200 F 
ATOM     45  C   UNL A   1      47.140  26.559  35.621  1.00  0.00     0.200 A 
ATOM     46  F   UNL A   1      45.839  24.907  36.695  1.00  0.00    -0.200 F 
ATOM     47  F   UNL A   1      48.246  26.098  36.221  1.00  0.00    -0.200 F 
ENDBRANCH  23  37
BRANCH  24  48
ATOM     48  C   UNL A   1      37.216  31.111  29.022  1.00  0.00     0.064 A 
ATOM     49  C   UNL A   1      37.074  32.447  28.633  1.00  0.00     0.173 A 
ATOM     50  C   UNL A   1      36.148  30.237  28.776  1.00  0.00     0.173 A 
ATOM     51  F   UNL A   1      38.057  33.324  28.879  1.00  0.00    -0.203 F 
ATOM     52  C   UNL A   1      35.889  32.898  28.052  1.00  0.00     0.198 A 
ATOM     53  C   UNL A   1      34.969  30.684  28.188  1.00  0.00     0.198 A 
ATOM     54  F   UNL A   1      36.246  28.954  29.146  1.00  0.00    -0.203 F 
ATOM     55  F   UNL A   1      35.751  34.194  27.739  1.00  0.00    -0.200 F 
ATOM     56  C   UNL A   1      34.837  32.018  27.835  1.00  0.00     0.200 A 
ATOM     57  F   UNL A   1      33.951  29.836  28.000  1.00  0.00    -0.200 F 
ATOM     58  F   UNL A   1      33.687  32.463  27.310  1.00  0.00    -0.200 F 
ENDBRANCH  24  48
BRANCH  36  59
ATOM     59  C   UNL A   1      39.474  32.236  35.478  1.00  0.00     0.064 A 
ATOM     60  C   UNL A   1      38.587  31.831  36.483  1.00  0.00     0.173 A 
ATOM     61  C   UNL A   1      39.917  33.567  35.484  1.00  0.00     0.173 A 
ATOM     62  F   UNL A   1      38.114  30.576  36.500  1.00  0.00    -0.203 F 
ATOM     63  C   UNL A   1      38.136  32.734  37.441  1.00  0.00     0.198 A 
ATOM     64  C   UNL A   1      39.488  34.460  36.460  1.00  0.00     0.198 A 
ATOM     65  F   UNL A   1      40.765  34.003  34.539  1.00  0.00    -0.203 F 
ATOM     66  F   UNL A   1      37.242  32.343  38.361  1.00  0.00    -0.200 F 
ATOM     67  C   UNL A   1      38.591  34.045  37.432  1.00  0.00     0.200 A 
ATOM     68  F   UNL A   1      39.934  35.723  36.452  1.00  0.00    -0.200 F 
ATOM     69  F   UNL A   1      38.152  34.915  38.354  1.00  0.00    -0.200 F 
ENDBRANCH  36  59
ENDBRANCH  10  11
ENDBRANCH   3   5
ENDBRANCH   2   3
ENDBRANCH   1   2
BRANCH   1  70
ATOM     70  C   UNL A   1      42.633  20.981  26.120  1.00  0.00     0.275 C 
BRANCH  70  71
ATOM     71  O   UNL A   1      41.360  21.431  25.630  1.00  0.00    -0.457 OA
BRANCH  71  72
ATOM     72  C   UNL A   1      40.364  21.391  26.570  1.00  0.00     0.360 C 
ATOM     73  O   UNL A   1      40.531  21.049  27.735  1.00  0.00    -0.244 OA
BRANCH  72  74
ATOM     74  C   UNL A   1      39.093  21.878  26.066  1.00  0.00     0.190 A 
ATOM     75  C   UNL A   1      38.122  21.231  25.323  1.00  0.00     0.147 A 
ATOM     76  N   UNL A   1      38.676  23.160  26.320  1.00  0.00    -0.123 NA
ATOM     77  N   UNL A   1      37.113  22.156  25.230  1.00  0.00    -0.245 N 
ATOM     78  N   UNL A   1      37.491  23.331  25.760  1.00  0.00    -0.066 NA
BRANCH  77  79
ATOM     79  C   UNL A   1      35.747  21.965  24.852  1.00  0.00     0.148 C 
ATOM     80  C   UNL A   1      35.058  20.690  25.367  1.00  0.00     0.149 C 
ATOM     81  C   UNL A   1      34.772  22.741  25.770  1.00  0.00     0.149 C 
ATOM     82  N   UNL A   1      33.937  21.555  25.686  1.00  0.00    -0.333 N 
ATOM     83  C   UNL A   1      32.602  21.458  25.373  1.00  0.00     0.276 C 
ATOM     84  O   UNL A   1      32.129  20.530  24.724  1.00  0.00    -0.267 OA
BRANCH  83  85
ATOM     85  C   UNL A   1      31.802  22.580  25.840  1.00  0.00     0.170 A 
ATOM     86  C   UNL A   1      31.030  23.441  25.090  1.00  0.00     0.141 A 
ATOM     87  N   UNL A   1      31.728  22.962  27.163  1.00  0.00    -0.125 NA
ATOM     88  N   UNL A   1      30.522  24.311  26.005  1.00  0.00    -0.265 N 
ATOM     89  N   UNL A   1      30.939  24.023  27.247  1.00  0.00    -0.069 NA
ATOM     90  H   UNL A   1      29.921  25.059  25.783  1.00  0.00     0.191 HD
ENDBRANCH  83  85
ENDBRANCH  77  79
ENDBRANCH  72  74
ENDBRANCH  71  72
ENDBRANCH  70  71
ENDBRANCH   1  70
TORSDOF 13
ENDMDL
