MODEL 1
REMARK VINA RESULT:     -13.6      0.000      0.000
REMARK SMILES O=C(COc1ccccc1/C=N/NC(=O)c1cc(-c2ccc(F)cc2)nc2ccccc12)OCCOC(=O)c1ccc(-c2c3nc(c(-c4c(F)c(F)c(F)c(F)c4F)c4ccc([nH]4)c(-c4c(F)c(F)c(F)c(F)c4F)c4nc(c(-c5c(F)c(F)c(F)c(F)c5F)c5ccc2[nH]5)C=C4)C=C3)cc1
REMARK SMILES IDX 1 1 2 2 3 3 4 4 5 5 6 6 10 7 7 8 9 9 8 10 11 11 12 12 13 13
REMARK SMILES IDX 14 14 15 16 16 17 17 18 32 19 18 20 27 21 31 22 26 23 28 24
REMARK SMILES IDX 30 25 29 26 19 27 20 28 25 29 21 30 24 31 22 32 23 33 33 34
REMARK SMILES IDX 34 35 35 36 36 37 37 38 38 39 39 40 40 41 101 42 41 43
REMARK SMILES IDX 100 44 42 45 43 46 44 47 94 48 45 49 99 50 93 51 95 52 46 53
REMARK SMILES IDX 98 54 92 55 91 56 47 58 79 59 59 60 78 61 60 62 63 63 77 64
REMARK SMILES IDX 96 65 61 66 62 67 76 69 97 70 64 71 48 72 49 73 57 74 50 75
REMARK SMILES IDX 51 76 55 77 58 78 52 79 53 80 56 81 54 82 80 83 81 84 89 85
REMARK SMILES IDX 82 86 83 87 87 88 90 89 84 90 85 91 88 92 86 93 65 94 66 95
REMARK SMILES IDX 74 96 67 97 68 98 72 99 75 100 69 101 70 102 73 103 71 104
REMARK H PARENT 13 15 95 57 63 68
REMARK Flexibility Score: inf
ROOT
ATOM      1  O   UNL A   1      35.801  22.950  24.949  1.00  0.00    -0.248 OA
ATOM      2  C   UNL A   1      36.207  21.781  24.808  1.00  0.00     0.344 C 
ENDROOT
BRANCH   2   3
ATOM      3  C   UNL A   1      35.184  20.629  25.007  1.00  0.00     0.352 C 
BRANCH   3   4
ATOM      4  O   UNL A   1      35.338  19.305  24.939  1.00  0.00    -0.481 OA
BRANCH   4   5
ATOM      5  C   UNL A   1      34.176  18.836  24.442  1.00  0.00     0.129 A 
ATOM      6  C   UNL A   1      34.356  17.491  24.303  1.00  0.00     0.047 A 
ATOM      7  C   UNL A   1      33.110  19.555  23.809  1.00  0.00     0.037 A 
ATOM      8  C   UNL A   1      33.650  16.949  23.277  1.00  0.00     0.004 A 
ATOM      9  C   UNL A   1      32.314  18.928  22.950  1.00  0.00     0.013 A 
ATOM     10  C   UNL A   1      32.591  17.629  22.676  1.00  0.00     0.001 A 
BRANCH   7  11
ATOM     11  C   UNL A   1      32.549  20.885  23.953  1.00  0.00     0.145 C 
ATOM     12  N   UNL A   1      31.684  21.664  24.515  1.00  0.00    -0.180 NA
BRANCH  12  13
ATOM     13  N   UNL A   1      31.698  23.073  24.132  1.00  0.00    -0.243 N 
ATOM     14  C   UNL A   1      31.530  24.373  24.648  1.00  0.00     0.272 C 
ATOM     15  H   UNL A   1      31.896  23.137  23.170  1.00  0.00     0.194 HD
ATOM     16  O   UNL A   1      31.953  24.844  23.514  1.00  0.00    -0.267 OA
BRANCH  14  17
ATOM     17  C   UNL A   1      31.443  25.804  24.857  1.00  0.00     0.053 A 
ATOM     18  C   UNL A   1      30.235  26.448  24.077  1.00  0.00     0.043 A 
ATOM     19  C   UNL A   1      32.467  27.012  25.830  1.00  0.00     0.013 A 
ATOM     20  C   UNL A   1      30.348  27.701  23.903  1.00  0.00     0.072 A 
ATOM     21  C   UNL A   1      31.798  28.089  25.755  1.00  0.00     0.072 A 
ATOM     22  C   UNL A   1      33.430  28.104  26.743  1.00  0.00     0.011 A 
ATOM     23  N   UNL A   1      31.070  27.710  24.848  1.00  0.00    -0.248 NA
ATOM     24  C   UNL A   1      31.530  29.431  25.848  1.00  0.00     0.029 A 
ATOM     25  C   UNL A   1      33.404  29.696  26.740  1.00  0.00     0.001 A 
ATOM     26  C   UNL A   1      32.517  30.299  25.955  1.00  0.00     0.002 A 
BRANCH  20  27
ATOM     27  C   UNL A   1      29.753  28.838  23.422  1.00  0.00     0.000 A 
ATOM     28  C   UNL A   1      28.364  28.844  23.589  1.00  0.00     0.013 A 
ATOM     29  C   UNL A   1      30.485  29.480  22.449  1.00  0.00     0.013 A 
ATOM     30  C   UNL A   1      27.678  29.309  22.506  1.00  0.00     0.040 A 
ATOM     31  C   UNL A   1      29.755  30.164  21.541  1.00  0.00     0.040 A 
ATOM     32  C   UNL A   1      28.367  30.069  21.578  1.00  0.00     0.123 A 
ATOM     33  F   UNL A   1      27.647  30.818  20.751  1.00  0.00    -0.207 F 
ENDBRANCH  20  27
ENDBRANCH  14  17
ENDBRANCH  12  13
ENDBRANCH   7  11
ENDBRANCH   4   5
ENDBRANCH   3   4
ENDBRANCH   2   3
BRANCH   2  34
ATOM     34  O   UNL A   1      37.429  21.515  24.327  1.00  0.00    -0.460 OA
BRANCH  34  35
ATOM     35  C   UNL A   1      38.329  21.237  25.359  1.00  0.00     0.274 C 
BRANCH  35  36
ATOM     36  C   UNL A   1      38.594  19.701  25.373  1.00  0.00     0.275 C 
BRANCH  36  37
ATOM     37  O   UNL A   1      40.030  19.099  25.358  1.00  0.00    -0.458 OA
BRANCH  37  38
ATOM     38  C   UNL A   1      41.171  19.444  26.092  1.00  0.00     0.338 C 
ATOM     39  O   UNL A   1      42.308  19.058  26.022  1.00  0.00    -0.246 OA
BRANCH  38  40
ATOM     40  C   UNL A   1      41.607  20.676  26.745  1.00  0.00     0.060 A 
ATOM     41  C   UNL A   1      41.654  21.017  28.202  1.00  0.00     0.016 A 
ATOM     42  C   UNL A   1      41.813  21.557  25.777  1.00  0.00     0.016 A 
ATOM     43  C   UNL A   1      41.925  22.278  28.604  1.00  0.00     0.010 A 
ATOM     44  C   UNL A   1      42.077  22.810  26.211  1.00  0.00     0.010 A 
ATOM     45  C   UNL A   1      42.183  23.161  27.581  1.00  0.00    -0.014 A 
BRANCH  45  46
ATOM     46  C   UNL A   1      42.663  24.484  27.928  1.00  0.00     0.031 A 
ATOM     47  C   UNL A   1      41.698  25.554  28.237  1.00  0.00     0.074 A 
ATOM     48  C   UNL A   1      43.989  24.704  27.911  1.00  0.00     0.049 A 
ATOM     49  N   UNL A   1      41.996  26.790  28.511  1.00  0.00    -0.248 NA
ATOM     50  C   UNL A   1      40.258  25.243  28.247  1.00  0.00     0.031 C 
ATOM     51  C   UNL A   1      44.994  23.677  27.639  1.00  0.00     0.029 A 
ATOM     52  N   UNL A   1      44.720  25.844  28.114  1.00  0.00    -0.354 N 
ATOM     53  C   UNL A   1      40.791  27.409  28.743  1.00  0.00     0.074 A 
ATOM     54  C   UNL A   1      39.743  26.431  28.545  1.00  0.00     0.031 C 
ATOM     55  C   UNL A   1      46.208  24.230  27.701  1.00  0.00     0.029 A 
ATOM     56  C   UNL A   1      46.071  25.651  27.988  1.00  0.00     0.049 A 
ATOM     57  H   UNL A   1      44.315  26.716  28.329  1.00  0.00     0.167 HD
ATOM     58  C   UNL A   1      40.618  28.696  29.095  1.00  0.00     0.037 A 
ATOM     59  C   UNL A   1      47.112  26.498  28.082  1.00  0.00     0.037 A 
ATOM     60  C   UNL A   1      41.670  29.650  29.231  1.00  0.00     0.049 A 
ATOM     61  C   UNL A   1      46.865  27.944  28.354  1.00  0.00     0.074 A 
ATOM     62  C   UNL A   1      41.521  30.979  29.568  1.00  0.00     0.029 A 
ATOM     63  N   UNL A   1      43.015  29.417  29.029  1.00  0.00    -0.354 N 
ATOM     64  N   UNL A   1      45.712  28.506  28.587  1.00  0.00    -0.248 NA
ATOM     65  C   UNL A   1      48.009  28.873  28.377  1.00  0.00     0.031 C 
ATOM     66  C   UNL A   1      42.763  31.569  29.556  1.00  0.00     0.029 A 
ATOM     67  C   UNL A   1      43.692  30.600  29.241  1.00  0.00     0.049 A 
ATOM     68  H   UNL A   1      43.422  28.556  28.776  1.00  0.00     0.167 HD
ATOM     69  C   UNL A   1      45.987  29.833  28.828  1.00  0.00     0.074 A 
ATOM     70  C   UNL A   1      47.419  30.015  28.699  1.00  0.00     0.031 C 
ATOM     71  C   UNL A   1      45.097  30.796  29.137  1.00  0.00     0.037 A 
BRANCH  58  72
ATOM     72  C   UNL A   1      39.239  29.202  29.297  1.00  0.00     0.064 A 
ATOM     73  C   UNL A   1      38.670  29.370  30.555  1.00  0.00     0.173 A 
ATOM     74  C   UNL A   1      38.505  29.605  28.173  1.00  0.00     0.173 A 
ATOM     75  F   UNL A   1      39.395  29.162  31.665  1.00  0.00    -0.203 F 
ATOM     76  C   UNL A   1      37.346  29.773  30.663  1.00  0.00     0.198 A 
ATOM     77  C   UNL A   1      37.233  30.130  28.300  1.00  0.00     0.198 A 
ATOM     78  F   UNL A   1      39.066  29.572  26.955  1.00  0.00    -0.203 F 
ATOM     79  F   UNL A   1      36.698  29.648  31.828  1.00  0.00    -0.200 F 
ATOM     80  C   UNL A   1      36.658  30.230  29.551  1.00  0.00     0.200 A 
ATOM     81  F   UNL A   1      36.554  30.491  27.206  1.00  0.00    -0.200 F 
ATOM     82  F   UNL A   1      35.449  30.788  29.694  1.00  0.00    -0.200 F 
ENDBRANCH  58  72
BRANCH  59  83
ATOM     83  C   UNL A   1      48.485  26.022  27.831  1.00  0.00     0.064 A 
ATOM     84  C   UNL A   1      49.360  25.710  28.871  1.00  0.00     0.173 A 
ATOM     85  C   UNL A   1      48.990  26.040  26.527  1.00  0.00     0.173 A 
ATOM     86  F   UNL A   1      48.899  25.549  30.121  1.00  0.00    -0.203 F 
ATOM     87  C   UNL A   1      50.724  25.622  28.625  1.00  0.00     0.198 A 
ATOM     88  C   UNL A   1      50.329  25.812  26.274  1.00  0.00     0.198 A 
ATOM     89  F   UNL A   1      48.168  26.239  25.487  1.00  0.00    -0.203 F 
ATOM     90  F   UNL A   1      51.595  25.666  29.640  1.00  0.00    -0.200 F 
ATOM     91  C   UNL A   1      51.196  25.593  27.324  1.00  0.00     0.200 A 
ATOM     92  F   UNL A   1      50.778  25.871  25.016  1.00  0.00    -0.200 F 
ATOM     93  F   UNL A   1      52.484  25.318  27.088  1.00  0.00    -0.200 F 
ENDBRANCH  59  83
BRANCH  71  94
ATOM     94  C   UNL A   1      45.603  32.170  29.374  1.00  0.00     0.064 A 
ATOM     95  C   UNL A   1      45.682  33.062  28.311  1.00  0.00     0.173 A 
ATOM     96  C   UNL A   1      45.968  32.619  30.652  1.00  0.00     0.173 A 
ATOM     97  F   UNL A   1      45.182  32.724  27.113  1.00  0.00    -0.203 F 
ATOM     98  C   UNL A   1      46.299  34.286  28.481  1.00  0.00     0.198 A 
ATOM     99  C   UNL A   1      46.457  33.903  30.838  1.00  0.00     0.198 A 
ATOM    100  F   UNL A   1      45.778  31.842  31.729  1.00  0.00    -0.203 F 
ATOM    101  F   UNL A   1      46.674  34.994  27.410  1.00  0.00    -0.200 F 
ATOM    102  C   UNL A   1      46.611  34.742  29.749  1.00  0.00     0.200 A 
ATOM    103  F   UNL A   1      46.831  34.308  32.058  1.00  0.00    -0.200 F 
ATOM    104  F   UNL A   1      47.028  36.002  29.916  1.00  0.00    -0.200 F 
ENDBRANCH  71  94
ENDBRANCH  45  46
ENDBRANCH  38  40
ENDBRANCH  37  38
ENDBRANCH  36  37
ENDBRANCH  35  36
ENDBRANCH  34  35
ENDBRANCH   2  34
TORSDOF 17
ENDMDL
MODEL 2
REMARK VINA RESULT:     -13.4      1.160      6.892
REMARK SMILES O=C(COc1ccccc1/C=N/NC(=O)c1cc(-c2ccc(F)cc2)nc2ccccc12)OCCOC(=O)c1ccc(-c2c3nc(c(-c4c(F)c(F)c(F)c(F)c4F)c4ccc([nH]4)c(-c4c(F)c(F)c(F)c(F)c4F)c4nc(c(-c5c(F)c(F)c(F)c(F)c5F)c5ccc2[nH]5)C=C4)C=C3)cc1
REMARK SMILES IDX 1 1 2 2 3 3 4 4 5 5 6 6 10 7 7 8 9 9 8 10 11 11 12 12 13 13
REMARK SMILES IDX 14 14 15 16 16 17 17 18 32 19 18 20 27 21 31 22 26 23 28 24
REMARK SMILES IDX 30 25 29 26 19 27 20 28 25 29 21 30 24 31 22 32 23 33 33 34
REMARK SMILES IDX 34 35 35 36 36 37 37 38 38 39 39 40 40 41 101 42 41 43
REMARK SMILES IDX 100 44 42 45 43 46 44 47 94 48 45 49 99 50 93 51 95 52 46 53
REMARK SMILES IDX 98 54 92 55 91 56 47 58 79 59 59 60 78 61 60 62 63 63 77 64
REMARK SMILES IDX 96 65 61 66 62 67 76 69 97 70 64 71 48 72 49 73 57 74 50 75
REMARK SMILES IDX 51 76 55 77 58 78 52 79 53 80 56 81 54 82 80 83 81 84 89 85
REMARK SMILES IDX 82 86 83 87 87 88 90 89 84 90 85 91 88 92 86 93 65 94 66 95
REMARK SMILES IDX 74 96 67 97 68 98 72 99 75 100 69 101 70 102 73 103 71 104
REMARK H PARENT 13 15 95 57 63 68
REMARK Flexibility Score: inf
ROOT
ATOM      1  O   UNL A   1      35.859  22.984  24.856  1.00  0.00    -0.248 OA
ATOM      2  C   UNL A   1      36.242  21.802  24.765  1.00  0.00     0.344 C 
ENDROOT
BRANCH   2   3
ATOM      3  C   UNL A   1      35.192  20.680  24.996  1.00  0.00     0.352 C 
BRANCH   3   4
ATOM      4  O   UNL A   1      35.318  19.351  24.974  1.00  0.00    -0.481 OA
BRANCH   4   5
ATOM      5  C   UNL A   1      34.147  18.889  24.492  1.00  0.00     0.129 A 
ATOM      6  C   UNL A   1      34.307  17.540  24.377  1.00  0.00     0.047 A 
ATOM      7  C   UNL A   1      33.087  19.612  23.853  1.00  0.00     0.037 A 
ATOM      8  C   UNL A   1      33.587  16.990  23.365  1.00  0.00     0.004 A 
ATOM      9  C   UNL A   1      32.277  18.982  23.009  1.00  0.00     0.013 A 
ATOM     10  C   UNL A   1      32.534  17.674  22.758  1.00  0.00     0.001 A 
BRANCH   7  11
ATOM     11  C   UNL A   1      32.546  20.953  23.976  1.00  0.00     0.145 C 
ATOM     12  N   UNL A   1      31.662  21.744  24.488  1.00  0.00    -0.180 NA
BRANCH  12  13
ATOM     13  N   UNL A   1      31.731  23.157  24.124  1.00  0.00    -0.243 N 
ATOM     14  C   UNL A   1      31.521  24.453  24.634  1.00  0.00     0.272 C 
ATOM     15  H   UNL A   1      32.034  23.229  23.191  1.00  0.00     0.194 HD
ATOM     16  O   UNL A   1      32.070  24.931  23.559  1.00  0.00    -0.267 OA
BRANCH  14  17
ATOM     17  C   UNL A   1      31.425  25.883  24.848  1.00  0.00     0.053 A 
ATOM     18  C   UNL A   1      30.233  26.527  24.045  1.00  0.00     0.043 A 
ATOM     19  C   UNL A   1      32.424  27.088  25.850  1.00  0.00     0.013 A 
ATOM     20  C   UNL A   1      30.348  27.782  23.880  1.00  0.00     0.072 A 
ATOM     21  C   UNL A   1      31.754  28.164  25.767  1.00  0.00     0.072 A 
ATOM     22  C   UNL A   1      33.363  28.177  26.790  1.00  0.00     0.011 A 
ATOM     23  N   UNL A   1      31.048  27.788  24.841  1.00  0.00    -0.248 NA
ATOM     24  C   UNL A   1      31.480  29.505  25.860  1.00  0.00     0.029 A 
ATOM     25  C   UNL A   1      33.333  29.769  26.796  1.00  0.00     0.001 A 
ATOM     26  C   UNL A   1      32.463  30.375  25.993  1.00  0.00     0.002 A 
BRANCH  20  27
ATOM     27  C   UNL A   1      29.760  28.921  23.392  1.00  0.00     0.000 A 
ATOM     28  C   UNL A   1      28.371  28.934  23.552  1.00  0.00     0.013 A 
ATOM     29  C   UNL A   1      30.500  29.555  22.419  1.00  0.00     0.013 A 
ATOM     30  C   UNL A   1      27.692  29.399  22.464  1.00  0.00     0.040 A 
ATOM     31  C   UNL A   1      29.778  30.238  21.505  1.00  0.00     0.040 A 
ATOM     32  C   UNL A   1      28.389  30.151  21.536  1.00  0.00     0.123 A 
ATOM     33  F   UNL A   1      27.676  30.900  20.703  1.00  0.00    -0.207 F 
ENDBRANCH  20  27
ENDBRANCH  14  17
ENDBRANCH  12  13
ENDBRANCH   7  11
ENDBRANCH   4   5
ENDBRANCH   3   4
ENDBRANCH   2   3
BRANCH   2  34
ATOM     34  O   UNL A   1      37.464  21.492  24.312  1.00  0.00    -0.460 OA
BRANCH  34  35
ATOM     35  C   UNL A   1      38.347  21.241  25.366  1.00  0.00     0.274 C 
BRANCH  35  36
ATOM     36  C   UNL A   1      38.642  19.711  25.401  1.00  0.00     0.275 C 
BRANCH  36  37
ATOM     37  O   UNL A   1      40.072  19.139  25.624  1.00  0.00    -0.458 OA
BRANCH  37  38
ATOM     38  C   UNL A   1      41.146  19.636  26.372  1.00  0.00     0.338 C 
ATOM     39  O   UNL A   1      42.287  19.266  26.467  1.00  0.00    -0.246 OA
BRANCH  38  40
ATOM     40  C   UNL A   1      41.520  20.975  26.820  1.00  0.00     0.060 A 
ATOM     41  C   UNL A   1      41.524  21.552  28.202  1.00  0.00     0.016 A 
ATOM     42  C   UNL A   1      41.711  21.694  25.724  1.00  0.00     0.016 A 
ATOM     43  C   UNL A   1      41.737  22.872  28.396  1.00  0.00     0.010 A 
ATOM     44  C   UNL A   1      41.917  23.011  25.950  1.00  0.00     0.010 A 
ATOM     45  C   UNL A   1      41.981  23.585  27.245  1.00  0.00    -0.014 A 
BRANCH  45  46
ATOM     46  C   UNL A   1      42.401  24.966  27.377  1.00  0.00     0.031 A 
ATOM     47  C   UNL A   1      43.736  25.374  26.906  1.00  0.00     0.074 A 
ATOM     48  C   UNL A   1      41.563  25.831  27.977  1.00  0.00     0.049 A 
ATOM     49  N   UNL A   1      44.250  26.564  27.014  1.00  0.00    -0.248 NA
ATOM     50  C   UNL A   1      44.602  24.378  26.250  1.00  0.00     0.031 C 
ATOM     51  C   UNL A   1      40.218  25.492  28.440  1.00  0.00     0.029 A 
ATOM     52  N   UNL A   1      41.710  27.152  28.307  1.00  0.00    -0.354 N 
ATOM     53  C   UNL A   1      45.490  26.476  26.429  1.00  0.00     0.074 A 
ATOM     54  C   UNL A   1      45.682  25.108  25.994  1.00  0.00     0.031 C 
ATOM     55  C   UNL A   1      39.660  26.577  28.984  1.00  0.00     0.029 A 
ATOM     56  C   UNL A   1      40.611  27.677  28.936  1.00  0.00     0.049 A 
ATOM     57  H   UNL A   1      42.523  27.672  28.111  1.00  0.00     0.167 HD
ATOM     58  C   UNL A   1      46.369  27.483  26.283  1.00  0.00     0.037 A 
ATOM     59  C   UNL A   1      40.363  28.902  29.436  1.00  0.00     0.037 A 
ATOM     60  C   UNL A   1      46.172  28.810  26.769  1.00  0.00     0.049 A 
ATOM     61  C   UNL A   1      41.414  29.957  29.361  1.00  0.00     0.074 A 
ATOM     62  C   UNL A   1      47.063  29.857  26.654  1.00  0.00     0.029 A 
ATOM     63  N   UNL A   1      45.069  29.273  27.457  1.00  0.00    -0.354 N 
ATOM     64  N   UNL A   1      42.580  29.855  28.786  1.00  0.00    -0.248 NA
ATOM     65  C   UNL A   1      41.157  31.269  29.981  1.00  0.00     0.031 C 
ATOM     66  C   UNL A   1      46.524  30.954  27.283  1.00  0.00     0.029 A 
ATOM     67  C   UNL A   1      45.281  30.601  27.764  1.00  0.00     0.049 A 
ATOM     68  H   UNL A   1      44.269  28.747  27.688  1.00  0.00     0.167 HD
ATOM     69  C   UNL A   1      43.176  31.088  28.930  1.00  0.00     0.074 A 
ATOM     70  C   UNL A   1      42.259  31.935  29.664  1.00  0.00     0.031 C 
ATOM     71  C   UNL A   1      44.387  31.454  28.468  1.00  0.00     0.037 A 
BRANCH  58  72
ATOM     72  C   UNL A   1      47.672  27.206  25.632  1.00  0.00     0.064 A 
ATOM     73  C   UNL A   1      47.898  27.403  24.273  1.00  0.00     0.173 A 
ATOM     74  C   UNL A   1      48.748  26.805  26.436  1.00  0.00     0.173 A 
ATOM     75  F   UNL A   1      46.951  27.951  23.497  1.00  0.00    -0.203 F 
ATOM     76  C   UNL A   1      49.121  27.047  23.721  1.00  0.00     0.198 A 
ATOM     77  C   UNL A   1      49.999  26.579  25.897  1.00  0.00     0.198 A 
ATOM     78  F   UNL A   1      48.599  26.723  27.767  1.00  0.00    -0.203 F 
ATOM     79  F   UNL A   1      49.253  26.941  22.393  1.00  0.00    -0.200 F 
ATOM     80  C   UNL A   1      50.191  26.715  24.537  1.00  0.00     0.200 A 
ATOM     81  F   UNL A   1      51.000  26.182  26.690  1.00  0.00    -0.200 F 
ATOM     82  F   UNL A   1      51.411  26.554  24.008  1.00  0.00    -0.200 F 
ENDBRANCH  58  72
BRANCH  59  83
ATOM     83  C   UNL A   1      39.094  29.179  30.134  1.00  0.00     0.064 A 
ATOM     84  C   UNL A   1      38.001  29.749  29.480  1.00  0.00     0.173 A 
ATOM     85  C   UNL A   1      39.026  29.027  31.521  1.00  0.00     0.173 A 
ATOM     86  F   UNL A   1      37.960  29.795  28.139  1.00  0.00    -0.203 F 
ATOM     87  C   UNL A   1      36.976  30.324  30.219  1.00  0.00     0.198 A 
ATOM     88  C   UNL A   1      37.935  29.477  32.240  1.00  0.00     0.198 A 
ATOM     89  F   UNL A   1      40.009  28.398  32.181  1.00  0.00    -0.203 F 
ATOM     90  F   UNL A   1      36.111  31.160  29.632  1.00  0.00    -0.200 F 
ATOM     91  C   UNL A   1      36.904  30.119  31.586  1.00  0.00     0.200 A 
ATOM     92  F   UNL A   1      37.925  29.343  33.569  1.00  0.00    -0.200 F 
ATOM     93  F   UNL A   1      35.818  30.512  32.263  1.00  0.00    -0.200 F 
ENDBRANCH  59  83
BRANCH  71  94
ATOM     94  C   UNL A   1      44.843  32.844  28.719  1.00  0.00     0.064 A 
ATOM     95  C   UNL A   1      45.583  33.124  29.862  1.00  0.00     0.173 A 
ATOM     96  C   UNL A   1      44.587  33.886  27.816  1.00  0.00     0.173 A 
ATOM     97  F   UNL A   1      45.991  32.125  30.659  1.00  0.00    -0.203 F 
ATOM     98  C   UNL A   1      45.875  34.434  30.192  1.00  0.00     0.198 A 
ATOM     99  C   UNL A   1      45.009  35.178  28.088  1.00  0.00     0.198 A 
ATOM    100  F   UNL A   1      44.000  33.638  26.635  1.00  0.00    -0.203 F 
ATOM    101  F   UNL A   1      46.280  34.731  31.431  1.00  0.00    -0.200 F 
ATOM    102  C   UNL A   1      45.665  35.449  29.275  1.00  0.00     0.200 A 
ATOM    103  F   UNL A   1      44.731  36.169  27.232  1.00  0.00    -0.200 F 
ATOM    104  F   UNL A   1      46.129  36.677  29.531  1.00  0.00    -0.200 F 
ENDBRANCH  71  94
ENDBRANCH  45  46
ENDBRANCH  38  40
ENDBRANCH  37  38
ENDBRANCH  36  37
ENDBRANCH  35  36
ENDBRANCH  34  35
ENDBRANCH   2  34
TORSDOF 17
ENDMDL
MODEL 3
REMARK VINA RESULT:     -13.3      4.273      7.231
REMARK SMILES O=C(COc1ccccc1/C=N/NC(=O)c1cc(-c2ccc(F)cc2)nc2ccccc12)OCCOC(=O)c1ccc(-c2c3nc(c(-c4c(F)c(F)c(F)c(F)c4F)c4ccc([nH]4)c(-c4c(F)c(F)c(F)c(F)c4F)c4nc(c(-c5c(F)c(F)c(F)c(F)c5F)c5ccc2[nH]5)C=C4)C=C3)cc1
REMARK SMILES IDX 1 1 2 2 3 3 4 4 5 5 6 6 10 7 7 8 9 9 8 10 11 11 12 12 13 13
REMARK SMILES IDX 14 14 15 16 16 17 17 18 32 19 18 20 27 21 31 22 26 23 28 24
REMARK SMILES IDX 30 25 29 26 19 27 20 28 25 29 21 30 24 31 22 32 23 33 33 34
REMARK SMILES IDX 34 35 35 36 36 37 37 38 38 39 39 40 40 41 101 42 41 43
REMARK SMILES IDX 100 44 42 45 43 46 44 47 94 48 45 49 99 50 93 51 95 52 46 53
REMARK SMILES IDX 98 54 92 55 91 56 47 58 79 59 59 60 78 61 60 62 63 63 77 64
REMARK SMILES IDX 96 65 61 66 62 67 76 69 97 70 64 71 48 72 49 73 57 74 50 75
REMARK SMILES IDX 51 76 55 77 58 78 52 79 53 80 56 81 54 82 80 83 81 84 89 85
REMARK SMILES IDX 82 86 83 87 87 88 90 89 84 90 85 91 88 92 86 93 65 94 66 95
REMARK SMILES IDX 74 96 67 97 68 98 72 99 75 100 69 101 70 102 73 103 71 104
REMARK H PARENT 13 15 95 57 63 68
REMARK Flexibility Score: inf
ROOT
ATOM      1  O   UNL A   1      44.572  18.400  25.638  1.00  0.00    -0.248 OA
ATOM      2  C   UNL A   1      44.011  19.384  25.120  1.00  0.00     0.344 C 
ENDROOT
BRANCH   2   3
ATOM      3  C   UNL A   1      42.671  19.865  25.740  1.00  0.00     0.352 C 
BRANCH   3   4
ATOM      4  O   UNL A   1      42.278  19.944  27.014  1.00  0.00    -0.481 OA
BRANCH   4   5
ATOM      5  C   UNL A   1      42.029  21.251  27.230  1.00  0.00     0.129 A 
ATOM      6  C   UNL A   1      43.119  21.723  27.899  1.00  0.00     0.047 A 
ATOM      7  C   UNL A   1      40.782  21.955  27.164  1.00  0.00     0.037 A 
ATOM      8  C   UNL A   1      42.835  22.741  28.754  1.00  0.00     0.004 A 
ATOM      9  C   UNL A   1      40.615  23.065  27.875  1.00  0.00     0.013 A 
ATOM     10  C   UNL A   1      41.638  23.451  28.677  1.00  0.00     0.001 A 
BRANCH   7  11
ATOM     11  C   UNL A   1      39.576  21.823  26.369  1.00  0.00     0.145 C 
ATOM     12  N   UNL A   1      38.763  21.061  25.713  1.00  0.00    -0.180 NA
BRANCH  12  13
ATOM     13  N   UNL A   1      37.605  21.693  25.087  1.00  0.00    -0.243 N 
ATOM     14  C   UNL A   1      36.384  22.330  25.383  1.00  0.00     0.272 C 
ATOM     15  H   UNL A   1      37.719  21.665  24.110  1.00  0.00     0.194 HD
ATOM     16  O   UNL A   1      36.285  22.654  24.130  1.00  0.00    -0.267 OA
BRANCH  14  17
ATOM     17  C   UNL A   1      35.115  23.028  25.345  1.00  0.00     0.053 A 
ATOM     18  C   UNL A   1      35.250  24.477  24.744  1.00  0.00     0.043 A 
ATOM     19  C   UNL A   1      33.393  22.566  25.872  1.00  0.00     0.013 A 
ATOM     20  C   UNL A   1      34.288  25.249  25.050  1.00  0.00     0.072 A 
ATOM     21  C   UNL A   1      32.686  23.526  25.434  1.00  0.00     0.072 A 
ATOM     22  C   UNL A   1      31.812  22.109  26.365  1.00  0.00     0.011 A 
ATOM     23  N   UNL A   1      33.630  24.272  25.212  1.00  0.00    -0.248 NA
ATOM     24  C   UNL A   1      31.589  24.337  25.287  1.00  0.00     0.029 A 
ATOM     25  C   UNL A   1      30.510  23.015  26.499  1.00  0.00     0.001 A 
ATOM     26  C   UNL A   1      30.614  24.301  26.175  1.00  0.00     0.002 A 
BRANCH  20  27
ATOM     27  C   UNL A   1      33.731  26.490  24.881  1.00  0.00     0.000 A 
ATOM     28  C   UNL A   1      33.315  27.074  26.082  1.00  0.00     0.013 A 
ATOM     29  C   UNL A   1      33.218  26.703  23.621  1.00  0.00     0.013 A 
ATOM     30  C   UNL A   1      32.103  27.695  26.006  1.00  0.00     0.040 A 
ATOM     31  C   UNL A   1      32.170  27.554  23.566  1.00  0.00     0.040 A 
ATOM     32  C   UNL A   1      31.625  28.035  24.753  1.00  0.00     0.123 A 
ATOM     33  F   UNL A   1      30.662  28.948  24.698  1.00  0.00    -0.207 F 
ENDBRANCH  20  27
ENDBRANCH  14  17
ENDBRANCH  12  13
ENDBRANCH   7  11
ENDBRANCH   4   5
ENDBRANCH   3   4
ENDBRANCH   2   3
BRANCH   2  34
ATOM     34  O   UNL A   1      44.616  20.121  24.178  1.00  0.00    -0.460 OA
BRANCH  34  35
ATOM     35  C   UNL A   1      45.099  21.321  24.705  1.00  0.00     0.274 C 
BRANCH  35  36
ATOM     36  C   UNL A   1      44.579  22.490  23.816  1.00  0.00     0.275 C 
BRANCH  36  37
ATOM     37  O   UNL A   1      43.547  23.537  24.327  1.00  0.00    -0.458 OA
BRANCH  37  38
ATOM     38  C   UNL A   1      43.736  24.750  25.000  1.00  0.00     0.338 C 
ATOM     39  O   UNL A   1      44.275  25.771  24.661  1.00  0.00    -0.246 OA
BRANCH  38  40
ATOM     40  C   UNL A   1      42.960  25.468  26.008  1.00  0.00     0.060 A 
ATOM     41  C   UNL A   1      41.529  25.909  25.973  1.00  0.00     0.016 A 
ATOM     42  C   UNL A   1      43.819  25.835  26.947  1.00  0.00     0.016 A 
ATOM     43  C   UNL A   1      41.036  26.719  26.935  1.00  0.00     0.010 A 
ATOM     44  C   UNL A   1      43.298  26.650  27.892  1.00  0.00     0.010 A 
ATOM     45  C   UNL A   1      41.936  27.045  27.923  1.00  0.00    -0.014 A 
BRANCH  45  46
ATOM     46  C   UNL A   1      41.442  27.756  29.086  1.00  0.00     0.031 A 
ATOM     47  C   UNL A   1      40.259  28.627  28.964  1.00  0.00     0.074 A 
ATOM     48  C   UNL A   1      42.117  27.630  30.242  1.00  0.00     0.049 A 
ATOM     49  N   UNL A   1      39.750  29.356  29.913  1.00  0.00    -0.248 NA
ATOM     50  C   UNL A   1      39.561  28.713  27.669  1.00  0.00     0.031 C 
ATOM     51  C   UNL A   1      43.278  26.762  30.431  1.00  0.00     0.029 A 
ATOM     52  N   UNL A   1      41.940  28.227  31.462  1.00  0.00    -0.354 N 
ATOM     53  C   UNL A   1      38.663  29.978  29.347  1.00  0.00     0.074 A 
ATOM     54  C   UNL A   1      38.595  29.577  27.957  1.00  0.00     0.031 C 
ATOM     55  C   UNL A   1      43.703  26.874  31.692  1.00  0.00     0.029 A 
ATOM     56  C   UNL A   1      42.868  27.838  32.393  1.00  0.00     0.049 A 
ATOM     57  H   UNL A   1      41.218  28.869  31.651  1.00  0.00     0.167 HD
ATOM     58  C   UNL A   1      37.812  30.808  29.975  1.00  0.00     0.037 A 
ATOM     59  C   UNL A   1      43.059  28.199  33.675  1.00  0.00     0.037 A 
ATOM     60  C   UNL A   1      37.937  31.225  31.334  1.00  0.00     0.049 A 
ATOM     61  C   UNL A   1      42.163  29.218  34.297  1.00  0.00     0.074 A 
ATOM     62  C   UNL A   1      37.093  32.091  31.998  1.00  0.00     0.029 A 
ATOM     63  N   UNL A   1      38.933  30.852  32.214  1.00  0.00    -0.354 N 
ATOM     64  N   UNL A   1      41.126  29.783  33.745  1.00  0.00    -0.248 NA
ATOM     65  C   UNL A   1      42.433  29.660  35.677  1.00  0.00     0.031 C 
ATOM     66  C   UNL A   1      37.575  32.269  33.273  1.00  0.00     0.029 A 
ATOM     67  C   UNL A   1      38.702  31.489  33.417  1.00  0.00     0.049 A 
ATOM     68  H   UNL A   1      39.678  30.239  32.019  1.00  0.00     0.167 HD
ATOM     69  C   UNL A   1      40.593  30.607  34.710  1.00  0.00     0.074 A 
ATOM     70  C   UNL A   1      41.423  30.493  35.892  1.00  0.00     0.031 C 
ATOM     71  C   UNL A   1      39.494  31.377  34.593  1.00  0.00     0.037 A 
BRANCH  58  72
ATOM     72  C   UNL A   1      36.692  31.400  29.204  1.00  0.00     0.064 A 
ATOM     73  C   UNL A   1      36.709  32.707  28.725  1.00  0.00     0.173 A 
ATOM     74  C   UNL A   1      35.603  30.583  28.874  1.00  0.00     0.173 A 
ATOM     75  F   UNL A   1      37.802  33.471  28.867  1.00  0.00    -0.203 F 
ATOM     76  C   UNL A   1      35.591  33.217  28.080  1.00  0.00     0.198 A 
ATOM     77  C   UNL A   1      34.552  31.061  28.116  1.00  0.00     0.198 A 
ATOM     78  F   UNL A   1      35.609  29.285  29.214  1.00  0.00    -0.203 F 
ATOM     79  F   UNL A   1      35.470  34.536  27.887  1.00  0.00    -0.200 F 
ATOM     80  C   UNL A   1      34.553  32.379  27.704  1.00  0.00     0.200 A 
ATOM     81  F   UNL A   1      33.521  30.259  27.831  1.00  0.00    -0.200 F 
ATOM     82  F   UNL A   1      33.569  32.842  26.922  1.00  0.00    -0.200 F 
ENDBRANCH  58  72
BRANCH  59  83
ATOM     83  C   UNL A   1      44.200  27.661  34.440  1.00  0.00     0.064 A 
ATOM     84  C   UNL A   1      45.449  28.281  34.435  1.00  0.00     0.173 A 
ATOM     85  C   UNL A   1      44.085  26.411  35.055  1.00  0.00     0.173 A 
ATOM     86  F   UNL A   1      45.584  29.535  33.978  1.00  0.00    -0.203 F 
ATOM     87  C   UNL A   1      46.572  27.577  34.851  1.00  0.00     0.198 A 
ATOM     88  C   UNL A   1      45.186  25.774  35.594  1.00  0.00     0.198 A 
ATOM     89  F   UNL A   1      42.887  25.822  35.169  1.00  0.00    -0.203 F 
ATOM     90  F   UNL A   1      47.796  28.017  34.537  1.00  0.00    -0.200 F 
ATOM     91  C   UNL A   1      46.430  26.362  35.500  1.00  0.00     0.200 A 
ATOM     92  F   UNL A   1      45.040  24.564  36.143  1.00  0.00    -0.200 F 
ATOM     93  F   UNL A   1      47.495  25.781  36.065  1.00  0.00    -0.200 F 
ENDBRANCH  59  83
BRANCH  71  94
ATOM     94  C   UNL A   1      39.075  32.186  35.763  1.00  0.00     0.064 A 
ATOM     95  C   UNL A   1      39.446  33.524  35.837  1.00  0.00     0.173 A 
ATOM     96  C   UNL A   1      38.276  31.657  36.787  1.00  0.00     0.173 A 
ATOM     97  F   UNL A   1      40.062  34.108  34.798  1.00  0.00    -0.203 F 
ATOM     98  C   UNL A   1      39.205  34.245  36.990  1.00  0.00     0.198 A 
ATOM     99  C   UNL A   1      37.919  32.433  37.879  1.00  0.00     0.198 A 
ATOM    100  F   UNL A   1      37.778  30.415  36.693  1.00  0.00    -0.203 F 
ATOM    101  F   UNL A   1      39.843  35.402  37.195  1.00  0.00    -0.200 F 
ATOM    102  C   UNL A   1      38.375  33.734  37.973  1.00  0.00     0.200 A 
ATOM    103  F   UNL A   1      37.181  31.905  38.865  1.00  0.00    -0.200 F 
ATOM    104  F   UNL A   1      37.995  34.517  38.990  1.00  0.00    -0.200 F 
ENDBRANCH  71  94
ENDBRANCH  45  46
ENDBRANCH  38  40
ENDBRANCH  37  38
ENDBRANCH  36  37
ENDBRANCH  35  36
ENDBRANCH  34  35
ENDBRANCH   2  34
TORSDOF 17
ENDMDL
