MODEL 1
REMARK VINA RESULT:     -11.0      0.000      0.000
REMARK SMILES Cc1ccc(-c2nn(CCC(=O)OCCOC(=O)c3ccc(-c4c5nc(c(-c6c(F)c(F)c(F)c(F)c6F)c6ccc([nH]6)c(-c6c(F)c(F)c(F)c(F)c6F)c6nc(c(-c7c(F)c(F)c(F)c(F)c7F)c7ccc4[nH]7)C=C6)C=C5)cc3)c(=O)c3noc(C)c23)cc1C
REMARK SMILES IDX 14 1 13 2 11 3 12 4 10 5 9 6 8 7 6 8 7 9 89 10 84 11 87 12
REMARK SMILES IDX 82 13 85 14 86 15 88 16 83 17 5 18 1 19 2 20 3 21 91 22 4 23
REMARK SMILES IDX 90 24 92 25 15 26 16 27 17 28 18 29 19 30 20 31 81 32 21 33
REMARK SMILES IDX 80 34 22 35 23 36 24 37 74 38 25 39 79 40 73 41 75 42 26 43
REMARK SMILES IDX 78 44 72 45 71 46 27 48 59 49 39 50 58 51 40 52 43 53 57 54
REMARK SMILES IDX 76 55 41 56 42 57 56 59 77 60 44 61 28 62 29 63 37 64 30 65
REMARK SMILES IDX 31 66 35 67 38 68 32 69 33 70 36 71 34 72 60 73 61 74 69 75
REMARK SMILES IDX 62 76 63 77 67 78 70 79 64 80 65 81 68 82 66 83 45 84 46 85
REMARK SMILES IDX 54 86 47 87 48 88 52 89 55 90 49 91 50 92 53 93 51 94
REMARK H PARENT 75 47 43 58
REMARK Flexibility Score: inf
ROOT
ATOM      1  C   UNL A   1      41.218  25.765  35.452  1.00  0.00     0.274 C 
ENDROOT
BRANCH   1   2
ATOM      2  O   UNL A   1      41.293  26.865  36.377  1.00  0.00    -0.462 OA
BRANCH   2   3
ATOM      3  C   UNL A   1      42.126  27.883  36.070  1.00  0.00     0.307 C 
ATOM      4  O   UNL A   1      42.753  28.548  36.886  1.00  0.00    -0.252 OA
BRANCH   3   5
ATOM      5  C   UNL A   1      42.161  28.167  34.588  1.00  0.00     0.146 C 
BRANCH   5   6
ATOM      6  C   UNL A   1      40.856  28.697  33.990  1.00  0.00     0.160 C 
BRANCH   6   7
ATOM      7  N   UNL A   1      40.647  30.123  34.227  1.00  0.00    -0.227 N 
ATOM      8  C   UNL A   1      40.928  32.260  33.299  1.00  0.00     0.104 A 
ATOM      9  N   UNL A   1      40.990  30.964  33.162  1.00  0.00    -0.169 NA
ATOM     10  C   UNL A   1      40.629  32.830  34.582  1.00  0.00     0.078 A 
ATOM     11  C   UNL A   1      40.203  31.994  35.620  1.00  0.00     0.183 A 
ATOM     12  C   UNL A   1      40.592  34.089  35.130  1.00  0.00     0.143 A 
ATOM     13  C   UNL A   1      40.044  30.574  35.426  1.00  0.00     0.296 A 
ATOM     14  N   UNL A   1      39.982  32.660  36.757  1.00  0.00    -0.074 NA
ATOM     15  O   UNL A   1      40.236  33.984  36.446  1.00  0.00    -0.360 OA
ATOM     16  C   UNL A   1      40.818  35.465  34.660  1.00  0.00     0.091 C 
ATOM     17  O   UNL A   1      39.464  29.876  36.238  1.00  0.00    -0.265 OA
BRANCH   8  18
ATOM     18  C   UNL A   1      41.087  33.114  32.119  1.00  0.00     0.003 A 
ATOM     19  C   UNL A   1      41.733  35.477  28.591  1.00  0.00     0.044 C 
ATOM     20  C   UNL A   1      41.472  34.661  29.827  1.00  0.00    -0.048 A 
ATOM     21  C   UNL A   1      42.570  34.232  30.592  1.00  0.00     0.004 A 
ATOM     22  C   UNL A   1      40.163  34.321  30.236  1.00  0.00    -0.048 A 
ATOM     23  C   UNL A   1      42.381  33.462  31.735  1.00  0.00     0.011 A 
ATOM     24  C   UNL A   1      39.982  33.558  31.400  1.00  0.00     0.014 A 
ATOM     25  C   UNL A   1      38.930  34.721  29.474  1.00  0.00     0.044 C 
ENDBRANCH   8  18
ENDBRANCH   6   7
ENDBRANCH   5   6
ENDBRANCH   3   5
ENDBRANCH   2   3
ENDBRANCH   1   2
BRANCH   1  26
ATOM     26  C   UNL A   1      41.767  24.455  36.031  1.00  0.00     0.275 C 
BRANCH  26  27
ATOM     27  O   UNL A   1      42.317  23.588  35.014  1.00  0.00    -0.458 OA
BRANCH  27  28
ATOM     28  C   UNL A   1      43.664  23.519  35.036  1.00  0.00     0.338 C 
ATOM     29  O   UNL A   1      44.372  22.968  35.863  1.00  0.00    -0.246 OA
BRANCH  28  30
ATOM     30  C   UNL A   1      44.343  24.246  33.969  1.00  0.00     0.060 A 
ATOM     31  C   UNL A   1      44.793  25.556  34.172  1.00  0.00     0.016 A 
ATOM     32  C   UNL A   1      44.094  23.768  32.683  1.00  0.00     0.016 A 
ATOM     33  C   UNL A   1      44.959  26.406  33.071  1.00  0.00     0.010 A 
ATOM     34  C   UNL A   1      44.242  24.620  31.598  1.00  0.00     0.010 A 
ATOM     35  C   UNL A   1      44.673  25.946  31.777  1.00  0.00    -0.014 A 
BRANCH  35  36
ATOM     36  C   UNL A   1      45.023  26.789  30.607  1.00  0.00     0.031 A 
ATOM     37  C   UNL A   1      45.045  25.977  29.347  1.00  0.00     0.074 A 
ATOM     38  C   UNL A   1      44.802  28.122  30.510  1.00  0.00     0.049 A 
ATOM     39  N   UNL A   1      43.947  25.686  28.710  1.00  0.00    -0.248 NA
ATOM     40  C   UNL A   1      46.188  25.158  28.947  1.00  0.00     0.031 C 
ATOM     41  C   UNL A   1      43.787  28.852  31.277  1.00  0.00     0.029 A 
ATOM     42  N   UNL A   1      45.272  29.064  29.609  1.00  0.00    -0.354 N 
ATOM     43  C   UNL A   1      44.215  24.606  27.894  1.00  0.00     0.074 A 
ATOM     44  C   UNL A   1      45.629  24.342  28.035  1.00  0.00     0.031 C 
ATOM     45  C   UNL A   1      43.591  30.060  30.704  1.00  0.00     0.029 A 
ATOM     46  C   UNL A   1      44.545  30.259  29.606  1.00  0.00     0.049 A 
ATOM     47  H   UNL A   1      46.047  28.905  29.023  1.00  0.00     0.167 HD
ATOM     48  C   UNL A   1      43.239  23.978  27.186  1.00  0.00     0.037 A 
ATOM     49  C   UNL A   1      44.231  30.993  28.496  1.00  0.00     0.037 A 
ATOM     50  C   UNL A   1      41.903  24.447  27.412  1.00  0.00     0.049 A 
ATOM     51  C   UNL A   1      43.331  30.041  27.748  1.00  0.00     0.074 A 
ATOM     52  C   UNL A   1      40.798  24.062  28.141  1.00  0.00     0.029 A 
ATOM     53  N   UNL A   1      41.530  25.630  26.823  1.00  0.00    -0.354 N 
ATOM     54  N   UNL A   1      42.079  29.785  28.011  1.00  0.00    -0.248 NA
ATOM     55  C   UNL A   1      43.989  29.081  26.861  1.00  0.00     0.031 C 
ATOM     56  C   UNL A   1      40.035  25.258  28.335  1.00  0.00     0.029 A 
ATOM     57  C   UNL A   1      40.739  26.294  27.723  1.00  0.00     0.049 A 
ATOM     58  H   UNL A   1      41.783  25.941  25.923  1.00  0.00     0.167 HD
ATOM     59  C   UNL A   1      41.870  28.488  27.542  1.00  0.00     0.074 A 
ATOM     60  C   UNL A   1      43.080  28.119  26.837  1.00  0.00     0.031 C 
ATOM     61  C   UNL A   1      40.800  27.723  27.899  1.00  0.00     0.037 A 
BRANCH  48  62
ATOM     62  C   UNL A   1      43.475  23.039  26.078  1.00  0.00     0.064 A 
ATOM     63  C   UNL A   1      43.293  21.677  26.365  1.00  0.00     0.173 A 
ATOM     64  C   UNL A   1      44.102  23.387  24.881  1.00  0.00     0.173 A 
ATOM     65  F   UNL A   1      42.721  21.310  27.525  1.00  0.00    -0.203 F 
ATOM     66  C   UNL A   1      43.764  20.692  25.510  1.00  0.00     0.198 A 
ATOM     67  C   UNL A   1      44.563  22.394  24.015  1.00  0.00     0.198 A 
ATOM     68  F   UNL A   1      44.319  24.675  24.577  1.00  0.00    -0.203 F 
ATOM     69  F   UNL A   1      43.633  19.402  25.847  1.00  0.00    -0.200 F 
ATOM     70  C   UNL A   1      44.408  21.050  24.337  1.00  0.00     0.200 A 
ATOM     71  F   UNL A   1      45.194  22.734  22.882  1.00  0.00    -0.200 F 
ATOM     72  F   UNL A   1      44.898  20.101  23.530  1.00  0.00    -0.200 F 
ENDBRANCH  48  62
BRANCH  49  73
ATOM     73  C   UNL A   1      45.308  31.760  27.779  1.00  0.00     0.064 A 
ATOM     74  C   UNL A   1      45.029  33.040  27.263  1.00  0.00     0.173 A 
ATOM     75  C   UNL A   1      46.603  31.270  27.524  1.00  0.00     0.173 A 
ATOM     76  F   UNL A   1      43.784  33.536  27.326  1.00  0.00    -0.203 F 
ATOM     77  C   UNL A   1      46.017  33.830  26.669  1.00  0.00     0.198 A 
ATOM     78  C   UNL A   1      47.602  32.072  26.964  1.00  0.00     0.198 A 
ATOM     79  F   UNL A   1      46.938  30.007  27.824  1.00  0.00    -0.203 F 
ATOM     80  F   UNL A   1      45.712  35.055  26.222  1.00  0.00    -0.200 F 
ATOM     81  C   UNL A   1      47.313  33.360  26.556  1.00  0.00     0.200 A 
ATOM     82  F   UNL A   1      48.850  31.596  26.840  1.00  0.00    -0.200 F 
ATOM     83  F   UNL A   1      48.277  34.140  26.047  1.00  0.00    -0.200 F 
ENDBRANCH  49  73
BRANCH  61  84
ATOM     84  C   UNL A   1      39.748  28.409  28.697  1.00  0.00     0.064 A 
ATOM     85  C   UNL A   1      38.786  29.193  28.050  1.00  0.00     0.173 A 
ATOM     86  C   UNL A   1      39.641  28.236  30.085  1.00  0.00     0.173 A 
ATOM     87  F   UNL A   1      38.848  29.381  26.722  1.00  0.00    -0.203 F 
ATOM     88  C   UNL A   1      37.729  29.752  28.760  1.00  0.00     0.198 A 
ATOM     89  C   UNL A   1      38.569  28.779  30.788  1.00  0.00     0.198 A 
ATOM     90  F   UNL A   1      40.547  27.511  30.759  1.00  0.00    -0.203 F 
ATOM     91  F   UNL A   1      36.804  30.479  28.118  1.00  0.00    -0.200 F 
ATOM     92  C   UNL A   1      37.611  29.530  30.123  1.00  0.00     0.200 A 
ATOM     93  F   UNL A   1      38.446  28.553  32.104  1.00  0.00    -0.200 F 
ATOM     94  F   UNL A   1      36.562  30.026  30.795  1.00  0.00    -0.200 F 
ENDBRANCH  61  84
ENDBRANCH  35  36
ENDBRANCH  28  30
ENDBRANCH  27  28
ENDBRANCH  26  27
ENDBRANCH   1  26
TORSDOF 14
ENDMDL
MODEL 2
REMARK VINA RESULT:     -10.9      4.276      9.330
REMARK SMILES Cc1ccc(-c2nn(CCC(=O)OCCOC(=O)c3ccc(-c4c5nc(c(-c6c(F)c(F)c(F)c(F)c6F)c6ccc([nH]6)c(-c6c(F)c(F)c(F)c(F)c6F)c6nc(c(-c7c(F)c(F)c(F)c(F)c7F)c7ccc4[nH]7)C=C6)C=C5)cc3)c(=O)c3noc(C)c23)cc1C
REMARK SMILES IDX 14 1 13 2 11 3 12 4 10 5 9 6 8 7 6 8 7 9 89 10 84 11 87 12
REMARK SMILES IDX 82 13 85 14 86 15 88 16 83 17 5 18 1 19 2 20 3 21 91 22 4 23
REMARK SMILES IDX 90 24 92 25 15 26 16 27 17 28 18 29 19 30 20 31 81 32 21 33
REMARK SMILES IDX 80 34 22 35 23 36 24 37 74 38 25 39 79 40 73 41 75 42 26 43
REMARK SMILES IDX 78 44 72 45 71 46 27 48 59 49 39 50 58 51 40 52 43 53 57 54
REMARK SMILES IDX 76 55 41 56 42 57 56 59 77 60 44 61 28 62 29 63 37 64 30 65
REMARK SMILES IDX 31 66 35 67 38 68 32 69 33 70 36 71 34 72 60 73 61 74 69 75
REMARK SMILES IDX 62 76 63 77 67 78 70 79 64 80 65 81 68 82 66 83 45 84 46 85
REMARK SMILES IDX 54 86 47 87 48 88 52 89 55 90 49 91 50 92 53 93 51 94
REMARK H PARENT 75 47 43 58
REMARK Flexibility Score: inf
ROOT
ATOM      1  C   UNL A   1      43.131  19.386  25.764  1.00  0.00     0.274 C 
ENDROOT
BRANCH   1   2
ATOM      2  O   UNL A   1      43.894  20.256  24.909  1.00  0.00    -0.462 OA
BRANCH   2   3
ATOM      3  C   UNL A   1      45.203  19.970  24.737  1.00  0.00     0.307 C 
ATOM      4  O   UNL A   1      45.643  18.888  24.367  1.00  0.00    -0.252 OA
BRANCH   3   5
ATOM      5  C   UNL A   1      46.096  21.128  25.112  1.00  0.00     0.146 C 
BRANCH   5   6
ATOM      6  C   UNL A   1      45.507  22.110  26.126  1.00  0.00     0.160 C 
BRANCH   6   7
ATOM      7  N   UNL A   1      46.107  23.441  26.058  1.00  0.00    -0.227 N 
ATOM      8  C   UNL A   1      47.519  24.943  27.180  1.00  0.00     0.104 A 
ATOM      9  N   UNL A   1      46.996  23.751  27.094  1.00  0.00    -0.169 NA
ATOM     10  C   UNL A   1      47.085  25.979  26.287  1.00  0.00     0.078 A 
ATOM     11  C   UNL A   1      46.266  25.650  25.201  1.00  0.00     0.183 A 
ATOM     12  C   UNL A   1      47.300  27.328  26.145  1.00  0.00     0.143 A 
ATOM     13  C   UNL A   1      45.857  24.289  24.953  1.00  0.00     0.296 A 
ATOM     14  N   UNL A   1      45.928  26.717  24.472  1.00  0.00    -0.074 NA
ATOM     15  O   UNL A   1      46.578  27.778  25.076  1.00  0.00    -0.360 OA
ATOM     16  C   UNL A   1      48.097  28.360  26.829  1.00  0.00     0.091 C 
ATOM     17  O   UNL A   1      45.341  23.956  23.901  1.00  0.00    -0.265 OA
BRANCH   8  18
ATOM     18  C   UNL A   1      48.600  25.183  28.139  1.00  0.00     0.003 A 
ATOM     19  C   UNL A   1      51.878  26.018  30.786  1.00  0.00     0.044 C 
ATOM     20  C   UNL A   1      50.708  25.720  29.888  1.00  0.00    -0.048 A 
ATOM     21  C   UNL A   1      50.961  25.380  28.548  1.00  0.00     0.004 A 
ATOM     22  C   UNL A   1      49.377  25.770  30.355  1.00  0.00    -0.048 A 
ATOM     23  C   UNL A   1      49.912  25.110  27.675  1.00  0.00     0.011 A 
ATOM     24  C   UNL A   1      48.326  25.480  29.471  1.00  0.00     0.014 A 
ATOM     25  C   UNL A   1      49.008  26.139  31.765  1.00  0.00     0.044 C 
ENDBRANCH   8  18
ENDBRANCH   6   7
ENDBRANCH   5   6
ENDBRANCH   3   5
ENDBRANCH   2   3
ENDBRANCH   1   2
BRANCH   1  26
ATOM     26  C   UNL A   1      41.721  19.915  26.055  1.00  0.00     0.275 C 
BRANCH  26  27
ATOM     27  O   UNL A   1      41.614  21.343  25.856  1.00  0.00    -0.458 OA
BRANCH  27  28
ATOM     28  C   UNL A   1      41.262  22.018  26.970  1.00  0.00     0.338 C 
ATOM     29  O   UNL A   1      40.373  21.744  27.760  1.00  0.00    -0.246 OA
BRANCH  28  30
ATOM     30  C   UNL A   1      42.001  23.251  27.211  1.00  0.00     0.060 A 
ATOM     31  C   UNL A   1      41.900  23.916  28.439  1.00  0.00     0.016 A 
ATOM     32  C   UNL A   1      42.395  23.933  26.061  1.00  0.00     0.016 A 
ATOM     33  C   UNL A   1      42.162  25.290  28.502  1.00  0.00     0.010 A 
ATOM     34  C   UNL A   1      42.636  25.298  26.126  1.00  0.00     0.010 A 
ATOM     35  C   UNL A   1      42.520  25.992  27.342  1.00  0.00    -0.014 A 
BRANCH  35  36
ATOM     36  C   UNL A   1      42.972  27.402  27.451  1.00  0.00     0.031 A 
ATOM     37  C   UNL A   1      41.809  28.346  27.385  1.00  0.00     0.074 A 
ATOM     38  C   UNL A   1      44.101  27.815  28.076  1.00  0.00     0.049 A 
ATOM     39  N   UNL A   1      41.069  28.583  28.431  1.00  0.00    -0.248 NA
ATOM     40  C   UNL A   1      41.194  28.766  26.127  1.00  0.00     0.031 C 
ATOM     41  C   UNL A   1      44.789  27.061  29.129  1.00  0.00     0.029 A 
ATOM     42  N   UNL A   1      44.762  29.033  28.060  1.00  0.00    -0.354 N 
ATOM     43  C   UNL A   1      39.871  29.100  27.983  1.00  0.00     0.074 A 
ATOM     44  C   UNL A   1      40.010  29.243  26.551  1.00  0.00     0.031 C 
ATOM     45  C   UNL A   1      45.648  27.885  29.767  1.00  0.00     0.029 A 
ATOM     46  C   UNL A   1      45.679  29.194  29.103  1.00  0.00     0.049 A 
ATOM     47  H   UNL A   1      44.599  29.721  27.375  1.00  0.00     0.167 HD
ATOM     48  C   UNL A   1      38.830  29.338  28.823  1.00  0.00     0.037 A 
ATOM     49  C   UNL A   1      45.896  30.355  29.795  1.00  0.00     0.037 A 
ATOM     50  C   UNL A   1      39.021  28.933  30.186  1.00  0.00     0.049 A 
ATOM     51  C   UNL A   1      44.564  30.556  30.473  1.00  0.00     0.074 A 
ATOM     52  C   UNL A   1      38.659  27.876  30.993  1.00  0.00     0.029 A 
ATOM     53  N   UNL A   1      39.809  29.722  30.985  1.00  0.00    -0.354 N 
ATOM     54  N   UNL A   1      44.127  29.932  31.532  1.00  0.00    -0.248 NA
ATOM     55  C   UNL A   1      43.542  31.269  29.705  1.00  0.00     0.031 C 
ATOM     56  C   UNL A   1      39.635  27.847  32.041  1.00  0.00     0.029 A 
ATOM     57  C   UNL A   1      40.535  28.880  31.787  1.00  0.00     0.049 A 
ATOM     58  H   UNL A   1      39.846  30.706  30.982  1.00  0.00     0.167 HD
ATOM     59  C   UNL A   1      42.737  29.948  31.412  1.00  0.00     0.074 A 
ATOM     60  C   UNL A   1      42.445  30.795  30.275  1.00  0.00     0.031 C 
ATOM     61  C   UNL A   1      41.911  29.137  32.132  1.00  0.00     0.037 A 
BRANCH  48  62
ATOM     62  C   UNL A   1      37.653  30.158  28.494  1.00  0.00     0.064 A 
ATOM     63  C   UNL A   1      37.707  31.508  28.875  1.00  0.00     0.173 A 
ATOM     64  C   UNL A   1      36.428  29.633  28.082  1.00  0.00     0.173 A 
ATOM     65  F   UNL A   1      38.866  32.034  29.308  1.00  0.00    -0.203 F 
ATOM     66  C   UNL A   1      36.567  32.298  28.890  1.00  0.00     0.198 A 
ATOM     67  C   UNL A   1      35.284  30.434  28.084  1.00  0.00     0.198 A 
ATOM     68  F   UNL A   1      36.324  28.343  27.733  1.00  0.00    -0.203 F 
ATOM     69  F   UNL A   1      36.641  33.564  29.323  1.00  0.00    -0.200 F 
ATOM     70  C   UNL A   1      35.352  31.758  28.503  1.00  0.00     0.200 A 
ATOM     71  F   UNL A   1      34.103  29.916  27.719  1.00  0.00    -0.200 F 
ATOM     72  F   UNL A   1      34.243  32.508  28.555  1.00  0.00    -0.200 F 
ENDBRANCH  48  62
BRANCH  49  73
ATOM     73  C   UNL A   1      46.602  31.501  29.126  1.00  0.00     0.064 A 
ATOM     74  C   UNL A   1      47.646  32.165  29.797  1.00  0.00     0.173 A 
ATOM     75  C   UNL A   1      46.265  32.020  27.862  1.00  0.00     0.173 A 
ATOM     76  F   UNL A   1      47.948  31.842  31.063  1.00  0.00    -0.203 F 
ATOM     77  C   UNL A   1      48.394  33.176  29.186  1.00  0.00     0.198 A 
ATOM     78  C   UNL A   1      47.033  33.005  27.235  1.00  0.00     0.198 A 
ATOM     79  F   UNL A   1      45.189  31.577  27.196  1.00  0.00    -0.203 F 
ATOM     80  F   UNL A   1      49.400  33.758  29.853  1.00  0.00    -0.200 F 
ATOM     81  C   UNL A   1      48.112  33.568  27.890  1.00  0.00     0.200 A 
ATOM     82  F   UNL A   1      46.735  33.390  25.986  1.00  0.00    -0.200 F 
ATOM     83  F   UNL A   1      48.868  34.490  27.279  1.00  0.00    -0.200 F 
ENDBRANCH  49  73
BRANCH  61  84
ATOM     84  C   UNL A   1      42.560  28.333  33.201  1.00  0.00     0.064 A 
ATOM     85  C   UNL A   1      42.533  28.786  34.525  1.00  0.00     0.173 A 
ATOM     86  C   UNL A   1      43.143  27.084  32.939  1.00  0.00     0.173 A 
ATOM     87  F   UNL A   1      41.981  29.973  34.822  1.00  0.00    -0.203 F 
ATOM     88  C   UNL A   1      43.034  28.000  35.557  1.00  0.00     0.198 A 
ATOM     89  C   UNL A   1      43.624  26.291  33.977  1.00  0.00     0.198 A 
ATOM     90  F   UNL A   1      43.215  26.610  31.685  1.00  0.00    -0.203 F 
ATOM     91  F   UNL A   1      42.976  28.442  36.821  1.00  0.00    -0.200 F 
ATOM     92  C   UNL A   1      43.562  26.747  35.285  1.00  0.00     0.200 A 
ATOM     93  F   UNL A   1      44.121  25.073  33.717  1.00  0.00    -0.200 F 
ATOM     94  F   UNL A   1      43.996  25.971  36.288  1.00  0.00    -0.200 F 
ENDBRANCH  61  84
ENDBRANCH  35  36
ENDBRANCH  28  30
ENDBRANCH  27  28
ENDBRANCH  26  27
ENDBRANCH   1  26
TORSDOF 14
ENDMDL
MODEL 3
REMARK VINA RESULT:     -10.8      4.454     10.986
REMARK SMILES Cc1ccc(-c2nn(CCC(=O)OCCOC(=O)c3ccc(-c4c5nc(c(-c6c(F)c(F)c(F)c(F)c6F)c6ccc([nH]6)c(-c6c(F)c(F)c(F)c(F)c6F)c6nc(c(-c7c(F)c(F)c(F)c(F)c7F)c7ccc4[nH]7)C=C6)C=C5)cc3)c(=O)c3noc(C)c23)cc1C
REMARK SMILES IDX 14 1 13 2 11 3 12 4 10 5 9 6 8 7 6 8 7 9 89 10 84 11 87 12
REMARK SMILES IDX 82 13 85 14 86 15 88 16 83 17 5 18 1 19 2 20 3 21 91 22 4 23
REMARK SMILES IDX 90 24 92 25 15 26 16 27 17 28 18 29 19 30 20 31 81 32 21 33
REMARK SMILES IDX 80 34 22 35 23 36 24 37 74 38 25 39 79 40 73 41 75 42 26 43
REMARK SMILES IDX 78 44 72 45 71 46 27 48 59 49 39 50 58 51 40 52 43 53 57 54
REMARK SMILES IDX 76 55 41 56 42 57 56 59 77 60 44 61 28 62 29 63 37 64 30 65
REMARK SMILES IDX 31 66 35 67 38 68 32 69 33 70 36 71 34 72 60 73 61 74 69 75
REMARK SMILES IDX 62 76 63 77 67 78 70 79 64 80 65 81 68 82 66 83 45 84 46 85
REMARK SMILES IDX 54 86 47 87 48 88 52 89 55 90 49 91 50 92 53 93 51 94
REMARK H PARENT 75 47 43 58
REMARK Flexibility Score: inf
ROOT
ATOM      1  C   UNL A   1      41.814  25.146  27.545  1.00  0.00     0.274 C 
ENDROOT
BRANCH   1   2
ATOM      2  O   UNL A   1      40.434  24.997  27.925  1.00  0.00    -0.462 OA
BRANCH   2   3
ATOM      3  C   UNL A   1      39.683  24.125  27.218  1.00  0.00     0.307 C 
ATOM      4  O   UNL A   1      38.713  24.428  26.533  1.00  0.00    -0.252 OA
BRANCH   3   5
ATOM      5  C   UNL A   1      40.133  22.697  27.407  1.00  0.00     0.146 C 
BRANCH   5   6
ATOM      6  C   UNL A   1      40.283  21.880  26.123  1.00  0.00     0.160 C 
BRANCH   6   7
ATOM      7  N   UNL A   1      41.605  21.273  25.974  1.00  0.00    -0.227 N 
ATOM      8  C   UNL A   1      43.863  21.735  25.532  1.00  0.00     0.104 A 
ATOM      9  N   UNL A   1      42.657  22.174  25.767  1.00  0.00    -0.169 NA
ATOM     10  C   UNL A   1      44.091  20.329  25.359  1.00  0.00     0.078 A 
ATOM     11  C   UNL A   1      43.062  19.427  25.650  1.00  0.00     0.183 A 
ATOM     12  C   UNL A   1      45.146  19.526  24.998  1.00  0.00     0.143 A 
ATOM     13  C   UNL A   1      41.780  19.878  26.134  1.00  0.00     0.296 A 
ATOM     14  N   UNL A   1      43.412  18.157  25.423  1.00  0.00    -0.074 NA
ATOM     15  O   UNL A   1      44.729  18.225  25.004  1.00  0.00    -0.360 OA
ATOM     16  C   UNL A   1      46.560  19.720  24.637  1.00  0.00     0.091 C 
ATOM     17  O   UNL A   1      40.963  19.106  26.603  1.00  0.00    -0.265 OA
BRANCH   8  18
ATOM     18  C   UNL A   1      44.981  22.682  25.527  1.00  0.00     0.003 A 
ATOM     19  C   UNL A   1      48.158  25.565  25.326  1.00  0.00     0.044 C 
ATOM     20  C   UNL A   1      47.052  24.550  25.432  1.00  0.00    -0.048 A 
ATOM     21  C   UNL A   1      46.567  23.963  24.252  1.00  0.00     0.004 A 
ATOM     22  C   UNL A   1      46.499  24.176  26.676  1.00  0.00    -0.048 A 
ATOM     23  C   UNL A   1      45.535  23.030  24.296  1.00  0.00     0.011 A 
ATOM     24  C   UNL A   1      45.471  23.221  26.712  1.00  0.00     0.014 A 
ATOM     25  C   UNL A   1      46.943  24.761  27.988  1.00  0.00     0.044 C 
ENDBRANCH   8  18
ENDBRANCH   6   7
ENDBRANCH   5   6
ENDBRANCH   3   5
ENDBRANCH   2   3
ENDBRANCH   1   2
BRANCH   1  26
ATOM     26  C   UNL A   1      41.990  25.754  26.148  1.00  0.00     0.275 C 
BRANCH  26  27
ATOM     27  O   UNL A   1      41.221  26.965  25.970  1.00  0.00    -0.458 OA
BRANCH  27  28
ATOM     28  C   UNL A   1      41.971  28.033  25.627  1.00  0.00     0.338 C 
ATOM     29  O   UNL A   1      42.652  28.179  24.626  1.00  0.00    -0.246 OA
BRANCH  28  30
ATOM     30  C   UNL A   1      42.008  29.110  26.611  1.00  0.00     0.060 A 
ATOM     31  C   UNL A   1      43.125  29.948  26.710  1.00  0.00     0.016 A 
ATOM     32  C   UNL A   1      41.138  28.949  27.688  1.00  0.00     0.016 A 
ATOM     33  C   UNL A   1      43.388  30.604  27.919  1.00  0.00     0.010 A 
ATOM     34  C   UNL A   1      41.414  29.587  28.889  1.00  0.00     0.010 A 
ATOM     35  C   UNL A   1      42.541  30.417  29.021  1.00  0.00    -0.014 A 
BRANCH  35  36
ATOM     36  C   UNL A   1      42.723  31.253  30.234  1.00  0.00     0.031 A 
ATOM     37  C   UNL A   1      41.406  31.752  30.746  1.00  0.00     0.074 A 
ATOM     38  C   UNL A   1      43.755  31.150  31.106  1.00  0.00     0.049 A 
ATOM     39  N   UNL A   1      40.633  30.999  31.475  1.00  0.00    -0.248 NA
ATOM     40  C   UNL A   1      40.726  32.921  30.190  1.00  0.00     0.031 C 
ATOM     41  C   UNL A   1      44.569  29.943  31.288  1.00  0.00     0.029 A 
ATOM     42  N   UNL A   1      44.179  31.989  32.124  1.00  0.00    -0.354 N 
ATOM     43  C   UNL A   1      39.361  31.528  31.417  1.00  0.00     0.074 A 
ATOM     44  C   UNL A   1      39.473  32.748  30.648  1.00  0.00     0.031 C 
ATOM     45  C   UNL A   1      45.259  30.053  32.444  1.00  0.00     0.029 A 
ATOM     46  C   UNL A   1      45.049  31.380  33.035  1.00  0.00     0.049 A 
ATOM     47  H   UNL A   1      43.893  32.927  32.199  1.00  0.00     0.167 HD
ATOM     48  C   UNL A   1      38.292  30.901  31.974  1.00  0.00     0.037 A 
ATOM     49  C   UNL A   1      45.046  31.581  34.388  1.00  0.00     0.037 A 
ATOM     50  C   UNL A   1      38.552  29.611  32.545  1.00  0.00     0.049 A 
ATOM     51  C   UNL A   1      43.698  31.023  34.773  1.00  0.00     0.074 A 
ATOM     52  C   UNL A   1      38.391  28.289  32.189  1.00  0.00     0.029 A 
ATOM     53  N   UNL A   1      39.180  29.565  33.765  1.00  0.00    -0.354 N 
ATOM     54  N   UNL A   1      43.383  29.763  34.896  1.00  0.00    -0.248 NA
ATOM     55  C   UNL A   1      42.563  31.943  34.689  1.00  0.00     0.031 C 
ATOM     56  C   UNL A   1      39.354  27.567  32.965  1.00  0.00     0.029 A 
ATOM     57  C   UNL A   1      40.048  28.504  33.728  1.00  0.00     0.049 A 
ATOM     58  H   UNL A   1      39.034  30.177  34.522  1.00  0.00     0.167 HD
ATOM     59  C   UNL A   1      42.014  29.707  34.631  1.00  0.00     0.074 A 
ATOM     60  C   UNL A   1      41.572  31.082  34.524  1.00  0.00     0.031 C 
ATOM     61  C   UNL A   1      41.352  28.552  34.340  1.00  0.00     0.037 A 
BRANCH  48  62
ATOM     62  C   UNL A   1      36.984  31.527  32.224  1.00  0.00     0.064 A 
ATOM     63  C   UNL A   1      36.113  31.612  31.126  1.00  0.00     0.173 A 
ATOM     64  C   UNL A   1      36.675  32.253  33.374  1.00  0.00     0.173 A 
ATOM     65  F   UNL A   1      36.402  30.949  29.992  1.00  0.00    -0.203 F 
ATOM     66  C   UNL A   1      34.995  32.432  31.156  1.00  0.00     0.198 A 
ATOM     67  C   UNL A   1      35.540  33.067  33.407  1.00  0.00     0.198 A 
ATOM     68  F   UNL A   1      37.491  32.222  34.437  1.00  0.00    -0.203 F 
ATOM     69  F   UNL A   1      34.221  32.540  30.067  1.00  0.00    -0.200 F 
ATOM     70  C   UNL A   1      34.712  33.167  32.294  1.00  0.00     0.200 A 
ATOM     71  F   UNL A   1      35.265  33.788  34.503  1.00  0.00    -0.200 F 
ATOM     72  F   UNL A   1      33.654  33.989  32.311  1.00  0.00    -0.200 F 
ENDBRANCH  48  62
BRANCH  49  73
ATOM     73  C   UNL A   1      45.529  32.889  34.950  1.00  0.00     0.064 A 
ATOM     74  C   UNL A   1      46.391  32.896  36.062  1.00  0.00     0.173 A 
ATOM     75  C   UNL A   1      45.139  34.156  34.474  1.00  0.00     0.173 A 
ATOM     76  F   UNL A   1      46.706  31.747  36.679  1.00  0.00    -0.203 F 
ATOM     77  C   UNL A   1      46.940  34.079  36.566  1.00  0.00     0.198 A 
ATOM     78  C   UNL A   1      45.714  35.337  34.952  1.00  0.00     0.198 A 
ATOM     79  F   UNL A   1      44.200  34.280  33.525  1.00  0.00    -0.203 F 
ATOM     80  F   UNL A   1      47.782  34.034  37.607  1.00  0.00    -0.200 F 
ATOM     81  C   UNL A   1      46.631  35.296  35.985  1.00  0.00     0.200 A 
ATOM     82  F   UNL A   1      45.389  36.512  34.393  1.00  0.00    -0.200 F 
ATOM     83  F   UNL A   1      47.207  36.424  36.423  1.00  0.00    -0.200 F 
ENDBRANCH  49  73
BRANCH  61  84
ATOM     84  C   UNL A   1      42.137  27.298  34.490  1.00  0.00     0.064 A 
ATOM     85  C   UNL A   1      42.949  26.856  33.439  1.00  0.00     0.173 A 
ATOM     86  C   UNL A   1      42.150  26.570  35.689  1.00  0.00     0.173 A 
ATOM     87  F   UNL A   1      42.972  27.525  32.274  1.00  0.00    -0.203 F 
ATOM     88  C   UNL A   1      43.776  25.750  33.595  1.00  0.00     0.198 A 
ATOM     89  C   UNL A   1      42.995  25.476  35.848  1.00  0.00     0.198 A 
ATOM     90  F   UNL A   1      41.375  26.937  36.723  1.00  0.00    -0.203 F 
ATOM     91  F   UNL A   1      44.565  25.358  32.583  1.00  0.00    -0.200 F 
ATOM     92  C   UNL A   1      43.813  25.072  34.803  1.00  0.00     0.200 A 
ATOM     93  F   UNL A   1      43.042  24.829  37.022  1.00  0.00    -0.200 F 
ATOM     94  F   UNL A   1      44.650  24.038  34.967  1.00  0.00    -0.200 F 
ENDBRANCH  61  84
ENDBRANCH  35  36
ENDBRANCH  28  30
ENDBRANCH  27  28
ENDBRANCH  26  27
ENDBRANCH   1  26
TORSDOF 14
ENDMDL
