MODEL 1
REMARK VINA RESULT:     -11.0      0.000      0.000
REMARK SMILES O=C(N[C@H](CCBr)C(=O)OCCOC(=O)c1ccc(-c2c3nc(c(-c4c(F)c(F)c(F)c(F)c4F)c4ccc([nH]4)c(-c4c(F)c(F)c(F)c(F)c4F)c4nc(c(-c5c(F)c(F)c(F)c(F)c5F)c5ccc2[nH]5)C=C4)C=C3)cc1)OCc1ccccc1
REMARK SMILES IDX 11 1 10 2 8 3 9 4 4 5 3 6 1 7 2 8 79 10 80 11 81 12 82 13
REMARK SMILES IDX 86 14 83 15 85 16 84 17 5 18 6 19 7 20 12 21 13 22 14 23
REMARK SMILES IDX 15 24 16 25 17 26 78 27 18 28 77 29 19 30 20 31 21 32 71 33
REMARK SMILES IDX 22 34 76 35 70 36 72 37 23 38 75 39 69 40 68 41 24 43 56 44
REMARK SMILES IDX 36 45 55 46 37 47 40 48 54 49 73 50 38 51 39 52 53 54 74 55
REMARK SMILES IDX 41 56 25 57 26 58 34 59 27 60 28 61 32 62 35 63 29 64 30 65
REMARK SMILES IDX 33 66 31 67 57 68 58 69 66 70 59 71 60 72 64 73 67 74 61 75
REMARK SMILES IDX 62 76 65 77 63 78 42 79 43 80 51 81 44 82 45 83 49 84 52 85
REMARK SMILES IDX 46 86 47 87 50 88 48 89
REMARK H PARENT 3 9 72 42 40 53
REMARK Flexibility Score: inf
ROOT
ATOM      1  C   UNL A   1      32.311  29.216  24.956  1.00  0.00     0.274 C 
ENDROOT
BRANCH   1   2
ATOM      2  O   UNL A   1      31.240  28.314  24.620  1.00  0.00    -0.461 OA
BRANCH   2   3
ATOM      3  C   UNL A   1      31.262  27.784  23.382  1.00  0.00     0.328 C 
ATOM      4  O   UNL A   1      31.097  28.433  22.348  1.00  0.00    -0.250 OA
BRANCH   3   5
ATOM      5  C   UNL A   1      31.527  26.275  23.342  1.00  0.00     0.196 C 
BRANCH   5   6
ATOM      6  N   UNL A   1      31.715  26.001  21.892  1.00  0.00    -0.308 N 
ATOM      7  O   UNL A   1      33.004  25.665  20.054  1.00  0.00    -0.225 OA
ATOM      8  C   UNL A   1      32.862  25.620  21.262  1.00  0.00     0.408 C 
ATOM      9  H   UNL A   1      30.919  26.104  21.322  1.00  0.00     0.168 HD
BRANCH   8  10
ATOM     10  O   UNL A   1      33.813  25.262  22.143  1.00  0.00    -0.445 OA
BRANCH  10  11
ATOM     11  C   UNL A   1      33.986  23.872  22.408  1.00  0.00     0.270 C 
BRANCH  11  12
ATOM     12  C   UNL A   1      34.997  23.623  23.510  1.00  0.00    -0.011 A 
ATOM     13  C   UNL A   1      34.860  24.249  24.759  1.00  0.00     0.007 A 
ATOM     14  C   UNL A   1      36.105  22.790  23.300  1.00  0.00     0.007 A 
ATOM     15  C   UNL A   1      35.813  24.071  25.761  1.00  0.00     0.000 A 
ATOM     16  C   UNL A   1      37.074  22.633  24.295  1.00  0.00     0.000 A 
ATOM     17  C   UNL A   1      36.933  23.282  25.520  1.00  0.00     0.000 A 
ENDBRANCH  11  12
ENDBRANCH  10  11
ENDBRANCH   8  10
ENDBRANCH   5   6
BRANCH   5  18
ATOM     18  C   UNL A   1      30.572  25.272  24.024  1.00  0.00     0.048 C 
BRANCH  18  19
ATOM     19  C   UNL A   1      30.697  23.779  23.798  1.00  0.00     0.083 C 
ATOM     20  Br  UNL A   1      31.328  22.854  25.383  1.00  0.00    -0.093 Br
ENDBRANCH  18  19
ENDBRANCH   5  18
ENDBRANCH   3   5
ENDBRANCH   2   3
ENDBRANCH   1   2
BRANCH   1  21
ATOM     21  C   UNL A   1      31.782  30.406  25.760  1.00  0.00     0.275 C 
BRANCH  21  22
ATOM     22  O   UNL A   1      32.353  30.467  27.086  1.00  0.00    -0.458 OA
BRANCH  22  23
ATOM     23  C   UNL A   1      33.135  31.544  27.301  1.00  0.00     0.338 C 
ATOM     24  O   UNL A   1      32.810  32.717  27.240  1.00  0.00    -0.246 OA
BRANCH  23  25
ATOM     25  C   UNL A   1      34.504  31.197  27.672  1.00  0.00     0.060 A 
ATOM     26  C   UNL A   1      34.793  29.857  27.936  1.00  0.00     0.016 A 
ATOM     27  C   UNL A   1      35.388  32.211  28.045  1.00  0.00     0.016 A 
ATOM     28  C   UNL A   1      35.957  29.533  28.625  1.00  0.00     0.010 A 
ATOM     29  C   UNL A   1      36.572  31.876  28.706  1.00  0.00     0.010 A 
ATOM     30  C   UNL A   1      36.850  30.538  29.030  1.00  0.00    -0.014 A 
BRANCH  30  31
ATOM     31  C   UNL A   1      38.069  30.178  29.797  1.00  0.00     0.031 A 
ATOM     32  C   UNL A   1      39.098  29.243  29.220  1.00  0.00     0.074 A 
ATOM     33  C   UNL A   1      38.251  30.708  31.020  1.00  0.00     0.049 A 
ATOM     34  N   UNL A   1      40.177  28.754  29.778  1.00  0.00    -0.248 NA
ATOM     35  C   UNL A   1      38.883  28.795  27.836  1.00  0.00     0.031 C 
ATOM     36  C   UNL A   1      37.335  31.643  31.674  1.00  0.00     0.029 A 
ATOM     37  N   UNL A   1      39.264  30.538  31.929  1.00  0.00    -0.354 N 
ATOM     38  C   UNL A   1      40.753  27.918  28.828  1.00  0.00     0.074 A 
ATOM     39  C   UNL A   1      39.897  27.956  27.662  1.00  0.00     0.031 C 
ATOM     40  C   UNL A   1      37.836  31.980  32.872  1.00  0.00     0.029 A 
ATOM     41  C   UNL A   1      39.072  31.238  33.094  1.00  0.00     0.049 A 
ATOM     42  H   UNL A   1      40.050  29.970  31.762  1.00  0.00     0.167 HD
ATOM     43  C   UNL A   1      41.893  27.190  28.925  1.00  0.00     0.037 A 
ATOM     44  C   UNL A   1      39.795  31.256  34.228  1.00  0.00     0.037 A 
ATOM     45  C   UNL A   1      42.752  27.173  30.085  1.00  0.00     0.049 A 
ATOM     46  C   UNL A   1      41.037  30.415  34.317  1.00  0.00     0.074 A 
ATOM     47  C   UNL A   1      43.939  26.485  30.272  1.00  0.00     0.029 A 
ATOM     48  N   UNL A   1      42.515  27.881  31.255  1.00  0.00    -0.354 N 
ATOM     49  N   UNL A   1      41.570  29.627  33.417  1.00  0.00    -0.248 NA
ATOM     50  C   UNL A   1      41.776  30.468  35.586  1.00  0.00     0.031 C 
ATOM     51  C   UNL A   1      44.397  26.742  31.571  1.00  0.00     0.029 A 
ATOM     52  C   UNL A   1      43.523  27.632  32.174  1.00  0.00     0.049 A 
ATOM     53  H   UNL A   1      41.744  28.474  31.409  1.00  0.00     0.167 HD
ATOM     54  C   UNL A   1      42.713  29.102  34.001  1.00  0.00     0.074 A 
ATOM     55  C   UNL A   1      42.810  29.682  35.324  1.00  0.00     0.031 C 
ATOM     56  C   UNL A   1      43.602  28.214  33.490  1.00  0.00     0.037 A 
BRANCH  43  57
ATOM     57  C   UNL A   1      42.271  26.323  27.756  1.00  0.00     0.064 A 
ATOM     58  C   UNL A   1      43.224  26.729  26.811  1.00  0.00     0.173 A 
ATOM     59  C   UNL A   1      41.704  25.047  27.608  1.00  0.00     0.173 A 
ATOM     60  F   UNL A   1      43.789  27.941  26.900  1.00  0.00    -0.203 F 
ATOM     61  C   UNL A   1      43.576  25.900  25.746  1.00  0.00     0.198 A 
ATOM     62  C   UNL A   1      42.079  24.211  26.559  1.00  0.00     0.198 A 
ATOM     63  F   UNL A   1      40.793  24.605  28.489  1.00  0.00    -0.203 F 
ATOM     64  F   UNL A   1      44.457  26.327  24.831  1.00  0.00    -0.200 F 
ATOM     65  C   UNL A   1      43.010  24.640  25.625  1.00  0.00     0.200 A 
ATOM     66  F   UNL A   1      41.540  22.988  26.452  1.00  0.00    -0.200 F 
ATOM     67  F   UNL A   1      43.355  23.843  24.606  1.00  0.00    -0.200 F 
ENDBRANCH  43  57
BRANCH  44  68
ATOM     68  C   UNL A   1      39.348  32.090  35.372  1.00  0.00     0.064 A 
ATOM     69  C   UNL A   1      39.714  33.440  35.466  1.00  0.00     0.173 A 
ATOM     70  C   UNL A   1      38.541  31.559  36.388  1.00  0.00     0.173 A 
ATOM     71  F   UNL A   1      40.502  33.986  34.528  1.00  0.00    -0.203 F 
ATOM     72  C   UNL A   1      39.302  34.222  36.542  1.00  0.00     0.198 A 
ATOM     73  C   UNL A   1      38.104  32.351  37.447  1.00  0.00     0.198 A 
ATOM     74  F   UNL A   1      38.160  30.274  36.342  1.00  0.00    -0.203 F 
ATOM     75  F   UNL A   1      39.702  35.498  36.631  1.00  0.00    -0.200 F 
ATOM     76  C   UNL A   1      38.491  33.679  37.528  1.00  0.00     0.200 A 
ATOM     77  F   UNL A   1      37.306  31.826  38.388  1.00  0.00    -0.200 F 
ATOM     78  F   UNL A   1      38.090  34.435  38.558  1.00  0.00    -0.200 F 
ENDBRANCH  44  68
BRANCH  56  79
ATOM     79  C   UNL A   1      44.767  27.843  34.362  1.00  0.00     0.064 A 
ATOM     80  C   UNL A   1      45.945  28.604  34.378  1.00  0.00     0.173 A 
ATOM     81  C   UNL A   1      44.705  26.711  35.188  1.00  0.00     0.173 A 
ATOM     82  F   UNL A   1      46.061  29.685  33.592  1.00  0.00    -0.203 F 
ATOM     83  C   UNL A   1      47.033  28.223  35.160  1.00  0.00     0.198 A 
ATOM     84  C   UNL A   1      45.782  26.351  35.992  1.00  0.00     0.198 A 
ATOM     85  F   UNL A   1      43.598  25.952  35.215  1.00  0.00    -0.203 F 
ATOM     86  F   UNL A   1      48.171  28.929  35.110  1.00  0.00    -0.200 F 
ATOM     87  C   UNL A   1      46.949  27.100  35.969  1.00  0.00     0.200 A 
ATOM     88  F   UNL A   1      45.696  25.272  36.783  1.00  0.00    -0.200 F 
ATOM     89  F   UNL A   1      47.998  26.732  36.717  1.00  0.00    -0.200 F 
ENDBRANCH  56  79
ENDBRANCH  30  31
ENDBRANCH  23  25
ENDBRANCH  22  23
ENDBRANCH  21  22
ENDBRANCH   1  21
TORSDOF 17
ENDMDL
MODEL 2
REMARK VINA RESULT:     -11.0      4.385      9.587
REMARK SMILES O=C(N[C@H](CCBr)C(=O)OCCOC(=O)c1ccc(-c2c3nc(c(-c4c(F)c(F)c(F)c(F)c4F)c4ccc([nH]4)c(-c4c(F)c(F)c(F)c(F)c4F)c4nc(c(-c5c(F)c(F)c(F)c(F)c5F)c5ccc2[nH]5)C=C4)C=C3)cc1)OCc1ccccc1
REMARK SMILES IDX 11 1 10 2 8 3 9 4 4 5 3 6 1 7 2 8 79 10 80 11 81 12 82 13
REMARK SMILES IDX 86 14 83 15 85 16 84 17 5 18 6 19 7 20 12 21 13 22 14 23
REMARK SMILES IDX 15 24 16 25 17 26 78 27 18 28 77 29 19 30 20 31 21 32 71 33
REMARK SMILES IDX 22 34 76 35 70 36 72 37 23 38 75 39 69 40 68 41 24 43 56 44
REMARK SMILES IDX 36 45 55 46 37 47 40 48 54 49 73 50 38 51 39 52 53 54 74 55
REMARK SMILES IDX 41 56 25 57 26 58 34 59 27 60 28 61 32 62 35 63 29 64 30 65
REMARK SMILES IDX 33 66 31 67 57 68 58 69 66 70 59 71 60 72 64 73 67 74 61 75
REMARK SMILES IDX 62 76 65 77 63 78 42 79 43 80 51 81 44 82 45 83 49 84 52 85
REMARK SMILES IDX 46 86 47 87 50 88 48 89
REMARK H PARENT 3 9 72 42 40 53
REMARK Flexibility Score: inf
ROOT
ATOM      1  C   UNL A   1      35.319  20.943  25.408  1.00  0.00     0.274 C 
ENDROOT
BRANCH   1   2
ATOM      2  O   UNL A   1      34.329  20.264  24.612  1.00  0.00    -0.461 OA
BRANCH   2   3
ATOM      3  C   UNL A   1      33.041  20.554  24.874  1.00  0.00     0.328 C 
ATOM      4  O   UNL A   1      32.191  19.717  25.179  1.00  0.00    -0.250 OA
BRANCH   3   5
ATOM      5  C   UNL A   1      32.693  22.044  24.776  1.00  0.00     0.196 C 
BRANCH   5   6
ATOM      6  N   UNL A   1      31.549  22.189  25.716  1.00  0.00    -0.308 N 
ATOM      7  O   UNL A   1      30.509  23.143  27.493  1.00  0.00    -0.225 OA
ATOM      8  C   UNL A   1      31.314  23.214  26.582  1.00  0.00     0.408 C 
ATOM      9  H   UNL A   1      30.885  21.462  25.710  1.00  0.00     0.168 HD
BRANCH   8  10
ATOM     10  O   UNL A   1      32.121  24.261  26.340  1.00  0.00    -0.445 OA
BRANCH  10  11
ATOM     11  C   UNL A   1      31.545  25.424  25.748  1.00  0.00     0.270 C 
BRANCH  11  12
ATOM     12  C   UNL A   1      32.182  26.700  26.261  1.00  0.00    -0.011 A 
ATOM     13  C   UNL A   1      31.430  27.624  27.004  1.00  0.00     0.007 A 
ATOM     14  C   UNL A   1      33.522  27.002  25.982  1.00  0.00     0.007 A 
ATOM     15  C   UNL A   1      31.991  28.826  27.434  1.00  0.00     0.000 A 
ATOM     16  C   UNL A   1      34.075  28.219  26.390  1.00  0.00     0.000 A 
ATOM     17  C   UNL A   1      33.306  29.134  27.106  1.00  0.00     0.000 A 
ENDBRANCH  11  12
ENDBRANCH  10  11
ENDBRANCH   8  10
ENDBRANCH   5   6
BRANCH   5  18
ATOM     18  C   UNL A   1      32.441  22.723  23.413  1.00  0.00     0.048 C 
BRANCH  18  19
ATOM     19  C   UNL A   1      33.428  23.710  22.825  1.00  0.00     0.083 C 
ATOM     20  Br  UNL A   1      32.538  25.220  21.991  1.00  0.00    -0.093 Br
ENDBRANCH  18  19
ENDBRANCH   5  18
ENDBRANCH   3   5
ENDBRANCH   2   3
ENDBRANCH   1   2
BRANCH   1  21
ATOM     21  C   UNL A   1      36.726  20.454  25.052  1.00  0.00     0.275 C 
BRANCH  21  22
ATOM     22  O   UNL A   1      37.693  21.529  25.051  1.00  0.00    -0.458 OA
BRANCH  22  23
ATOM     23  C   UNL A   1      38.777  21.295  25.818  1.00  0.00     0.338 C 
ATOM     24  O   UNL A   1      39.380  20.242  25.943  1.00  0.00    -0.246 OA
BRANCH  23  25
ATOM     25  C   UNL A   1      39.248  22.481  26.528  1.00  0.00     0.060 A 
ATOM     26  C   UNL A   1      38.735  23.721  26.145  1.00  0.00     0.016 A 
ATOM     27  C   UNL A   1      40.386  22.389  27.330  1.00  0.00     0.016 A 
ATOM     28  C   UNL A   1      39.398  24.881  26.530  1.00  0.00     0.010 A 
ATOM     29  C   UNL A   1      41.028  23.559  27.742  1.00  0.00     0.010 A 
ATOM     30  C   UNL A   1      40.558  24.813  27.318  1.00  0.00    -0.014 A 
BRANCH  30  31
ATOM     31  C   UNL A   1      41.273  26.060  27.689  1.00  0.00     0.031 A 
ATOM     32  C   UNL A   1      40.579  27.152  28.455  1.00  0.00     0.074 A 
ATOM     33  C   UNL A   1      42.565  26.199  27.336  1.00  0.00     0.049 A 
ATOM     34  N   UNL A   1      41.021  28.339  28.790  1.00  0.00    -0.248 NA
ATOM     35  C   UNL A   1      39.204  26.878  28.900  1.00  0.00     0.031 C 
ATOM     36  C   UNL A   1      43.350  25.200  26.612  1.00  0.00     0.029 A 
ATOM     37  N   UNL A   1      43.442  27.234  27.539  1.00  0.00    -0.354 N 
ATOM     38  C   UNL A   1      39.973  28.964  29.456  1.00  0.00     0.074 A 
ATOM     39  C   UNL A   1      38.867  28.029  29.467  1.00  0.00     0.031 C 
ATOM     40  C   UNL A   1      44.599  25.661  26.447  1.00  0.00     0.029 A 
ATOM     41  C   UNL A   1      44.682  27.009  26.997  1.00  0.00     0.049 A 
ATOM     42  H   UNL A   1      43.205  28.056  28.026  1.00  0.00     0.167 HD
ATOM     43  C   UNL A   1      39.942  30.203  30.007  1.00  0.00     0.037 A 
ATOM     44  C   UNL A   1      45.759  27.813  26.923  1.00  0.00     0.037 A 
ATOM     45  C   UNL A   1      41.056  31.120  30.009  1.00  0.00     0.049 A 
ATOM     46  C   UNL A   1      45.685  29.191  27.516  1.00  0.00     0.074 A 
ATOM     47  C   UNL A   1      41.131  32.389  30.560  1.00  0.00     0.029 A 
ATOM     48  N   UNL A   1      42.293  30.865  29.433  1.00  0.00    -0.354 N 
ATOM     49  N   UNL A   1      44.691  29.773  28.139  1.00  0.00    -0.248 NA
ATOM     50  C   UNL A   1      46.889  30.025  27.391  1.00  0.00     0.031 C 
ATOM     51  C   UNL A   1      42.397  32.917  30.279  1.00  0.00     0.029 A 
ATOM     52  C   UNL A   1      43.130  31.957  29.599  1.00  0.00     0.049 A 
ATOM     53  H   UNL A   1      42.540  30.029  28.974  1.00  0.00     0.167 HD
ATOM     54  C   UNL A   1      45.149  31.032  28.495  1.00  0.00     0.074 A 
ATOM     55  C   UNL A   1      46.522  31.119  28.040  1.00  0.00     0.031 C 
ATOM     56  C   UNL A   1      44.492  32.030  29.135  1.00  0.00     0.037 A 
BRANCH  43  57
ATOM     57  C   UNL A   1      38.653  30.658  30.633  1.00  0.00     0.064 A 
ATOM     58  C   UNL A   1      38.453  30.626  32.021  1.00  0.00     0.173 A 
ATOM     59  C   UNL A   1      37.623  31.177  29.834  1.00  0.00     0.173 A 
ATOM     60  F   UNL A   1      39.401  30.131  32.829  1.00  0.00    -0.203 F 
ATOM     61  C   UNL A   1      37.258  31.074  32.583  1.00  0.00     0.198 A 
ATOM     62  C   UNL A   1      36.441  31.650  30.402  1.00  0.00     0.198 A 
ATOM     63  F   UNL A   1      37.765  31.238  28.501  1.00  0.00    -0.203 F 
ATOM     64  F   UNL A   1      37.072  30.993  33.908  1.00  0.00    -0.200 F 
ATOM     65  C   UNL A   1      36.257  31.591  31.775  1.00  0.00     0.200 A 
ATOM     66  F   UNL A   1      35.481  32.162  29.619  1.00  0.00    -0.200 F 
ATOM     67  F   UNL A   1      35.113  32.028  32.318  1.00  0.00    -0.200 F 
ENDBRANCH  43  57
BRANCH  44  68
ATOM     68  C   UNL A   1      46.991  27.332  26.247  1.00  0.00     0.064 A 
ATOM     69  C   UNL A   1      47.183  27.530  24.873  1.00  0.00     0.173 A 
ATOM     70  C   UNL A   1      48.003  26.674  26.960  1.00  0.00     0.173 A 
ATOM     71  F   UNL A   1      46.233  28.137  24.145  1.00  0.00    -0.203 F 
ATOM     72  C   UNL A   1      48.334  27.074  24.236  1.00  0.00     0.198 A 
ATOM     73  C   UNL A   1      49.167  26.246  26.328  1.00  0.00     0.198 A 
ATOM     74  F   UNL A   1      47.868  26.464  28.279  1.00  0.00    -0.203 F 
ATOM     75  F   UNL A   1      48.473  27.237  22.913  1.00  0.00    -0.200 F 
ATOM     76  C   UNL A   1      49.328  26.439  24.965  1.00  0.00     0.200 A 
ATOM     77  F   UNL A   1      50.133  25.649  27.040  1.00  0.00    -0.200 F 
ATOM     78  F   UNL A   1      50.438  26.007  24.352  1.00  0.00    -0.200 F 
ENDBRANCH  44  68
BRANCH  56  79
ATOM     79  C   UNL A   1      45.267  33.289  29.403  1.00  0.00     0.064 A 
ATOM     80  C   UNL A   1      46.023  33.452  30.574  1.00  0.00     0.173 A 
ATOM     81  C   UNL A   1      45.250  34.344  28.480  1.00  0.00     0.173 A 
ATOM     82  F   UNL A   1      46.057  32.479  31.497  1.00  0.00    -0.203 F 
ATOM     83  C   UNL A   1      46.701  34.643  30.827  1.00  0.00     0.198 A 
ATOM     84  C   UNL A   1      45.955  35.520  28.722  1.00  0.00     0.198 A 
ATOM     85  F   UNL A   1      44.547  34.237  27.341  1.00  0.00    -0.203 F 
ATOM     86  F   UNL A   1      47.363  34.800  31.982  1.00  0.00    -0.200 F 
ATOM     87  C   UNL A   1      46.670  35.673  29.900  1.00  0.00     0.200 A 
ATOM     88  F   UNL A   1      45.933  36.511  27.819  1.00  0.00    -0.200 F 
ATOM     89  F   UNL A   1      47.319  36.819  30.148  1.00  0.00    -0.200 F 
ENDBRANCH  56  79
ENDBRANCH  30  31
ENDBRANCH  23  25
ENDBRANCH  22  23
ENDBRANCH  21  22
ENDBRANCH   1  21
TORSDOF 17
ENDMDL
MODEL 3
REMARK VINA RESULT:     -10.9      4.440      9.764
REMARK SMILES O=C(N[C@H](CCBr)C(=O)OCCOC(=O)c1ccc(-c2c3nc(c(-c4c(F)c(F)c(F)c(F)c4F)c4ccc([nH]4)c(-c4c(F)c(F)c(F)c(F)c4F)c4nc(c(-c5c(F)c(F)c(F)c(F)c5F)c5ccc2[nH]5)C=C4)C=C3)cc1)OCc1ccccc1
REMARK SMILES IDX 11 1 10 2 8 3 9 4 4 5 3 6 1 7 2 8 79 10 80 11 81 12 82 13
REMARK SMILES IDX 86 14 83 15 85 16 84 17 5 18 6 19 7 20 12 21 13 22 14 23
REMARK SMILES IDX 15 24 16 25 17 26 78 27 18 28 77 29 19 30 20 31 21 32 71 33
REMARK SMILES IDX 22 34 76 35 70 36 72 37 23 38 75 39 69 40 68 41 24 43 56 44
REMARK SMILES IDX 36 45 55 46 37 47 40 48 54 49 73 50 38 51 39 52 53 54 74 55
REMARK SMILES IDX 41 56 25 57 26 58 34 59 27 60 28 61 32 62 35 63 29 64 30 65
REMARK SMILES IDX 33 66 31 67 57 68 58 69 66 70 59 71 60 72 64 73 67 74 61 75
REMARK SMILES IDX 62 76 65 77 63 78 42 79 43 80 51 81 44 82 45 83 49 84 52 85
REMARK SMILES IDX 46 86 47 87 50 88 48 89
REMARK H PARENT 3 9 72 42 40 53
REMARK Flexibility Score: inf
ROOT
ATOM      1  C   UNL A   1      35.902  20.369  25.017  1.00  0.00     0.274 C 
ENDROOT
BRANCH   1   2
ATOM      2  O   UNL A   1      35.596  21.702  24.565  1.00  0.00    -0.461 OA
BRANCH   2   3
ATOM      3  C   UNL A   1      34.875  22.473  25.400  1.00  0.00     0.328 C 
ATOM      4  O   UNL A   1      35.239  22.797  26.530  1.00  0.00    -0.250 OA
BRANCH   3   5
ATOM      5  C   UNL A   1      33.533  22.945  24.828  1.00  0.00     0.196 C 
BRANCH   5   6
ATOM      6  N   UNL A   1      32.578  22.674  25.936  1.00  0.00    -0.308 N 
ATOM      7  O   UNL A   1      31.209  23.330  27.623  1.00  0.00    -0.225 OA
ATOM      8  C   UNL A   1      31.766  23.568  26.568  1.00  0.00     0.408 C 
ATOM      9  H   UNL A   1      32.525  21.742  26.247  1.00  0.00     0.168 HD
BRANCH   8  10
ATOM     10  O   UNL A   1      31.722  24.742  25.914  1.00  0.00    -0.445 OA
BRANCH  10  11
ATOM     11  C   UNL A   1      30.441  25.306  25.642  1.00  0.00     0.270 C 
BRANCH  11  12
ATOM     12  C   UNL A   1      30.545  26.670  24.990  1.00  0.00    -0.011 A 
ATOM     13  C   UNL A   1      31.399  27.651  25.518  1.00  0.00     0.007 A 
ATOM     14  C   UNL A   1      29.771  26.995  23.866  1.00  0.00     0.007 A 
ATOM     15  C   UNL A   1      31.461  28.926  24.959  1.00  0.00     0.000 A 
ATOM     16  C   UNL A   1      29.815  28.283  23.323  1.00  0.00     0.000 A 
ATOM     17  C   UNL A   1      30.650  29.249  23.877  1.00  0.00     0.000 A 
ENDBRANCH  11  12
ENDBRANCH  10  11
ENDBRANCH   8  10
ENDBRANCH   5   6
BRANCH   5  18
ATOM     18  C   UNL A   1      33.022  22.449  23.459  1.00  0.00     0.048 C 
BRANCH  18  19
ATOM     19  C   UNL A   1      33.258  23.242  22.190  1.00  0.00     0.083 C 
ATOM     20  Br  UNL A   1      32.960  25.142  22.454  1.00  0.00    -0.093 Br
ENDBRANCH  18  19
ENDBRANCH   5  18
ENDBRANCH   3   5
ENDBRANCH   2   3
ENDBRANCH   1   2
BRANCH   1  21
ATOM     21  C   UNL A   1      37.414  20.128  25.006  1.00  0.00     0.275 C 
BRANCH  21  22
ATOM     22  O   UNL A   1      38.161  21.340  25.251  1.00  0.00    -0.458 OA
BRANCH  22  23
ATOM     23  C   UNL A   1      39.201  21.186  26.095  1.00  0.00     0.338 C 
ATOM     24  O   UNL A   1      39.806  20.156  26.342  1.00  0.00    -0.246 OA
BRANCH  23  25
ATOM     25  C   UNL A   1      39.618  22.433  26.729  1.00  0.00     0.060 A 
ATOM     26  C   UNL A   1      39.114  23.630  26.218  1.00  0.00     0.016 A 
ATOM     27  C   UNL A   1      40.710  22.424  27.598  1.00  0.00     0.016 A 
ATOM     28  C   UNL A   1      39.741  24.828  26.542  1.00  0.00     0.010 A 
ATOM     29  C   UNL A   1      41.316  23.635  27.946  1.00  0.00     0.010 A 
ATOM     30  C   UNL A   1      40.856  24.842  27.395  1.00  0.00    -0.014 A 
BRANCH  30  31
ATOM     31  C   UNL A   1      41.536  26.126  27.700  1.00  0.00     0.031 A 
ATOM     32  C   UNL A   1      40.838  27.205  28.481  1.00  0.00     0.074 A 
ATOM     33  C   UNL A   1      42.800  26.311  27.276  1.00  0.00     0.049 A 
ATOM     34  N   UNL A   1      41.245  28.417  28.767  1.00  0.00    -0.248 NA
ATOM     35  C   UNL A   1      39.502  26.884  29.006  1.00  0.00     0.031 C 
ATOM     36  C   UNL A   1      43.588  25.330  26.530  1.00  0.00     0.029 A 
ATOM     37  N   UNL A   1      43.641  27.387  27.409  1.00  0.00    -0.354 N 
ATOM     38  C   UNL A   1      40.209  29.012  29.476  1.00  0.00     0.074 A 
ATOM     39  C   UNL A   1      39.147  28.033  29.566  1.00  0.00     0.031 C 
ATOM     40  C   UNL A   1      44.805  25.839  26.288  1.00  0.00     0.029 A 
ATOM     41  C   UNL A   1      44.859  27.202  26.804  1.00  0.00     0.049 A 
ATOM     42  H   UNL A   1      43.395  28.209  27.890  1.00  0.00     0.167 HD
ATOM     43  C   UNL A   1      40.154  30.261  30.002  1.00  0.00     0.037 A 
ATOM     44  C   UNL A   1      45.895  28.048  26.655  1.00  0.00     0.037 A 
ATOM     45  C   UNL A   1      41.226  31.225  29.925  1.00  0.00     0.049 A 
ATOM     46  C   UNL A   1      45.794  29.435  27.222  1.00  0.00     0.074 A 
ATOM     47  C   UNL A   1      41.276  32.507  30.445  1.00  0.00     0.029 A 
ATOM     48  N   UNL A   1      42.440  31.008  29.287  1.00  0.00    -0.354 N 
ATOM     49  N   UNL A   1      44.810  29.989  27.887  1.00  0.00    -0.248 NA
ATOM     50  C   UNL A   1      46.951  30.315  27.015  1.00  0.00     0.031 C 
ATOM     51  C   UNL A   1      42.501  33.082  30.084  1.00  0.00     0.029 A 
ATOM     52  C   UNL A   1      43.237  32.138  29.385  1.00  0.00     0.049 A 
ATOM     53  H   UNL A   1      42.698  30.173  28.833  1.00  0.00     0.167 HD
ATOM     54  C   UNL A   1      45.232  31.274  28.191  1.00  0.00     0.074 A 
ATOM     55  C   UNL A   1      46.573  31.408  27.661  1.00  0.00     0.031 C 
ATOM     56  C   UNL A   1      44.568  32.258  28.846  1.00  0.00     0.037 A 
BRANCH  43  57
ATOM     57  C   UNL A   1      38.882  30.676  30.688  1.00  0.00     0.064 A 
ATOM     58  C   UNL A   1      38.725  30.577  32.079  1.00  0.00     0.173 A 
ATOM     59  C   UNL A   1      37.824  31.225  29.947  1.00  0.00     0.173 A 
ATOM     60  F   UNL A   1      39.701  30.051  32.833  1.00  0.00    -0.203 F 
ATOM     61  C   UNL A   1      37.545  30.988  32.698  1.00  0.00     0.198 A 
ATOM     62  C   UNL A   1      36.658  31.661  30.573  1.00  0.00     0.198 A 
ATOM     63  F   UNL A   1      37.925  31.351  28.615  1.00  0.00    -0.203 F 
ATOM     64  F   UNL A   1      37.401  30.843  34.022  1.00  0.00    -0.200 F 
ATOM     65  C   UNL A   1      36.517  31.536  31.946  1.00  0.00     0.200 A 
ATOM     66  F   UNL A   1      35.671  32.202  29.845  1.00  0.00    -0.200 F 
ATOM     67  F   UNL A   1      35.387  31.937  32.544  1.00  0.00    -0.200 F 
ENDBRANCH  43  57
BRANCH  44  68
ATOM     68  C   UNL A   1      47.108  27.604  25.923  1.00  0.00     0.064 A 
ATOM     69  C   UNL A   1      47.180  27.696  24.526  1.00  0.00     0.173 A 
ATOM     70  C   UNL A   1      48.220  27.088  26.603  1.00  0.00     0.173 A 
ATOM     71  F   UNL A   1      46.133  28.164  23.831  1.00  0.00    -0.203 F 
ATOM     72  C   UNL A   1      48.314  27.273  23.837  1.00  0.00     0.198 A 
ATOM     73  C   UNL A   1      49.365  26.695  25.915  1.00  0.00     0.198 A 
ATOM     74  F   UNL A   1      48.202  26.983  27.940  1.00  0.00    -0.203 F 
ATOM     75  F   UNL A   1      48.341  27.331  22.499  1.00  0.00    -0.200 F 
ATOM     76  C   UNL A   1      49.409  26.780  24.532  1.00  0.00     0.200 A 
ATOM     77  F   UNL A   1      50.427  26.236  26.593  1.00  0.00    -0.200 F 
ATOM     78  F   UNL A   1      50.501  26.381  23.869  1.00  0.00    -0.200 F 
ENDBRANCH  44  68
BRANCH  56  79
ATOM     79  C   UNL A   1      45.301  33.554  29.045  1.00  0.00     0.064 A 
ATOM     80  C   UNL A   1      45.207  34.602  28.117  1.00  0.00     0.173 A 
ATOM     81  C   UNL A   1      46.110  33.747  30.174  1.00  0.00     0.173 A 
ATOM     82  F   UNL A   1      44.461  34.459  27.011  1.00  0.00    -0.203 F 
ATOM     83  C   UNL A   1      45.927  35.781  28.294  1.00  0.00     0.198 A 
ATOM     84  C   UNL A   1      46.804  34.939  30.364  1.00  0.00     0.198 A 
ATOM     85  F   UNL A   1      46.230  32.778  31.095  1.00  0.00    -0.203 F 
ATOM     86  F   UNL A   1      45.872  36.742  27.362  1.00  0.00    -0.200 F 
ATOM     87  C   UNL A   1      46.721  35.950  29.418  1.00  0.00     0.200 A 
ATOM     88  F   UNL A   1      47.561  35.106  31.457  1.00  0.00    -0.200 F 
ATOM     89  F   UNL A   1      47.417  37.083  29.584  1.00  0.00    -0.200 F 
ENDBRANCH  56  79
ENDBRANCH  30  31
ENDBRANCH  23  25
ENDBRANCH  22  23
ENDBRANCH  21  22
ENDBRANCH   1  21
TORSDOF 17
ENDMDL
