MODEL 1
REMARK VINA RESULT:     -12.8      0.000      0.000
REMARK SMILES O=C(CCN1C(=O)S/C(=C\c2ccccc2F)C1=O)Nc1ccc(C(=O)OCCOC(=O)c2ccc(-c3c4nc(c(-c5c(F)c(F)c(F)c(F)c5F)c5ccc([nH]5)c(-c5c(F)c(F)c(F)c(F)c5F)c5nc(c(-c6c(F)c(F)c(F)c(F)c6F)c6ccc3[nH]6)C=C5)C=C4)cc2)c(O)c1
REMARK SMILES IDX 27 1 25 2 26 3 24 4 21 5 22 6 98 7 23 8 96 9 20 10 1 11 2 12
REMARK SMILES IDX 3 14 4 15 5 16 6 17 18 18 7 19 8 20 9 21 19 22 10 23 11 24
REMARK SMILES IDX 12 25 16 26 13 27 15 28 17 29 14 30 97 31 28 33 29 34 30 35
REMARK SMILES IDX 31 36 32 37 33 38 34 39 95 40 35 41 94 42 36 43 37 44 38 45
REMARK SMILES IDX 88 46 39 47 93 48 87 49 89 50 40 51 92 52 86 53 85 54 41 56
REMARK SMILES IDX 73 57 53 58 72 59 54 60 57 61 71 62 90 63 55 64 56 65 70 67
REMARK SMILES IDX 91 68 58 69 42 70 43 71 51 72 44 73 45 74 49 75 52 76 46 77
REMARK SMILES IDX 47 78 50 79 48 80 74 81 75 82 83 83 76 84 77 85 81 86 84 87
REMARK SMILES IDX 78 88 79 89 82 90 80 91 59 92 60 93 68 94 61 95 62 96 66 97
REMARK SMILES IDX 69 98 63 99 64 100 67 101 65 102
REMARK H PARENT 20 13 97 32 89 55 57 66
REMARK Flexibility Score: inf
ROOT
ATOM      1  O   UNL A   1      33.583  34.049  29.098  1.00  0.00    -0.458 OA
ENDROOT
BRANCH   1   2
ATOM      2  C   UNL A   1      34.388  33.161  28.456  1.00  0.00     0.342 C 
ATOM      3  O   UNL A   1      35.605  33.104  28.521  1.00  0.00    -0.246 OA
BRANCH   2   4
ATOM      4  C   UNL A   1      33.562  32.153  27.745  1.00  0.00     0.101 A 
ATOM      5  C   UNL A   1      32.099  30.157  26.425  1.00  0.00     0.044 A 
ATOM      6  C   UNL A   1      33.287  29.814  27.048  1.00  0.00     0.027 A 
ATOM      7  C   UNL A   1      31.631  31.474  26.497  1.00  0.00     0.073 A 
ATOM      8  C   UNL A   1      34.042  30.829  27.646  1.00  0.00     0.022 A 
ATOM      9  C   UNL A   1      32.339  32.462  27.166  1.00  0.00     0.132 A 
BRANCH   5  10
ATOM     10  N   UNL A   1      31.473  29.294  25.520  1.00  0.00    -0.326 N 
ATOM     11  O   UNL A   1      32.948  29.301  23.749  1.00  0.00    -0.275 OA
ATOM     12  C   UNL A   1      31.911  28.912  24.277  1.00  0.00     0.226 C 
ATOM     13  H   UNL A   1      30.613  28.913  25.812  1.00  0.00     0.169 HD
BRANCH  12  14
ATOM     14  C   UNL A   1      30.949  27.952  23.564  1.00  0.00     0.122 C 
BRANCH  14  15
ATOM     15  C   UNL A   1      30.191  26.941  24.449  1.00  0.00     0.140 C 
BRANCH  15  16
ATOM     16  N   UNL A   1      31.017  25.816  24.902  1.00  0.00    -0.268 N 
ATOM     17  C   UNL A   1      31.607  25.749  26.139  1.00  0.00     0.293 C 
ATOM     18  C   UNL A   1      31.119  24.671  24.168  1.00  0.00     0.268 C 
ATOM     19  O   UNL A   1      31.471  26.530  27.064  1.00  0.00    -0.261 OA
ATOM     20  S   UNL A   1      32.634  24.306  26.241  1.00  0.00    -0.022 SA
ATOM     21  C   UNL A   1      32.284  23.881  24.622  1.00  0.00     0.083 C 
ATOM     22  O   UNL A   1      30.419  24.378  23.212  1.00  0.00    -0.268 OA
ATOM     23  C   UNL A   1      32.950  23.099  23.762  1.00  0.00     0.032 C 
BRANCH  23  24
ATOM     24  C   UNL A   1      34.001  22.125  24.047  1.00  0.00     0.012 A 
ATOM     25  C   UNL A   1      33.732  20.828  24.500  1.00  0.00     0.011 A 
ATOM     26  C   UNL A   1      35.320  22.588  24.049  1.00  0.00     0.130 A 
ATOM     27  C   UNL A   1      34.785  20.016  24.942  1.00  0.00     0.001 A 
ATOM     28  C   UNL A   1      36.364  21.789  24.495  1.00  0.00     0.040 A 
ATOM     29  F   UNL A   1      35.587  23.849  23.678  1.00  0.00    -0.206 F 
ATOM     30  C   UNL A   1      36.096  20.499  24.944  1.00  0.00     0.003 A 
ENDBRANCH  23  24
ENDBRANCH  15  16
ENDBRANCH  14  15
ENDBRANCH  12  14
ENDBRANCH   5  10
BRANCH   9  31
ATOM     31  O   UNL A   1      31.782  33.710  27.151  1.00  0.00    -0.507 OA
ATOM     32  H   UNL A   1      32.329  34.467  27.075  1.00  0.00     0.293 HD
ENDBRANCH   9  31
ENDBRANCH   2   4
ENDBRANCH   1   2
BRANCH   1  33
ATOM     33  C   UNL A   1      33.888  35.448  28.914  1.00  0.00     0.275 C 
BRANCH  33  34
ATOM     34  C   UNL A   1      32.881  36.319  29.668  1.00  0.00     0.275 C 
BRANCH  34  35
ATOM     35  O   UNL A   1      32.261  35.560  30.722  1.00  0.00    -0.458 OA
BRANCH  35  36
ATOM     36  C   UNL A   1      32.547  35.967  31.980  1.00  0.00     0.338 C 
ATOM     37  O   UNL A   1      31.964  36.806  32.643  1.00  0.00    -0.246 OA
BRANCH  36  38
ATOM     38  C   UNL A   1      33.643  35.151  32.521  1.00  0.00     0.060 A 
ATOM     39  C   UNL A   1      34.920  35.693  32.497  1.00  0.00     0.016 A 
ATOM     40  C   UNL A   1      33.463  33.826  32.899  1.00  0.00     0.016 A 
ATOM     41  C   UNL A   1      36.035  34.897  32.716  1.00  0.00     0.010 A 
ATOM     42  C   UNL A   1      34.578  33.067  33.286  1.00  0.00     0.010 A 
ATOM     43  C   UNL A   1      35.882  33.587  33.178  1.00  0.00    -0.014 A 
BRANCH  43  44
ATOM     44  C   UNL A   1      37.080  32.793  33.580  1.00  0.00     0.031 A 
ATOM     45  C   UNL A   1      37.730  33.011  34.919  1.00  0.00     0.074 A 
ATOM     46  C   UNL A   1      37.592  31.869  32.740  1.00  0.00     0.049 A 
ATOM     47  N   UNL A   1      38.894  32.595  35.352  1.00  0.00    -0.248 NA
ATOM     48  C   UNL A   1      36.979  33.814  35.895  1.00  0.00     0.031 C 
ATOM     49  C   UNL A   1      37.025  31.493  31.442  1.00  0.00     0.029 A 
ATOM     50  N   UNL A   1      38.704  31.067  32.851  1.00  0.00    -0.354 N 
ATOM     51  C   UNL A   1      39.034  33.121  36.629  1.00  0.00     0.074 A 
ATOM     52  C   UNL A   1      37.846  33.905  36.894  1.00  0.00     0.031 C 
ATOM     53  C   UNL A   1      37.749  30.501  30.910  1.00  0.00     0.029 A 
ATOM     54  C   UNL A   1      38.909  30.262  31.756  1.00  0.00     0.049 A 
ATOM     55  H   UNL A   1      39.295  31.070  33.638  1.00  0.00     0.167 HD
ATOM     56  C   UNL A   1      40.061  32.960  37.498  1.00  0.00     0.037 A 
ATOM     57  C   UNL A   1      39.942  29.464  31.426  1.00  0.00     0.037 A 
ATOM     58  C   UNL A   1      41.223  32.149  37.230  1.00  0.00     0.049 A 
ATOM     59  C   UNL A   1      41.125  29.393  32.344  1.00  0.00     0.074 A 
ATOM     60  C   UNL A   1      42.325  31.925  38.037  1.00  0.00     0.029 A 
ATOM     61  N   UNL A   1      41.428  31.418  36.067  1.00  0.00    -0.354 N 
ATOM     62  N   UNL A   1      41.290  29.957  33.515  1.00  0.00    -0.248 NA
ATOM     63  C   UNL A   1      42.277  28.607  31.884  1.00  0.00     0.031 C 
ATOM     64  C   UNL A   1      43.220  31.108  37.341  1.00  0.00     0.029 A 
ATOM     65  C   UNL A   1      42.651  30.769  36.124  1.00  0.00     0.049 A 
ATOM     66  H   UNL A   1      40.796  31.369  35.312  1.00  0.00     0.167 HD
ATOM     67  C   UNL A   1      42.555  29.585  33.942  1.00  0.00     0.074 A 
ATOM     68  C   UNL A   1      43.112  28.736  32.907  1.00  0.00     0.031 C 
ATOM     69  C   UNL A   1      43.193  29.924  35.087  1.00  0.00     0.037 A 
BRANCH  56  70
ATOM     70  C   UNL A   1      39.999  33.700  38.805  1.00  0.00     0.064 A 
ATOM     71  C   UNL A   1      39.255  33.183  39.878  1.00  0.00     0.173 A 
ATOM     72  C   UNL A   1      40.638  34.935  38.992  1.00  0.00     0.173 A 
ATOM     73  F   UNL A   1      38.612  32.011  39.755  1.00  0.00    -0.203 F 
ATOM     74  C   UNL A   1      39.152  33.874  41.084  1.00  0.00     0.198 A 
ATOM     75  C   UNL A   1      40.562  35.606  40.211  1.00  0.00     0.198 A 
ATOM     76  F   UNL A   1      41.366  35.475  38.003  1.00  0.00    -0.203 F 
ATOM     77  F   UNL A   1      38.412  33.372  42.082  1.00  0.00    -0.200 F 
ATOM     78  C   UNL A   1      39.815  35.080  41.253  1.00  0.00     0.200 A 
ATOM     79  F   UNL A   1      41.225  36.759  40.381  1.00  0.00    -0.200 F 
ATOM     80  F   UNL A   1      39.735  35.731  42.422  1.00  0.00    -0.200 F 
ENDBRANCH  56  70
BRANCH  57  81
ATOM     81  C   UNL A   1      39.892  28.703  30.150  1.00  0.00     0.064 A 
ATOM     82  C   UNL A   1      39.333  27.416  30.082  1.00  0.00     0.173 A 
ATOM     83  C   UNL A   1      40.491  29.215  28.993  1.00  0.00     0.173 A 
ATOM     84  F   UNL A   1      38.752  26.878  31.164  1.00  0.00    -0.203 F 
ATOM     85  C   UNL A   1      39.422  26.652  28.920  1.00  0.00     0.198 A 
ATOM     86  C   UNL A   1      40.551  28.462  27.821  1.00  0.00     0.198 A 
ATOM     87  F   UNL A   1      41.018  30.448  29.001  1.00  0.00    -0.203 F 
ATOM     88  F   UNL A   1      38.942  25.401  28.904  1.00  0.00    -0.200 F 
ATOM     89  C   UNL A   1      40.033  27.176  27.791  1.00  0.00     0.200 A 
ATOM     90  F   UNL A   1      41.124  28.979  26.725  1.00  0.00    -0.200 F 
ATOM     91  F   UNL A   1      40.126  26.439  26.676  1.00  0.00    -0.200 F 
ENDBRANCH  57  81
BRANCH  69  92
ATOM     92  C   UNL A   1      44.567  29.363  35.309  1.00  0.00     0.064 A 
ATOM     93  C   UNL A   1      45.696  30.039  34.820  1.00  0.00     0.173 A 
ATOM     94  C   UNL A   1      44.759  28.114  35.914  1.00  0.00     0.173 A 
ATOM     95  F   UNL A   1      45.563  31.238  34.232  1.00  0.00    -0.203 F 
ATOM     96  C   UNL A   1      46.962  29.468  34.900  1.00  0.00     0.198 A 
ATOM     97  C   UNL A   1      46.031  27.559  36.017  1.00  0.00     0.198 A 
ATOM     98  F   UNL A   1      43.713  27.438  36.413  1.00  0.00    -0.203 F 
ATOM     99  F   UNL A   1      48.019  30.110  34.382  1.00  0.00    -0.200 F 
ATOM    100  C   UNL A   1      47.129  28.229  35.498  1.00  0.00     0.200 A 
ATOM    101  F   UNL A   1      46.195  26.371  36.618  1.00  0.00    -0.200 F 
ATOM    102  F   UNL A   1      48.348  27.679  35.572  1.00  0.00    -0.200 F 
ENDBRANCH  69  92
ENDBRANCH  43  44
ENDBRANCH  36  38
ENDBRANCH  35  36
ENDBRANCH  34  35
ENDBRANCH  33  34
ENDBRANCH   1  33
TORSDOF 17
ENDMDL
MODEL 2
REMARK VINA RESULT:     -12.5      6.775     12.650
REMARK SMILES O=C(CCN1C(=O)S/C(=C\c2ccccc2F)C1=O)Nc1ccc(C(=O)OCCOC(=O)c2ccc(-c3c4nc(c(-c5c(F)c(F)c(F)c(F)c5F)c5ccc([nH]5)c(-c5c(F)c(F)c(F)c(F)c5F)c5nc(c(-c6c(F)c(F)c(F)c(F)c6F)c6ccc3[nH]6)C=C5)C=C4)cc2)c(O)c1
REMARK SMILES IDX 27 1 25 2 26 3 24 4 21 5 22 6 98 7 23 8 96 9 20 10 1 11 2 12
REMARK SMILES IDX 3 14 4 15 5 16 6 17 18 18 7 19 8 20 9 21 19 22 10 23 11 24
REMARK SMILES IDX 12 25 16 26 13 27 15 28 17 29 14 30 97 31 28 33 29 34 30 35
REMARK SMILES IDX 31 36 32 37 33 38 34 39 95 40 35 41 94 42 36 43 37 44 38 45
REMARK SMILES IDX 88 46 39 47 93 48 87 49 89 50 40 51 92 52 86 53 85 54 41 56
REMARK SMILES IDX 73 57 53 58 72 59 54 60 57 61 71 62 90 63 55 64 56 65 70 67
REMARK SMILES IDX 91 68 58 69 42 70 43 71 51 72 44 73 45 74 49 75 52 76 46 77
REMARK SMILES IDX 47 78 50 79 48 80 74 81 75 82 83 83 76 84 77 85 81 86 84 87
REMARK SMILES IDX 78 88 79 89 82 90 80 91 59 92 60 93 68 94 61 95 62 96 66 97
REMARK SMILES IDX 69 98 63 99 64 100 67 101 65 102
REMARK H PARENT 20 13 97 32 89 55 57 66
REMARK Flexibility Score: inf
ROOT
ATOM      1  O   UNL A   1      41.596  20.458  25.840  1.00  0.00    -0.458 OA
ENDROOT
BRANCH   1   2
ATOM      2  C   UNL A   1      40.759  21.232  26.580  1.00  0.00     0.342 C 
ATOM      3  O   UNL A   1      41.071  21.958  27.509  1.00  0.00    -0.246 OA
BRANCH   2   4
ATOM      4  C   UNL A   1      39.389  21.182  26.011  1.00  0.00     0.101 A 
ATOM      5  C   UNL A   1      36.786  21.217  24.966  1.00  0.00     0.044 A 
ATOM      6  C   UNL A   1      37.343  22.403  25.413  1.00  0.00     0.027 A 
ATOM      7  C   UNL A   1      37.538  20.037  25.005  1.00  0.00     0.073 A 
ATOM      8  C   UNL A   1      38.616  22.363  25.993  1.00  0.00     0.022 A 
ATOM      9  C   UNL A   1      38.834  20.016  25.501  1.00  0.00     0.132 A 
BRANCH   5  10
ATOM     10  N   UNL A   1      35.417  21.107  24.704  1.00  0.00    -0.326 N 
ATOM     11  O   UNL A   1      34.505  21.322  26.811  1.00  0.00    -0.275 OA
ATOM     12  C   UNL A   1      34.379  21.170  25.600  1.00  0.00     0.226 C 
ATOM     13  H   UNL A   1      35.168  20.967  23.762  1.00  0.00     0.169 HD
BRANCH  12  14
ATOM     14  C   UNL A   1      33.002  20.998  24.944  1.00  0.00     0.122 C 
BRANCH  14  15
ATOM     15  C   UNL A   1      32.785  21.696  23.586  1.00  0.00     0.140 C 
BRANCH  15  16
ATOM     16  N   UNL A   1      32.895  23.158  23.648  1.00  0.00    -0.268 N 
ATOM     17  C   UNL A   1      34.002  23.860  23.243  1.00  0.00     0.293 C 
ATOM     18  C   UNL A   1      31.821  23.936  23.968  1.00  0.00     0.268 C 
ATOM     19  O   UNL A   1      34.996  23.417  22.696  1.00  0.00    -0.261 OA
ATOM     20  S   UNL A   1      33.794  25.582  23.614  1.00  0.00    -0.022 SA
ATOM     21  C   UNL A   1      32.275  25.293  24.343  1.00  0.00     0.083 C 
ATOM     22  O   UNL A   1      30.665  23.554  24.033  1.00  0.00    -0.268 OA
ATOM     23  C   UNL A   1      31.580  26.019  25.229  1.00  0.00     0.032 C 
BRANCH  23  24
ATOM     24  C   UNL A   1      31.762  27.422  25.595  1.00  0.00     0.012 A 
ATOM     25  C   UNL A   1      32.196  27.825  26.864  1.00  0.00     0.011 A 
ATOM     26  C   UNL A   1      31.293  28.385  24.697  1.00  0.00     0.130 A 
ATOM     27  C   UNL A   1      32.158  29.182  27.209  1.00  0.00     0.001 A 
ATOM     28  C   UNL A   1      31.246  29.729  25.040  1.00  0.00     0.040 A 
ATOM     29  F   UNL A   1      30.816  28.008  23.501  1.00  0.00    -0.206 F 
ATOM     30  C   UNL A   1      31.679  30.130  26.301  1.00  0.00     0.003 A 
ENDBRANCH  23  24
ENDBRANCH  15  16
ENDBRANCH  14  15
ENDBRANCH  12  14
ENDBRANCH   5  10
BRANCH   9  31
ATOM     31  O   UNL A   1      39.454  18.799  25.498  1.00  0.00    -0.507 OA
ATOM     32  H   UNL A   1      38.983  18.031  25.757  1.00  0.00     0.293 HD
ENDBRANCH   9  31
ENDBRANCH   2   4
ENDBRANCH   1   2
BRANCH   1  33
ATOM     33  C   UNL A   1      42.472  19.572  26.570  1.00  0.00     0.275 C 
BRANCH  33  34
ATOM     34  C   UNL A   1      43.057  18.509  25.638  1.00  0.00     0.275 C 
BRANCH  34  35
ATOM     35  O   UNL A   1      44.472  18.716  25.477  1.00  0.00    -0.458 OA
BRANCH  35  36
ATOM     36  C   UNL A   1      44.847  19.315  24.323  1.00  0.00     0.338 C 
ATOM     37  O   UNL A   1      44.919  18.817  23.214  1.00  0.00    -0.246 OA
BRANCH  36  38
ATOM     38  C   UNL A   1      45.063  20.749  24.563  1.00  0.00     0.060 A 
ATOM     39  C   UNL A   1      45.674  21.116  25.754  1.00  0.00     0.016 A 
ATOM     40  C   UNL A   1      44.544  21.727  23.724  1.00  0.00     0.016 A 
ATOM     41  C   UNL A   1      45.656  22.435  26.186  1.00  0.00     0.010 A 
ATOM     42  C   UNL A   1      44.678  23.077  24.082  1.00  0.00     0.010 A 
ATOM     43  C   UNL A   1      45.218  23.448  25.329  1.00  0.00    -0.014 A 
BRANCH  43  44
ATOM     44  C   UNL A   1      45.365  24.878  25.728  1.00  0.00     0.031 A 
ATOM     45  C   UNL A   1      46.680  25.588  25.565  1.00  0.00     0.074 A 
ATOM     46  C   UNL A   1      44.311  25.547  26.241  1.00  0.00     0.049 A 
ATOM     47  N   UNL A   1      47.066  26.738  26.057  1.00  0.00    -0.248 NA
ATOM     48  C   UNL A   1      47.701  24.910  24.753  1.00  0.00     0.031 C 
ATOM     49  C   UNL A   1      42.953  25.016  26.388  1.00  0.00     0.029 A 
ATOM     50  N   UNL A   1      44.209  26.828  26.732  1.00  0.00    -0.354 N 
ATOM     51  C   UNL A   1      48.385  26.900  25.654  1.00  0.00     0.074 A 
ATOM     52  C   UNL A   1      48.741  25.720  24.894  1.00  0.00     0.031 C 
ATOM     53  C   UNL A   1      42.149  25.971  26.868  1.00  0.00     0.029 A 
ATOM     54  C   UNL A   1      42.953  27.139  27.196  1.00  0.00     0.049 A 
ATOM     55  H   UNL A   1      44.963  27.461  26.749  1.00  0.00     0.167 HD
ATOM     56  C   UNL A   1      49.218  27.941  25.897  1.00  0.00     0.037 A 
ATOM     57  C   UNL A   1      42.499  28.213  27.869  1.00  0.00     0.037 A 
ATOM     58  C   UNL A   1      48.837  29.124  26.629  1.00  0.00     0.049 A 
ATOM     59  C   UNL A   1      43.465  29.300  28.235  1.00  0.00     0.074 A 
ATOM     60  C   UNL A   1      49.606  30.232  26.939  1.00  0.00     0.029 A 
ATOM     61  N   UNL A   1      47.574  29.356  27.157  1.00  0.00    -0.354 N 
ATOM     62  N   UNL A   1      44.732  29.412  27.922  1.00  0.00    -0.248 NA
ATOM     63  C   UNL A   1      42.951  30.390  29.074  1.00  0.00     0.031 C 
ATOM     64  C   UNL A   1      48.827  31.106  27.702  1.00  0.00     0.029 A 
ATOM     65  C   UNL A   1      47.552  30.575  27.816  1.00  0.00     0.049 A 
ATOM     66  H   UNL A   1      46.806  28.743  27.075  1.00  0.00     0.167 HD
ATOM     67  C   UNL A   1      45.167  30.588  28.511  1.00  0.00     0.074 A 
ATOM     68  C   UNL A   1      44.023  31.162  29.192  1.00  0.00     0.031 C 
ATOM     69  C   UNL A   1      46.405  31.137  28.489  1.00  0.00     0.037 A 
BRANCH  56  70
ATOM     70  C   UNL A   1      50.634  27.838  25.401  1.00  0.00     0.064 A 
ATOM     71  C   UNL A   1      50.926  28.037  24.042  1.00  0.00     0.173 A 
ATOM     72  C   UNL A   1      51.698  27.507  26.253  1.00  0.00     0.173 A 
ATOM     73  F   UNL A   1      49.947  28.345  23.177  1.00  0.00    -0.203 F 
ATOM     74  C   UNL A   1      52.225  27.907  23.557  1.00  0.00     0.198 A 
ATOM     75  C   UNL A   1      53.003  27.413  25.771  1.00  0.00     0.198 A 
ATOM     76  F   UNL A   1      51.479  27.311  27.563  1.00  0.00    -0.203 F 
ATOM     77  F   UNL A   1      52.471  28.074  22.250  1.00  0.00    -0.200 F 
ATOM     78  C   UNL A   1      53.264  27.606  24.424  1.00  0.00     0.200 A 
ATOM     79  F   UNL A   1      54.009  27.147  26.615  1.00  0.00    -0.200 F 
ATOM     80  F   UNL A   1      54.517  27.506  23.959  1.00  0.00    -0.200 F 
ENDBRANCH  56  70
BRANCH  57  81
ATOM     81  C   UNL A   1      41.065  28.274  28.255  1.00  0.00     0.064 A 
ATOM     82  C   UNL A   1      40.109  28.901  27.439  1.00  0.00     0.173 A 
ATOM     83  C   UNL A   1      40.642  27.787  29.498  1.00  0.00     0.173 A 
ATOM     84  F   UNL A   1      40.464  29.388  26.241  1.00  0.00    -0.203 F 
ATOM     85  C   UNL A   1      38.799  29.083  27.874  1.00  0.00     0.198 A 
ATOM     86  C   UNL A   1      39.323  27.942  29.919  1.00  0.00     0.198 A 
ATOM     87  F   UNL A   1      41.512  27.160  30.303  1.00  0.00    -0.203 F 
ATOM     88  F   UNL A   1      37.925  29.746  27.105  1.00  0.00    -0.200 F 
ATOM     89  C   UNL A   1      38.406  28.605  29.115  1.00  0.00     0.200 A 
ATOM     90  F   UNL A   1      38.941  27.460  31.110  1.00  0.00    -0.200 F 
ATOM     91  F   UNL A   1      37.149  28.787  29.537  1.00  0.00    -0.200 F 
ENDBRANCH  57  81
BRANCH  69  92
ATOM     92  C   UNL A   1      46.601  32.441  29.203  1.00  0.00     0.064 A 
ATOM     93  C   UNL A   1      46.575  33.650  28.491  1.00  0.00     0.173 A 
ATOM     94  C   UNL A   1      46.914  32.487  30.569  1.00  0.00     0.173 A 
ATOM     95  F   UNL A   1      46.282  33.657  27.181  1.00  0.00    -0.203 F 
ATOM     96  C   UNL A   1      46.888  34.854  29.114  1.00  0.00     0.198 A 
ATOM     97  C   UNL A   1      47.198  33.697  31.195  1.00  0.00     0.198 A 
ATOM     98  F   UNL A   1      46.933  31.360  31.296  1.00  0.00    -0.203 F 
ATOM     99  F   UNL A   1      46.904  35.991  28.403  1.00  0.00    -0.200 F 
ATOM    100  C   UNL A   1      47.199  34.878  30.465  1.00  0.00     0.200 A 
ATOM    101  F   UNL A   1      47.474  33.723  32.506  1.00  0.00    -0.200 F 
ATOM    102  F   UNL A   1      47.501  36.037  31.064  1.00  0.00    -0.200 F 
ENDBRANCH  69  92
ENDBRANCH  43  44
ENDBRANCH  36  38
ENDBRANCH  35  36
ENDBRANCH  34  35
ENDBRANCH  33  34
ENDBRANCH   1  33
TORSDOF 17
ENDMDL
MODEL 3
REMARK VINA RESULT:     -12.5      0.665      1.828
REMARK SMILES O=C(CCN1C(=O)S/C(=C\c2ccccc2F)C1=O)Nc1ccc(C(=O)OCCOC(=O)c2ccc(-c3c4nc(c(-c5c(F)c(F)c(F)c(F)c5F)c5ccc([nH]5)c(-c5c(F)c(F)c(F)c(F)c5F)c5nc(c(-c6c(F)c(F)c(F)c(F)c6F)c6ccc3[nH]6)C=C5)C=C4)cc2)c(O)c1
REMARK SMILES IDX 27 1 25 2 26 3 24 4 21 5 22 6 98 7 23 8 96 9 20 10 1 11 2 12
REMARK SMILES IDX 3 14 4 15 5 16 6 17 18 18 7 19 8 20 9 21 19 22 10 23 11 24
REMARK SMILES IDX 12 25 16 26 13 27 15 28 17 29 14 30 97 31 28 33 29 34 30 35
REMARK SMILES IDX 31 36 32 37 33 38 34 39 95 40 35 41 94 42 36 43 37 44 38 45
REMARK SMILES IDX 88 46 39 47 93 48 87 49 89 50 40 51 92 52 86 53 85 54 41 56
REMARK SMILES IDX 73 57 53 58 72 59 54 60 57 61 71 62 90 63 55 64 56 65 70 67
REMARK SMILES IDX 91 68 58 69 42 70 43 71 51 72 44 73 45 74 49 75 52 76 46 77
REMARK SMILES IDX 47 78 50 79 48 80 74 81 75 82 83 83 76 84 77 85 81 86 84 87
REMARK SMILES IDX 78 88 79 89 82 90 80 91 59 92 60 93 68 94 61 95 62 96 66 97
REMARK SMILES IDX 69 98 63 99 64 100 67 101 65 102
REMARK H PARENT 20 13 97 32 89 55 57 66
REMARK Flexibility Score: inf
ROOT
ATOM      1  O   UNL A   1      33.025  34.103  28.430  1.00  0.00    -0.458 OA
ENDROOT
BRANCH   1   2
ATOM      2  C   UNL A   1      33.595  32.875  28.554  1.00  0.00     0.342 C 
ATOM      3  O   UNL A   1      34.399  32.530  29.404  1.00  0.00    -0.246 OA
BRANCH   2   4
ATOM      4  C   UNL A   1      32.994  31.938  27.573  1.00  0.00     0.101 A 
ATOM      5  C   UNL A   1      31.761  30.257  25.697  1.00  0.00     0.044 A 
ATOM      6  C   UNL A   1      31.252  31.529  25.890  1.00  0.00     0.027 A 
ATOM      7  C   UNL A   1      32.897  29.847  26.405  1.00  0.00     0.073 A 
ATOM      8  C   UNL A   1      31.833  32.335  26.876  1.00  0.00     0.022 A 
ATOM      9  C   UNL A   1      33.524  30.680  27.320  1.00  0.00     0.132 A 
BRANCH   5  10
ATOM     10  N   UNL A   1      31.041  29.280  25.002  1.00  0.00    -0.326 N 
ATOM     11  O   UNL A   1      32.539  28.647  23.369  1.00  0.00    -0.275 OA
ATOM     12  C   UNL A   1      31.447  28.542  23.919  1.00  0.00     0.226 C 
ATOM     13  H   UNL A   1      30.130  29.100  25.331  1.00  0.00     0.169 HD
BRANCH  12  14
ATOM     14  C   UNL A   1      30.376  27.565  23.415  1.00  0.00     0.122 C 
BRANCH  14  15
ATOM     15  C   UNL A   1      29.891  26.490  24.410  1.00  0.00     0.140 C 
BRANCH  15  16
ATOM     16  N   UNL A   1      30.965  25.636  24.928  1.00  0.00    -0.268 N 
ATOM     17  C   UNL A   1      31.616  25.860  26.115  1.00  0.00     0.293 C 
ATOM     18  C   UNL A   1      31.280  24.451  24.329  1.00  0.00     0.268 C 
ATOM     19  O   UNL A   1      31.356  26.709  26.949  1.00  0.00    -0.261 OA
ATOM     20  S   UNL A   1      32.938  24.693  26.309  1.00  0.00    -0.022 SA
ATOM     21  C   UNL A   1      32.611  23.994  24.784  1.00  0.00     0.083 C 
ATOM     22  O   UNL A   1      30.616  23.894  23.472  1.00  0.00    -0.268 OA
ATOM     23  C   UNL A   1      33.389  23.264  23.974  1.00  0.00     0.032 C 
BRANCH  23  24
ATOM     24  C   UNL A   1      34.642  22.581  24.291  1.00  0.00     0.012 A 
ATOM     25  C   UNL A   1      35.893  23.063  23.890  1.00  0.00     0.011 A 
ATOM     26  C   UNL A   1      34.551  21.301  24.846  1.00  0.00     0.130 A 
ATOM     27  C   UNL A   1      37.030  22.261  24.054  1.00  0.00     0.001 A 
ATOM     28  C   UNL A   1      35.674  20.501  25.002  1.00  0.00     0.040 A 
ATOM     29  F   UNL A   1      33.351  20.800  25.178  1.00  0.00    -0.206 F 
ATOM     30  C   UNL A   1      36.918  20.981  24.604  1.00  0.00     0.003 A 
ENDBRANCH  23  24
ENDBRANCH  15  16
ENDBRANCH  14  15
ENDBRANCH  12  14
ENDBRANCH   5  10
BRANCH   9  31
ATOM     31  O   UNL A   1      34.615  30.156  27.955  1.00  0.00    -0.507 OA
ATOM     32  H   UNL A   1      35.108  30.683  28.552  1.00  0.00     0.293 HD
ENDBRANCH   9  31
ENDBRANCH   2   4
ENDBRANCH   1   2
BRANCH   1  33
ATOM     33  C   UNL A   1      33.800  35.227  28.902  1.00  0.00     0.275 C 
BRANCH  33  34
ATOM     34  C   UNL A   1      32.905  36.222  29.642  1.00  0.00     0.275 C 
BRANCH  34  35
ATOM     35  O   UNL A   1      32.211  35.561  30.716  1.00  0.00    -0.458 OA
BRANCH  35  36
ATOM     36  C   UNL A   1      32.520  35.990  31.961  1.00  0.00     0.338 C 
ATOM     37  O   UNL A   1      31.957  36.852  32.613  1.00  0.00    -0.246 OA
BRANCH  36  38
ATOM     38  C   UNL A   1      33.611  35.170  32.506  1.00  0.00     0.060 A 
ATOM     39  C   UNL A   1      34.886  35.717  32.509  1.00  0.00     0.016 A 
ATOM     40  C   UNL A   1      33.429  33.839  32.862  1.00  0.00     0.016 A 
ATOM     41  C   UNL A   1      36.000  34.921  32.732  1.00  0.00     0.010 A 
ATOM     42  C   UNL A   1      34.542  33.078  33.253  1.00  0.00     0.010 A 
ATOM     43  C   UNL A   1      35.845  33.604  33.173  1.00  0.00    -0.014 A 
BRANCH  43  44
ATOM     44  C   UNL A   1      37.040  32.809  33.581  1.00  0.00     0.031 A 
ATOM     45  C   UNL A   1      37.682  33.024  34.924  1.00  0.00     0.074 A 
ATOM     46  C   UNL A   1      37.555  31.885  32.742  1.00  0.00     0.049 A 
ATOM     47  N   UNL A   1      38.843  32.605  35.363  1.00  0.00    -0.248 NA
ATOM     48  C   UNL A   1      36.926  33.826  35.896  1.00  0.00     0.031 C 
ATOM     49  C   UNL A   1      36.996  31.511  31.440  1.00  0.00     0.029 A 
ATOM     50  N   UNL A   1      38.666  31.082  32.858  1.00  0.00    -0.354 N 
ATOM     51  C   UNL A   1      38.976  33.130  36.642  1.00  0.00     0.074 A 
ATOM     52  C   UNL A   1      37.787  33.914  36.901  1.00  0.00     0.031 C 
ATOM     53  C   UNL A   1      37.722  30.520  30.910  1.00  0.00     0.029 A 
ATOM     54  C   UNL A   1      38.877  30.278  31.763  1.00  0.00     0.049 A 
ATOM     55  H   UNL A   1      39.252  31.083  33.648  1.00  0.00     0.167 HD
ATOM     56  C   UNL A   1      39.998  32.965  37.516  1.00  0.00     0.037 A 
ATOM     57  C   UNL A   1      39.911  29.480  31.438  1.00  0.00     0.037 A 
ATOM     58  C   UNL A   1      41.161  32.154  37.254  1.00  0.00     0.049 A 
ATOM     59  C   UNL A   1      41.088  29.406  32.363  1.00  0.00     0.074 A 
ATOM     60  C   UNL A   1      42.257  31.927  38.067  1.00  0.00     0.029 A 
ATOM     61  N   UNL A   1      41.372  31.424  36.090  1.00  0.00    -0.354 N 
ATOM     62  N   UNL A   1      41.247  29.968  33.536  1.00  0.00    -0.248 NA
ATOM     63  C   UNL A   1      42.243  28.619  31.908  1.00  0.00     0.031 C 
ATOM     64  C   UNL A   1      43.156  31.111  37.375  1.00  0.00     0.029 A 
ATOM     65  C   UNL A   1      42.594  30.774  36.153  1.00  0.00     0.049 A 
ATOM     66  H   UNL A   1      40.745  31.378  35.332  1.00  0.00     0.167 HD
ATOM     67  C   UNL A   1      42.509  29.594  33.969  1.00  0.00     0.074 A 
ATOM     68  C   UNL A   1      43.071  28.746  32.936  1.00  0.00     0.031 C 
ATOM     69  C   UNL A   1      43.141  29.930  35.119  1.00  0.00     0.037 A 
BRANCH  56  70
ATOM     70  C   UNL A   1      39.929  33.704  38.824  1.00  0.00     0.064 A 
ATOM     71  C   UNL A   1      40.611  34.920  38.989  1.00  0.00     0.173 A 
ATOM     72  C   UNL A   1      39.223  33.199  39.927  1.00  0.00     0.173 A 
ATOM     73  F   UNL A   1      41.313  35.447  37.973  1.00  0.00    -0.203 F 
ATOM     74  C   UNL A   1      40.591  35.599  40.206  1.00  0.00     0.198 A 
ATOM     75  C   UNL A   1      39.175  33.899  41.131  1.00  0.00     0.198 A 
ATOM     76  F   UNL A   1      38.548  32.044  39.825  1.00  0.00    -0.203 F 
ATOM     77  F   UNL A   1      41.275  36.743  40.344  1.00  0.00    -0.200 F 
ATOM     78  C   UNL A   1      39.865  35.093  41.273  1.00  0.00     0.200 A 
ATOM     79  F   UNL A   1      38.452  33.421  42.153  1.00  0.00    -0.200 F 
ATOM     80  F   UNL A   1      39.826  35.760  42.434  1.00  0.00    -0.200 F 
ENDBRANCH  56  70
BRANCH  57  81
ATOM     81  C   UNL A   1      39.868  28.721  30.160  1.00  0.00     0.064 A 
ATOM     82  C   UNL A   1      39.298  27.439  30.085  1.00  0.00     0.173 A 
ATOM     83  C   UNL A   1      40.483  29.229  29.010  1.00  0.00     0.173 A 
ATOM     84  F   UNL A   1      38.701  26.905  31.160  1.00  0.00    -0.203 F 
ATOM     85  C   UNL A   1      39.393  26.676  28.923  1.00  0.00     0.198 A 
ATOM     86  C   UNL A   1      40.549  28.478  27.838  1.00  0.00     0.198 A 
ATOM     87  F   UNL A   1      41.020  30.457  29.026  1.00  0.00    -0.203 F 
ATOM     88  F   UNL A   1      38.902  25.429  28.900  1.00  0.00    -0.200 F 
ATOM     89  C   UNL A   1      40.019  27.195  27.801  1.00  0.00     0.200 A 
ATOM     90  F   UNL A   1      41.137  28.990  26.749  1.00  0.00    -0.200 F 
ATOM     91  F   UNL A   1      40.118  26.459  26.686  1.00  0.00    -0.200 F 
ENDBRANCH  57  81
BRANCH  69  92
ATOM     92  C   UNL A   1      44.513  29.368  35.348  1.00  0.00     0.064 A 
ATOM     93  C   UNL A   1      44.676  28.152  36.031  1.00  0.00     0.173 A 
ATOM     94  C   UNL A   1      45.665  30.078  34.984  1.00  0.00     0.173 A 
ATOM     95  F   UNL A   1      43.603  27.437  36.402  1.00  0.00    -0.203 F 
ATOM     96  C   UNL A   1      45.943  27.685  36.368  1.00  0.00     0.198 A 
ATOM     97  C   UNL A   1      46.931  29.593  35.298  1.00  0.00     0.198 A 
ATOM     98  F   UNL A   1      45.561  31.236  34.313  1.00  0.00    -0.203 F 
ATOM     99  F   UNL A   1      46.072  26.547  37.063  1.00  0.00    -0.200 F 
ATOM    100  C   UNL A   1      47.069  28.406  36.002  1.00  0.00     0.200 A 
ATOM    101  F   UNL A   1      48.021  30.278  34.922  1.00  0.00    -0.200 F 
ATOM    102  F   UNL A   1      48.288  27.957  36.329  1.00  0.00    -0.200 F 
ENDBRANCH  69  92
ENDBRANCH  43  44
ENDBRANCH  36  38
ENDBRANCH  35  36
ENDBRANCH  34  35
ENDBRANCH  33  34
ENDBRANCH   1  33
TORSDOF 17
ENDMDL
