MODEL 1
REMARK VINA RESULT:     -12.3      0.000      0.000
REMARK SMILES CC[C@@H]1CCC[C@@](Cc2cccc(O)c2)(C(=O)OCCOC(=O)c2ccc(-c3c4nc(c(-c5c(F)c(F)c(F)c(F)c5F)c5ccc([nH]5)c(-c5c(F)c(F)c(F)c(F)c5F)c5nc(c(-c6c(F)c(F)c(F)c(F)c6F)c6ccc3[nH]6)C=C5)C=C4)cc2)C1
REMARK SMILES IDX 19 1 18 2 16 3 17 4 7 5 3 6 4 7 87 8 5 9 6 10 2 11 1 12 8 13
REMARK SMILES IDX 9 14 10 15 15 16 11 17 13 18 12 19 14 20 20 22 21 23 22 24
REMARK SMILES IDX 23 25 24 26 25 27 86 28 26 29 85 30 27 31 28 32 29 33 79 34
REMARK SMILES IDX 30 35 84 36 78 37 80 38 31 39 83 40 77 41 76 42 32 44 64 45
REMARK SMILES IDX 44 46 63 47 45 48 48 49 62 50 81 51 46 52 47 53 61 55 82 56
REMARK SMILES IDX 49 57 33 58 34 59 42 60 35 61 36 62 40 63 43 64 37 65 38 66
REMARK SMILES IDX 41 67 39 68 65 69 66 70 74 71 67 72 68 73 72 74 75 75 69 76
REMARK SMILES IDX 70 77 73 78 71 79 50 80 51 81 59 82 52 83 53 84 57 85 60 86
REMARK SMILES IDX 54 87 55 88 58 89 56 90
REMARK H PARENT 14 21 80 43 48 54
REMARK Flexibility Score: inf
ROOT
ATOM      1  C   UNL A   1      31.792  27.927  26.657  1.00  0.00     0.274 C 
ENDROOT
BRANCH   1   2
ATOM      2  O   UNL A   1      32.565  27.013  25.847  1.00  0.00    -0.462 OA
BRANCH   2   3
ATOM      3  C   UNL A   1      32.338  25.680  26.001  1.00  0.00     0.312 C 
ATOM      4  O   UNL A   1      31.642  25.198  26.890  1.00  0.00    -0.252 OA
BRANCH   3   5
ATOM      5  C   UNL A   1      33.175  24.819  25.038  1.00  0.00     0.072 C 
ATOM      6  C   UNL A   1      31.735  22.620  24.877  1.00  0.00    -0.010 C 
ATOM      7  C   UNL A   1      31.427  22.973  23.417  1.00  0.00     0.003 C 
ATOM      8  C   UNL A   1      33.022  23.303  25.379  1.00  0.00     0.022 C 
ATOM      9  C   UNL A   1      31.471  24.468  23.161  1.00  0.00     0.001 C 
ATOM     10  C   UNL A   1      32.829  25.047  23.550  1.00  0.00     0.019 C 
BRANCH   6  11
ATOM     11  C   UNL A   1      31.779  21.078  25.000  1.00  0.00     0.000 C 
ATOM     12  C   UNL A   1      33.160  20.444  25.015  1.00  0.00     0.004 C 
ENDBRANCH   6  11
BRANCH   5  13
ATOM     13  C   UNL A   1      34.660  25.208  25.340  1.00  0.00     0.054 C 
BRANCH  13  14
ATOM     14  C   UNL A   1      35.691  24.136  25.059  1.00  0.00    -0.043 A 
ATOM     15  C   UNL A   1      35.656  23.388  23.873  1.00  0.00     0.004 A 
ATOM     16  C   UNL A   1      36.684  23.856  26.006  1.00  0.00     0.049 A 
ATOM     17  C   UNL A   1      36.560  22.345  23.665  1.00  0.00     0.004 A 
ATOM     18  C   UNL A   1      37.592  22.827  25.781  1.00  0.00     0.115 A 
ATOM     19  C   UNL A   1      37.530  22.058  24.623  1.00  0.00     0.046 A 
BRANCH  18  20
ATOM     20  O   UNL A   1      38.533  22.597  26.740  1.00  0.00    -0.508 OA
ATOM     21  H   UNL A   1      39.278  22.061  26.547  1.00  0.00     0.293 HD
ENDBRANCH  18  20
ENDBRANCH  13  14
ENDBRANCH   5  13
ENDBRANCH   3   5
ENDBRANCH   2   3
ENDBRANCH   1   2
BRANCH   1  22
ATOM     22  C   UNL A   1      31.525  29.222  25.898  1.00  0.00     0.275 C 
BRANCH  22  23
ATOM     23  O   UNL A   1      32.759  29.948  25.831  1.00  0.00    -0.458 OA
BRANCH  23  24
ATOM     24  C   UNL A   1      32.954  30.923  26.742  1.00  0.00     0.338 C 
ATOM     25  O   UNL A   1      32.155  31.788  27.081  1.00  0.00    -0.246 OA
BRANCH  24  26
ATOM     26  C   UNL A   1      34.294  30.754  27.349  1.00  0.00     0.060 A 
ATOM     27  C   UNL A   1      34.800  29.478  27.583  1.00  0.00     0.016 A 
ATOM     28  C   UNL A   1      35.019  31.862  27.785  1.00  0.00     0.016 A 
ATOM     29  C   UNL A   1      35.965  29.303  28.325  1.00  0.00     0.010 A 
ATOM     30  C   UNL A   1      36.248  31.682  28.439  1.00  0.00     0.010 A 
ATOM     31  C   UNL A   1      36.728  30.395  28.750  1.00  0.00    -0.014 A 
BRANCH  31  32
ATOM     32  C   UNL A   1      37.993  30.206  29.530  1.00  0.00     0.031 A 
ATOM     33  C   UNL A   1      39.136  29.411  28.947  1.00  0.00     0.074 A 
ATOM     34  C   UNL A   1      38.158  30.736  30.763  1.00  0.00     0.049 A 
ATOM     35  N   UNL A   1      40.144  28.838  29.556  1.00  0.00    -0.248 NA
ATOM     36  C   UNL A   1      39.136  29.219  27.487  1.00  0.00     0.031 C 
ATOM     37  C   UNL A   1      37.213  31.609  31.459  1.00  0.00     0.029 A 
ATOM     38  N   UNL A   1      39.199  30.612  31.656  1.00  0.00    -0.354 N 
ATOM     39  C   UNL A   1      40.835  28.138  28.575  1.00  0.00     0.074 A 
ATOM     40  C   UNL A   1      40.157  28.389  27.321  1.00  0.00     0.031 C 
ATOM     41  C   UNL A   1      37.737  31.990  32.632  1.00  0.00     0.029 A 
ATOM     42  C   UNL A   1      38.984  31.268  32.845  1.00  0.00     0.049 A 
ATOM     43  H   UNL A   1      40.020  30.103  31.462  1.00  0.00     0.167 HD
ATOM     44  C   UNL A   1      41.923  27.343  28.718  1.00  0.00     0.037 A 
ATOM     45  C   UNL A   1      39.651  31.232  34.015  1.00  0.00     0.037 A 
ATOM     46  C   UNL A   1      42.664  27.184  29.943  1.00  0.00     0.049 A 
ATOM     47  C   UNL A   1      40.822  30.304  34.169  1.00  0.00     0.074 A 
ATOM     48  C   UNL A   1      43.807  26.434  30.170  1.00  0.00     0.029 A 
ATOM     49  N   UNL A   1      42.354  27.808  31.140  1.00  0.00    -0.354 N 
ATOM     50  N   UNL A   1      41.391  29.535  33.275  1.00  0.00    -0.248 NA
ATOM     51  C   UNL A   1      41.409  30.201  35.513  1.00  0.00     0.031 C 
ATOM     52  C   UNL A   1      44.170  26.580  31.512  1.00  0.00     0.029 A 
ATOM     53  C   UNL A   1      43.273  27.448  32.112  1.00  0.00     0.049 A 
ATOM     54  H   UNL A   1      41.594  28.419  31.279  1.00  0.00     0.167 HD
ATOM     55  C   UNL A   1      42.394  28.852  33.947  1.00  0.00     0.074 A 
ATOM     56  C   UNL A   1      42.379  29.319  35.317  1.00  0.00     0.031 C 
ATOM     57  C   UNL A   1      43.244  27.910  33.473  1.00  0.00     0.037 A 
BRANCH  44  58
ATOM     58  C   UNL A   1      42.371  26.535  27.538  1.00  0.00     0.064 A 
ATOM     59  C   UNL A   1      43.419  26.943  26.704  1.00  0.00     0.173 A 
ATOM     60  C   UNL A   1      41.799  25.271  27.309  1.00  0.00     0.173 A 
ATOM     61  F   UNL A   1      43.991  28.143  26.877  1.00  0.00    -0.203 F 
ATOM     62  C   UNL A   1      43.878  26.115  25.681  1.00  0.00     0.198 A 
ATOM     63  C   UNL A   1      42.274  24.440  26.301  1.00  0.00     0.198 A 
ATOM     64  F   UNL A   1      40.798  24.834  28.088  1.00  0.00    -0.203 F 
ATOM     65  F   UNL A   1      44.873  26.529  24.883  1.00  0.00    -0.200 F 
ATOM     66  C   UNL A   1      43.313  24.862  25.488  1.00  0.00     0.200 A 
ATOM     67  F   UNL A   1      41.736  23.225  26.127  1.00  0.00    -0.200 F 
ATOM     68  F   UNL A   1      43.773  24.060  24.517  1.00  0.00    -0.200 F 
ENDBRANCH  44  58
BRANCH  45  69
ATOM     69  C   UNL A   1      39.156  32.018  35.175  1.00  0.00     0.064 A 
ATOM     70  C   UNL A   1      38.404  31.410  36.188  1.00  0.00     0.173 A 
ATOM     71  C   UNL A   1      39.418  33.392  35.291  1.00  0.00     0.173 A 
ATOM     72  F   UNL A   1      38.095  30.108  36.103  1.00  0.00    -0.203 F 
ATOM     73  C   UNL A   1      37.931  32.148  37.272  1.00  0.00     0.198 A 
ATOM     74  C   UNL A   1      38.976  34.120  36.392  1.00  0.00     0.198 A 
ATOM     75  F   UNL A   1      40.123  34.025  34.341  1.00  0.00    -0.203 F 
ATOM     76  F   UNL A   1      37.177  31.553  38.206  1.00  0.00    -0.200 F 
ATOM     77  C   UNL A   1      38.227  33.498  37.379  1.00  0.00     0.200 A 
ATOM     78  F   UNL A   1      39.277  35.421  36.496  1.00  0.00    -0.200 F 
ATOM     79  F   UNL A   1      37.783  34.205  38.427  1.00  0.00    -0.200 F 
ENDBRANCH  45  69
BRANCH  57  80
ATOM     80  C   UNL A   1      44.231  27.333  34.440  1.00  0.00     0.064 A 
ATOM     81  C   UNL A   1      43.974  26.128  35.110  1.00  0.00     0.173 A 
ATOM     82  C   UNL A   1      45.450  27.981  34.689  1.00  0.00     0.173 A 
ATOM     83  F   UNL A   1      42.813  25.484  34.919  1.00  0.00    -0.203 F 
ATOM     84  C   UNL A   1      44.895  25.602  36.011  1.00  0.00     0.198 A 
ATOM     85  C   UNL A   1      46.378  27.441  35.573  1.00  0.00     0.198 A 
ATOM     86  F   UNL A   1      45.741  29.135  34.070  1.00  0.00    -0.203 F 
ATOM     87  F   UNL A   1      44.611  24.473  36.674  1.00  0.00    -0.200 F 
ATOM     88  C   UNL A   1      46.097  26.256  36.239  1.00  0.00     0.200 A 
ATOM     89  F   UNL A   1      47.542  28.069  35.788  1.00  0.00    -0.200 F 
ATOM     90  F   UNL A   1      46.982  25.749  37.108  1.00  0.00    -0.200 F 
ENDBRANCH  57  80
ENDBRANCH  31  32
ENDBRANCH  24  26
ENDBRANCH  23  24
ENDBRANCH  22  23
ENDBRANCH   1  22
TORSDOF 15
ENDMDL
MODEL 2
REMARK VINA RESULT:     -12.2      0.469      1.230
REMARK SMILES CC[C@@H]1CCC[C@@](Cc2cccc(O)c2)(C(=O)OCCOC(=O)c2ccc(-c3c4nc(c(-c5c(F)c(F)c(F)c(F)c5F)c5ccc([nH]5)c(-c5c(F)c(F)c(F)c(F)c5F)c5nc(c(-c6c(F)c(F)c(F)c(F)c6F)c6ccc3[nH]6)C=C5)C=C4)cc2)C1
REMARK SMILES IDX 19 1 18 2 16 3 17 4 7 5 3 6 4 7 87 8 5 9 6 10 2 11 1 12 8 13
REMARK SMILES IDX 9 14 10 15 15 16 11 17 13 18 12 19 14 20 20 22 21 23 22 24
REMARK SMILES IDX 23 25 24 26 25 27 86 28 26 29 85 30 27 31 28 32 29 33 79 34
REMARK SMILES IDX 30 35 84 36 78 37 80 38 31 39 83 40 77 41 76 42 32 44 64 45
REMARK SMILES IDX 44 46 63 47 45 48 48 49 62 50 81 51 46 52 47 53 61 55 82 56
REMARK SMILES IDX 49 57 33 58 34 59 42 60 35 61 36 62 40 63 43 64 37 65 38 66
REMARK SMILES IDX 41 67 39 68 65 69 66 70 74 71 67 72 68 73 72 74 75 75 69 76
REMARK SMILES IDX 70 77 73 78 71 79 50 80 51 81 59 82 52 83 53 84 57 85 60 86
REMARK SMILES IDX 54 87 55 88 58 89 56 90
REMARK H PARENT 14 21 80 43 48 54
REMARK Flexibility Score: inf
ROOT
ATOM      1  C   UNL A   1      31.371  28.548  25.120  1.00  0.00     0.274 C 
ENDROOT
BRANCH   1   2
ATOM      2  O   UNL A   1      32.501  27.676  25.350  1.00  0.00    -0.462 OA
BRANCH   2   3
ATOM      3  C   UNL A   1      32.252  26.425  25.824  1.00  0.00     0.312 C 
ATOM      4  O   UNL A   1      31.644  26.192  26.864  1.00  0.00    -0.252 OA
BRANCH   3   5
ATOM      5  C   UNL A   1      32.952  25.327  25.002  1.00  0.00     0.072 C 
ATOM      6  C   UNL A   1      31.178  23.382  25.066  1.00  0.00    -0.010 C 
ATOM      7  C   UNL A   1      30.950  23.590  23.564  1.00  0.00     0.003 C 
ATOM      8  C   UNL A   1      32.552  23.910  25.522  1.00  0.00     0.022 C 
ATOM      9  C   UNL A   1      31.238  25.015  23.128  1.00  0.00     0.001 C 
ATOM     10  C   UNL A   1      32.666  25.416  23.487  1.00  0.00     0.019 C 
BRANCH   6  11
ATOM     11  C   UNL A   1      30.971  21.880  25.379  1.00  0.00     0.000 C 
ATOM     12  C   UNL A   1      32.204  20.997  25.278  1.00  0.00     0.004 C 
ENDBRANCH   6  11
BRANCH   5  13
ATOM     13  C   UNL A   1      34.476  25.511  25.304  1.00  0.00     0.054 C 
BRANCH  13  14
ATOM     14  C   UNL A   1      35.371  24.361  24.895  1.00  0.00    -0.043 A 
ATOM     15  C   UNL A   1      35.236  23.746  23.641  1.00  0.00     0.004 A 
ATOM     16  C   UNL A   1      36.333  23.873  25.787  1.00  0.00     0.049 A 
ATOM     17  C   UNL A   1      36.009  22.632  23.311  1.00  0.00     0.004 A 
ATOM     18  C   UNL A   1      37.112  22.774  25.442  1.00  0.00     0.115 A 
ATOM     19  C   UNL A   1      36.949  22.139  24.215  1.00  0.00     0.046 A 
BRANCH  18  20
ATOM     20  O   UNL A   1      38.029  22.341  26.352  1.00  0.00    -0.508 OA
ATOM     21  H   UNL A   1      38.181  21.422  26.463  1.00  0.00     0.293 HD
ENDBRANCH  18  20
ENDBRANCH  13  14
ENDBRANCH   5  13
ENDBRANCH   3   5
ENDBRANCH   2   3
ENDBRANCH   1   2
BRANCH   1  22
ATOM     22  C   UNL A   1      31.754  30.000  25.378  1.00  0.00     0.275 C 
BRANCH  22  23
ATOM     23  O   UNL A   1      32.426  30.055  26.643  1.00  0.00    -0.458 OA
BRANCH  23  24
ATOM     24  C   UNL A   1      32.949  31.241  27.015  1.00  0.00     0.338 C 
ATOM     25  O   UNL A   1      32.406  32.338  26.962  1.00  0.00    -0.246 OA
BRANCH  24  26
ATOM     26  C   UNL A   1      34.298  31.015  27.583  1.00  0.00     0.060 A 
ATOM     27  C   UNL A   1      34.719  29.725  27.893  1.00  0.00     0.016 A 
ATOM     28  C   UNL A   1      35.120  32.094  27.907  1.00  0.00     0.016 A 
ATOM     29  C   UNL A   1      35.899  29.516  28.602  1.00  0.00     0.010 A 
ATOM     30  C   UNL A   1      36.359  31.869  28.526  1.00  0.00     0.010 A 
ATOM     31  C   UNL A   1      36.757  30.575  28.915  1.00  0.00    -0.014 A 
BRANCH  31  32
ATOM     32  C   UNL A   1      38.037  30.348  29.660  1.00  0.00     0.031 A 
ATOM     33  C   UNL A   1      39.137  29.515  29.046  1.00  0.00     0.074 A 
ATOM     34  C   UNL A   1      38.254  30.875  30.885  1.00  0.00     0.049 A 
ATOM     35  N   UNL A   1      40.144  28.912  29.629  1.00  0.00    -0.248 NA
ATOM     36  C   UNL A   1      39.090  29.321  27.588  1.00  0.00     0.031 C 
ATOM     37  C   UNL A   1      37.357  31.779  31.606  1.00  0.00     0.029 A 
ATOM     38  N   UNL A   1      39.316  30.719  31.750  1.00  0.00    -0.354 N 
ATOM     39  C   UNL A   1      40.784  28.188  28.630  1.00  0.00     0.074 A 
ATOM     40  C   UNL A   1      40.079  28.458  27.395  1.00  0.00     0.031 C 
ATOM     41  C   UNL A   1      37.926  32.146  32.762  1.00  0.00     0.029 A 
ATOM     42  C   UNL A   1      39.155  31.384  32.942  1.00  0.00     0.049 A 
ATOM     43  H   UNL A   1      40.114  30.184  31.533  1.00  0.00     0.167 HD
ATOM     44  C   UNL A   1      41.850  27.360  28.745  1.00  0.00     0.037 A 
ATOM     45  C   UNL A   1      39.854  31.329  34.092  1.00  0.00     0.037 A 
ATOM     46  C   UNL A   1      42.619  27.179  29.949  1.00  0.00     0.049 A 
ATOM     47  C   UNL A   1      40.998  30.365  34.216  1.00  0.00     0.074 A 
ATOM     48  C   UNL A   1      43.744  26.394  30.145  1.00  0.00     0.029 A 
ATOM     49  N   UNL A   1      42.364  27.816  31.152  1.00  0.00    -0.354 N 
ATOM     50  N   UNL A   1      41.517  29.577  33.308  1.00  0.00    -0.248 NA
ATOM     51  C   UNL A   1      41.620  30.247  35.543  1.00  0.00     0.031 C 
ATOM     52  C   UNL A   1      44.150  26.532  31.477  1.00  0.00     0.029 A 
ATOM     53  C   UNL A   1      43.299  27.429  32.099  1.00  0.00     0.049 A 
ATOM     54  H   UNL A   1      41.628  28.450  31.311  1.00  0.00     0.167 HD
ATOM     55  C   UNL A   1      42.517  28.864  33.954  1.00  0.00     0.074 A 
ATOM     56  C   UNL A   1      42.555  29.334  35.323  1.00  0.00     0.031 C 
ATOM     57  C   UNL A   1      43.323  27.894  33.459  1.00  0.00     0.037 A 
BRANCH  44  58
ATOM     58  C   UNL A   1      42.238  26.535  27.555  1.00  0.00     0.064 A 
ATOM     59  C   UNL A   1      43.276  26.906  26.692  1.00  0.00     0.173 A 
ATOM     60  C   UNL A   1      41.618  25.291  27.345  1.00  0.00     0.173 A 
ATOM     61  F   UNL A   1      43.892  28.087  26.846  1.00  0.00    -0.203 F 
ATOM     62  C   UNL A   1      43.679  26.063  25.659  1.00  0.00     0.198 A 
ATOM     63  C   UNL A   1      42.038  24.443  26.326  1.00  0.00     0.198 A 
ATOM     64  F   UNL A   1      40.624  24.889  28.152  1.00  0.00    -0.203 F 
ATOM     65  F   UNL A   1      44.665  26.441  24.834  1.00  0.00    -0.200 F 
ATOM     66  C   UNL A   1      43.068  24.829  25.484  1.00  0.00     0.200 A 
ATOM     67  F   UNL A   1      41.455  23.247  26.169  1.00  0.00    -0.200 F 
ATOM     68  F   UNL A   1      43.474  24.010  24.503  1.00  0.00    -0.200 F 
ENDBRANCH  44  58
BRANCH  45  69
ATOM     69  C   UNL A   1      39.417  32.133  35.264  1.00  0.00     0.064 A 
ATOM     70  C   UNL A   1      39.886  33.439  35.457  1.00  0.00     0.173 A 
ATOM     71  C   UNL A   1      38.530  31.610  36.219  1.00  0.00     0.173 A 
ATOM     72  F   UNL A   1      40.764  33.969  34.593  1.00  0.00    -0.203 F 
ATOM     73  C   UNL A   1      39.484  34.190  36.560  1.00  0.00     0.198 A 
ATOM     74  C   UNL A   1      38.103  32.374  37.301  1.00  0.00     0.198 A 
ATOM     75  F   UNL A   1      38.063  30.359  36.088  1.00  0.00    -0.203 F 
ATOM     76  F   UNL A   1      39.980  35.422  36.745  1.00  0.00    -0.200 F 
ATOM     77  C   UNL A   1      38.585  33.661  37.474  1.00  0.00     0.200 A 
ATOM     78  F   UNL A   1      37.224  31.862  38.173  1.00  0.00    -0.200 F 
ATOM     79  F   UNL A   1      38.190  34.388  38.528  1.00  0.00    -0.200 F 
ENDBRANCH  45  69
BRANCH  57  80
ATOM     80  C   UNL A   1      44.318  27.288  34.399  1.00  0.00     0.064 A 
ATOM     81  C   UNL A   1      44.022  26.123  35.120  1.00  0.00     0.173 A 
ATOM     82  C   UNL A   1      45.584  27.867  34.570  1.00  0.00     0.173 A 
ATOM     83  F   UNL A   1      42.817  25.546  35.004  1.00  0.00    -0.203 F 
ATOM     84  C   UNL A   1      44.951  25.570  35.997  1.00  0.00     0.198 A 
ATOM     85  C   UNL A   1      46.519  27.299  35.430  1.00  0.00     0.198 A 
ATOM     86  F   UNL A   1      45.914  28.982  33.900  1.00  0.00    -0.203 F 
ATOM     87  F   UNL A   1      44.632  24.481  36.710  1.00  0.00    -0.200 F 
ATOM     88  C   UNL A   1      46.199  26.155  36.147  1.00  0.00     0.200 A 
ATOM     89  F   UNL A   1      47.727  27.861  35.570  1.00  0.00    -0.200 F 
ATOM     90  F   UNL A   1      47.093  25.622  36.992  1.00  0.00    -0.200 F 
ENDBRANCH  57  80
ENDBRANCH  31  32
ENDBRANCH  24  26
ENDBRANCH  23  24
ENDBRANCH  22  23
ENDBRANCH   1  22
TORSDOF 15
ENDMDL
MODEL 3
REMARK VINA RESULT:     -12.2      3.942      9.523
REMARK SMILES CC[C@@H]1CCC[C@@](Cc2cccc(O)c2)(C(=O)OCCOC(=O)c2ccc(-c3c4nc(c(-c5c(F)c(F)c(F)c(F)c5F)c5ccc([nH]5)c(-c5c(F)c(F)c(F)c(F)c5F)c5nc(c(-c6c(F)c(F)c(F)c(F)c6F)c6ccc3[nH]6)C=C5)C=C4)cc2)C1
REMARK SMILES IDX 19 1 18 2 16 3 17 4 7 5 3 6 4 7 87 8 5 9 6 10 2 11 1 12 8 13
REMARK SMILES IDX 9 14 10 15 15 16 11 17 13 18 12 19 14 20 20 22 21 23 22 24
REMARK SMILES IDX 23 25 24 26 25 27 86 28 26 29 85 30 27 31 28 32 29 33 79 34
REMARK SMILES IDX 30 35 84 36 78 37 80 38 31 39 83 40 77 41 76 42 32 44 64 45
REMARK SMILES IDX 44 46 63 47 45 48 48 49 62 50 81 51 46 52 47 53 61 55 82 56
REMARK SMILES IDX 49 57 33 58 34 59 42 60 35 61 36 62 40 63 43 64 37 65 38 66
REMARK SMILES IDX 41 67 39 68 65 69 66 70 74 71 67 72 68 73 72 74 75 75 69 76
REMARK SMILES IDX 70 77 73 78 71 79 50 80 51 81 59 82 52 83 53 84 57 85 60 86
REMARK SMILES IDX 54 87 55 88 58 89 56 90
REMARK H PARENT 14 21 80 43 48 54
REMARK Flexibility Score: inf
ROOT
ATOM      1  C   UNL A   1      35.709  22.731  23.807  1.00  0.00     0.274 C 
ENDROOT
BRANCH   1   2
ATOM      2  O   UNL A   1      34.891  23.677  24.532  1.00  0.00    -0.462 OA
BRANCH   2   3
ATOM      3  C   UNL A   1      34.139  24.552  23.810  1.00  0.00     0.312 C 
ATOM      4  O   UNL A   1      34.329  24.807  22.624  1.00  0.00    -0.252 OA
BRANCH   3   5
ATOM      5  C   UNL A   1      33.117  25.312  24.674  1.00  0.00     0.072 C 
ATOM      6  C   UNL A   1      31.365  26.107  22.876  1.00  0.00    -0.010 C 
ATOM      7  C   UNL A   1      30.345  25.144  23.498  1.00  0.00     0.003 C 
ATOM      8  C   UNL A   1      32.481  26.488  23.868  1.00  0.00     0.022 C 
ATOM      9  C   UNL A   1      31.008  23.954  24.168  1.00  0.00     0.001 C 
ATOM     10  C   UNL A   1      31.996  24.412  25.237  1.00  0.00     0.019 C 
BRANCH   6  11
ATOM     11  C   UNL A   1      30.595  27.333  22.329  1.00  0.00     0.000 C 
ATOM     12  C   UNL A   1      29.700  28.061  23.319  1.00  0.00     0.004 C 
ENDBRANCH   6  11
BRANCH   5  13
ATOM     13  C   UNL A   1      33.963  25.952  25.825  1.00  0.00     0.054 C 
BRANCH  13  14
ATOM     14  C   UNL A   1      33.437  27.257  26.380  1.00  0.00    -0.043 A 
ATOM     15  C   UNL A   1      32.109  27.380  26.813  1.00  0.00     0.004 A 
ATOM     16  C   UNL A   1      34.273  28.379  26.437  1.00  0.00     0.049 A 
ATOM     17  C   UNL A   1      31.614  28.612  27.243  1.00  0.00     0.004 A 
ATOM     18  C   UNL A   1      33.776  29.598  26.884  1.00  0.00     0.115 A 
ATOM     19  C   UNL A   1      32.447  29.729  27.275  1.00  0.00     0.046 A 
BRANCH  18  20
ATOM     20  O   UNL A   1      34.635  30.657  26.914  1.00  0.00    -0.508 OA
ATOM     21  H   UNL A   1      35.555  30.517  26.805  1.00  0.00     0.293 HD
ENDBRANCH  18  20
ENDBRANCH  13  14
ENDBRANCH   5  13
ENDBRANCH   3   5
ENDBRANCH   2   3
ENDBRANCH   1   2
BRANCH   1  22
ATOM     22  C   UNL A   1      35.902  21.456  24.620  1.00  0.00     0.275 C 
BRANCH  22  23
ATOM     23  O   UNL A   1      36.673  21.793  25.781  1.00  0.00    -0.458 OA
BRANCH  23  24
ATOM     24  C   UNL A   1      37.993  21.520  25.748  1.00  0.00     0.338 C 
ATOM     25  O   UNL A   1      38.534  20.550  25.230  1.00  0.00    -0.246 OA
BRANCH  24  26
ATOM     26  C   UNL A   1      38.732  22.632  26.387  1.00  0.00     0.060 A 
ATOM     27  C   UNL A   1      38.271  23.940  26.263  1.00  0.00     0.016 A 
ATOM     28  C   UNL A   1      39.945  22.399  27.032  1.00  0.00     0.016 A 
ATOM     29  C   UNL A   1      39.053  25.010  26.689  1.00  0.00     0.010 A 
ATOM     30  C   UNL A   1      40.678  23.474  27.556  1.00  0.00     0.010 A 
ATOM     31  C   UNL A   1      40.261  24.806  27.365  1.00  0.00    -0.014 A 
BRANCH  31  32
ATOM     32  C   UNL A   1      41.091  25.957  27.843  1.00  0.00     0.031 A 
ATOM     33  C   UNL A   1      40.485  27.015  28.733  1.00  0.00     0.074 A 
ATOM     34  C   UNL A   1      42.394  26.087  27.506  1.00  0.00     0.049 A 
ATOM     35  N   UNL A   1      40.895  28.238  28.967  1.00  0.00    -0.248 NA
ATOM     36  C   UNL A   1      39.245  26.658  29.443  1.00  0.00     0.031 C 
ATOM     37  C   UNL A   1      43.184  25.127  26.735  1.00  0.00     0.029 A 
ATOM     38  N   UNL A   1      43.290  27.097  27.777  1.00  0.00    -0.354 N 
ATOM     39  C   UNL A   1      39.917  28.823  29.760  1.00  0.00     0.074 A 
ATOM     40  C   UNL A   1      38.910  27.812  30.005  1.00  0.00     0.031 C 
ATOM     41  C   UNL A   1      44.450  25.557  26.648  1.00  0.00     0.029 A 
ATOM     42  C   UNL A   1      44.530  26.895  27.219  1.00  0.00     0.049 A 
ATOM     43  H   UNL A   1      43.065  27.888  28.319  1.00  0.00     0.167 HD
ATOM     44  C   UNL A   1      39.860  30.096  30.221  1.00  0.00     0.037 A 
ATOM     45  C   UNL A   1      45.592  27.714  27.091  1.00  0.00     0.037 A 
ATOM     46  C   UNL A   1      40.912  31.068  30.073  1.00  0.00     0.049 A 
ATOM     47  C   UNL A   1      45.489  29.137  27.560  1.00  0.00     0.074 A 
ATOM     48  C   UNL A   1      40.960  32.368  30.549  1.00  0.00     0.029 A 
ATOM     49  N   UNL A   1      42.116  30.836  29.428  1.00  0.00    -0.354 N 
ATOM     50  N   UNL A   1      44.505  29.731  28.188  1.00  0.00    -0.248 NA
ATOM     51  C   UNL A   1      46.626  30.016  27.252  1.00  0.00     0.031 C 
ATOM     52  C   UNL A   1      42.180  32.933  30.163  1.00  0.00     0.029 A 
ATOM     53  C   UNL A   1      42.905  31.973  29.478  1.00  0.00     0.049 A 
ATOM     54  H   UNL A   1      42.373  29.987  28.998  1.00  0.00     0.167 HD
ATOM     55  C   UNL A   1      44.899  31.052  28.344  1.00  0.00     0.074 A 
ATOM     56  C   UNL A   1      46.225  31.168  27.772  1.00  0.00     0.031 C 
ATOM     57  C   UNL A   1      44.216  32.081  28.899  1.00  0.00     0.037 A 
BRANCH  44  58
ATOM     58  C   UNL A   1      38.600  30.550  30.895  1.00  0.00     0.064 A 
ATOM     59  C   UNL A   1      38.477  30.614  32.289  1.00  0.00     0.173 A 
ATOM     60  C   UNL A   1      37.534  31.030  30.116  1.00  0.00     0.173 A 
ATOM     61  F   UNL A   1      39.463  30.160  33.075  1.00  0.00    -0.203 F 
ATOM     62  C   UNL A   1      37.330  31.141  32.878  1.00  0.00     0.198 A 
ATOM     63  C   UNL A   1      36.400  31.575  30.708  1.00  0.00     0.198 A 
ATOM     64  F   UNL A   1      37.609  30.996  28.777  1.00  0.00    -0.203 F 
ATOM     65  F   UNL A   1      37.224  31.182  34.214  1.00  0.00    -0.200 F 
ATOM     66  C   UNL A   1      36.298  31.630  32.089  1.00  0.00     0.200 A 
ATOM     67  F   UNL A   1      35.412  32.059  29.942  1.00  0.00    -0.200 F 
ATOM     68  F   UNL A   1      35.206  32.158  32.660  1.00  0.00    -0.200 F 
ENDBRANCH  44  58
BRANCH  45  69
ATOM     69  C   UNL A   1      46.811  27.243  26.383  1.00  0.00     0.064 A 
ATOM     70  C   UNL A   1      47.824  26.561  27.069  1.00  0.00     0.173 A 
ATOM     71  C   UNL A   1      46.992  27.471  25.009  1.00  0.00     0.173 A 
ATOM     72  F   UNL A   1      47.715  26.353  28.389  1.00  0.00    -0.203 F 
ATOM     73  C   UNL A   1      48.971  26.126  26.408  1.00  0.00     0.198 A 
ATOM     74  C   UNL A   1      48.122  27.005  24.344  1.00  0.00     0.198 A 
ATOM     75  F   UNL A   1      46.057  28.130  24.308  1.00  0.00    -0.203 F 
ATOM     76  F   UNL A   1      49.946  25.514  27.095  1.00  0.00    -0.200 F 
ATOM     77  C   UNL A   1      49.113  26.338  25.044  1.00  0.00     0.200 A 
ATOM     78  F   UNL A   1      48.247  27.201  23.024  1.00  0.00    -0.200 F 
ATOM     79  F   UNL A   1      50.212  25.910  24.407  1.00  0.00    -0.200 F 
ENDBRANCH  45  69
BRANCH  57  80
ATOM     80  C   UNL A   1      44.895  33.416  28.923  1.00  0.00     0.064 A 
ATOM     81  C   UNL A   1      44.695  34.353  27.899  1.00  0.00     0.173 A 
ATOM     82  C   UNL A   1      45.740  33.768  29.985  1.00  0.00     0.173 A 
ATOM     83  F   UNL A   1      43.912  34.052  26.853  1.00  0.00    -0.203 F 
ATOM     84  C   UNL A   1      45.335  35.589  27.927  1.00  0.00     0.198 A 
ATOM     85  C   UNL A   1      46.360  35.013  30.022  1.00  0.00     0.198 A 
ATOM     86  F   UNL A   1      45.960  32.906  30.989  1.00  0.00    -0.203 F 
ATOM     87  F   UNL A   1      45.166  36.452  26.917  1.00  0.00    -0.200 F 
ATOM     88  C   UNL A   1      46.162  35.919  28.990  1.00  0.00     0.200 A 
ATOM     89  F   UNL A   1      47.154  35.336  31.053  1.00  0.00    -0.200 F 
ATOM     90  F   UNL A   1      46.779  37.109  29.015  1.00  0.00    -0.200 F 
ENDBRANCH  57  80
ENDBRANCH  31  32
ENDBRANCH  24  26
ENDBRANCH  23  24
ENDBRANCH  22  23
ENDBRANCH   1  22
TORSDOF 15
ENDMDL
