MODEL 1
REMARK VINA RESULT:     -11.6      0.000      0.000
REMARK SMILES CCCc1n[nH]c(C(=O)NC2(CC(=O)OCCOC(=O)c3ccc(-c4c5nc(c(-c6c(F)c(F)c(F)c(F)c6F)c6ccc([nH]6)c(-c6c(F)c(F)c(F)c(F)c6F)c6nc(c(-c7c(F)c(F)c(F)c(F)c7F)c7ccc4[nH]7)C=C6)C=C5)cc3)CCC2)n1
REMARK SMILES IDX 15 1 13 2 14 3 12 4 11 5 84 6 86 7 85 8 10 9 8 10 9 11 7 13
REMARK SMILES IDX 4 14 5 15 87 16 6 17 3 19 2 20 1 21 16 22 17 23 18 24 19 25
REMARK SMILES IDX 20 26 21 27 22 28 83 29 23 30 82 31 24 32 25 33 26 34 76 35
REMARK SMILES IDX 27 36 81 37 75 38 77 39 28 40 80 41 74 42 73 43 29 45 61 46
REMARK SMILES IDX 41 47 60 48 42 49 45 50 59 51 78 52 43 53 44 54 58 56 79 57
REMARK SMILES IDX 46 58 30 59 31 60 39 61 32 62 33 63 37 64 40 65 34 66 35 67
REMARK SMILES IDX 38 68 36 69 62 70 63 71 71 72 64 73 65 74 69 75 72 76 66 77
REMARK SMILES IDX 67 78 70 79 68 80 47 81 48 82 56 83 49 84 50 85 54 86 57 87
REMARK SMILES IDX 51 88 52 89 55 90 53 91
REMARK H PARENT 10 12 6 18 77 44 45 55
REMARK Flexibility Score: inf
ROOT
ATOM      1  O   UNL A   1      35.485  21.834  26.103  1.00  0.00    -0.462 OA
ENDROOT
BRANCH   1   2
ATOM      2  C   UNL A   1      34.193  22.001  26.490  1.00  0.00     0.308 C 
ATOM      3  O   UNL A   1      33.670  21.429  27.439  1.00  0.00    -0.252 OA
BRANCH   2   4
ATOM      4  C   UNL A   1      33.436  22.887  25.544  1.00  0.00     0.151 C 
BRANCH   4   5
ATOM      5  C   UNL A   1      32.128  22.359  24.951  1.00  0.00     0.051 C 
ATOM      6  C   UNL A   1      32.263  21.072  24.067  1.00  0.00     0.029 C 
ATOM      7  C   UNL A   1      31.696  23.083  23.626  1.00  0.00     0.029 C 
ATOM      8  C   UNL A   1      32.424  21.980  22.837  1.00  0.00     0.005 C 
BRANCH   5   9
ATOM      9  N   UNL A   1      30.987  22.292  25.902  1.00  0.00    -0.343 N 
ATOM     10  C   UNL A   1      30.375  23.290  26.637  1.00  0.00     0.289 C 
ATOM     11  O   UNL A   1      29.717  22.960  27.627  1.00  0.00    -0.266 OA
ATOM     12  H   UNL A   1      30.606  21.393  26.027  1.00  0.00     0.164 HD
BRANCH  10  13
ATOM     13  C   UNL A   1      30.425  24.666  26.202  1.00  0.00     0.214 A 
ATOM     14  C   UNL A   1      31.029  26.604  25.608  1.00  0.00     0.151 A 
ATOM     15  N   UNL A   1      29.894  26.429  24.922  1.00  0.00    -0.158 NA
ATOM     16  N   UNL A   1      31.369  25.557  26.423  1.00  0.00    -0.207 NA
ATOM     17  N   UNL A   1      29.524  25.201  25.324  1.00  0.00    -0.255 N 
ATOM     18  H   UNL A   1      28.706  24.744  25.024  1.00  0.00     0.192 HD
BRANCH  14  19
ATOM     19  C   UNL A   1      31.877  27.818  25.487  1.00  0.00     0.079 C 
BRANCH  19  20
ATOM     20  C   UNL A   1      32.096  28.548  26.815  1.00  0.00     0.005 C 
ATOM     21  C   UNL A   1      33.556  28.586  27.252  1.00  0.00     0.004 C 
ENDBRANCH  19  20
ENDBRANCH  14  19
ENDBRANCH  10  13
ENDBRANCH   5   9
ENDBRANCH   4   5
ENDBRANCH   2   4
ENDBRANCH   1   2
BRANCH   1  22
ATOM     22  C   UNL A   1      35.746  20.705  25.245  1.00  0.00     0.274 C 
BRANCH  22  23
ATOM     23  C   UNL A   1      37.241  20.503  24.998  1.00  0.00     0.275 C 
BRANCH  23  24
ATOM     24  O   UNL A   1      38.001  21.654  25.406  1.00  0.00    -0.458 OA
BRANCH  24  25
ATOM     25  C   UNL A   1      39.111  21.384  26.126  1.00  0.00     0.338 C 
ATOM     26  O   UNL A   1      39.690  20.315  26.235  1.00  0.00    -0.246 OA
BRANCH  25  27
ATOM     27  C   UNL A   1      39.636  22.630  26.701  1.00  0.00     0.060 A 
ATOM     28  C   UNL A   1      39.129  23.826  26.201  1.00  0.00     0.016 A 
ATOM     29  C   UNL A   1      40.710  22.634  27.591  1.00  0.00     0.016 A 
ATOM     30  C   UNL A   1      39.760  25.026  26.500  1.00  0.00     0.010 A 
ATOM     31  C   UNL A   1      41.303  23.855  27.947  1.00  0.00     0.010 A 
ATOM     32  C   UNL A   1      40.860  25.059  27.368  1.00  0.00    -0.014 A 
BRANCH  32  33
ATOM     33  C   UNL A   1      41.557  26.352  27.606  1.00  0.00     0.031 A 
ATOM     34  C   UNL A   1      40.924  27.417  28.462  1.00  0.00     0.074 A 
ATOM     35  C   UNL A   1      42.808  26.540  27.142  1.00  0.00     0.049 A 
ATOM     36  N   UNL A   1      41.348  28.631  28.723  1.00  0.00    -0.248 NA
ATOM     37  C   UNL A   1      39.654  27.075  29.120  1.00  0.00     0.031 C 
ATOM     38  C   UNL A   1      43.580  25.560  26.377  1.00  0.00     0.029 A 
ATOM     39  N   UNL A   1      43.667  27.602  27.280  1.00  0.00    -0.354 N 
ATOM     40  C   UNL A   1      40.381  29.206  29.537  1.00  0.00     0.074 A 
ATOM     41  C   UNL A   1      39.348  28.212  29.731  1.00  0.00     0.031 C 
ATOM     42  C   UNL A   1      44.816  26.037  26.173  1.00  0.00     0.029 A 
ATOM     43  C   UNL A   1      44.899  27.390  26.714  1.00  0.00     0.049 A 
ATOM     44  H   UNL A   1      43.421  28.437  27.743  1.00  0.00     0.167 HD
ATOM     45  C   UNL A   1      40.359  30.449  30.074  1.00  0.00     0.037 A 
ATOM     46  C   UNL A   1      45.968  28.201  26.614  1.00  0.00     0.037 A 
ATOM     47  C   UNL A   1      41.403  31.430  29.922  1.00  0.00     0.049 A 
ATOM     48  C   UNL A   1      45.885  29.601  27.151  1.00  0.00     0.074 A 
ATOM     49  C   UNL A   1      41.451  32.726  30.409  1.00  0.00     0.029 A 
ATOM     50  N   UNL A   1      42.594  31.213  29.247  1.00  0.00    -0.354 N 
ATOM     51  N   UNL A   1      44.923  30.171  27.832  1.00  0.00    -0.248 NA
ATOM     52  C   UNL A   1      47.028  30.484  26.871  1.00  0.00     0.031 C 
ATOM     53  C   UNL A   1      42.662  33.301  30.005  1.00  0.00     0.029 A 
ATOM     54  C   UNL A   1      43.378  32.355  29.292  1.00  0.00     0.049 A 
ATOM     55  H   UNL A   1      42.844  30.372  28.801  1.00  0.00     0.167 HD
ATOM     56  C   UNL A   1      45.337  31.475  28.057  1.00  0.00     0.074 A 
ATOM     57  C   UNL A   1      46.652  31.607  27.465  1.00  0.00     0.031 C 
ATOM     58  C   UNL A   1      44.678  32.477  28.688  1.00  0.00     0.037 A 
BRANCH  45  59
ATOM     59  C   UNL A   1      39.140  30.840  30.853  1.00  0.00     0.064 A 
ATOM     60  C   UNL A   1      39.051  30.635  32.236  1.00  0.00     0.173 A 
ATOM     61  C   UNL A   1      38.060  31.460  30.206  1.00  0.00     0.173 A 
ATOM     62  F   UNL A   1      40.053  30.032  32.895  1.00  0.00    -0.203 F 
ATOM     63  C   UNL A   1      37.915  31.022  32.943  1.00  0.00     0.198 A 
ATOM     64  C   UNL A   1      36.935  31.863  30.919  1.00  0.00     0.198 A 
ATOM     65  F   UNL A   1      38.102  31.682  28.884  1.00  0.00    -0.203 F 
ATOM     66  F   UNL A   1      37.836  30.789  34.261  1.00  0.00    -0.200 F 
ATOM     67  C   UNL A   1      36.861  31.640  32.286  1.00  0.00     0.200 A 
ATOM     68  F   UNL A   1      35.921  32.466  30.284  1.00  0.00    -0.200 F 
ATOM     69  F   UNL A   1      35.771  32.015  32.968  1.00  0.00    -0.200 F 
ENDBRANCH  45  59
BRANCH  46  70
ATOM     70  C   UNL A   1      47.197  27.720  25.936  1.00  0.00     0.064 A 
ATOM     71  C   UNL A   1      48.276  27.218  26.675  1.00  0.00     0.173 A 
ATOM     72  C   UNL A   1      47.316  27.747  24.539  1.00  0.00     0.173 A 
ATOM     73  F   UNL A   1      48.219  27.202  28.015  1.00  0.00    -0.203 F 
ATOM     74  C   UNL A   1      49.428  26.759  26.041  1.00  0.00     0.198 A 
ATOM     75  C   UNL A   1      48.458  27.266  23.905  1.00  0.00     0.198 A 
ATOM     76  F   UNL A   1      46.314  28.229  23.789  1.00  0.00    -0.203 F 
ATOM     77  F   UNL A   1      50.460  26.314  26.771  1.00  0.00    -0.200 F 
ATOM     78  C   UNL A   1      49.515  26.777  24.657  1.00  0.00     0.200 A 
ATOM     79  F   UNL A   1      48.534  27.276  22.567  1.00  0.00    -0.200 F 
ATOM     80  F   UNL A   1      50.621  26.328  24.048  1.00  0.00    -0.200 F 
ENDBRANCH  46  70
BRANCH  58  81
ATOM     81  C   UNL A   1      45.369  33.804  28.762  1.00  0.00     0.064 A 
ATOM     82  C   UNL A   1      45.164  34.782  27.779  1.00  0.00     0.173 A 
ATOM     83  C   UNL A   1      46.218  34.111  29.834  1.00  0.00     0.173 A 
ATOM     84  F   UNL A   1      44.373  34.526  26.726  1.00  0.00    -0.203 F 
ATOM     85  C   UNL A   1      45.801  36.018  27.858  1.00  0.00     0.198 A 
ATOM     86  C   UNL A   1      46.839  35.354  29.920  1.00  0.00     0.198 A 
ATOM     87  F   UNL A   1      46.443  33.207  30.800  1.00  0.00    -0.203 F 
ATOM     88  F   UNL A   1      45.620  36.927  26.889  1.00  0.00    -0.200 F 
ATOM     89  C   UNL A   1      46.634  36.305  28.929  1.00  0.00     0.200 A 
ATOM     90  F   UNL A   1      47.639  35.633  30.958  1.00  0.00    -0.200 F 
ATOM     91  F   UNL A   1      47.245  37.495  29.004  1.00  0.00    -0.200 F 
ENDBRANCH  58  81
ENDBRANCH  32  33
ENDBRANCH  25  27
ENDBRANCH  24  25
ENDBRANCH  23  24
ENDBRANCH  22  23
ENDBRANCH   1  22
TORSDOF 16
ENDMDL
MODEL 2
REMARK VINA RESULT:     -11.5      0.347      1.188
REMARK SMILES CCCc1n[nH]c(C(=O)NC2(CC(=O)OCCOC(=O)c3ccc(-c4c5nc(c(-c6c(F)c(F)c(F)c(F)c6F)c6ccc([nH]6)c(-c6c(F)c(F)c(F)c(F)c6F)c6nc(c(-c7c(F)c(F)c(F)c(F)c7F)c7ccc4[nH]7)C=C6)C=C5)cc3)CCC2)n1
REMARK SMILES IDX 15 1 13 2 14 3 12 4 11 5 84 6 86 7 85 8 10 9 8 10 9 11 7 13
REMARK SMILES IDX 4 14 5 15 87 16 6 17 3 19 2 20 1 21 16 22 17 23 18 24 19 25
REMARK SMILES IDX 20 26 21 27 22 28 83 29 23 30 82 31 24 32 25 33 26 34 76 35
REMARK SMILES IDX 27 36 81 37 75 38 77 39 28 40 80 41 74 42 73 43 29 45 61 46
REMARK SMILES IDX 41 47 60 48 42 49 45 50 59 51 78 52 43 53 44 54 58 56 79 57
REMARK SMILES IDX 46 58 30 59 31 60 39 61 32 62 33 63 37 64 40 65 34 66 35 67
REMARK SMILES IDX 38 68 36 69 62 70 63 71 71 72 64 73 65 74 69 75 72 76 66 77
REMARK SMILES IDX 67 78 70 79 68 80 47 81 48 82 56 83 49 84 50 85 54 86 57 87
REMARK SMILES IDX 51 88 52 89 55 90 53 91
REMARK H PARENT 10 12 6 18 77 44 45 55
REMARK Flexibility Score: inf
ROOT
ATOM      1  O   UNL A   1      35.538  21.498  26.324  1.00  0.00    -0.462 OA
ENDROOT
BRANCH   1   2
ATOM      2  C   UNL A   1      34.240  21.768  26.624  1.00  0.00     0.308 C 
ATOM      3  O   UNL A   1      33.646  21.336  27.605  1.00  0.00    -0.252 OA
BRANCH   2   4
ATOM      4  C   UNL A   1      33.572  22.572  25.546  1.00  0.00     0.151 C 
BRANCH   4   5
ATOM      5  C   UNL A   1      32.225  22.082  25.010  1.00  0.00     0.051 C 
ATOM      6  C   UNL A   1      32.278  20.764  24.164  1.00  0.00     0.029 C 
ATOM      7  C   UNL A   1      31.782  22.782  23.677  1.00  0.00     0.029 C 
ATOM      8  C   UNL A   1      32.439  21.626  22.902  1.00  0.00     0.005 C 
BRANCH   5   9
ATOM      9  N   UNL A   1      31.113  22.093  25.997  1.00  0.00    -0.343 N 
ATOM     10  C   UNL A   1      30.583  23.134  26.737  1.00  0.00     0.289 C 
ATOM     11  O   UNL A   1      29.939  22.854  27.751  1.00  0.00    -0.266 OA
ATOM     12  H   UNL A   1      30.685  21.219  26.147  1.00  0.00     0.164 HD
BRANCH  10  13
ATOM     13  C   UNL A   1      30.698  24.499  26.281  1.00  0.00     0.214 A 
ATOM     14  C   UNL A   1      31.389  26.374  25.586  1.00  0.00     0.151 A 
ATOM     15  N   UNL A   1      30.162  26.302  25.060  1.00  0.00    -0.158 NA
ATOM     16  N   UNL A   1      31.740  25.300  26.363  1.00  0.00    -0.207 NA
ATOM     17  N   UNL A   1      29.740  25.113  25.524  1.00  0.00    -0.255 N 
ATOM     18  H   UNL A   1      28.851  24.732  25.341  1.00  0.00     0.192 HD
BRANCH  14  19
ATOM     19  C   UNL A   1      32.320  27.505  25.338  1.00  0.00     0.079 C 
BRANCH  19  20
ATOM     20  C   UNL A   1      31.844  28.833  25.935  1.00  0.00     0.005 C 
ATOM     21  C   UNL A   1      31.691  28.795  27.450  1.00  0.00     0.004 C 
ENDBRANCH  19  20
ENDBRANCH  14  19
ENDBRANCH  10  13
ENDBRANCH   5   9
ENDBRANCH   4   5
ENDBRANCH   2   4
ENDBRANCH   1   2
BRANCH   1  22
ATOM     22  C   UNL A   1      35.762  20.741  25.118  1.00  0.00     0.274 C 
BRANCH  22  23
ATOM     23  C   UNL A   1      37.234  20.371  24.936  1.00  0.00     0.275 C 
BRANCH  23  24
ATOM     24  O   UNL A   1      38.097  21.474  25.266  1.00  0.00    -0.458 OA
BRANCH  24  25
ATOM     25  C   UNL A   1      39.152  21.164  26.049  1.00  0.00     0.338 C 
ATOM     26  O   UNL A   1      39.678  20.072  26.198  1.00  0.00    -0.246 OA
BRANCH  25  27
ATOM     27  C   UNL A   1      39.697  22.392  26.643  1.00  0.00     0.060 A 
ATOM     28  C   UNL A   1      39.111  23.597  26.268  1.00  0.00     0.016 A 
ATOM     29  C   UNL A   1      40.853  22.380  27.424  1.00  0.00     0.016 A 
ATOM     30  C   UNL A   1      39.736  24.798  26.575  1.00  0.00     0.010 A 
ATOM     31  C   UNL A   1      41.445  23.598  27.793  1.00  0.00     0.010 A 
ATOM     32  C   UNL A   1      40.915  24.817  27.333  1.00  0.00    -0.014 A 
BRANCH  32  33
ATOM     33  C   UNL A   1      41.597  26.117  27.579  1.00  0.00     0.031 A 
ATOM     34  C   UNL A   1      40.957  27.165  28.452  1.00  0.00     0.074 A 
ATOM     35  C   UNL A   1      42.841  26.326  27.107  1.00  0.00     0.049 A 
ATOM     36  N   UNL A   1      41.366  28.381  28.722  1.00  0.00    -0.248 NA
ATOM     37  C   UNL A   1      39.696  26.799  29.115  1.00  0.00     0.031 C 
ATOM     38  C   UNL A   1      43.619  25.365  26.325  1.00  0.00     0.029 A 
ATOM     39  N   UNL A   1      43.687  27.399  27.249  1.00  0.00    -0.354 N 
ATOM     40  C   UNL A   1      40.399  28.935  29.550  1.00  0.00     0.074 A 
ATOM     41  C   UNL A   1      39.380  27.925  29.742  1.00  0.00     0.031 C 
ATOM     42  C   UNL A   1      44.847  25.861  26.117  1.00  0.00     0.029 A 
ATOM     43  C   UNL A   1      44.917  27.209  26.671  1.00  0.00     0.049 A 
ATOM     44  H   UNL A   1      43.434  28.225  27.723  1.00  0.00     0.167 HD
ATOM     45  C   UNL A   1      40.364  30.172  30.100  1.00  0.00     0.037 A 
ATOM     46  C   UNL A   1      45.974  28.035  26.571  1.00  0.00     0.037 A 
ATOM     47  C   UNL A   1      41.394  31.167  29.950  1.00  0.00     0.049 A 
ATOM     48  C   UNL A   1      45.878  29.428  27.124  1.00  0.00     0.074 A 
ATOM     49  C   UNL A   1      41.430  32.459  30.450  1.00  0.00     0.029 A 
ATOM     50  N   UNL A   1      42.582  30.973  29.263  1.00  0.00    -0.354 N 
ATOM     51  N   UNL A   1      44.914  29.978  27.818  1.00  0.00    -0.248 NA
ATOM     52  C   UNL A   1      47.006  30.329  26.844  1.00  0.00     0.031 C 
ATOM     53  C   UNL A   1      42.629  33.054  30.043  1.00  0.00     0.029 A 
ATOM     54  C   UNL A   1      43.352  32.126  29.314  1.00  0.00     0.049 A 
ATOM     55  H   UNL A   1      42.840  30.141  28.806  1.00  0.00     0.167 HD
ATOM     56  C   UNL A   1      45.312  31.285  28.054  1.00  0.00     0.074 A 
ATOM     57  C   UNL A   1      46.620  31.441  27.453  1.00  0.00     0.031 C 
ATOM     58  C   UNL A   1      44.645  32.271  28.701  1.00  0.00     0.037 A 
BRANCH  45  59
ATOM     59  C   UNL A   1      39.147  30.538  30.893  1.00  0.00     0.064 A 
ATOM     60  C   UNL A   1      39.082  30.342  32.279  1.00  0.00     0.173 A 
ATOM     61  C   UNL A   1      38.042  31.125  30.256  1.00  0.00     0.173 A 
ATOM     62  F   UNL A   1      40.109  29.771  32.928  1.00  0.00    -0.203 F 
ATOM     63  C   UNL A   1      37.947  30.707  32.999  1.00  0.00     0.198 A 
ATOM     64  C   UNL A   1      36.918  31.505  30.982  1.00  0.00     0.198 A 
ATOM     65  F   UNL A   1      38.061  31.337  28.932  1.00  0.00    -0.203 F 
ATOM     66  F   UNL A   1      37.892  30.483  34.319  1.00  0.00    -0.200 F 
ATOM     67  C   UNL A   1      36.869  31.292  32.351  1.00  0.00     0.200 A 
ATOM     68  F   UNL A   1      35.880  32.077  30.356  1.00  0.00    -0.200 F 
ATOM     69  F   UNL A   1      35.779  31.645  33.046  1.00  0.00    -0.200 F 
ENDBRANCH  45  59
BRANCH  46  70
ATOM     70  C   UNL A   1      47.204  27.578  25.878  1.00  0.00     0.064 A 
ATOM     71  C   UNL A   1      47.360  27.755  24.497  1.00  0.00     0.173 A 
ATOM     72  C   UNL A   1      48.250  26.963  26.581  1.00  0.00     0.173 A 
ATOM     73  F   UNL A   1      46.372  28.311  23.778  1.00  0.00    -0.203 F 
ATOM     74  C   UNL A   1      48.516  27.334  23.846  1.00  0.00     0.198 A 
ATOM     75  C   UNL A   1      49.416  26.564  25.933  1.00  0.00     0.198 A 
ATOM     76  F   UNL A   1      48.143  26.762  27.903  1.00  0.00    -0.203 F 
ATOM     77  F   UNL A   1      48.628  27.484  22.519  1.00  0.00    -0.200 F 
ATOM     78  C   UNL A   1      49.546  26.746  24.565  1.00  0.00     0.200 A 
ATOM     79  F   UNL A   1      50.411  26.005  26.634  1.00  0.00    -0.200 F 
ATOM     80  F   UNL A   1      50.661  26.348  23.938  1.00  0.00    -0.200 F 
ENDBRANCH  46  70
BRANCH  58  81
ATOM     81  C   UNL A   1      45.319  33.607  28.784  1.00  0.00     0.064 A 
ATOM     82  C   UNL A   1      45.087  34.595  27.817  1.00  0.00     0.173 A 
ATOM     83  C   UNL A   1      46.179  33.911  29.848  1.00  0.00     0.173 A 
ATOM     84  F   UNL A   1      44.285  34.342  26.772  1.00  0.00    -0.203 F 
ATOM     85  C   UNL A   1      45.708  35.838  27.904  1.00  0.00     0.198 A 
ATOM     86  C   UNL A   1      46.784  35.161  29.942  1.00  0.00     0.198 A 
ATOM     87  F   UNL A   1      46.430  32.997  30.798  1.00  0.00    -0.203 F 
ATOM     88  F   UNL A   1      45.501  36.758  26.951  1.00  0.00    -0.200 F 
ATOM     89  C   UNL A   1      46.552  36.122  28.968  1.00  0.00     0.200 A 
ATOM     90  F   UNL A   1      47.595  35.436  30.972  1.00  0.00    -0.200 F 
ATOM     91  F   UNL A   1      47.149  37.319  29.050  1.00  0.00    -0.200 F 
ENDBRANCH  58  81
ENDBRANCH  32  33
ENDBRANCH  25  27
ENDBRANCH  24  25
ENDBRANCH  23  24
ENDBRANCH  22  23
ENDBRANCH   1  22
TORSDOF 16
ENDMDL
MODEL 3
REMARK VINA RESULT:     -11.4      0.798      7.498
REMARK SMILES CCCc1n[nH]c(C(=O)NC2(CC(=O)OCCOC(=O)c3ccc(-c4c5nc(c(-c6c(F)c(F)c(F)c(F)c6F)c6ccc([nH]6)c(-c6c(F)c(F)c(F)c(F)c6F)c6nc(c(-c7c(F)c(F)c(F)c(F)c7F)c7ccc4[nH]7)C=C6)C=C5)cc3)CCC2)n1
REMARK SMILES IDX 15 1 13 2 14 3 12 4 11 5 84 6 86 7 85 8 10 9 8 10 9 11 7 13
REMARK SMILES IDX 4 14 5 15 87 16 6 17 3 19 2 20 1 21 16 22 17 23 18 24 19 25
REMARK SMILES IDX 20 26 21 27 22 28 83 29 23 30 82 31 24 32 25 33 26 34 76 35
REMARK SMILES IDX 27 36 81 37 75 38 77 39 28 40 80 41 74 42 73 43 29 45 61 46
REMARK SMILES IDX 41 47 60 48 42 49 45 50 59 51 78 52 43 53 44 54 58 56 79 57
REMARK SMILES IDX 46 58 30 59 31 60 39 61 32 62 33 63 37 64 40 65 34 66 35 67
REMARK SMILES IDX 38 68 36 69 62 70 63 71 71 72 64 73 65 74 69 75 72 76 66 77
REMARK SMILES IDX 67 78 70 79 68 80 47 81 48 82 56 83 49 84 50 85 54 86 57 87
REMARK SMILES IDX 51 88 52 89 55 90 53 91
REMARK H PARENT 10 12 6 18 77 44 45 55
REMARK Flexibility Score: inf
ROOT
ATOM      1  O   UNL A   1      35.107  21.531  26.753  1.00  0.00    -0.462 OA
ENDROOT
BRANCH   1   2
ATOM      2  C   UNL A   1      33.884  22.087  26.966  1.00  0.00     0.308 C 
ATOM      3  O   UNL A   1      33.238  21.975  28.001  1.00  0.00    -0.252 OA
BRANCH   2   4
ATOM      4  C   UNL A   1      33.356  22.765  25.735  1.00  0.00     0.151 C 
BRANCH   4   5
ATOM      5  C   UNL A   1      32.090  22.202  25.087  1.00  0.00     0.051 C 
ATOM      6  C   UNL A   1      32.281  20.866  24.291  1.00  0.00     0.029 C 
ATOM      7  C   UNL A   1      31.751  22.846  23.697  1.00  0.00     0.029 C 
ATOM      8  C   UNL A   1      32.527  21.700  23.025  1.00  0.00     0.005 C 
BRANCH   5   9
ATOM      9  N   UNL A   1      30.888  22.189  25.962  1.00  0.00    -0.343 N 
ATOM     10  C   UNL A   1      30.304  23.206  26.695  1.00  0.00     0.289 C 
ATOM     11  O   UNL A   1      29.560  22.892  27.628  1.00  0.00    -0.266 OA
ATOM     12  H   UNL A   1      30.434  21.318  26.028  1.00  0.00     0.164 HD
BRANCH  10  13
ATOM     13  C   UNL A   1      30.482  24.587  26.317  1.00  0.00     0.214 A 
ATOM     14  C   UNL A   1      31.231  26.537  25.981  1.00  0.00     0.151 A 
ATOM     15  N   UNL A   1      30.392  26.365  24.953  1.00  0.00    -0.158 NA
ATOM     16  N   UNL A   1      31.289  25.480  26.851  1.00  0.00    -0.207 NA
ATOM     17  N   UNL A   1      29.921  25.130  25.196  1.00  0.00    -0.255 N 
ATOM     18  H   UNL A   1      29.255  24.673  24.634  1.00  0.00     0.192 HD
BRANCH  14  19
ATOM     19  C   UNL A   1      32.059  27.757  26.164  1.00  0.00     0.079 C 
BRANCH  19  20
ATOM     20  C   UNL A   1      33.566  27.489  26.116  1.00  0.00     0.005 C 
ATOM     21  C   UNL A   1      34.405  28.653  26.629  1.00  0.00     0.004 C 
ENDBRANCH  19  20
ENDBRANCH  14  19
ENDBRANCH  10  13
ENDBRANCH   5   9
ENDBRANCH   4   5
ENDBRANCH   2   4
ENDBRANCH   1   2
BRANCH   1  22
ATOM     22  C   UNL A   1      35.646  21.683  25.426  1.00  0.00     0.274 C 
BRANCH  22  23
ATOM     23  C   UNL A   1      36.830  20.750  25.175  1.00  0.00     0.275 C 
BRANCH  23  24
ATOM     24  O   UNL A   1      38.054  21.488  25.011  1.00  0.00    -0.458 OA
BRANCH  24  25
ATOM     25  C   UNL A   1      39.037  21.171  25.882  1.00  0.00     0.338 C 
ATOM     26  O   UNL A   1      39.564  20.083  26.053  1.00  0.00    -0.246 OA
BRANCH  25  27
ATOM     27  C   UNL A   1      39.504  22.390  26.555  1.00  0.00     0.060 A 
ATOM     28  C   UNL A   1      38.972  23.601  26.123  1.00  0.00     0.016 A 
ATOM     29  C   UNL A   1      40.552  22.366  27.476  1.00  0.00     0.016 A 
ATOM     30  C   UNL A   1      39.555  24.797  26.521  1.00  0.00     0.010 A 
ATOM     31  C   UNL A   1      41.094  23.578  27.932  1.00  0.00     0.010 A 
ATOM     32  C   UNL A   1      40.628  24.804  27.423  1.00  0.00    -0.014 A 
BRANCH  32  33
ATOM     33  C   UNL A   1      41.275  26.099  27.769  1.00  0.00     0.031 A 
ATOM     34  C   UNL A   1      42.674  26.405  27.302  1.00  0.00     0.074 A 
ATOM     35  C   UNL A   1      40.575  27.051  28.416  1.00  0.00     0.049 A 
ATOM     36  N   UNL A   1      43.425  27.447  27.565  1.00  0.00    -0.248 NA
ATOM     37  C   UNL A   1      43.311  25.418  26.418  1.00  0.00     0.031 C 
ATOM     38  C   UNL A   1      39.183  26.928  28.847  1.00  0.00     0.029 A 
ATOM     39  N   UNL A   1      40.925  28.326  28.788  1.00  0.00    -0.354 N 
ATOM     40  C   UNL A   1      44.631  27.223  26.914  1.00  0.00     0.074 A 
ATOM     41  C   UNL A   1      44.515  25.946  26.241  1.00  0.00     0.031 C 
ATOM     42  C   UNL A   1      38.777  28.098  29.361  1.00  0.00     0.029 A 
ATOM     43  C   UNL A   1      39.903  29.026  29.377  1.00  0.00     0.049 A 
ATOM     44  H   UNL A   1      41.825  28.701  28.643  1.00  0.00     0.167 HD
ATOM     45  C   UNL A   1      45.733  28.009  26.880  1.00  0.00     0.037 A 
ATOM     46  C   UNL A   1      39.879  30.266  29.900  1.00  0.00     0.037 A 
ATOM     47  C   UNL A   1      45.842  29.299  27.510  1.00  0.00     0.049 A 
ATOM     48  C   UNL A   1      41.137  31.085  29.917  1.00  0.00     0.074 A 
ATOM     49  C   UNL A   1      46.931  30.154  27.551  1.00  0.00     0.029 A 
ATOM     50  N   UNL A   1      44.815  29.931  28.194  1.00  0.00    -0.354 N 
ATOM     51  N   UNL A   1      42.304  30.820  29.387  1.00  0.00    -0.248 NA
ATOM     52  C   UNL A   1      41.082  32.365  30.640  1.00  0.00     0.031 C 
ATOM     53  C   UNL A   1      46.569  31.292  28.282  1.00  0.00     0.029 A 
ATOM     54  C   UNL A   1      45.248  31.157  28.672  1.00  0.00     0.049 A 
ATOM     55  H   UNL A   1      43.911  29.561  28.322  1.00  0.00     0.167 HD
ATOM     56  C   UNL A   1      43.124  31.889  29.716  1.00  0.00     0.074 A 
ATOM     57  C   UNL A   1      42.313  32.825  30.467  1.00  0.00     0.031 C 
ATOM     58  C   UNL A   1      44.435  32.072  29.428  1.00  0.00     0.037 A 
BRANCH  45  59
ATOM     59  C   UNL A   1      46.936  27.477  26.163  1.00  0.00     0.064 A 
ATOM     60  C   UNL A   1      47.156  27.729  24.802  1.00  0.00     0.173 A 
ATOM     61  C   UNL A   1      47.899  26.730  26.860  1.00  0.00     0.173 A 
ATOM     62  F   UNL A   1      46.255  28.426  24.092  1.00  0.00    -0.203 F 
ATOM     63  C   UNL A   1      48.290  27.240  24.160  1.00  0.00     0.198 A 
ATOM     64  C   UNL A   1      49.040  26.259  26.219  1.00  0.00     0.198 A 
ATOM     65  F   UNL A   1      47.734  26.468  28.165  1.00  0.00    -0.203 F 
ATOM     66  F   UNL A   1      48.467  27.466  22.851  1.00  0.00    -0.200 F 
ATOM     67  C   UNL A   1      49.233  26.510  24.869  1.00  0.00     0.200 A 
ATOM     68  F   UNL A   1      49.954  25.560  26.908  1.00  0.00    -0.200 F 
ATOM     69  F   UNL A   1      50.326  26.043  24.250  1.00  0.00    -0.200 F 
ENDBRANCH  45  59
BRANCH  46  70
ATOM     70  C   UNL A   1      38.624  30.792  30.492  1.00  0.00     0.064 A 
ATOM     71  C   UNL A   1      37.615  31.328  29.680  1.00  0.00     0.173 A 
ATOM     72  C   UNL A   1      38.405  30.765  31.877  1.00  0.00     0.173 A 
ATOM     73  F   UNL A   1      37.794  31.403  28.353  1.00  0.00    -0.203 F 
ATOM     74  C   UNL A   1      36.434  31.815  30.233  1.00  0.00     0.198 A 
ATOM     75  C   UNL A   1      37.213  31.230  32.426  1.00  0.00     0.198 A 
ATOM     76  F   UNL A   1      39.345  30.271  32.696  1.00  0.00    -0.203 F 
ATOM     77  F   UNL A   1      35.497  32.353  29.439  1.00  0.00    -0.200 F 
ATOM     78  C   UNL A   1      36.230  31.759  31.604  1.00  0.00     0.200 A 
ATOM     79  F   UNL A   1      37.018  31.165  33.750  1.00  0.00    -0.200 F 
ATOM     80  F   UNL A   1      35.090  32.222  32.133  1.00  0.00    -0.200 F 
ENDBRANCH  46  70
BRANCH  58  81
ATOM     81  C   UNL A   1      45.074  33.328  29.938  1.00  0.00     0.064 A 
ATOM     82  C   UNL A   1      45.061  34.507  29.178  1.00  0.00     0.173 A 
ATOM     83  C   UNL A   1      45.679  33.362  31.202  1.00  0.00     0.173 A 
ATOM     84  F   UNL A   1      44.509  34.516  27.956  1.00  0.00    -0.203 F 
ATOM     85  C   UNL A   1      45.648  35.673  29.662  1.00  0.00     0.198 A 
ATOM     86  C   UNL A   1      46.249  34.535  31.690  1.00  0.00     0.198 A 
ATOM     87  F   UNL A   1      45.714  32.259  31.965  1.00  0.00    -0.203 F 
ATOM     88  F   UNL A   1      45.657  36.780  28.906  1.00  0.00    -0.200 F 
ATOM     89  C   UNL A   1      46.237  35.688  30.917  1.00  0.00     0.200 A 
ATOM     90  F   UNL A   1      46.813  34.550  32.905  1.00  0.00    -0.200 F 
ATOM     91  F   UNL A   1      46.801  36.812  31.381  1.00  0.00    -0.200 F 
ENDBRANCH  58  81
ENDBRANCH  32  33
ENDBRANCH  25  27
ENDBRANCH  24  25
ENDBRANCH  23  24
ENDBRANCH  22  23
ENDBRANCH   1  22
TORSDOF 16
ENDMDL
