MODEL 1
REMARK VINA RESULT:     -11.7      0.000      0.000
REMARK SMILES COc1ccc(C(=O)N2CCC[C@H](C(=O)OCCOC(=O)c3ccc(-c4c5nc(c(-c6c(F)c(F)c(F)c(F)c6F)c6ccc([nH]6)c(-c6c(F)c(F)c(F)c(F)c6F)c6nc(c(-c7c(F)c(F)c(F)c(F)c7F)c7ccc4[nH]7)C=C6)C=C5)cc3)C2)cc1
REMARK SMILES IDX 17 1 16 2 14 3 15 4 13 5 9 6 10 7 85 8 11 9 12 10 7 11 8 12
REMARK SMILES IDX 6 13 3 14 4 15 87 16 5 17 86 18 2 19 1 20 18 21 19 22 20 23
REMARK SMILES IDX 21 24 22 25 23 26 84 27 24 28 83 29 25 30 26 31 27 32 77 33
REMARK SMILES IDX 28 34 82 35 76 36 78 37 29 38 81 39 75 40 74 41 30 43 62 44
REMARK SMILES IDX 42 45 61 46 43 47 46 48 60 49 79 50 44 51 45 52 59 54 80 55
REMARK SMILES IDX 47 56 31 57 32 58 40 59 33 60 34 61 38 62 41 63 35 64 36 65
REMARK SMILES IDX 39 66 37 67 63 68 64 69 72 70 65 71 66 72 70 73 73 74 67 75
REMARK SMILES IDX 68 76 71 77 69 78 48 79 49 80 57 81 50 82 51 83 55 84 58 85
REMARK SMILES IDX 52 86 53 87 56 88 54 89
REMARK H PARENT 78 42 46 53
REMARK Flexibility Score: inf
ROOT
ATOM      1  C   UNL A   1      35.244  20.807  25.081  1.00  0.00     0.274 C 
ENDROOT
BRANCH   1   2
ATOM      2  O   UNL A   1      34.846  22.189  25.005  1.00  0.00    -0.462 OA
BRANCH   2   3
ATOM      3  C   UNL A   1      34.675  22.724  23.774  1.00  0.00     0.310 C 
ATOM      4  O   UNL A   1      35.507  23.406  23.184  1.00  0.00    -0.252 OA
BRANCH   3   5
ATOM      5  C   UNL A   1      33.317  22.411  23.166  1.00  0.00     0.119 C 
ATOM      6  N   UNL A   1      32.540  24.670  22.556  1.00  0.00    -0.338 N 
ATOM      7  C   UNL A   1      31.390  24.606  23.449  1.00  0.00     0.120 C 
ATOM      8  C   UNL A   1      33.030  23.396  22.037  1.00  0.00     0.135 C 
ATOM      9  C   UNL A   1      31.620  23.662  24.619  1.00  0.00     0.022 C 
ATOM     10  C   UNL A   1      32.149  22.304  24.155  1.00  0.00     0.019 C 
BRANCH   6  11
ATOM     11  C   UNL A   1      33.162  25.895  22.337  1.00  0.00     0.253 C 
ATOM     12  O   UNL A   1      33.652  26.206  21.254  1.00  0.00    -0.269 OA
BRANCH  11  13
ATOM     13  C   UNL A   1      33.340  26.828  23.484  1.00  0.00     0.040 A 
ATOM     14  C   UNL A   1      33.381  28.429  25.787  1.00  0.00     0.118 A 
ATOM     15  C   UNL A   1      34.028  27.191  25.776  1.00  0.00     0.047 A 
ATOM     16  C   UNL A   1      32.750  28.887  24.631  1.00  0.00     0.047 A 
ATOM     17  C   UNL A   1      34.001  26.385  24.633  1.00  0.00     0.017 A 
ATOM     18  C   UNL A   1      32.712  28.082  23.490  1.00  0.00     0.017 A 
BRANCH  14  19
ATOM     19  O   UNL A   1      33.421  29.106  26.976  1.00  0.00    -0.497 OA
ATOM     20  C   UNL A   1      34.726  29.372  27.483  1.00  0.00     0.278 C 
ENDBRANCH  14  19
ENDBRANCH  11  13
ENDBRANCH   6  11
ENDBRANCH   3   5
ENDBRANCH   2   3
ENDBRANCH   1   2
BRANCH   1  21
ATOM     21  C   UNL A   1      36.764  20.673  24.981  1.00  0.00     0.275 C 
BRANCH  21  22
ATOM     22  O   UNL A   1      37.422  21.658  25.800  1.00  0.00    -0.458 OA
BRANCH  22  23
ATOM     23  C   UNL A   1      38.724  21.405  26.065  1.00  0.00     0.338 C 
ATOM     24  O   UNL A   1      39.355  20.393  25.822  1.00  0.00    -0.246 OA
BRANCH  23  25
ATOM     25  C   UNL A   1      39.355  22.624  26.587  1.00  0.00     0.060 A 
ATOM     26  C   UNL A   1      38.900  23.853  26.107  1.00  0.00     0.016 A 
ATOM     27  C   UNL A   1      40.437  22.557  27.464  1.00  0.00     0.016 A 
ATOM     28  C   UNL A   1      39.525  25.032  26.495  1.00  0.00     0.010 A 
ATOM     29  C   UNL A   1      41.069  23.742  27.853  1.00  0.00     0.010 A 
ATOM     30  C   UNL A   1      40.625  24.982  27.359  1.00  0.00    -0.014 A 
BRANCH  30  31
ATOM     31  C   UNL A   1      41.355  26.228  27.683  1.00  0.00     0.031 A 
ATOM     32  C   UNL A   1      40.660  27.311  28.454  1.00  0.00     0.074 A 
ATOM     33  C   UNL A   1      42.638  26.372  27.310  1.00  0.00     0.049 A 
ATOM     34  N   UNL A   1      41.076  28.514  28.753  1.00  0.00    -0.248 NA
ATOM     35  C   UNL A   1      39.313  26.994  28.958  1.00  0.00     0.031 C 
ATOM     36  C   UNL A   1      43.431  25.363  26.610  1.00  0.00     0.029 A 
ATOM     37  N   UNL A   1      43.498  27.429  27.465  1.00  0.00    -0.354 N 
ATOM     38  C   UNL A   1      40.035  29.108  29.453  1.00  0.00     0.074 A 
ATOM     39  C   UNL A   1      38.966  28.136  29.532  1.00  0.00     0.031 C 
ATOM     40  C   UNL A   1      44.663  25.852  26.391  1.00  0.00     0.029 A 
ATOM     41  C   UNL A   1      44.728  27.222  26.893  1.00  0.00     0.049 A 
ATOM     42  H   UNL A   1      43.256  28.256  27.942  1.00  0.00     0.167 HD
ATOM     43  C   UNL A   1      39.982  30.354  29.980  1.00  0.00     0.037 A 
ATOM     44  C   UNL A   1      45.774  28.058  26.760  1.00  0.00     0.037 A 
ATOM     45  C   UNL A   1      41.058  31.307  29.914  1.00  0.00     0.049 A 
ATOM     46  C   UNL A   1      45.671  29.454  27.311  1.00  0.00     0.074 A 
ATOM     47  C   UNL A   1      41.106  32.595  30.419  1.00  0.00     0.029 A 
ATOM     48  N   UNL A   1      42.282  31.071  29.305  1.00  0.00    -0.354 N 
ATOM     49  N   UNL A   1      44.676  30.019  27.951  1.00  0.00    -0.248 NA
ATOM     50  C   UNL A   1      46.832  30.332  27.112  1.00  0.00     0.031 C 
ATOM     51  C   UNL A   1      42.347  33.149  30.086  1.00  0.00     0.029 A 
ATOM     52  C   UNL A   1      43.088  32.193  29.408  1.00  0.00     0.049 A 
ATOM     53  H   UNL A   1      42.540  30.228  28.864  1.00  0.00     0.167 HD
ATOM     54  C   UNL A   1      45.096  31.309  28.248  1.00  0.00     0.074 A 
ATOM     55  C   UNL A   1      46.443  31.438  27.730  1.00  0.00     0.031 C 
ATOM     56  C   UNL A   1      44.427  32.297  28.890  1.00  0.00     0.037 A 
BRANCH  43  57
ATOM     57  C   UNL A   1      38.704  30.769  30.644  1.00  0.00     0.064 A 
ATOM     58  C   UNL A   1      38.566  30.782  32.039  1.00  0.00     0.173 A 
ATOM     59  C   UNL A   1      37.608  31.182  29.870  1.00  0.00     0.173 A 
ATOM     60  F   UNL A   1      39.579  30.379  32.821  1.00  0.00    -0.203 F 
ATOM     61  C   UNL A   1      37.370  31.174  32.636  1.00  0.00     0.198 A 
ATOM     62  C   UNL A   1      36.423  31.596  30.471  1.00  0.00     0.198 A 
ATOM     63  F   UNL A   1      37.690  31.188  28.532  1.00  0.00    -0.203 F 
ATOM     64  F   UNL A   1      37.247  31.141  33.971  1.00  0.00    -0.200 F 
ATOM     65  C   UNL A   1      36.303  31.587  31.852  1.00  0.00     0.200 A 
ATOM     66  F   UNL A   1      35.395  32.002  29.713  1.00  0.00    -0.200 F 
ATOM     67  F   UNL A   1      35.154  31.967  32.429  1.00  0.00    -0.200 F 
ENDBRANCH  43  57
BRANCH  44  68
ATOM     68  C   UNL A   1      46.999  27.603  26.054  1.00  0.00     0.064 A 
ATOM     69  C   UNL A   1      48.084  27.070  26.761  1.00  0.00     0.173 A 
ATOM     70  C   UNL A   1      47.106  27.692  24.658  1.00  0.00     0.173 A 
ATOM     71  F   UNL A   1      48.037  26.990  28.099  1.00  0.00    -0.203 F 
ATOM     72  C   UNL A   1      49.238  26.654  26.099  1.00  0.00     0.198 A 
ATOM     73  C   UNL A   1      48.249  27.251  23.996  1.00  0.00     0.198 A 
ATOM     74  F   UNL A   1      46.096  28.198  23.936  1.00  0.00    -0.203 F 
ATOM     75  F   UNL A   1      50.277  26.184  26.802  1.00  0.00    -0.200 F 
ATOM     76  C   UNL A   1      49.316  26.737  24.717  1.00  0.00     0.200 A 
ATOM     77  F   UNL A   1      48.318  27.325  22.660  1.00  0.00    -0.200 F 
ATOM     78  F   UNL A   1      50.424  26.332  24.081  1.00  0.00    -0.200 F 
ENDBRANCH  44  68
BRANCH  56  79
ATOM     79  C   UNL A   1      45.153  33.592  29.095  1.00  0.00     0.064 A 
ATOM     80  C   UNL A   1      45.963  33.808  30.218  1.00  0.00     0.173 A 
ATOM     81  C   UNL A   1      45.066  34.614  28.137  1.00  0.00     0.173 A 
ATOM     82  F   UNL A   1      46.064  32.866  31.168  1.00  0.00    -0.203 F 
ATOM     83  C   UNL A   1      46.647  35.009  30.386  1.00  0.00     0.198 A 
ATOM     84  C   UNL A   1      45.770  35.803  28.296  1.00  0.00     0.198 A 
ATOM     85  F   UNL A   1      44.308  34.452  27.043  1.00  0.00    -0.203 F 
ATOM     86  F   UNL A   1      47.384  35.211  31.486  1.00  0.00    -0.200 F 
ATOM     87  C   UNL A   1      46.555  36.003  29.422  1.00  0.00     0.200 A 
ATOM     88  F   UNL A   1      45.688  36.759  27.360  1.00  0.00    -0.200 F 
ATOM     89  F   UNL A   1      47.217  37.157  29.583  1.00  0.00    -0.200 F 
ENDBRANCH  56  79
ENDBRANCH  30  31
ENDBRANCH  23  25
ENDBRANCH  22  23
ENDBRANCH  21  22
ENDBRANCH   1  21
TORSDOF 14
ENDMDL
MODEL 2
REMARK VINA RESULT:     -11.7      1.220      3.401
REMARK SMILES COc1ccc(C(=O)N2CCC[C@H](C(=O)OCCOC(=O)c3ccc(-c4c5nc(c(-c6c(F)c(F)c(F)c(F)c6F)c6ccc([nH]6)c(-c6c(F)c(F)c(F)c(F)c6F)c6nc(c(-c7c(F)c(F)c(F)c(F)c7F)c7ccc4[nH]7)C=C6)C=C5)cc3)C2)cc1
REMARK SMILES IDX 17 1 16 2 14 3 15 4 13 5 9 6 10 7 85 8 11 9 12 10 7 11 8 12
REMARK SMILES IDX 6 13 3 14 4 15 87 16 5 17 86 18 2 19 1 20 18 21 19 22 20 23
REMARK SMILES IDX 21 24 22 25 23 26 84 27 24 28 83 29 25 30 26 31 27 32 77 33
REMARK SMILES IDX 28 34 82 35 76 36 78 37 29 38 81 39 75 40 74 41 30 43 62 44
REMARK SMILES IDX 42 45 61 46 43 47 46 48 60 49 79 50 44 51 45 52 59 54 80 55
REMARK SMILES IDX 47 56 31 57 32 58 40 59 33 60 34 61 38 62 41 63 35 64 36 65
REMARK SMILES IDX 39 66 37 67 63 68 64 69 72 70 65 71 66 72 70 73 73 74 67 75
REMARK SMILES IDX 68 76 71 77 69 78 48 79 49 80 57 81 50 82 51 83 55 84 58 85
REMARK SMILES IDX 52 86 53 87 56 88 54 89
REMARK H PARENT 78 42 46 53
REMARK Flexibility Score: inf
ROOT
ATOM      1  C   UNL A   1      36.584  22.609  23.502  1.00  0.00     0.274 C 
ENDROOT
BRANCH   1   2
ATOM      2  O   UNL A   1      35.536  23.373  24.126  1.00  0.00    -0.462 OA
BRANCH   2   3
ATOM      3  C   UNL A   1      34.480  23.731  23.361  1.00  0.00     0.310 C 
ATOM      4  O   UNL A   1      33.917  22.997  22.555  1.00  0.00    -0.252 OA
BRANCH   3   5
ATOM      5  C   UNL A   1      34.038  25.169  23.581  1.00  0.00     0.119 C 
ATOM      6  N   UNL A   1      32.271  24.866  25.274  1.00  0.00    -0.338 N 
ATOM      7  C   UNL A   1      31.230  25.403  24.404  1.00  0.00     0.120 C 
ATOM      8  C   UNL A   1      33.627  25.353  25.039  1.00  0.00     0.135 C 
ATOM      9  C   UNL A   1      31.563  25.224  22.931  1.00  0.00     0.022 C 
ATOM     10  C   UNL A   1      32.979  25.702  22.607  1.00  0.00     0.019 C 
BRANCH   6  11
ATOM     11  C   UNL A   1      31.945  23.866  26.184  1.00  0.00     0.253 C 
ATOM     12  O   UNL A   1      31.401  24.099  27.260  1.00  0.00    -0.269 OA
BRANCH  11  13
ATOM     13  C   UNL A   1      32.366  22.467  25.897  1.00  0.00     0.040 A 
ATOM     14  C   UNL A   1      33.392  19.974  25.119  1.00  0.00     0.118 A 
ATOM     15  C   UNL A   1      34.007  20.703  26.139  1.00  0.00     0.047 A 
ATOM     16  C   UNL A   1      32.236  20.471  24.517  1.00  0.00     0.047 A 
ATOM     17  C   UNL A   1      33.506  21.952  26.522  1.00  0.00     0.017 A 
ATOM     18  C   UNL A   1      31.736  21.721  24.891  1.00  0.00     0.017 A 
BRANCH  14  19
ATOM     19  O   UNL A   1      34.001  18.796  24.784  1.00  0.00    -0.497 OA
ATOM     20  C   UNL A   1      33.299  17.994  23.837  1.00  0.00     0.278 C 
ENDBRANCH  14  19
ENDBRANCH  11  13
ENDBRANCH   6  11
ENDBRANCH   3   5
ENDBRANCH   2   3
ENDBRANCH   1   2
BRANCH   1  21
ATOM     21  C   UNL A   1      36.991  21.426  24.382  1.00  0.00     0.275 C 
BRANCH  21  22
ATOM     22  O   UNL A   1      37.393  21.873  25.690  1.00  0.00    -0.458 OA
BRANCH  22  23
ATOM     23  C   UNL A   1      38.664  21.567  26.036  1.00  0.00     0.338 C 
ATOM     24  O   UNL A   1      39.260  20.522  25.851  1.00  0.00    -0.246 OA
BRANCH  23  25
ATOM     25  C   UNL A   1      39.321  22.767  26.569  1.00  0.00     0.060 A 
ATOM     26  C   UNL A   1      38.890  24.010  26.103  1.00  0.00     0.016 A 
ATOM     27  C   UNL A   1      40.403  22.669  27.443  1.00  0.00     0.016 A 
ATOM     28  C   UNL A   1      39.541  25.171  26.502  1.00  0.00     0.010 A 
ATOM     29  C   UNL A   1      41.060  23.836  27.843  1.00  0.00     0.010 A 
ATOM     30  C   UNL A   1      40.641  25.090  27.363  1.00  0.00    -0.014 A 
BRANCH  30  31
ATOM     31  C   UNL A   1      41.397  26.317  27.698  1.00  0.00     0.031 A 
ATOM     32  C   UNL A   1      40.732  27.398  28.498  1.00  0.00     0.074 A 
ATOM     33  C   UNL A   1      42.678  26.445  27.309  1.00  0.00     0.049 A 
ATOM     34  N   UNL A   1      41.173  28.588  28.812  1.00  0.00    -0.248 NA
ATOM     35  C   UNL A   1      39.388  27.095  29.016  1.00  0.00     0.031 C 
ATOM     36  C   UNL A   1      43.443  25.435  26.580  1.00  0.00     0.029 A 
ATOM     37  N   UNL A   1      43.558  27.485  27.471  1.00  0.00    -0.354 N 
ATOM     38  C   UNL A   1      40.153  29.188  29.537  1.00  0.00     0.074 A 
ATOM     39  C   UNL A   1      39.068  28.233  29.614  1.00  0.00     0.031 C 
ATOM     40  C   UNL A   1      44.680  25.907  26.353  1.00  0.00     0.029 A 
ATOM     41  C   UNL A   1      44.776  27.266  26.877  1.00  0.00     0.049 A 
ATOM     42  H   UNL A   1      43.338  28.307  27.966  1.00  0.00     0.167 HD
ATOM     43  C   UNL A   1      40.129  30.425  30.087  1.00  0.00     0.037 A 
ATOM     44  C   UNL A   1      45.834  28.086  26.744  1.00  0.00     0.037 A 
ATOM     45  C   UNL A   1      41.221  31.360  30.022  1.00  0.00     0.049 A 
ATOM     46  C   UNL A   1      45.763  29.474  27.321  1.00  0.00     0.074 A 
ATOM     47  C   UNL A   1      41.298  32.637  30.549  1.00  0.00     0.029 A 
ATOM     48  N   UNL A   1      42.432  31.114  29.391  1.00  0.00    -0.354 N 
ATOM     49  N   UNL A   1      44.788  30.045  27.985  1.00  0.00    -0.248 NA
ATOM     50  C   UNL A   1      46.937  30.335  27.120  1.00  0.00     0.031 C 
ATOM     51  C   UNL A   1      42.544  33.176  30.208  1.00  0.00     0.029 A 
ATOM     52  C   UNL A   1      43.259  32.220  29.503  1.00  0.00     0.049 A 
ATOM     53  H   UNL A   1      42.669  30.275  28.932  1.00  0.00     0.167 HD
ATOM     54  C   UNL A   1      45.234  31.321  28.299  1.00  0.00     0.074 A 
ATOM     55  C   UNL A   1      46.576  31.437  27.763  1.00  0.00     0.031 C 
ATOM     56  C   UNL A   1      44.592  32.310  28.967  1.00  0.00     0.037 A 
BRANCH  43  57
ATOM     57  C   UNL A   1      38.869  30.850  30.777  1.00  0.00     0.064 A 
ATOM     58  C   UNL A   1      37.796  31.416  30.073  1.00  0.00     0.173 A 
ATOM     59  C   UNL A   1      38.724  30.667  32.161  1.00  0.00     0.173 A 
ATOM     60  F   UNL A   1      37.893  31.628  28.752  1.00  0.00    -0.203 F 
ATOM     61  C   UNL A   1      36.632  31.801  30.733  1.00  0.00     0.198 A 
ATOM     62  C   UNL A   1      37.550  31.031  32.812  1.00  0.00     0.198 A 
ATOM     63  F   UNL A   1      39.721  30.129  32.878  1.00  0.00    -0.203 F 
ATOM     64  F   UNL A   1      35.634  32.378  30.047  1.00  0.00    -0.200 F 
ATOM     65  C   UNL A   1      36.507  31.603  32.100  1.00  0.00     0.200 A 
ATOM     66  F   UNL A   1      37.428  30.832  34.133  1.00  0.00    -0.200 F 
ATOM     67  F   UNL A   1      35.384  31.972  32.732  1.00  0.00    -0.200 F 
ENDBRANCH  43  57
BRANCH  44  68
ATOM     68  C   UNL A   1      47.041  27.623  26.013  1.00  0.00     0.064 A 
ATOM     69  C   UNL A   1      47.120  27.715  24.617  1.00  0.00     0.173 A 
ATOM     70  C   UNL A   1      48.139  27.081  26.697  1.00  0.00     0.173 A 
ATOM     71  F   UNL A   1      46.084  28.203  23.919  1.00  0.00    -0.203 F 
ATOM     72  C   UNL A   1      48.248  27.271  23.931  1.00  0.00     0.198 A 
ATOM     73  C   UNL A   1      49.277  26.661  26.011  1.00  0.00     0.198 A 
ATOM     74  F   UNL A   1      48.111  26.968  28.033  1.00  0.00    -0.203 F 
ATOM     75  F   UNL A   1      48.283  27.334  22.593  1.00  0.00    -0.200 F 
ATOM     76  C   UNL A   1      49.328  26.751  24.629  1.00  0.00     0.200 A 
ATOM     77  F   UNL A   1      50.321  26.168  26.690  1.00  0.00    -0.200 F 
ATOM     78  F   UNL A   1      50.415  26.329  23.968  1.00  0.00    -0.200 F 
ENDBRANCH  44  68
BRANCH  56  79
ATOM     79  C   UNL A   1      45.343  33.588  29.185  1.00  0.00     0.064 A 
ATOM     80  C   UNL A   1      45.257  34.652  28.275  1.00  0.00     0.173 A 
ATOM     81  C   UNL A   1      46.127  33.765  30.335  1.00  0.00     0.173 A 
ATOM     82  F   UNL A   1      44.533  34.523  27.153  1.00  0.00    -0.203 F 
ATOM     83  C   UNL A   1      45.945  35.841  28.500  1.00  0.00     0.198 A 
ATOM     84  C   UNL A   1      46.794  34.964  30.568  1.00  0.00     0.198 A 
ATOM     85  F   UNL A   1      46.235  32.778  31.237  1.00  0.00    -0.203 F 
ATOM     86  F   UNL A   1      45.882  36.831  27.598  1.00  0.00    -0.200 F 
ATOM     87  C   UNL A   1      46.708  35.998  29.648  1.00  0.00     0.200 A 
ATOM     88  F   UNL A   1      47.522  35.118  31.683  1.00  0.00    -0.200 F 
ATOM     89  F   UNL A   1      47.366  37.145  29.865  1.00  0.00    -0.200 F 
ENDBRANCH  56  79
ENDBRANCH  30  31
ENDBRANCH  23  25
ENDBRANCH  22  23
ENDBRANCH  21  22
ENDBRANCH   1  21
TORSDOF 14
ENDMDL
MODEL 3
REMARK VINA RESULT:     -11.6      4.093      9.520
REMARK SMILES COc1ccc(C(=O)N2CCC[C@H](C(=O)OCCOC(=O)c3ccc(-c4c5nc(c(-c6c(F)c(F)c(F)c(F)c6F)c6ccc([nH]6)c(-c6c(F)c(F)c(F)c(F)c6F)c6nc(c(-c7c(F)c(F)c(F)c(F)c7F)c7ccc4[nH]7)C=C6)C=C5)cc3)C2)cc1
REMARK SMILES IDX 17 1 16 2 14 3 15 4 13 5 9 6 10 7 85 8 11 9 12 10 7 11 8 12
REMARK SMILES IDX 6 13 3 14 4 15 87 16 5 17 86 18 2 19 1 20 18 21 19 22 20 23
REMARK SMILES IDX 21 24 22 25 23 26 84 27 24 28 83 29 25 30 26 31 27 32 77 33
REMARK SMILES IDX 28 34 82 35 76 36 78 37 29 38 81 39 75 40 74 41 30 43 62 44
REMARK SMILES IDX 42 45 61 46 43 47 46 48 60 49 79 50 44 51 45 52 59 54 80 55
REMARK SMILES IDX 47 56 31 57 32 58 40 59 33 60 34 61 38 62 41 63 35 64 36 65
REMARK SMILES IDX 39 66 37 67 63 68 64 69 72 70 65 71 66 72 70 73 73 74 67 75
REMARK SMILES IDX 68 76 71 77 69 78 48 79 49 80 57 81 50 82 51 83 55 84 58 85
REMARK SMILES IDX 52 86 53 87 56 88 54 89
REMARK H PARENT 78 42 46 53
REMARK Flexibility Score: inf
ROOT
ATOM      1  C   UNL A   1      31.775  28.188  26.986  1.00  0.00     0.274 C 
ENDROOT
BRANCH   1   2
ATOM      2  O   UNL A   1      31.731  27.428  25.763  1.00  0.00    -0.462 OA
BRANCH   2   3
ATOM      3  C   UNL A   1      31.185  26.191  25.813  1.00  0.00     0.310 C 
ATOM      4  O   UNL A   1      31.456  25.338  26.652  1.00  0.00    -0.252 OA
BRANCH   3   5
ATOM      5  C   UNL A   1      30.180  25.933  24.702  1.00  0.00     0.119 C 
ATOM      6  N   UNL A   1      31.669  25.812  22.740  1.00  0.00    -0.338 N 
ATOM      7  C   UNL A   1      31.051  26.965  22.095  1.00  0.00     0.120 C 
ATOM      8  C   UNL A   1      30.819  25.040  23.642  1.00  0.00     0.135 C 
ATOM      9  C   UNL A   1      30.419  27.916  23.100  1.00  0.00     0.022 C 
ATOM     10  C   UNL A   1      29.520  27.177  24.093  1.00  0.00     0.019 C 
BRANCH   6  11
ATOM     11  C   UNL A   1      33.027  25.577  22.551  1.00  0.00     0.253 C 
ATOM     12  O   UNL A   1      33.655  26.039  21.602  1.00  0.00    -0.269 OA
BRANCH  11  13
ATOM     13  C   UNL A   1      33.731  24.643  23.473  1.00  0.00     0.040 A 
ATOM     14  C   UNL A   1      35.358  22.964  25.024  1.00  0.00     0.118 A 
ATOM     15  C   UNL A   1      35.206  24.311  25.363  1.00  0.00     0.047 A 
ATOM     16  C   UNL A   1      34.660  22.446  23.934  1.00  0.00     0.047 A 
ATOM     17  C   UNL A   1      34.405  25.154  24.586  1.00  0.00     0.017 A 
ATOM     18  C   UNL A   1      33.865  23.285  23.149  1.00  0.00     0.017 A 
BRANCH  14  19
ATOM     19  O   UNL A   1      36.212  22.248  25.817  1.00  0.00    -0.497 OA
ATOM     20  C   UNL A   1      37.152  21.433  25.121  1.00  0.00     0.278 C 
ENDBRANCH  14  19
ENDBRANCH  11  13
ENDBRANCH   6  11
ENDBRANCH   3   5
ENDBRANCH   2   3
ENDBRANCH   1   2
BRANCH   1  21
ATOM     21  C   UNL A   1      31.759  29.689  26.693  1.00  0.00     0.275 C 
BRANCH  21  22
ATOM     22  O   UNL A   1      33.077  30.162  26.359  1.00  0.00    -0.458 OA
BRANCH  22  23
ATOM     23  C   UNL A   1      33.486  31.251  27.050  1.00  0.00     0.338 C 
ATOM     24  O   UNL A   1      32.875  32.284  27.251  1.00  0.00    -0.246 OA
BRANCH  23  25
ATOM     25  C   UNL A   1      34.781  30.964  27.679  1.00  0.00     0.060 A 
ATOM     26  C   UNL A   1      35.057  29.642  28.034  1.00  0.00     0.016 A 
ATOM     27  C   UNL A   1      35.671  31.988  27.999  1.00  0.00     0.016 A 
ATOM     28  C   UNL A   1      36.225  29.330  28.718  1.00  0.00     0.010 A 
ATOM     29  C   UNL A   1      36.846  31.676  28.689  1.00  0.00     0.010 A 
ATOM     30  C   UNL A   1      37.121  30.348  29.064  1.00  0.00    -0.014 A 
BRANCH  30  31
ATOM     31  C   UNL A   1      38.308  30.027  29.887  1.00  0.00     0.031 A 
ATOM     32  C   UNL A   1      39.365  29.118  29.332  1.00  0.00     0.074 A 
ATOM     33  C   UNL A   1      38.447  30.570  31.109  1.00  0.00     0.049 A 
ATOM     34  N   UNL A   1      40.427  28.627  29.918  1.00  0.00    -0.248 NA
ATOM     35  C   UNL A   1      39.204  28.707  27.928  1.00  0.00     0.031 C 
ATOM     36  C   UNL A   1      37.513  31.512  31.724  1.00  0.00     0.029 A 
ATOM     37  N   UNL A   1      39.427  30.400  32.053  1.00  0.00    -0.354 N 
ATOM     38  C   UNL A   1      41.045  27.828  28.966  1.00  0.00     0.074 A 
ATOM     39  C   UNL A   1      40.238  27.895  27.766  1.00  0.00     0.031 C 
ATOM     40  C   UNL A   1      37.964  31.835  32.947  1.00  0.00     0.029 A 
ATOM     41  C   UNL A   1      39.189  31.087  33.217  1.00  0.00     0.049 A 
ATOM     42  H   UNL A   1      40.225  29.841  31.909  1.00  0.00     0.167 HD
ATOM     43  C   UNL A   1      42.182  27.105  29.087  1.00  0.00     0.037 A 
ATOM     44  C   UNL A   1      39.866  31.082  34.380  1.00  0.00     0.037 A 
ATOM     45  C   UNL A   1      42.989  27.060  30.278  1.00  0.00     0.049 A 
ATOM     46  C   UNL A   1      41.101  30.231  34.506  1.00  0.00     0.074 A 
ATOM     47  C   UNL A   1      44.162  26.361  30.503  1.00  0.00     0.029 A 
ATOM     48  N   UNL A   1      42.704  27.750  31.448  1.00  0.00    -0.354 N 
ATOM     49  N   UNL A   1      41.667  29.459  33.610  1.00  0.00    -0.248 NA
ATOM     50  C   UNL A   1      41.783  30.243  35.807  1.00  0.00     0.031 C 
ATOM     51  C   UNL A   1      44.568  26.602  31.821  1.00  0.00     0.029 A 
ATOM     52  C   UNL A   1      43.670  27.483  32.404  1.00  0.00     0.049 A 
ATOM     53  H   UNL A   1      41.928  28.344  31.579  1.00  0.00     0.167 HD
ATOM     54  C   UNL A   1      42.781  28.909  34.231  1.00  0.00     0.074 A 
ATOM     55  C   UNL A   1      42.818  29.448  35.575  1.00  0.00     0.031 C 
ATOM     56  C   UNL A   1      43.690  28.036  33.734  1.00  0.00     0.037 A 
BRANCH  43  57
ATOM     57  C   UNL A   1      42.603  26.276  27.912  1.00  0.00     0.064 A 
ATOM     58  C   UNL A   1      42.072  24.999  27.681  1.00  0.00     0.173 A 
ATOM     59  C   UNL A   1      43.536  26.777  26.991  1.00  0.00     0.173 A 
ATOM     60  F   UNL A   1      41.192  24.468  28.543  1.00  0.00    -0.203 F 
ATOM     61  C   UNL A   1      42.475  24.246  26.581  1.00  0.00     0.198 A 
ATOM     62  C   UNL A   1      43.917  26.031  25.880  1.00  0.00     0.198 A 
ATOM     63  F   UNL A   1      44.072  27.994  27.168  1.00  0.00    -0.203 F 
ATOM     64  F   UNL A   1      41.985  23.011  26.401  1.00  0.00    -0.200 F 
ATOM     65  C   UNL A   1      43.391  24.764  25.679  1.00  0.00     0.200 A 
ATOM     66  F   UNL A   1      44.798  26.537  25.004  1.00  0.00    -0.200 F 
ATOM     67  F   UNL A   1      43.775  24.039  24.619  1.00  0.00    -0.200 F 
ENDBRANCH  43  57
BRANCH  44  68
ATOM     68  C   UNL A   1      39.376  31.893  35.524  1.00  0.00     0.064 A 
ATOM     69  C   UNL A   1      39.781  33.223  35.692  1.00  0.00     0.173 A 
ATOM     70  C   UNL A   1      38.494  31.351  36.470  1.00  0.00     0.173 A 
ATOM     71  F   UNL A   1      40.644  33.775  34.827  1.00  0.00    -0.203 F 
ATOM     72  C   UNL A   1      39.329  33.979  36.772  1.00  0.00     0.198 A 
ATOM     73  C   UNL A   1      38.022  32.117  37.534  1.00  0.00     0.198 A 
ATOM     74  F   UNL A   1      38.080  30.081  36.355  1.00  0.00    -0.203 F 
ATOM     75  F   UNL A   1      39.761  35.238  36.932  1.00  0.00    -0.200 F 
ATOM     76  C   UNL A   1      38.445  33.428  37.687  1.00  0.00     0.200 A 
ATOM     77  F   UNL A   1      37.162  31.584  38.411  1.00  0.00    -0.200 F 
ATOM     78  F   UNL A   1      38.008  34.158  38.722  1.00  0.00    -0.200 F 
ENDBRANCH  44  68
BRANCH  56  79
ATOM     79  C   UNL A   1      44.817  27.634  34.636  1.00  0.00     0.064 A 
ATOM     80  C   UNL A   1      46.002  28.381  34.706  1.00  0.00     0.173 A 
ATOM     81  C   UNL A   1      44.695  26.511  35.468  1.00  0.00     0.173 A 
ATOM     82  F   UNL A   1      46.170  29.453  33.917  1.00  0.00    -0.203 F 
ATOM     83  C   UNL A   1      47.032  28.007  35.563  1.00  0.00     0.198 A 
ATOM     84  C   UNL A   1      45.717  26.154  36.342  1.00  0.00     0.198 A 
ATOM     85  F   UNL A   1      43.578  25.769  35.441  1.00  0.00    -0.203 F 
ATOM     86  F   UNL A   1      48.172  28.711  35.585  1.00  0.00    -0.200 F 
ATOM     87  C   UNL A   1      46.887  26.898  36.384  1.00  0.00     0.200 A 
ATOM     88  F   UNL A   1      45.572  25.089  37.142  1.00  0.00    -0.200 F 
ATOM     89  F   UNL A   1      47.879  26.541  37.213  1.00  0.00    -0.200 F 
ENDBRANCH  56  79
ENDBRANCH  30  31
ENDBRANCH  23  25
ENDBRANCH  22  23
ENDBRANCH  21  22
ENDBRANCH   1  21
TORSDOF 14
ENDMDL
