MODEL 1
REMARK VINA RESULT:     -11.4      0.000      0.000
REMARK SMILES CCOc1cc(OCC)cc(-c2ccc([C@@H](C)C(=O)OCCOC(=O)c3ccc(-c4c5nc(c(-c6c(F)c(F)c(F)c(F)c6F)c6ccc([nH]6)c(-c6c(F)c(F)c(F)c(F)c6F)c6nc(c(-c7c(F)c(F)c(F)c(F)c7F)c7ccc4[nH]7)C=C6)C=C5)cc3)cc2F)c1
REMARK SMILES IDX 21 1 20 2 18 3 19 4 16 5 17 6 15 7 12 8 13 9 90 10 14 11
REMARK SMILES IDX 89 12 91 13 11 14 4 15 5 16 92 17 6 18 10 19 3 20 2 21 1 22
REMARK SMILES IDX 7 23 8 24 9 25 22 26 23 27 24 28 25 29 26 30 27 31 88 32
REMARK SMILES IDX 28 33 87 34 29 35 30 36 31 37 81 38 32 39 86 40 80 41 82 42
REMARK SMILES IDX 33 43 85 44 79 45 78 46 34 48 66 49 46 50 65 51 47 52 50 53
REMARK SMILES IDX 64 54 83 55 48 56 49 57 63 59 84 60 51 61 35 62 36 63 44 64
REMARK SMILES IDX 37 65 38 66 42 67 45 68 39 69 40 70 43 71 41 72 67 73 68 74
REMARK SMILES IDX 76 75 69 76 70 77 74 78 77 79 71 80 72 81 75 82 73 83 52 84
REMARK SMILES IDX 53 85 61 86 54 87 55 88 59 89 62 90 56 91 57 92 60 93 58 94
REMARK H PARENT 82 47 50 58
REMARK Flexibility Score: inf
ROOT
ATOM      1  C   UNL A   1      33.297  35.909  28.790  1.00  0.00     0.274 C 
ENDROOT
BRANCH   1   2
ATOM      2  O   UNL A   1      33.774  34.580  29.069  1.00  0.00    -0.462 OA
BRANCH   2   3
ATOM      3  C   UNL A   1      34.568  33.995  28.136  1.00  0.00     0.313 C 
ATOM      4  O   UNL A   1      34.948  34.543  27.106  1.00  0.00    -0.252 OA
BRANCH   3   5
ATOM      5  C   UNL A   1      34.936  32.553  28.469  1.00  0.00     0.126 C 
ATOM      6  C   UNL A   1      36.421  32.314  28.216  1.00  0.00     0.025 C 
BRANCH   5   7
ATOM      7  C   UNL A   1      34.059  31.491  27.823  1.00  0.00    -0.031 A 
ATOM      8  C   UNL A   1      32.466  29.506  26.559  1.00  0.00     0.018 A 
ATOM      9  C   UNL A   1      31.952  30.782  26.843  1.00  0.00     0.012 A 
ATOM     10  C   UNL A   1      33.779  29.235  26.957  1.00  0.00     0.131 A 
ATOM     11  C   UNL A   1      32.736  31.762  27.453  1.00  0.00     0.005 A 
ATOM     12  C   UNL A   1      34.568  30.207  27.574  1.00  0.00     0.044 A 
ATOM     13  F   UNL A   1      34.330  28.036  26.714  1.00  0.00    -0.206 F 
BRANCH   8  14
ATOM     14  C   UNL A   1      31.647  28.536  25.818  1.00  0.00    -0.008 A 
ATOM     15  C   UNL A   1      30.525  27.772  23.810  1.00  0.00     0.123 A 
ATOM     16  C   UNL A   1      30.141  26.595  24.456  1.00  0.00     0.092 A 
ATOM     17  C   UNL A   1      31.253  28.746  24.492  1.00  0.00     0.055 A 
ATOM     18  C   UNL A   1      30.494  26.378  25.788  1.00  0.00     0.123 A 
ATOM     19  C   UNL A   1      31.243  27.347  26.452  1.00  0.00     0.055 A 
BRANCH  15  20
ATOM     20  O   UNL A   1      30.062  27.986  22.540  1.00  0.00    -0.494 OA
BRANCH  20  21
ATOM     21  C   UNL A   1      29.363  29.227  22.386  1.00  0.00     0.226 C 
ATOM     22  C   UNL A   1      27.899  29.099  22.777  1.00  0.00     0.049 C 
ENDBRANCH  20  21
ENDBRANCH  15  20
BRANCH  18  23
ATOM     23  O   UNL A   1      30.087  25.191  26.334  1.00  0.00    -0.494 OA
BRANCH  23  24
ATOM     24  C   UNL A   1      30.739  23.998  25.887  1.00  0.00     0.226 C 
ATOM     25  C   UNL A   1      30.574  22.864  26.889  1.00  0.00     0.049 C 
ENDBRANCH  23  24
ENDBRANCH  18  23
ENDBRANCH   8  14
ENDBRANCH   5   7
ENDBRANCH   3   5
ENDBRANCH   2   3
ENDBRANCH   1   2
BRANCH   1  26
ATOM     26  C   UNL A   1      32.847  36.598  30.078  1.00  0.00     0.275 C 
BRANCH  26  27
ATOM     27  O   UNL A   1      32.427  35.623  31.049  1.00  0.00    -0.458 OA
BRANCH  27  28
ATOM     28  C   UNL A   1      32.740  35.902  32.336  1.00  0.00     0.338 C 
ATOM     29  O   UNL A   1      32.156  36.632  33.113  1.00  0.00    -0.246 OA
BRANCH  28  30
ATOM     30  C   UNL A   1      33.903  35.087  32.711  1.00  0.00     0.060 A 
ATOM     31  C   UNL A   1      35.181  35.618  32.525  1.00  0.00     0.016 A 
ATOM     32  C   UNL A   1      33.735  33.795  33.204  1.00  0.00     0.016 A 
ATOM     33  C   UNL A   1      36.306  34.862  32.840  1.00  0.00     0.010 A 
ATOM     34  C   UNL A   1      34.862  33.044  33.543  1.00  0.00     0.010 A 
ATOM     35  C   UNL A   1      36.153  33.574  33.365  1.00  0.00    -0.014 A 
BRANCH  35  36
ATOM     36  C   UNL A   1      37.343  32.782  33.753  1.00  0.00     0.031 A 
ATOM     37  C   UNL A   1      38.038  33.058  35.051  1.00  0.00     0.074 A 
ATOM     38  C   UNL A   1      37.805  31.833  32.920  1.00  0.00     0.049 A 
ATOM     39  N   UNL A   1      39.178  32.592  35.494  1.00  0.00    -0.248 NA
ATOM     40  C   UNL A   1      37.361  33.980  35.975  1.00  0.00     0.031 C 
ATOM     41  C   UNL A   1      37.180  31.443  31.655  1.00  0.00     0.029 A 
ATOM     42  N   UNL A   1      38.918  31.035  33.003  1.00  0.00    -0.354 N 
ATOM     43  C   UNL A   1      39.368  33.181  36.736  1.00  0.00     0.074 A 
ATOM     44  C   UNL A   1      38.230  34.046  36.974  1.00  0.00     0.031 C 
ATOM     45  C   UNL A   1      37.923  30.487  31.076  1.00  0.00     0.029 A 
ATOM     46  C   UNL A   1      39.105  30.244  31.896  1.00  0.00     0.049 A 
ATOM     47  H   UNL A   1      39.522  31.029  33.780  1.00  0.00     0.167 HD
ATOM     48  C   UNL A   1      40.402  33.013  37.593  1.00  0.00     0.037 A 
ATOM     49  C   UNL A   1      40.140  29.451  31.558  1.00  0.00     0.037 A 
ATOM     50  C   UNL A   1      41.520  32.138  37.350  1.00  0.00     0.049 A 
ATOM     51  C   UNL A   1      41.320  29.354  32.484  1.00  0.00     0.074 A 
ATOM     52  C   UNL A   1      42.601  31.870  38.171  1.00  0.00     0.029 A 
ATOM     53  N   UNL A   1      41.700  31.393  36.194  1.00  0.00    -0.354 N 
ATOM     54  N   UNL A   1      41.500  29.917  33.654  1.00  0.00    -0.248 NA
ATOM     55  C   UNL A   1      42.449  28.527  32.036  1.00  0.00     0.031 C 
ATOM     56  C   UNL A   1      43.460  30.999  37.491  1.00  0.00     0.029 A 
ATOM     57  C   UNL A   1      42.894  30.691  36.265  1.00  0.00     0.049 A 
ATOM     58  H   UNL A   1      41.073  31.366  35.436  1.00  0.00     0.167 HD
ATOM     59  C   UNL A   1      42.753  29.510  34.086  1.00  0.00     0.074 A 
ATOM     60  C   UNL A   1      43.284  28.635  33.060  1.00  0.00     0.031 C 
ATOM     61  C   UNL A   1      43.407  29.834  35.228  1.00  0.00     0.037 A 
BRANCH  48  62
ATOM     62  C   UNL A   1      40.392  33.814  38.860  1.00  0.00     0.064 A 
ATOM     63  C   UNL A   1      41.059  35.043  38.963  1.00  0.00     0.173 A 
ATOM     64  C   UNL A   1      39.668  33.362  39.974  1.00  0.00     0.173 A 
ATOM     65  F   UNL A   1      41.773  35.512  37.929  1.00  0.00    -0.203 F 
ATOM     66  C   UNL A   1      41.018  35.781  40.144  1.00  0.00     0.198 A 
ATOM     67  C   UNL A   1      39.611  34.114  41.145  1.00  0.00     0.198 A 
ATOM     68  F   UNL A   1      39.010  32.195  39.925  1.00  0.00    -0.203 F 
ATOM     69  F   UNL A   1      41.693  36.936  40.233  1.00  0.00    -0.200 F 
ATOM     70  C   UNL A   1      40.291  35.319  41.231  1.00  0.00     0.200 A 
ATOM     71  F   UNL A   1      38.899  33.671  42.189  1.00  0.00    -0.200 F 
ATOM     72  F   UNL A   1      40.247  36.034  42.363  1.00  0.00    -0.200 F 
ENDBRANCH  48  62
BRANCH  49  73
ATOM     73  C   UNL A   1      40.123  28.731  30.259  1.00  0.00     0.064 A 
ATOM     74  C   UNL A   1      39.510  27.478  30.138  1.00  0.00     0.173 A 
ATOM     75  C   UNL A   1      40.714  29.284  29.112  1.00  0.00     0.173 A 
ATOM     76  F   UNL A   1      38.957  26.896  31.212  1.00  0.00    -0.203 F 
ATOM     77  C   UNL A   1      39.492  26.802  28.919  1.00  0.00     0.198 A 
ATOM     78  C   UNL A   1      40.671  28.621  27.889  1.00  0.00     0.198 A 
ATOM     79  F   UNL A   1      41.318  30.480  29.179  1.00  0.00    -0.203 F 
ATOM     80  F   UNL A   1      38.930  25.589  28.836  1.00  0.00    -0.200 F 
ATOM     81  C   UNL A   1      40.065  27.378  27.794  1.00  0.00     0.200 A 
ATOM     82  F   UNL A   1      41.216  29.186  26.803  1.00  0.00    -0.200 F 
ATOM     83  F   UNL A   1      40.039  26.731  26.621  1.00  0.00    -0.200 F 
ENDBRANCH  49  73
BRANCH  61  84
ATOM     84  C   UNL A   1      44.768  29.235  35.430  1.00  0.00     0.064 A 
ATOM     85  C   UNL A   1      45.927  29.910  35.023  1.00  0.00     0.173 A 
ATOM     86  C   UNL A   1      44.915  28.003  36.081  1.00  0.00     0.173 A 
ATOM     87  F   UNL A   1      45.834  31.084  34.378  1.00  0.00    -0.203 F 
ATOM     88  C   UNL A   1      47.187  29.364  35.248  1.00  0.00     0.198 A 
ATOM     89  C   UNL A   1      46.177  27.471  36.327  1.00  0.00     0.198 A 
ATOM     90  F   UNL A   1      43.835  27.321  36.492  1.00  0.00    -0.203 F 
ATOM     91  F   UNL A   1      48.282  30.008  34.820  1.00  0.00    -0.200 F 
ATOM     92  C   UNL A   1      47.312  28.149  35.907  1.00  0.00     0.200 A 
ATOM     93  F   UNL A   1      46.297  26.303  36.972  1.00  0.00    -0.200 F 
ATOM     94  F   UNL A   1      48.526  27.629  36.133  1.00  0.00    -0.200 F 
ENDBRANCH  61  84
ENDBRANCH  35  36
ENDBRANCH  28  30
ENDBRANCH  27  28
ENDBRANCH  26  27
ENDBRANCH   1  26
TORSDOF 17
ENDMDL
MODEL 2
REMARK VINA RESULT:     -11.3      7.435     12.877
REMARK SMILES CCOc1cc(OCC)cc(-c2ccc([C@@H](C)C(=O)OCCOC(=O)c3ccc(-c4c5nc(c(-c6c(F)c(F)c(F)c(F)c6F)c6ccc([nH]6)c(-c6c(F)c(F)c(F)c(F)c6F)c6nc(c(-c7c(F)c(F)c(F)c(F)c7F)c7ccc4[nH]7)C=C6)C=C5)cc3)cc2F)c1
REMARK SMILES IDX 21 1 20 2 18 3 19 4 16 5 17 6 15 7 12 8 13 9 90 10 14 11
REMARK SMILES IDX 89 12 91 13 11 14 4 15 5 16 92 17 6 18 10 19 3 20 2 21 1 22
REMARK SMILES IDX 7 23 8 24 9 25 22 26 23 27 24 28 25 29 26 30 27 31 88 32
REMARK SMILES IDX 28 33 87 34 29 35 30 36 31 37 81 38 32 39 86 40 80 41 82 42
REMARK SMILES IDX 33 43 85 44 79 45 78 46 34 48 66 49 46 50 65 51 47 52 50 53
REMARK SMILES IDX 64 54 83 55 48 56 49 57 63 59 84 60 51 61 35 62 36 63 44 64
REMARK SMILES IDX 37 65 38 66 42 67 45 68 39 69 40 70 43 71 41 72 67 73 68 74
REMARK SMILES IDX 76 75 69 76 70 77 74 78 77 79 71 80 72 81 75 82 73 83 52 84
REMARK SMILES IDX 53 85 61 86 54 87 55 88 59 89 62 90 56 91 57 92 60 93 58 94
REMARK H PARENT 82 47 50 58
REMARK Flexibility Score: inf
ROOT
ATOM      1  C   UNL A   1      42.023  18.888  26.215  1.00  0.00     0.274 C 
ENDROOT
BRANCH   1   2
ATOM      2  O   UNL A   1      41.812  20.309  26.108  1.00  0.00    -0.462 OA
BRANCH   2   3
ATOM      3  C   UNL A   1      40.995  20.887  27.025  1.00  0.00     0.313 C 
ATOM      4  O   UNL A   1      40.778  20.435  28.145  1.00  0.00    -0.252 OA
BRANCH   3   5
ATOM      5  C   UNL A   1      40.330  22.166  26.525  1.00  0.00     0.126 C 
ATOM      6  C   UNL A   1      40.436  23.264  27.579  1.00  0.00     0.025 C 
BRANCH   5   7
ATOM      7  C   UNL A   1      38.912  22.000  26.000  1.00  0.00    -0.031 A 
ATOM      8  C   UNL A   1      36.238  21.698  25.087  1.00  0.00     0.018 A 
ATOM      9  C   UNL A   1      37.182  20.669  24.933  1.00  0.00     0.012 A 
ATOM     10  C   UNL A   1      36.672  22.892  25.672  1.00  0.00     0.131 A 
ATOM     11  C   UNL A   1      38.493  20.812  25.391  1.00  0.00     0.005 A 
ATOM     12  C   UNL A   1      37.984  23.045  26.126  1.00  0.00     0.044 A 
ATOM     13  F   UNL A   1      35.820  23.912  25.850  1.00  0.00    -0.206 F 
BRANCH   8  14
ATOM     14  C   UNL A   1      34.841  21.473  24.692  1.00  0.00    -0.008 A 
ATOM     15  C   UNL A   1      32.836  22.079  23.470  1.00  0.00     0.123 A 
ATOM     16  C   UNL A   1      32.192  20.928  23.930  1.00  0.00     0.092 A 
ATOM     17  C   UNL A   1      34.142  22.362  23.866  1.00  0.00     0.055 A 
ATOM     18  C   UNL A   1      32.856  20.045  24.781  1.00  0.00     0.123 A 
ATOM     19  C   UNL A   1      34.170  20.325  25.150  1.00  0.00     0.055 A 
BRANCH  15  20
ATOM     20  O   UNL A   1      32.107  22.968  22.728  1.00  0.00    -0.494 OA
BRANCH  20  21
ATOM     21  C   UNL A   1      31.988  24.260  23.335  1.00  0.00     0.226 C 
ATOM     22  C   UNL A   1      30.602  24.851  23.130  1.00  0.00     0.049 C 
ENDBRANCH  20  21
ENDBRANCH  15  20
BRANCH  18  23
ATOM     23  O   UNL A   1      32.152  18.937  25.169  1.00  0.00    -0.494 OA
BRANCH  23  24
ATOM     24  C   UNL A   1      32.527  17.680  24.597  1.00  0.00     0.226 C 
ATOM     25  C   UNL A   1      33.014  16.706  25.661  1.00  0.00     0.049 C 
ENDBRANCH  23  24
ENDBRANCH  18  23
ENDBRANCH   8  14
ENDBRANCH   5   7
ENDBRANCH   3   5
ENDBRANCH   2   3
ENDBRANCH   1   2
BRANCH   1  26
ATOM     26  C   UNL A   1      43.404  18.510  25.681  1.00  0.00     0.275 C 
BRANCH  26  27
ATOM     27  O   UNL A   1      43.617  19.091  24.381  1.00  0.00    -0.458 OA
BRANCH  27  28
ATOM     28  C   UNL A   1      44.886  19.473  24.109  1.00  0.00     0.338 C 
ATOM     29  O   UNL A   1      45.771  18.827  23.583  1.00  0.00    -0.246 OA
BRANCH  28  30
ATOM     30  C   UNL A   1      45.028  20.887  24.483  1.00  0.00     0.060 A 
ATOM     31  C   UNL A   1      45.542  21.198  25.742  1.00  0.00     0.016 A 
ATOM     32  C   UNL A   1      44.621  21.894  23.611  1.00  0.00     0.016 A 
ATOM     33  C   UNL A   1      45.661  22.526  26.141  1.00  0.00     0.010 A 
ATOM     34  C   UNL A   1      44.762  23.228  24.001  1.00  0.00     0.010 A 
ATOM     35  C   UNL A   1      45.286  23.551  25.267  1.00  0.00    -0.014 A 
BRANCH  35  36
ATOM     36  C   UNL A   1      45.458  24.968  25.662  1.00  0.00     0.031 A 
ATOM     37  C   UNL A   1      46.808  25.611  25.576  1.00  0.00     0.074 A 
ATOM     38  C   UNL A   1      44.400  25.660  26.118  1.00  0.00     0.049 A 
ATOM     39  N   UNL A   1      47.198  26.778  26.023  1.00  0.00    -0.248 NA
ATOM     40  C   UNL A   1      47.862  24.841  24.899  1.00  0.00     0.031 C 
ATOM     41  C   UNL A   1      43.030  25.153  26.195  1.00  0.00     0.029 A 
ATOM     42  N   UNL A   1      44.314  26.934  26.619  1.00  0.00    -0.354 N 
ATOM     43  C   UNL A   1      48.545  26.873  25.703  1.00  0.00     0.074 A 
ATOM     44  C   UNL A   1      48.910  25.642  25.032  1.00  0.00     0.031 C 
ATOM     45  C   UNL A   1      42.240  26.102  26.722  1.00  0.00     0.029 A 
ATOM     46  C   UNL A   1      43.060  27.257  27.076  1.00  0.00     0.049 A 
ATOM     47  H   UNL A   1      45.076  27.557  26.648  1.00  0.00     0.167 HD
ATOM     48  C   UNL A   1      49.394  27.897  25.952  1.00  0.00     0.037 A 
ATOM     49  C   UNL A   1      42.630  28.341  27.750  1.00  0.00     0.037 A 
ATOM     50  C   UNL A   1      49.014  29.122  26.607  1.00  0.00     0.049 A 
ATOM     51  C   UNL A   1      43.615  29.422  28.097  1.00  0.00     0.074 A 
ATOM     52  C   UNL A   1      49.792  30.235  26.875  1.00  0.00     0.029 A 
ATOM     53  N   UNL A   1      47.746  29.391  27.103  1.00  0.00    -0.354 N 
ATOM     54  N   UNL A   1      44.889  29.506  27.800  1.00  0.00    -0.248 NA
ATOM     55  C   UNL A   1      43.108  30.551  28.890  1.00  0.00     0.031 C 
ATOM     56  C   UNL A   1      49.006  31.158  27.575  1.00  0.00     0.029 A 
ATOM     57  C   UNL A   1      47.729  30.638  27.706  1.00  0.00     0.049 A 
ATOM     58  H   UNL A   1      46.974  28.785  27.034  1.00  0.00     0.167 HD
ATOM     59  C   UNL A   1      45.334  30.694  28.359  1.00  0.00     0.074 A 
ATOM     60  C   UNL A   1      44.190  31.310  28.999  1.00  0.00     0.031 C 
ATOM     61  C   UNL A   1      46.581  31.227  28.347  1.00  0.00     0.037 A 
BRANCH  48  62
ATOM     62  C   UNL A   1      50.827  27.726  25.545  1.00  0.00     0.064 A 
ATOM     63  C   UNL A   1      51.257  27.978  24.234  1.00  0.00     0.173 A 
ATOM     64  C   UNL A   1      51.789  27.345  26.492  1.00  0.00     0.173 A 
ATOM     65  F   UNL A   1      50.373  28.334  23.290  1.00  0.00    -0.203 F 
ATOM     66  C   UNL A   1      52.597  27.833  23.882  1.00  0.00     0.198 A 
ATOM     67  C   UNL A   1      53.131  27.223  26.141  1.00  0.00     0.198 A 
ATOM     68  F   UNL A   1      51.428  27.097  27.760  1.00  0.00    -0.203 F 
ATOM     69  F   UNL A   1      52.982  28.043  22.615  1.00  0.00    -0.200 F 
ATOM     70  C   UNL A   1      53.533  27.461  24.836  1.00  0.00     0.200 A 
ATOM     71  F   UNL A   1      54.035  26.876  27.068  1.00  0.00    -0.200 F 
ATOM     72  F   UNL A   1      54.823  27.330  24.497  1.00  0.00    -0.200 F 
ENDBRANCH  48  62
BRANCH  49  73
ATOM     73  C   UNL A   1      41.213  28.426  28.184  1.00  0.00     0.064 A 
ATOM     74  C   UNL A   1      40.231  28.957  27.338  1.00  0.00     0.173 A 
ATOM     75  C   UNL A   1      40.810  27.971  29.450  1.00  0.00     0.173 A 
ATOM     76  F   UNL A   1      40.572  29.429  26.130  1.00  0.00    -0.203 F 
ATOM     77  C   UNL A   1      38.900  29.035  27.743  1.00  0.00     0.198 A 
ATOM     78  C   UNL A   1      39.476  28.025  29.843  1.00  0.00     0.198 A 
ATOM     79  F   UNL A   1      41.714  27.459  30.297  1.00  0.00    -0.203 F 
ATOM     80  F   UNL A   1      37.985  29.580  26.930  1.00  0.00    -0.200 F 
ATOM     81  C   UNL A   1      38.522  28.562  28.992  1.00  0.00     0.200 A 
ATOM     82  F   UNL A   1      39.114  27.556  31.045  1.00  0.00    -0.200 F 
ATOM     83  F   UNL A   1      37.241  28.630  29.377  1.00  0.00    -0.200 F 
ENDBRANCH  49  73
BRANCH  61  84
ATOM     84  C   UNL A   1      46.770  32.542  29.042  1.00  0.00     0.064 A 
ATOM     85  C   UNL A   1      47.125  32.604  30.397  1.00  0.00     0.173 A 
ATOM     86  C   UNL A   1      46.645  33.747  28.336  1.00  0.00     0.173 A 
ATOM     87  F   UNL A   1      47.237  31.477  31.118  1.00  0.00    -0.203 F 
ATOM     88  C   UNL A   1      47.335  33.828  31.024  1.00  0.00     0.198 A 
ATOM     89  C   UNL A   1      46.880  34.968  28.960  1.00  0.00     0.198 A 
ATOM     90  F   UNL A   1      46.311  33.738  27.037  1.00  0.00    -0.203 F 
ATOM     91  F   UNL A   1      47.639  33.868  32.329  1.00  0.00    -0.200 F 
ATOM     92  C   UNL A   1      47.220  35.009  30.304  1.00  0.00     0.200 A 
ATOM     93  F   UNL A   1      46.779  36.107  28.261  1.00  0.00    -0.200 F 
ATOM     94  F   UNL A   1      47.433  36.186  30.906  1.00  0.00    -0.200 F 
ENDBRANCH  61  84
ENDBRANCH  35  36
ENDBRANCH  28  30
ENDBRANCH  27  28
ENDBRANCH  26  27
ENDBRANCH   1  26
TORSDOF 17
ENDMDL
MODEL 3
REMARK VINA RESULT:     -11.3      7.339     12.889
REMARK SMILES CCOc1cc(OCC)cc(-c2ccc([C@@H](C)C(=O)OCCOC(=O)c3ccc(-c4c5nc(c(-c6c(F)c(F)c(F)c(F)c6F)c6ccc([nH]6)c(-c6c(F)c(F)c(F)c(F)c6F)c6nc(c(-c7c(F)c(F)c(F)c(F)c7F)c7ccc4[nH]7)C=C6)C=C5)cc3)cc2F)c1
REMARK SMILES IDX 21 1 20 2 18 3 19 4 16 5 17 6 15 7 12 8 13 9 90 10 14 11
REMARK SMILES IDX 89 12 91 13 11 14 4 15 5 16 92 17 6 18 10 19 3 20 2 21 1 22
REMARK SMILES IDX 7 23 8 24 9 25 22 26 23 27 24 28 25 29 26 30 27 31 88 32
REMARK SMILES IDX 28 33 87 34 29 35 30 36 31 37 81 38 32 39 86 40 80 41 82 42
REMARK SMILES IDX 33 43 85 44 79 45 78 46 34 48 66 49 46 50 65 51 47 52 50 53
REMARK SMILES IDX 64 54 83 55 48 56 49 57 63 59 84 60 51 61 35 62 36 63 44 64
REMARK SMILES IDX 37 65 38 66 42 67 45 68 39 69 40 70 43 71 41 72 67 73 68 74
REMARK SMILES IDX 76 75 69 76 70 77 74 78 77 79 71 80 72 81 75 82 73 83 52 84
REMARK SMILES IDX 53 85 61 86 54 87 55 88 59 89 62 90 56 91 57 92 60 93 58 94
REMARK H PARENT 82 47 50 58
REMARK Flexibility Score: inf
ROOT
ATOM      1  C   UNL A   1      42.729  18.952  26.621  1.00  0.00     0.274 C 
ENDROOT
BRANCH   1   2
ATOM      2  O   UNL A   1      41.880  20.022  26.166  1.00  0.00    -0.462 OA
BRANCH   2   3
ATOM      3  C   UNL A   1      41.065  20.603  27.083  1.00  0.00     0.313 C 
ATOM      4  O   UNL A   1      40.758  20.098  28.158  1.00  0.00    -0.252 OA
BRANCH   3   5
ATOM      5  C   UNL A   1      40.526  21.961  26.642  1.00  0.00     0.126 C 
ATOM      6  C   UNL A   1      40.657  22.974  27.775  1.00  0.00     0.025 C 
BRANCH   5   7
ATOM      7  C   UNL A   1      39.130  21.943  26.039  1.00  0.00    -0.031 A 
ATOM      8  C   UNL A   1      36.494  21.917  24.976  1.00  0.00     0.018 A 
ATOM      9  C   UNL A   1      37.352  20.814  24.827  1.00  0.00     0.012 A 
ATOM     10  C   UNL A   1      36.999  23.044  25.633  1.00  0.00     0.131 A 
ATOM     11  C   UNL A   1      38.643  20.821  25.358  1.00  0.00     0.005 A 
ATOM     12  C   UNL A   1      38.291  23.062  26.160  1.00  0.00     0.044 A 
ATOM     13  F   UNL A   1      36.231  24.130  25.810  1.00  0.00    -0.206 F 
BRANCH   8  14
ATOM     14  C   UNL A   1      35.107  21.834  24.500  1.00  0.00    -0.008 A 
ATOM     15  C   UNL A   1      32.897  20.836  24.504  1.00  0.00     0.123 A 
ATOM     16  C   UNL A   1      32.450  21.792  23.590  1.00  0.00     0.092 A 
ATOM     17  C   UNL A   1      34.222  20.842  24.938  1.00  0.00     0.055 A 
ATOM     18  C   UNL A   1      33.322  22.770  23.114  1.00  0.00     0.123 A 
ATOM     19  C   UNL A   1      34.637  22.782  23.574  1.00  0.00     0.055 A 
BRANCH  15  20
ATOM     20  O   UNL A   1      32.036  19.833  24.857  1.00  0.00    -0.494 OA
BRANCH  20  21
ATOM     21  C   UNL A   1      32.681  18.714  25.477  1.00  0.00     0.226 C 
ATOM     22  C   UNL A   1      32.546  17.453  24.638  1.00  0.00     0.049 C 
ENDBRANCH  20  21
ENDBRANCH  15  20
BRANCH  18  23
ATOM     23  O   UNL A   1      32.792  23.674  22.233  1.00  0.00    -0.494 OA
BRANCH  23  24
ATOM     24  C   UNL A   1      32.597  25.014  22.695  1.00  0.00     0.226 C 
ATOM     25  C   UNL A   1      33.085  26.032  21.675  1.00  0.00     0.049 C 
ENDBRANCH  23  24
ENDBRANCH  18  23
ENDBRANCH   8  14
ENDBRANCH   5   7
ENDBRANCH   3   5
ENDBRANCH   2   3
ENDBRANCH   1   2
BRANCH   1  26
ATOM     26  C   UNL A   1      43.402  18.261  25.436  1.00  0.00     0.275 C 
BRANCH  26  27
ATOM     27  O   UNL A   1      43.619  19.198  24.365  1.00  0.00    -0.458 OA
BRANCH  27  28
ATOM     28  C   UNL A   1      44.905  19.565  24.158  1.00  0.00     0.338 C 
ATOM     29  O   UNL A   1      45.806  18.912  23.668  1.00  0.00    -0.246 OA
BRANCH  28  30
ATOM     30  C   UNL A   1      45.048  20.973  24.552  1.00  0.00     0.060 A 
ATOM     31  C   UNL A   1      45.488  21.266  25.844  1.00  0.00     0.016 A 
ATOM     32  C   UNL A   1      44.714  21.994  23.666  1.00  0.00     0.016 A 
ATOM     33  C   UNL A   1      45.604  22.588  26.261  1.00  0.00     0.010 A 
ATOM     34  C   UNL A   1      44.853  23.322  24.075  1.00  0.00     0.010 A 
ATOM     35  C   UNL A   1      45.302  23.626  25.373  1.00  0.00    -0.014 A 
BRANCH  35  36
ATOM     36  C   UNL A   1      45.474  25.037  25.790  1.00  0.00     0.031 A 
ATOM     37  C   UNL A   1      46.823  25.683  25.712  1.00  0.00     0.074 A 
ATOM     38  C   UNL A   1      44.416  25.721  26.260  1.00  0.00     0.049 A 
ATOM     39  N   UNL A   1      47.212  26.843  26.176  1.00  0.00    -0.248 NA
ATOM     40  C   UNL A   1      47.876  24.925  25.020  1.00  0.00     0.031 C 
ATOM     41  C   UNL A   1      43.046  25.211  26.332  1.00  0.00     0.029 A 
ATOM     42  N   UNL A   1      44.329  26.987  26.781  1.00  0.00    -0.354 N 
ATOM     43  C   UNL A   1      48.558  26.945  25.855  1.00  0.00     0.074 A 
ATOM     44  C   UNL A   1      48.923  25.725  25.164  1.00  0.00     0.031 C 
ATOM     45  C   UNL A   1      42.257  26.150  26.876  1.00  0.00     0.029 A 
ATOM     46  C   UNL A   1      43.076  27.300  27.246  1.00  0.00     0.049 A 
ATOM     47  H   UNL A   1      45.091  27.609  26.818  1.00  0.00     0.167 HD
ATOM     48  C   UNL A   1      49.407  27.966  26.119  1.00  0.00     0.037 A 
ATOM     49  C   UNL A   1      42.647  28.373  27.938  1.00  0.00     0.037 A 
ATOM     50  C   UNL A   1      49.028  29.180  26.794  1.00  0.00     0.049 A 
ATOM     51  C   UNL A   1      43.631  29.450  28.300  1.00  0.00     0.074 A 
ATOM     52  C   UNL A   1      49.805  30.289  27.078  1.00  0.00     0.029 A 
ATOM     53  N   UNL A   1      47.760  29.439  27.296  1.00  0.00    -0.354 N 
ATOM     54  N   UNL A   1      44.904  29.540  28.001  1.00  0.00    -0.248 NA
ATOM     55  C   UNL A   1      43.125  30.565  29.112  1.00  0.00     0.031 C 
ATOM     56  C   UNL A   1      49.019  31.200  27.794  1.00  0.00     0.029 A 
ATOM     57  C   UNL A   1      47.743  30.677  27.920  1.00  0.00     0.049 A 
ATOM     58  H   UNL A   1      46.988  28.834  27.220  1.00  0.00     0.167 HD
ATOM     59  C   UNL A   1      45.350  30.720  28.578  1.00  0.00     0.074 A 
ATOM     60  C   UNL A   1      44.206  31.324  29.231  1.00  0.00     0.031 C 
ATOM     61  C   UNL A   1      46.596  31.253  28.572  1.00  0.00     0.037 A 
BRANCH  48  62
ATOM     62  C   UNL A   1      50.839  27.803  25.706  1.00  0.00     0.064 A 
ATOM     63  C   UNL A   1      51.266  28.073  24.398  1.00  0.00     0.173 A 
ATOM     64  C   UNL A   1      51.804  27.410  26.645  1.00  0.00     0.173 A 
ATOM     65  F   UNL A   1      50.379  28.442  23.461  1.00  0.00    -0.203 F 
ATOM     66  C   UNL A   1      52.606  27.936  24.040  1.00  0.00     0.198 A 
ATOM     67  C   UNL A   1      53.145  27.295  26.290  1.00  0.00     0.198 A 
ATOM     68  F   UNL A   1      51.447  27.143  27.910  1.00  0.00    -0.203 F 
ATOM     69  F   UNL A   1      52.987  28.164  22.776  1.00  0.00    -0.200 F 
ATOM     70  C   UNL A   1      53.544  27.552  24.987  1.00  0.00     0.200 A 
ATOM     71  F   UNL A   1      54.052  26.936  27.209  1.00  0.00    -0.200 F 
ATOM     72  F   UNL A   1      54.833  27.428  24.643  1.00  0.00    -0.200 F 
ENDBRANCH  48  62
BRANCH  49  73
ATOM     73  C   UNL A   1      41.230  28.450  28.376  1.00  0.00     0.064 A 
ATOM     74  C   UNL A   1      40.844  28.014  29.650  1.00  0.00     0.173 A 
ATOM     75  C   UNL A   1      40.234  28.966  27.531  1.00  0.00     0.173 A 
ATOM     76  F   UNL A   1      41.755  27.489  30.481  1.00  0.00    -0.203 F 
ATOM     77  C   UNL A   1      39.515  28.087  30.062  1.00  0.00     0.198 A 
ATOM     78  C   UNL A   1      38.911  29.064  27.954  1.00  0.00     0.198 A 
ATOM     79  F   UNL A   1      40.553  29.391  26.300  1.00  0.00    -0.203 F 
ATOM     80  F   UNL A   1      39.165  27.632  31.272  1.00  0.00    -0.200 F 
ATOM     81  C   UNL A   1      38.551  28.619  29.217  1.00  0.00     0.200 A 
ATOM     82  F   UNL A   1      37.986  29.588  27.138  1.00  0.00    -0.200 F 
ATOM     83  F   UNL A   1      37.275  28.697  29.617  1.00  0.00    -0.200 F 
ENDBRANCH  49  73
BRANCH  61  84
ATOM     84  C   UNL A   1      46.785  32.558  29.288  1.00  0.00     0.064 A 
ATOM     85  C   UNL A   1      47.196  32.599  30.627  1.00  0.00     0.173 A 
ATOM     86  C   UNL A   1      46.602  33.774  28.615  1.00  0.00     0.173 A 
ATOM     87  F   UNL A   1      47.365  31.461  31.318  1.00  0.00    -0.203 F 
ATOM     88  C   UNL A   1      47.405  33.815  31.272  1.00  0.00     0.198 A 
ATOM     89  C   UNL A   1      46.836  34.987  29.255  1.00  0.00     0.198 A 
ATOM     90  F   UNL A   1      46.212  33.785  27.331  1.00  0.00    -0.203 F 
ATOM     91  F   UNL A   1      47.765  33.834  32.563  1.00  0.00    -0.200 F 
ATOM     92  C   UNL A   1      47.233  35.007  30.584  1.00  0.00     0.200 A 
ATOM     93  F   UNL A   1      46.679  36.138  28.586  1.00  0.00    -0.200 F 
ATOM     94  F   UNL A   1      47.445  36.176  31.203  1.00  0.00    -0.200 F 
ENDBRANCH  61  84
ENDBRANCH  35  36
ENDBRANCH  28  30
ENDBRANCH  27  28
ENDBRANCH  26  27
ENDBRANCH   1  26
TORSDOF 17
ENDMDL
