MODEL 1
REMARK VINA RESULT:     -10.8      0.000      0.000
REMARK SMILES O=C(CC1(NC(=O)C2(c3ccccc3)CC2)CCC1)OCCOC(=O)c1ccc(-c2c3nc(c(-c4c(F)c(F)c(F)c(F)c4F)c4ccc([nH]4)c(-c4c(F)c(F)c(F)c(F)c4F)c4nc(c(-c5c(F)c(F)c(F)c(F)c5F)c5ccc2[nH]5)C=C4)C=C3)cc1
REMARK SMILES IDX 21 1 20 2 2 3 1 4 3 5 4 6 17 7 19 8 18 9 5 10 6 11 7 13 8 14
REMARK SMILES IDX 15 15 16 16 9 17 10 18 14 19 11 20 13 21 12 22 22 23 23 24
REMARK SMILES IDX 24 25 25 26 26 27 27 28 88 29 28 30 87 31 29 32 30 33 31 34
REMARK SMILES IDX 81 35 32 36 86 37 80 38 82 39 33 40 85 41 79 42 78 43 34 45
REMARK SMILES IDX 66 46 46 47 65 48 47 49 50 50 64 51 83 52 48 53 49 54 63 56
REMARK SMILES IDX 84 57 51 58 35 59 36 60 44 61 37 62 38 63 42 64 45 65 39 66
REMARK SMILES IDX 40 67 43 68 41 69 67 70 68 71 76 72 69 73 70 74 74 75 77 76
REMARK SMILES IDX 71 77 72 78 75 79 73 80 52 81 53 82 61 83 54 84 55 85 59 86
REMARK SMILES IDX 62 87 56 88 57 89 60 90 58 91
REMARK H PARENT 5 12 82 44 50 55
REMARK Flexibility Score: inf
ROOT
ATOM      1  C   UNL A   1      40.784  20.184  26.583  1.00  0.00     0.274 C 
ENDROOT
BRANCH   1   2
ATOM      2  O   UNL A   1      41.400  19.548  25.458  1.00  0.00    -0.462 OA
BRANCH   2   3
ATOM      3  C   UNL A   1      42.594  18.970  25.720  1.00  0.00     0.308 C 
ATOM      4  O   UNL A   1      42.778  17.761  25.784  1.00  0.00    -0.252 OA
BRANCH   3   5
ATOM      5  C   UNL A   1      43.654  19.986  25.934  1.00  0.00     0.151 C 
BRANCH   5   6
ATOM      6  C   UNL A   1      44.576  20.301  24.757  1.00  0.00     0.051 C 
ATOM      7  C   UNL A   1      46.037  20.238  25.377  1.00  0.00     0.029 C 
ATOM      8  C   UNL A   1      45.112  19.204  23.772  1.00  0.00     0.029 C 
ATOM      9  C   UNL A   1      46.137  18.794  24.852  1.00  0.00     0.005 C 
BRANCH   6  10
ATOM     10  N   UNL A   1      44.344  21.678  24.162  1.00  0.00    -0.349 N 
ATOM     11  C   UNL A   1      43.792  22.819  24.735  1.00  0.00     0.231 C 
ATOM     12  H   UNL A   1      44.629  21.779  23.226  1.00  0.00     0.164 HD
ATOM     13  O   UNL A   1      42.741  23.244  24.255  1.00  0.00    -0.274 OA
BRANCH  11  14
ATOM     14  C   UNL A   1      44.560  23.694  25.723  1.00  0.00     0.074 C 
ATOM     15  C   UNL A   1      46.035  23.960  25.394  1.00  0.00     0.023 C 
ATOM     16  C   UNL A   1      45.047  25.061  25.208  1.00  0.00     0.023 C 
BRANCH  14  17
ATOM     17  C   UNL A   1      44.058  23.724  27.152  1.00  0.00    -0.032 A 
ATOM     18  C   UNL A   1      44.933  23.879  28.223  1.00  0.00     0.005 A 
ATOM     19  C   UNL A   1      42.709  23.481  27.452  1.00  0.00     0.005 A 
ATOM     20  C   UNL A   1      44.573  23.408  29.473  1.00  0.00     0.000 A 
ATOM     21  C   UNL A   1      42.319  23.111  28.735  1.00  0.00     0.000 A 
ATOM     22  C   UNL A   1      43.290  22.952  29.702  1.00  0.00     0.000 A 
ENDBRANCH  14  17
ENDBRANCH  11  14
ENDBRANCH   6  10
ENDBRANCH   5   6
ENDBRANCH   3   5
ENDBRANCH   2   3
ENDBRANCH   1   2
BRANCH   1  23
ATOM     23  C   UNL A   1      39.450  20.766  26.126  1.00  0.00     0.275 C 
BRANCH  23  24
ATOM     24  O   UNL A   1      39.656  22.156  25.813  1.00  0.00    -0.458 OA
BRANCH  24  25
ATOM     25  C   UNL A   1      38.592  22.965  26.072  1.00  0.00     0.338 C 
ATOM     26  O   UNL A   1      37.426  22.658  26.038  1.00  0.00    -0.246 OA
BRANCH  25  27
ATOM     27  C   UNL A   1      39.110  24.242  26.636  1.00  0.00     0.060 A 
ATOM     28  C   UNL A   1      38.908  24.477  28.002  1.00  0.00     0.016 A 
ATOM     29  C   UNL A   1      39.889  25.131  25.882  1.00  0.00     0.016 A 
ATOM     30  C   UNL A   1      39.516  25.575  28.624  1.00  0.00     0.010 A 
ATOM     31  C   UNL A   1      40.484  26.239  26.501  1.00  0.00     0.010 A 
ATOM     32  C   UNL A   1      40.297  26.475  27.875  1.00  0.00    -0.014 A 
BRANCH  32  33
ATOM     33  C   UNL A   1      40.601  27.816  28.444  1.00  0.00     0.031 A 
ATOM     34  C   UNL A   1      42.041  28.080  28.742  1.00  0.00     0.074 A 
ATOM     35  C   UNL A   1      39.689  28.775  28.699  1.00  0.00     0.049 A 
ATOM     36  N   UNL A   1      42.617  29.175  29.154  1.00  0.00    -0.248 NA
ATOM     37  C   UNL A   1      42.958  26.944  28.538  1.00  0.00     0.031 C 
ATOM     38  C   UNL A   1      38.266  28.646  28.465  1.00  0.00     0.029 A 
ATOM     39  N   UNL A   1      39.813  30.046  29.210  1.00  0.00    -0.354 N 
ATOM     40  C   UNL A   1      43.965  28.871  29.217  1.00  0.00     0.074 A 
ATOM     41  C   UNL A   1      44.121  27.482  28.849  1.00  0.00     0.031 C 
ATOM     42  C   UNL A   1      37.631  29.779  28.808  1.00  0.00     0.029 A 
ATOM     43  C   UNL A   1      38.616  30.723  29.320  1.00  0.00     0.049 A 
ATOM     44  H   UNL A   1      40.677  30.436  29.475  1.00  0.00     0.167 HD
ATOM     45  C   UNL A   1      44.992  29.680  29.551  1.00  0.00     0.037 A 
ATOM     46  C   UNL A   1      38.354  31.961  29.786  1.00  0.00     0.037 A 
ATOM     47  C   UNL A   1      44.835  31.023  30.017  1.00  0.00     0.049 A 
ATOM     48  C   UNL A   1      39.507  32.803  30.267  1.00  0.00     0.074 A 
ATOM     49  C   UNL A   1      45.805  31.905  30.449  1.00  0.00     0.029 A 
ATOM     50  N   UNL A   1      43.610  31.665  30.146  1.00  0.00    -0.354 N 
ATOM     51  N   UNL A   1      40.789  32.531  30.253  1.00  0.00    -0.248 NA
ATOM     52  C   UNL A   1      39.179  34.121  30.828  1.00  0.00     0.031 C 
ATOM     53  C   UNL A   1      45.162  33.068  30.887  1.00  0.00     0.029 A 
ATOM     54  C   UNL A   1      43.798  32.927  30.679  1.00  0.00     0.049 A 
ATOM     55  H   UNL A   1      42.740  31.279  29.896  1.00  0.00     0.167 HD
ATOM     56  C   UNL A   1      41.423  33.655  30.759  1.00  0.00     0.074 A 
ATOM     57  C   UNL A   1      40.385  34.617  31.070  1.00  0.00     0.031 C 
ATOM     58  C   UNL A   1      42.747  33.874  30.949  1.00  0.00     0.037 A 
BRANCH  45  59
ATOM     59  C   UNL A   1      46.347  29.058  29.469  1.00  0.00     0.064 A 
ATOM     60  C   UNL A   1      47.094  29.108  28.281  1.00  0.00     0.173 A 
ATOM     61  C   UNL A   1      46.835  28.289  30.532  1.00  0.00     0.173 A 
ATOM     62  F   UNL A   1      46.632  29.789  27.220  1.00  0.00    -0.203 F 
ATOM     63  C   UNL A   1      48.268  28.375  28.149  1.00  0.00     0.198 A 
ATOM     64  C   UNL A   1      48.021  27.576  30.403  1.00  0.00     0.198 A 
ATOM     65  F   UNL A   1      46.135  28.187  31.671  1.00  0.00    -0.203 F 
ATOM     66  F   UNL A   1      48.924  28.366  26.981  1.00  0.00    -0.200 F 
ATOM     67  C   UNL A   1      48.729  27.609  29.210  1.00  0.00     0.200 A 
ATOM     68  F   UNL A   1      48.461  26.823  31.422  1.00  0.00    -0.200 F 
ATOM     69  F   UNL A   1      49.844  26.877  29.072  1.00  0.00    -0.200 F 
ENDBRANCH  45  59
BRANCH  46  70
ATOM     70  C   UNL A   1      36.966  32.504  29.822  1.00  0.00     0.064 A 
ATOM     71  C   UNL A   1      36.459  33.257  28.751  1.00  0.00     0.173 A 
ATOM     72  C   UNL A   1      36.149  32.358  30.953  1.00  0.00     0.173 A 
ATOM     73  F   UNL A   1      37.210  33.454  27.658  1.00  0.00    -0.203 F 
ATOM     74  C   UNL A   1      35.207  33.867  28.823  1.00  0.00     0.198 A 
ATOM     75  C   UNL A   1      34.886  32.950  31.015  1.00  0.00     0.198 A 
ATOM     76  F   UNL A   1      36.584  31.659  32.011  1.00  0.00    -0.203 F 
ATOM     77  F   UNL A   1      34.777  34.633  27.811  1.00  0.00    -0.200 F 
ATOM     78  C   UNL A   1      34.421  33.714  29.955  1.00  0.00     0.200 A 
ATOM     79  F   UNL A   1      34.130  32.800  32.110  1.00  0.00    -0.200 F 
ATOM     80  F   UNL A   1      33.227  34.318  30.032  1.00  0.00    -0.200 F 
ENDBRANCH  46  70
BRANCH  58  81
ATOM     81  C   UNL A   1      43.155  35.220  31.460  1.00  0.00     0.064 A 
ATOM     82  C   UNL A   1      43.520  36.259  30.593  1.00  0.00     0.173 A 
ATOM     83  C   UNL A   1      43.111  35.489  32.836  1.00  0.00     0.173 A 
ATOM     84  F   UNL A   1      43.592  36.044  29.272  1.00  0.00    -0.203 F 
ATOM     85  C   UNL A   1      43.842  37.518  31.089  1.00  0.00     0.198 A 
ATOM     86  C   UNL A   1      43.405  36.756  33.325  1.00  0.00     0.198 A 
ATOM     87  F   UNL A   1      42.762  34.525  33.702  1.00  0.00    -0.203 F 
ATOM     88  F   UNL A   1      44.223  38.490  30.249  1.00  0.00    -0.200 F 
ATOM     89  C   UNL A   1      43.774  37.769  32.453  1.00  0.00     0.200 A 
ATOM     90  F   UNL A   1      43.324  36.999  34.641  1.00  0.00    -0.200 F 
ATOM     91  F   UNL A   1      44.068  38.987  32.927  1.00  0.00    -0.200 F 
ENDBRANCH  58  81
ENDBRANCH  32  33
ENDBRANCH  25  27
ENDBRANCH  24  25
ENDBRANCH  23  24
ENDBRANCH   1  23
TORSDOF 15
ENDMDL
MODEL 2
REMARK VINA RESULT:     -10.4      4.034      6.529
REMARK SMILES O=C(CC1(NC(=O)C2(c3ccccc3)CC2)CCC1)OCCOC(=O)c1ccc(-c2c3nc(c(-c4c(F)c(F)c(F)c(F)c4F)c4ccc([nH]4)c(-c4c(F)c(F)c(F)c(F)c4F)c4nc(c(-c5c(F)c(F)c(F)c(F)c5F)c5ccc2[nH]5)C=C4)C=C3)cc1
REMARK SMILES IDX 21 1 20 2 2 3 1 4 3 5 4 6 17 7 19 8 18 9 5 10 6 11 7 13 8 14
REMARK SMILES IDX 15 15 16 16 9 17 10 18 14 19 11 20 13 21 12 22 22 23 23 24
REMARK SMILES IDX 24 25 25 26 26 27 27 28 88 29 28 30 87 31 29 32 30 33 31 34
REMARK SMILES IDX 81 35 32 36 86 37 80 38 82 39 33 40 85 41 79 42 78 43 34 45
REMARK SMILES IDX 66 46 46 47 65 48 47 49 50 50 64 51 83 52 48 53 49 54 63 56
REMARK SMILES IDX 84 57 51 58 35 59 36 60 44 61 37 62 38 63 42 64 45 65 39 66
REMARK SMILES IDX 40 67 43 68 41 69 67 70 68 71 76 72 69 73 70 74 74 75 77 76
REMARK SMILES IDX 71 77 72 78 75 79 73 80 52 81 53 82 61 83 54 84 55 85 59 86
REMARK SMILES IDX 62 87 56 88 57 89 60 90 58 91
REMARK H PARENT 5 12 82 44 50 55
REMARK Flexibility Score: inf
ROOT
ATOM      1  C   UNL A   1      41.641  21.059  26.152  1.00  0.00     0.274 C 
ENDROOT
BRANCH   1   2
ATOM      2  O   UNL A   1      40.561  21.970  25.923  1.00  0.00    -0.462 OA
BRANCH   2   3
ATOM      3  C   UNL A   1      39.335  21.398  25.896  1.00  0.00     0.308 C 
ATOM      4  O   UNL A   1      39.135  20.200  25.747  1.00  0.00    -0.252 OA
BRANCH   3   5
ATOM      5  C   UNL A   1      38.260  22.409  26.056  1.00  0.00     0.151 C 
BRANCH   5   6
ATOM      6  C   UNL A   1      36.900  22.094  25.435  1.00  0.00     0.051 C 
ATOM      7  C   UNL A   1      36.289  23.519  25.091  1.00  0.00     0.029 C 
ATOM      8  C   UNL A   1      36.702  21.809  23.906  1.00  0.00     0.029 C 
ATOM      9  C   UNL A   1      36.802  23.328  23.652  1.00  0.00     0.005 C 
BRANCH   6  10
ATOM     10  N   UNL A   1      35.963  21.363  26.380  1.00  0.00    -0.349 N 
ATOM     11  C   UNL A   1      34.586  21.473  26.538  1.00  0.00     0.231 C 
ATOM     12  H   UNL A   1      36.398  20.710  26.973  1.00  0.00     0.164 HD
ATOM     13  O   UNL A   1      34.168  21.882  27.621  1.00  0.00    -0.274 OA
BRANCH  11  14
ATOM     14  C   UNL A   1      33.596  20.860  25.548  1.00  0.00     0.074 C 
ATOM     15  C   UNL A   1      32.275  21.615  25.350  1.00  0.00     0.023 C 
ATOM     16  C   UNL A   1      33.303  21.666  24.270  1.00  0.00     0.023 C 
BRANCH  14  17
ATOM     17  C   UNL A   1      33.687  19.365  25.319  1.00  0.00    -0.032 A 
ATOM     18  C   UNL A   1      34.750  18.804  24.618  1.00  0.00     0.005 A 
ATOM     19  C   UNL A   1      32.645  18.508  25.705  1.00  0.00     0.005 A 
ATOM     20  C   UNL A   1      34.584  17.584  23.988  1.00  0.00     0.000 A 
ATOM     21  C   UNL A   1      32.528  17.235  25.157  1.00  0.00     0.000 A 
ATOM     22  C   UNL A   1      33.439  16.842  24.197  1.00  0.00     0.000 A 
ENDBRANCH  14  17
ENDBRANCH  11  14
ENDBRANCH   6  10
ENDBRANCH   5   6
ENDBRANCH   3   5
ENDBRANCH   2   3
ENDBRANCH   1   2
BRANCH   1  23
ATOM     23  C   UNL A   1      42.946  21.786  25.846  1.00  0.00     0.275 C 
BRANCH  23  24
ATOM     24  O   UNL A   1      42.646  22.899  24.986  1.00  0.00    -0.458 OA
BRANCH  24  25
ATOM     25  C   UNL A   1      43.466  23.975  25.131  1.00  0.00     0.338 C 
ATOM     26  O   UNL A   1      44.439  24.237  24.467  1.00  0.00    -0.246 OA
BRANCH  25  27
ATOM     27  C   UNL A   1      42.834  24.909  26.103  1.00  0.00     0.060 A 
ATOM     28  C   UNL A   1      43.620  25.956  26.602  1.00  0.00     0.016 A 
ATOM     29  C   UNL A   1      41.471  24.847  26.422  1.00  0.00     0.016 A 
ATOM     30  C   UNL A   1      43.038  26.962  27.384  1.00  0.00     0.010 A 
ATOM     31  C   UNL A   1      40.891  25.844  27.219  1.00  0.00     0.010 A 
ATOM     32  C   UNL A   1      41.670  26.906  27.712  1.00  0.00    -0.014 A 
BRANCH  32  33
ATOM     33  C   UNL A   1      41.163  27.736  28.839  1.00  0.00     0.031 A 
ATOM     34  C   UNL A   1      41.905  27.596  30.128  1.00  0.00     0.074 A 
ATOM     35  C   UNL A   1      40.112  28.577  28.772  1.00  0.00     0.049 A 
ATOM     36  N   UNL A   1      41.756  28.248  31.248  1.00  0.00    -0.248 NA
ATOM     37  C   UNL A   1      42.971  26.578  30.150  1.00  0.00     0.031 C 
ATOM     38  C   UNL A   1      39.305  28.798  27.591  1.00  0.00     0.029 A 
ATOM     39  N   UNL A   1      39.536  29.401  29.709  1.00  0.00    -0.354 N 
ATOM     40  C   UNL A   1      42.735  27.749  32.088  1.00  0.00     0.074 A 
ATOM     41  C   UNL A   1      43.441  26.710  31.374  1.00  0.00     0.031 C 
ATOM     42  C   UNL A   1      38.345  29.703  27.843  1.00  0.00     0.029 A 
ATOM     43  C   UNL A   1      38.454  30.114  29.237  1.00  0.00     0.049 A 
ATOM     44  H   UNL A   1      39.866  29.475  30.634  1.00  0.00     0.167 HD
ATOM     45  C   UNL A   1      43.026  28.125  33.351  1.00  0.00     0.037 A 
ATOM     46  C   UNL A   1      37.646  30.992  29.865  1.00  0.00     0.037 A 
ATOM     47  C   UNL A   1      42.265  29.077  34.099  1.00  0.00     0.049 A 
ATOM     48  C   UNL A   1      37.919  31.305  31.313  1.00  0.00     0.074 A 
ATOM     49  C   UNL A   1      42.432  29.476  35.410  1.00  0.00     0.029 A 
ATOM     50  N   UNL A   1      41.160  29.754  33.603  1.00  0.00    -0.354 N 
ATOM     51  N   UNL A   1      38.894  30.881  32.079  1.00  0.00    -0.248 NA
ATOM     52  C   UNL A   1      36.981  32.216  31.985  1.00  0.00     0.031 C 
ATOM     53  C   UNL A   1      41.396  30.361  35.724  1.00  0.00     0.029 A 
ATOM     54  C   UNL A   1      40.616  30.551  34.593  1.00  0.00     0.049 A 
ATOM     55  H   UNL A   1      40.815  29.678  32.684  1.00  0.00     0.167 HD
ATOM     56  C   UNL A   1      38.716  31.504  33.305  1.00  0.00     0.074 A 
ATOM     57  C   UNL A   1      37.538  32.339  33.182  1.00  0.00     0.031 C 
ATOM     58  C   UNL A   1      39.460  31.396  34.432  1.00  0.00     0.037 A 
BRANCH  45  59
ATOM     59  C   UNL A   1      44.187  27.422  33.974  1.00  0.00     0.064 A 
ATOM     60  C   UNL A   1      45.495  27.904  33.812  1.00  0.00     0.173 A 
ATOM     61  C   UNL A   1      44.004  26.188  34.610  1.00  0.00     0.173 A 
ATOM     62  F   UNL A   1      45.715  29.056  33.159  1.00  0.00    -0.203 F 
ATOM     63  C   UNL A   1      46.586  27.153  34.234  1.00  0.00     0.198 A 
ATOM     64  C   UNL A   1      45.098  25.451  35.051  1.00  0.00     0.198 A 
ATOM     65  F   UNL A   1      42.774  25.675  34.754  1.00  0.00    -0.203 F 
ATOM     66  F   UNL A   1      47.831  27.588  33.996  1.00  0.00    -0.200 F 
ATOM     67  C   UNL A   1      46.386  25.927  34.852  1.00  0.00     0.200 A 
ATOM     68  F   UNL A   1      44.907  24.259  35.634  1.00  0.00    -0.200 F 
ATOM     69  F   UNL A   1      47.439  25.188  35.230  1.00  0.00    -0.200 F 
ENDBRANCH  45  59
BRANCH  46  70
ATOM     70  C   UNL A   1      36.512  31.654  29.158  1.00  0.00     0.064 A 
ATOM     71  C   UNL A   1      36.526  33.037  28.913  1.00  0.00     0.173 A 
ATOM     72  C   UNL A   1      35.360  30.945  28.790  1.00  0.00     0.173 A 
ATOM     73  F   UNL A   1      37.590  33.769  29.273  1.00  0.00    -0.203 F 
ATOM     74  C   UNL A   1      35.423  33.686  28.358  1.00  0.00     0.198 A 
ATOM     75  C   UNL A   1      34.265  31.591  28.214  1.00  0.00     0.198 A 
ATOM     76  F   UNL A   1      35.285  29.624  29.009  1.00  0.00    -0.203 F 
ATOM     77  F   UNL A   1      35.442  35.015  28.196  1.00  0.00    -0.200 F 
ATOM     78  C   UNL A   1      34.293  32.963  28.009  1.00  0.00     0.200 A 
ATOM     79  F   UNL A   1      33.175  30.889  27.877  1.00  0.00    -0.200 F 
ATOM     80  F   UNL A   1      33.225  33.589  27.496  1.00  0.00    -0.200 F 
ENDBRANCH  46  70
BRANCH  58  81
ATOM     81  C   UNL A   1      39.064  32.242  35.600  1.00  0.00     0.064 A 
ATOM     82  C   UNL A   1      38.275  31.738  36.643  1.00  0.00     0.173 A 
ATOM     83  C   UNL A   1      39.543  33.557  35.707  1.00  0.00     0.173 A 
ATOM     84  F   UNL A   1      37.781  30.493  36.576  1.00  0.00    -0.203 F 
ATOM     85  C   UNL A   1      37.966  32.528  37.746  1.00  0.00     0.198 A 
ATOM     86  C   UNL A   1      39.257  34.332  36.824  1.00  0.00     0.198 A 
ATOM     87  F   UNL A   1      40.307  34.079  34.736  1.00  0.00    -0.203 F 
ATOM     88  F   UNL A   1      37.180  32.041  38.717  1.00  0.00    -0.200 F 
ATOM     89  C   UNL A   1      38.465  33.819  37.841  1.00  0.00     0.200 A 
ATOM     90  F   UNL A   1      39.752  35.573  36.921  1.00  0.00    -0.200 F 
ATOM     91  F   UNL A   1      38.180  34.571  38.913  1.00  0.00    -0.200 F 
ENDBRANCH  58  81
ENDBRANCH  32  33
ENDBRANCH  25  27
ENDBRANCH  24  25
ENDBRANCH  23  24
ENDBRANCH   1  23
TORSDOF 15
ENDMDL
MODEL 3
REMARK VINA RESULT:     -10.4      5.098     10.615
REMARK SMILES O=C(CC1(NC(=O)C2(c3ccccc3)CC2)CCC1)OCCOC(=O)c1ccc(-c2c3nc(c(-c4c(F)c(F)c(F)c(F)c4F)c4ccc([nH]4)c(-c4c(F)c(F)c(F)c(F)c4F)c4nc(c(-c5c(F)c(F)c(F)c(F)c5F)c5ccc2[nH]5)C=C4)C=C3)cc1
REMARK SMILES IDX 21 1 20 2 2 3 1 4 3 5 4 6 17 7 19 8 18 9 5 10 6 11 7 13 8 14
REMARK SMILES IDX 15 15 16 16 9 17 10 18 14 19 11 20 13 21 12 22 22 23 23 24
REMARK SMILES IDX 24 25 25 26 26 27 27 28 88 29 28 30 87 31 29 32 30 33 31 34
REMARK SMILES IDX 81 35 32 36 86 37 80 38 82 39 33 40 85 41 79 42 78 43 34 45
REMARK SMILES IDX 66 46 46 47 65 48 47 49 50 50 64 51 83 52 48 53 49 54 63 56
REMARK SMILES IDX 84 57 51 58 35 59 36 60 44 61 37 62 38 63 42 64 45 65 39 66
REMARK SMILES IDX 40 67 43 68 41 69 67 70 68 71 76 72 69 73 70 74 74 75 77 76
REMARK SMILES IDX 71 77 72 78 75 79 73 80 52 81 53 82 61 83 54 84 55 85 59 86
REMARK SMILES IDX 62 87 56 88 57 89 60 90 58 91
REMARK H PARENT 5 12 82 44 50 55
REMARK Flexibility Score: inf
ROOT
ATOM      1  C   UNL A   1      31.343  30.562  25.613  1.00  0.00     0.274 C 
ENDROOT
BRANCH   1   2
ATOM      2  O   UNL A   1      32.555  29.871  25.290  1.00  0.00    -0.462 OA
BRANCH   2   3
ATOM      3  C   UNL A   1      32.467  29.049  24.219  1.00  0.00     0.308 C 
ATOM      4  O   UNL A   1      33.248  29.056  23.277  1.00  0.00    -0.252 OA
BRANCH   3   5
ATOM      5  C   UNL A   1      31.296  28.143  24.324  1.00  0.00     0.151 C 
BRANCH   5   6
ATOM      6  C   UNL A   1      31.572  26.642  24.405  1.00  0.00     0.051 C 
ATOM      7  C   UNL A   1      32.783  26.522  25.425  1.00  0.00     0.029 C 
ATOM      8  C   UNL A   1      30.832  25.689  25.407  1.00  0.00     0.029 C 
ATOM      9  C   UNL A   1      31.751  26.222  26.527  1.00  0.00     0.005 C 
BRANCH   6  10
ATOM     10  N   UNL A   1      31.976  26.033  23.075  1.00  0.00    -0.349 N 
ATOM     11  C   UNL A   1      33.079  25.253  22.745  1.00  0.00     0.231 C 
ATOM     12  H   UNL A   1      31.361  26.219  22.330  1.00  0.00     0.164 HD
ATOM     13  O   UNL A   1      33.884  25.718  21.938  1.00  0.00    -0.274 OA
BRANCH  11  14
ATOM     14  C   UNL A   1      33.180  23.776  23.122  1.00  0.00     0.074 C 
ATOM     15  C   UNL A   1      31.874  22.972  23.085  1.00  0.00     0.023 C 
ATOM     16  C   UNL A   1      32.884  22.753  22.010  1.00  0.00     0.023 C 
BRANCH  14  17
ATOM     17  C   UNL A   1      34.322  23.374  24.032  1.00  0.00    -0.032 A 
ATOM     18  C   UNL A   1      34.131  23.198  25.399  1.00  0.00     0.005 A 
ATOM     19  C   UNL A   1      35.637  23.277  23.548  1.00  0.00     0.005 A 
ATOM     20  C   UNL A   1      35.202  23.339  26.263  1.00  0.00     0.000 A 
ATOM     21  C   UNL A   1      36.721  23.310  24.418  1.00  0.00     0.000 A 
ATOM     22  C   UNL A   1      36.483  23.475  25.767  1.00  0.00     0.000 A 
ENDBRANCH  14  17
ENDBRANCH  11  14
ENDBRANCH   6  10
ENDBRANCH   5   6
ENDBRANCH   3   5
ENDBRANCH   2   3
ENDBRANCH   1   2
BRANCH   1  23
ATOM     23  C   UNL A   1      31.697  31.743  26.511  1.00  0.00     0.275 C 
BRANCH  23  24
ATOM     24  O   UNL A   1      32.868  31.391  27.269  1.00  0.00    -0.458 OA
BRANCH  24  25
ATOM     25  C   UNL A   1      33.656  32.441  27.627  1.00  0.00     0.338 C 
ATOM     26  O   UNL A   1      33.329  33.600  27.693  1.00  0.00    -0.246 OA
BRANCH  25  27
ATOM     27  C   UNL A   1      34.938  31.897  28.155  1.00  0.00     0.060 A 
ATOM     28  C   UNL A   1      35.028  30.511  28.339  1.00  0.00     0.016 A 
ATOM     29  C   UNL A   1      36.070  32.702  28.344  1.00  0.00     0.016 A 
ATOM     30  C   UNL A   1      36.256  29.925  28.670  1.00  0.00     0.010 A 
ATOM     31  C   UNL A   1      37.296  32.117  28.692  1.00  0.00     0.010 A 
ATOM     32  C   UNL A   1      37.398  30.725  28.865  1.00  0.00    -0.014 A 
BRANCH  32  33
ATOM     33  C   UNL A   1      38.568  30.151  29.586  1.00  0.00     0.031 A 
ATOM     34  C   UNL A   1      38.768  30.643  30.983  1.00  0.00     0.074 A 
ATOM     35  C   UNL A   1      39.427  29.248  29.075  1.00  0.00     0.049 A 
ATOM     36  N   UNL A   1      39.636  30.265  31.880  1.00  0.00    -0.248 NA
ATOM     37  C   UNL A   1      37.852  31.708  31.428  1.00  0.00     0.031 C 
ATOM     38  C   UNL A   1      39.352  28.699  27.738  1.00  0.00     0.029 A 
ATOM     39  N   UNL A   1      40.534  28.631  29.610  1.00  0.00    -0.354 N 
ATOM     40  C   UNL A   1      39.342  31.015  33.004  1.00  0.00     0.074 A 
ATOM     41  C   UNL A   1      38.251  31.902  32.669  1.00  0.00     0.031 C 
ATOM     42  C   UNL A   1      40.344  27.815  27.539  1.00  0.00     0.029 A 
ATOM     43  C   UNL A   1      41.156  27.754  28.747  1.00  0.00     0.049 A 
ATOM     44  H   UNL A   1      40.853  28.801  30.526  1.00  0.00     0.167 HD
ATOM     45  C   UNL A   1      39.928  30.970  34.219  1.00  0.00     0.037 A 
ATOM     46  C   UNL A   1      42.258  26.996  28.917  1.00  0.00     0.037 A 
ATOM     47  C   UNL A   1      41.074  30.171  34.526  1.00  0.00     0.049 A 
ATOM     48  C   UNL A   1      42.967  27.054  30.245  1.00  0.00     0.074 A 
ATOM     49  C   UNL A   1      41.789  30.106  35.704  1.00  0.00     0.029 A 
ATOM     50  N   UNL A   1      41.697  29.322  33.621  1.00  0.00    -0.354 N 
ATOM     51  N   UNL A   1      42.636  27.713  31.329  1.00  0.00    -0.248 NA
ATOM     52  C   UNL A   1      44.201  26.266  30.376  1.00  0.00     0.031 C 
ATOM     53  C   UNL A   1      42.877  29.251  35.500  1.00  0.00     0.029 A 
ATOM     54  C   UNL A   1      42.808  28.746  34.209  1.00  0.00     0.049 A 
ATOM     55  H   UNL A   1      41.393  29.154  32.700  1.00  0.00     0.167 HD
ATOM     56  C   UNL A   1      43.590  27.387  32.281  1.00  0.00     0.074 A 
ATOM     57  C   UNL A   1      44.514  26.468  31.649  1.00  0.00     0.031 C 
ATOM     58  C   UNL A   1      43.692  27.809  33.564  1.00  0.00     0.037 A 
BRANCH  45  59
ATOM     59  C   UNL A   1      39.338  31.878  35.246  1.00  0.00     0.064 A 
ATOM     60  C   UNL A   1      39.731  33.224  35.331  1.00  0.00     0.173 A 
ATOM     61  C   UNL A   1      38.490  31.367  36.235  1.00  0.00     0.173 A 
ATOM     62  F   UNL A   1      40.587  33.736  34.433  1.00  0.00    -0.203 F 
ATOM     63  C   UNL A   1      39.321  34.017  36.397  1.00  0.00     0.198 A 
ATOM     64  C   UNL A   1      38.064  32.171  37.287  1.00  0.00     0.198 A 
ATOM     65  F   UNL A   1      38.120  30.078  36.211  1.00  0.00    -0.203 F 
ATOM     66  F   UNL A   1      39.772  35.274  36.508  1.00  0.00    -0.200 F 
ATOM     67  C   UNL A   1      38.490  33.489  37.374  1.00  0.00     0.200 A 
ATOM     68  F   UNL A   1      37.274  31.659  38.241  1.00  0.00    -0.200 F 
ATOM     69  F   UNL A   1      38.120  34.245  38.418  1.00  0.00    -0.200 F 
ENDBRANCH  45  59
BRANCH  46  70
ATOM     70  C   UNL A   1      42.772  26.109  27.834  1.00  0.00     0.064 A 
ATOM     71  C   UNL A   1      43.730  26.572  26.919  1.00  0.00     0.173 A 
ATOM     72  C   UNL A   1      42.260  24.818  27.637  1.00  0.00     0.173 A 
ATOM     73  F   UNL A   1      44.229  27.810  27.042  1.00  0.00    -0.203 F 
ATOM     74  C   UNL A   1      44.131  25.793  25.833  1.00  0.00     0.198 A 
ATOM     75  C   UNL A   1      42.679  24.030  26.563  1.00  0.00     0.198 A 
ATOM     76  F   UNL A   1      41.335  24.326  28.473  1.00  0.00    -0.203 F 
ATOM     77  F   UNL A   1      44.999  26.287  24.940  1.00  0.00    -0.200 F 
ATOM     78  C   UNL A   1      43.605  24.522  25.656  1.00  0.00     0.200 A 
ATOM     79  F   UNL A   1      42.169  22.803  26.395  1.00  0.00    -0.200 F 
ATOM     80  F   UNL A   1      43.975  23.782  24.602  1.00  0.00    -0.200 F 
ENDBRANCH  46  70
BRANCH  58  81
ATOM     81  C   UNL A   1      44.802  27.238  34.389  1.00  0.00     0.064 A 
ATOM     82  C   UNL A   1      44.642  26.058  35.127  1.00  0.00     0.173 A 
ATOM     83  C   UNL A   1      46.065  27.849  34.382  1.00  0.00     0.173 A 
ATOM     84  F   UNL A   1      43.448  25.449  35.177  1.00  0.00    -0.203 F 
ATOM     85  C   UNL A   1      45.706  25.517  35.843  1.00  0.00     0.198 A 
ATOM     86  C   UNL A   1      47.133  27.289  35.073  1.00  0.00     0.198 A 
ATOM     87  F   UNL A   1      46.266  28.978  33.684  1.00  0.00    -0.203 F 
ATOM     88  F   UNL A   1      45.525  24.407  36.572  1.00  0.00    -0.200 F 
ATOM     89  C   UNL A   1      46.952  26.126  35.807  1.00  0.00     0.200 A 
ATOM     90  F   UNL A   1      48.339  27.872  35.025  1.00  0.00    -0.200 F 
ATOM     91  F   UNL A   1      47.979  25.594  36.482  1.00  0.00    -0.200 F 
ENDBRANCH  58  81
ENDBRANCH  32  33
ENDBRANCH  25  27
ENDBRANCH  24  25
ENDBRANCH  23  24
ENDBRANCH   1  23
TORSDOF 15
ENDMDL
