MODEL 1
REMARK VINA RESULT:     -11.1      0.000      0.000
REMARK SMILES CCc1ccc(C(=O)NC[C@@H](CC(C)C)C(=O)OCCOC(=O)c2ccc(-c3c4nc(c(-c5c(F)c(F)c(F)c(F)c5F)c5ccc([nH]5)c(-c5c(F)c(F)c(F)c(F)c5F)c5nc(c(-c6c(F)c(F)c(F)c(F)c6F)c6ccc3[nH]6)C=C5)C=C4)cc2)s1
REMARK SMILES IDX 19 1 18 2 16 3 17 4 11 5 10 6 9 7 7 8 8 9 6 11 3 12 4 13
REMARK SMILES IDX 87 14 5 15 2 16 1 17 12 18 13 19 14 20 15 21 20 22 21 23
REMARK SMILES IDX 22 24 23 25 24 26 25 27 86 28 26 29 85 30 27 31 28 32 29 33
REMARK SMILES IDX 79 34 30 35 84 36 78 37 80 38 31 39 83 40 77 41 76 42 32 44
REMARK SMILES IDX 64 45 44 46 63 47 45 48 48 49 62 50 81 51 46 52 47 53 61 55
REMARK SMILES IDX 82 56 49 57 33 58 34 59 42 60 35 61 36 62 40 63 43 64 37 65
REMARK SMILES IDX 38 66 41 67 39 68 65 69 66 70 74 71 67 72 68 73 72 74 75 75
REMARK SMILES IDX 69 76 70 77 73 78 71 79 50 80 51 81 59 82 52 83 53 84 57 85
REMARK SMILES IDX 60 86 54 87 55 88 58 89 56 90
REMARK H PARENT 9 10 80 43 48 54
REMARK Flexibility Score: inf
ROOT
ATOM      1  C   UNL A   1      31.540  29.263  24.337  1.00  0.00     0.274 C 
ENDROOT
BRANCH   1   2
ATOM      2  O   UNL A   1      31.540  27.830  24.181  1.00  0.00    -0.462 OA
BRANCH   2   3
ATOM      3  C   UNL A   1      30.413  27.273  23.666  1.00  0.00     0.310 C 
ATOM      4  O   UNL A   1      29.661  27.825  22.873  1.00  0.00    -0.252 OA
BRANCH   3   5
ATOM      5  C   UNL A   1      30.140  25.879  24.211  1.00  0.00     0.118 C 
BRANCH   5   6
ATOM      6  C   UNL A   1      30.428  24.766  23.195  1.00  0.00     0.131 C 
BRANCH   6   7
ATOM      7  N   UNL A   1      31.389  25.181  22.181  1.00  0.00    -0.350 N 
ATOM      8  C   UNL A   1      32.718  24.872  21.981  1.00  0.00     0.261 C 
ATOM      9  O   UNL A   1      33.280  25.547  21.113  1.00  0.00    -0.268 OA
ATOM     10  H   UNL A   1      31.019  25.800  21.511  1.00  0.00     0.163 HD
BRANCH   8  11
ATOM     11  C   UNL A   1      33.396  23.825  22.738  1.00  0.00     0.092 A 
ATOM     12  C   UNL A   1      33.814  21.694  23.984  1.00  0.00     0.005 A 
ATOM     13  C   UNL A   1      34.887  22.557  24.031  1.00  0.00     0.016 A 
ATOM     14  S   UNL A   1      32.542  22.359  23.042  1.00  0.00    -0.135 S 
ATOM     15  C   UNL A   1      34.627  23.792  23.362  1.00  0.00     0.026 A 
BRANCH  12  16
ATOM     16  C   UNL A   1      33.615  20.356  24.642  1.00  0.00     0.043 C 
ATOM     17  C   UNL A   1      32.604  19.460  23.940  1.00  0.00     0.010 C 
ENDBRANCH  12  16
ENDBRANCH   8  11
ENDBRANCH   6   7
ENDBRANCH   5   6
BRANCH   5  18
ATOM     18  C   UNL A   1      30.750  25.701  25.613  1.00  0.00     0.020 C 
BRANCH  18  19
ATOM     19  C   UNL A   1      32.025  24.846  25.779  1.00  0.00    -0.017 C 
ATOM     20  C   UNL A   1      33.272  25.649  26.145  1.00  0.00     0.007 C 
ATOM     21  C   UNL A   1      31.778  23.796  26.871  1.00  0.00     0.007 C 
ENDBRANCH  18  19
ENDBRANCH   5  18
ENDBRANCH   3   5
ENDBRANCH   2   3
ENDBRANCH   1   2
BRANCH   1  22
ATOM     22  C   UNL A   1      31.868  29.667  25.774  1.00  0.00     0.275 C 
BRANCH  22  23
ATOM     23  O   UNL A   1      33.131  30.353  25.840  1.00  0.00    -0.458 OA
BRANCH  23  24
ATOM     24  C   UNL A   1      33.261  31.196  26.888  1.00  0.00     0.338 C 
ATOM     25  O   UNL A   1      32.433  31.994  27.301  1.00  0.00    -0.246 OA
BRANCH  24  26
ATOM     26  C   UNL A   1      34.528  30.920  27.574  1.00  0.00     0.060 A 
ATOM     27  C   UNL A   1      34.772  29.621  28.028  1.00  0.00     0.016 A 
ATOM     28  C   UNL A   1      35.444  31.944  27.817  1.00  0.00     0.016 A 
ATOM     29  C   UNL A   1      35.945  29.331  28.717  1.00  0.00     0.010 A 
ATOM     30  C   UNL A   1      36.617  31.655  28.518  1.00  0.00     0.010 A 
ATOM     31  C   UNL A   1      36.870  30.350  28.975  1.00  0.00    -0.014 A 
BRANCH  31  32
ATOM     32  C   UNL A   1      38.080  30.067  29.779  1.00  0.00     0.031 A 
ATOM     33  C   UNL A   1      39.131  29.151  29.228  1.00  0.00     0.074 A 
ATOM     34  C   UNL A   1      38.224  30.622  30.995  1.00  0.00     0.049 A 
ATOM     35  N   UNL A   1      40.193  28.660  29.816  1.00  0.00    -0.248 NA
ATOM     36  C   UNL A   1      38.961  28.727  27.830  1.00  0.00     0.031 C 
ATOM     37  C   UNL A   1      37.290  31.565  31.608  1.00  0.00     0.029 A 
ATOM     38  N   UNL A   1      39.208  30.460  31.937  1.00  0.00    -0.354 N 
ATOM     39  C   UNL A   1      40.805  27.851  28.869  1.00  0.00     0.074 A 
ATOM     40  C   UNL A   1      39.992  27.908  27.671  1.00  0.00     0.031 C 
ATOM     41  C   UNL A   1      37.740  31.890  32.832  1.00  0.00     0.029 A 
ATOM     42  C   UNL A   1      38.967  31.145  33.102  1.00  0.00     0.049 A 
ATOM     43  H   UNL A   1      40.009  29.906  31.793  1.00  0.00     0.167 HD
ATOM     44  C   UNL A   1      41.943  27.129  28.994  1.00  0.00     0.037 A 
ATOM     45  C   UNL A   1      39.645  31.142  34.265  1.00  0.00     0.037 A 
ATOM     46  C   UNL A   1      42.753  27.093  30.182  1.00  0.00     0.049 A 
ATOM     47  C   UNL A   1      40.880  30.292  34.393  1.00  0.00     0.074 A 
ATOM     48  C   UNL A   1      43.928  26.398  30.408  1.00  0.00     0.029 A 
ATOM     49  N   UNL A   1      42.472  27.792  31.348  1.00  0.00    -0.354 N 
ATOM     50  N   UNL A   1      41.444  29.512  33.503  1.00  0.00    -0.248 NA
ATOM     51  C   UNL A   1      41.570  30.316  35.691  1.00  0.00     0.031 C 
ATOM     52  C   UNL A   1      44.340  26.647  31.722  1.00  0.00     0.029 A 
ATOM     53  C   UNL A   1      43.444  27.531  32.301  1.00  0.00     0.049 A 
ATOM     54  H   UNL A   1      41.698  28.385  31.479  1.00  0.00     0.167 HD
ATOM     55  C   UNL A   1      42.561  28.971  34.122  1.00  0.00     0.074 A 
ATOM     56  C   UNL A   1      42.605  29.519  35.461  1.00  0.00     0.031 C 
ATOM     57  C   UNL A   1      43.470  28.094  33.626  1.00  0.00     0.037 A 
BRANCH  44  58
ATOM     58  C   UNL A   1      42.361  26.293  27.823  1.00  0.00     0.064 A 
ATOM     59  C   UNL A   1      43.340  26.728  26.918  1.00  0.00     0.173 A 
ATOM     60  C   UNL A   1      41.795  25.025  27.621  1.00  0.00     0.173 A 
ATOM     61  F   UNL A   1      43.898  27.939  27.058  1.00  0.00    -0.203 F 
ATOM     62  C   UNL A   1      43.722  25.932  25.840  1.00  0.00     0.198 A 
ATOM     63  C   UNL A   1      42.197  24.221  26.557  1.00  0.00     0.198 A 
ATOM     64  F   UNL A   1      40.855  24.563  28.459  1.00  0.00    -0.203 F 
ATOM     65  F   UNL A   1      44.629  26.384  24.962  1.00  0.00    -0.200 F 
ATOM     66  C   UNL A   1      43.155  24.678  25.664  1.00  0.00     0.200 A 
ATOM     67  F   UNL A   1      41.654  23.008  26.393  1.00  0.00    -0.200 F 
ATOM     68  F   UNL A   1      43.526  23.912  24.629  1.00  0.00    -0.200 F 
ENDBRANCH  44  58
BRANCH  45  69
ATOM     69  C   UNL A   1      39.156  31.953  35.409  1.00  0.00     0.064 A 
ATOM     70  C   UNL A   1      39.479  33.313  35.521  1.00  0.00     0.173 A 
ATOM     71  C   UNL A   1      38.362  31.385  36.417  1.00  0.00     0.173 A 
ATOM     72  F   UNL A   1      40.258  33.892  34.597  1.00  0.00    -0.203 F 
ATOM     73  C   UNL A   1      39.036  34.069  36.604  1.00  0.00     0.198 A 
ATOM     74  C   UNL A   1      37.899  32.149  37.486  1.00  0.00     0.198 A 
ATOM     75  F   UNL A   1      38.029  30.087  36.358  1.00  0.00    -0.203 F 
ATOM     76  F   UNL A   1      39.393  35.357  36.708  1.00  0.00    -0.200 F 
ATOM     77  C   UNL A   1      38.242  33.489  37.581  1.00  0.00     0.200 A 
ATOM     78  F   UNL A   1      37.125  31.586  38.423  1.00  0.00    -0.200 F 
ATOM     79  F   UNL A   1      37.814  34.220  38.620  1.00  0.00    -0.200 F 
ENDBRANCH  45  69
BRANCH  57  80
ATOM     80  C   UNL A   1      44.601  27.701  34.527  1.00  0.00     0.064 A 
ATOM     81  C   UNL A   1      45.788  28.447  34.583  1.00  0.00     0.173 A 
ATOM     82  C   UNL A   1      44.482  26.587  35.373  1.00  0.00     0.173 A 
ATOM     83  F   UNL A   1      45.953  29.511  33.782  1.00  0.00    -0.203 F 
ATOM     84  C   UNL A   1      46.823  28.080  35.438  1.00  0.00     0.198 A 
ATOM     85  C   UNL A   1      45.510  26.238  36.243  1.00  0.00     0.198 A 
ATOM     86  F   UNL A   1      43.365  25.845  35.359  1.00  0.00    -0.203 F 
ATOM     87  F   UNL A   1      47.963  28.784  35.447  1.00  0.00    -0.200 F 
ATOM     88  C   UNL A   1      46.680  26.981  36.272  1.00  0.00     0.200 A 
ATOM     89  F   UNL A   1      45.368  25.181  37.055  1.00  0.00    -0.200 F 
ATOM     90  F   UNL A   1      47.676  26.632  37.098  1.00  0.00    -0.200 F 
ENDBRANCH  57  80
ENDBRANCH  31  32
ENDBRANCH  24  26
ENDBRANCH  23  24
ENDBRANCH  22  23
ENDBRANCH   1  22
TORSDOF 17
ENDMDL
MODEL 2
REMARK VINA RESULT:     -11.0      4.636      9.882
REMARK SMILES CCc1ccc(C(=O)NC[C@@H](CC(C)C)C(=O)OCCOC(=O)c2ccc(-c3c4nc(c(-c5c(F)c(F)c(F)c(F)c5F)c5ccc([nH]5)c(-c5c(F)c(F)c(F)c(F)c5F)c5nc(c(-c6c(F)c(F)c(F)c(F)c6F)c6ccc3[nH]6)C=C5)C=C4)cc2)s1
REMARK SMILES IDX 19 1 18 2 16 3 17 4 11 5 10 6 9 7 7 8 8 9 6 11 3 12 4 13
REMARK SMILES IDX 87 14 5 15 2 16 1 17 12 18 13 19 14 20 15 21 20 22 21 23
REMARK SMILES IDX 22 24 23 25 24 26 25 27 86 28 26 29 85 30 27 31 28 32 29 33
REMARK SMILES IDX 79 34 30 35 84 36 78 37 80 38 31 39 83 40 77 41 76 42 32 44
REMARK SMILES IDX 64 45 44 46 63 47 45 48 48 49 62 50 81 51 46 52 47 53 61 55
REMARK SMILES IDX 82 56 49 57 33 58 34 59 42 60 35 61 36 62 40 63 43 64 37 65
REMARK SMILES IDX 38 66 41 67 39 68 65 69 66 70 74 71 67 72 68 73 72 74 75 75
REMARK SMILES IDX 69 76 70 77 73 78 71 79 50 80 51 81 59 82 52 83 53 84 57 85
REMARK SMILES IDX 60 86 54 87 55 88 58 89 56 90
REMARK H PARENT 9 10 80 43 48 54
REMARK Flexibility Score: inf
ROOT
ATOM      1  C   UNL A   1      36.055  21.470  24.587  1.00  0.00     0.274 C 
ENDROOT
BRANCH   1   2
ATOM      2  O   UNL A   1      35.007  20.512  24.838  1.00  0.00    -0.462 OA
BRANCH   2   3
ATOM      3  C   UNL A   1      33.970  20.930  25.610  1.00  0.00     0.310 C 
ATOM      4  O   UNL A   1      34.088  21.514  26.680  1.00  0.00    -0.252 OA
BRANCH   3   5
ATOM      5  C   UNL A   1      32.613  20.563  25.029  1.00  0.00     0.118 C 
BRANCH   5   6
ATOM      6  C   UNL A   1      31.695  21.774  24.824  1.00  0.00     0.131 C 
BRANCH   6   7
ATOM      7  N   UNL A   1      30.838  22.018  25.979  1.00  0.00    -0.350 N 
ATOM      8  C   UNL A   1      30.555  23.159  26.699  1.00  0.00     0.261 C 
ATOM      9  O   UNL A   1      29.914  22.968  27.737  1.00  0.00    -0.268 OA
ATOM     10  H   UNL A   1      30.373  21.214  26.306  1.00  0.00     0.163 HD
BRANCH   8  11
ATOM     11  C   UNL A   1      30.981  24.482  26.259  1.00  0.00     0.092 A 
ATOM     12  C   UNL A   1      32.424  26.473  25.788  1.00  0.00     0.005 A 
ATOM     13  C   UNL A   1      31.091  26.711  25.535  1.00  0.00     0.016 A 
ATOM     14  S   UNL A   1      32.663  24.857  26.313  1.00  0.00    -0.135 S 
ATOM     15  C   UNL A   1      30.264  25.590  25.852  1.00  0.00     0.026 A 
BRANCH  12  16
ATOM     16  C   UNL A   1      33.609  27.398  25.707  1.00  0.00     0.043 C 
ATOM     17  C   UNL A   1      33.731  28.357  26.884  1.00  0.00     0.010 C 
ENDBRANCH  12  16
ENDBRANCH   8  11
ENDBRANCH   6   7
ENDBRANCH   5   6
BRANCH   5  18
ATOM     18  C   UNL A   1      32.762  19.607  23.831  1.00  0.00     0.020 C 
BRANCH  18  19
ATOM     19  C   UNL A   1      32.532  18.095  24.038  1.00  0.00    -0.017 C 
ATOM     20  C   UNL A   1      33.516  17.204  23.282  1.00  0.00     0.007 C 
ATOM     21  C   UNL A   1      32.634  17.779  25.536  1.00  0.00     0.007 C 
ENDBRANCH  18  19
ENDBRANCH   5  18
ENDBRANCH   3   5
ENDBRANCH   2   3
ENDBRANCH   1   2
BRANCH   1  22
ATOM     22  C   UNL A   1      37.422  20.919  24.990  1.00  0.00     0.275 C 
BRANCH  22  23
ATOM     23  O   UNL A   1      37.957  21.642  26.113  1.00  0.00    -0.458 OA
BRANCH  23  24
ATOM     24  C   UNL A   1      39.261  21.399  26.371  1.00  0.00     0.338 C 
ATOM     25  O   UNL A   1      39.869  20.356  26.184  1.00  0.00    -0.246 OA
BRANCH  24  26
ATOM     26  C   UNL A   1      39.908  22.644  26.799  1.00  0.00     0.060 A 
ATOM     27  C   UNL A   1      39.527  23.840  26.182  1.00  0.00     0.016 A 
ATOM     28  C   UNL A   1      40.919  22.629  27.759  1.00  0.00     0.016 A 
ATOM     29  C   UNL A   1      40.147  25.034  26.533  1.00  0.00     0.010 A 
ATOM     30  C   UNL A   1      41.548  23.827  28.105  1.00  0.00     0.010 A 
ATOM     31  C   UNL A   1      41.168  25.033  27.490  1.00  0.00    -0.014 A 
BRANCH  31  32
ATOM     32  C   UNL A   1      41.888  26.286  27.809  1.00  0.00     0.031 A 
ATOM     33  C   UNL A   1      41.195  27.350  28.607  1.00  0.00     0.074 A 
ATOM     34  C   UNL A   1      43.148  26.467  27.376  1.00  0.00     0.049 A 
ATOM     35  N   UNL A   1      41.585  28.570  28.876  1.00  0.00    -0.248 NA
ATOM     36  C   UNL A   1      39.885  26.993  29.172  1.00  0.00     0.031 C 
ATOM     37  C   UNL A   1      43.935  25.482  26.636  1.00  0.00     0.029 A 
ATOM     38  N   UNL A   1      43.981  27.551  27.486  1.00  0.00    -0.354 N 
ATOM     39  C   UNL A   1      40.561  29.135  29.621  1.00  0.00     0.074 A 
ATOM     40  C   UNL A   1      39.527  28.129  29.754  1.00  0.00     0.031 C 
ATOM     41  C   UNL A   1      45.136  26.011  26.348  1.00  0.00     0.029 A 
ATOM     42  C   UNL A   1      45.183  27.385  26.843  1.00  0.00     0.049 A 
ATOM     43  H   UNL A   1      43.741  28.370  27.978  1.00  0.00     0.167 HD
ATOM     44  C   UNL A   1      40.495  30.381  30.146  1.00  0.00     0.037 A 
ATOM     45  C   UNL A   1      46.190  28.256  26.650  1.00  0.00     0.037 A 
ATOM     46  C   UNL A   1      41.536  31.367  30.023  1.00  0.00     0.049 A 
ATOM     47  C   UNL A   1      46.070  29.651  27.202  1.00  0.00     0.074 A 
ATOM     48  C   UNL A   1      41.568  32.657  30.524  1.00  0.00     0.029 A 
ATOM     49  N   UNL A   1      42.735  31.166  29.356  1.00  0.00    -0.354 N 
ATOM     50  N   UNL A   1      45.091  30.188  27.888  1.00  0.00    -0.248 NA
ATOM     51  C   UNL A   1      47.194  30.564  26.946  1.00  0.00     0.031 C 
ATOM     52  C   UNL A   1      42.773  33.250  30.129  1.00  0.00     0.029 A 
ATOM     53  C   UNL A   1      43.508  32.315  29.418  1.00  0.00     0.049 A 
ATOM     54  H   UNL A   1      42.998  30.333  28.904  1.00  0.00     0.167 HD
ATOM     55  C   UNL A   1      45.485  31.489  28.162  1.00  0.00     0.074 A 
ATOM     56  C   UNL A   1      46.801  31.660  27.580  1.00  0.00     0.031 C 
ATOM     57  C   UNL A   1      44.818  32.459  28.836  1.00  0.00     0.037 A 
BRANCH  44  58
ATOM     58  C   UNL A   1      39.240  30.759  30.873  1.00  0.00     0.064 A 
ATOM     59  C   UNL A   1      38.133  31.298  30.202  1.00  0.00     0.173 A 
ATOM     60  C   UNL A   1      39.134  30.551  32.256  1.00  0.00     0.173 A 
ATOM     61  F   UNL A   1      38.190  31.531  28.883  1.00  0.00    -0.203 F 
ATOM     62  C   UNL A   1      36.972  31.635  30.894  1.00  0.00     0.198 A 
ATOM     63  C   UNL A   1      37.964  30.867  32.941  1.00  0.00     0.198 A 
ATOM     64  F   UNL A   1      40.165  30.038  32.944  1.00  0.00    -0.203 F 
ATOM     65  F   UNL A   1      35.940  32.188  30.241  1.00  0.00    -0.200 F 
ATOM     66  C   UNL A   1      36.886  31.414  32.261  1.00  0.00     0.200 A 
ATOM     67  F   UNL A   1      37.879  30.646  34.260  1.00  0.00    -0.200 F 
ATOM     68  F   UNL A   1      35.767  31.736  32.924  1.00  0.00    -0.200 F 
ENDBRANCH  44  58
BRANCH  45  69
ATOM     69  C   UNL A   1      47.390  27.842  25.879  1.00  0.00     0.064 A 
ATOM     70  C   UNL A   1      48.576  27.476  26.530  1.00  0.00     0.173 A 
ATOM     71  C   UNL A   1      47.378  27.810  24.476  1.00  0.00     0.173 A 
ATOM     72  F   UNL A   1      48.644  27.519  27.868  1.00  0.00    -0.203 F 
ATOM     73  C   UNL A   1      49.708  27.106  25.807  1.00  0.00     0.198 A 
ATOM     74  C   UNL A   1      48.502  27.415  23.755  1.00  0.00     0.198 A 
ATOM     75  F   UNL A   1      46.268  28.155  23.806  1.00  0.00    -0.203 F 
ATOM     76  F   UNL A   1      50.842  26.800  26.452  1.00  0.00    -0.200 F 
ATOM     77  C   UNL A   1      49.668  27.069  24.421  1.00  0.00     0.200 A 
ATOM     78  F   UNL A   1      48.456  27.372  22.417  1.00  0.00    -0.200 F 
ATOM     79  F   UNL A   1      50.757  26.709  23.727  1.00  0.00    -0.200 F 
ENDBRANCH  45  69
BRANCH  57  80
ATOM     80  C   UNL A   1      45.513  33.777  29.003  1.00  0.00     0.064 A 
ATOM     81  C   UNL A   1      46.361  34.026  30.091  1.00  0.00     0.173 A 
ATOM     82  C   UNL A   1      45.357  34.789  28.043  1.00  0.00     0.173 A 
ATOM     83  F   UNL A   1      46.528  33.094  31.042  1.00  0.00    -0.203 F 
ATOM     84  C   UNL A   1      47.014  35.248  30.223  1.00  0.00     0.198 A 
ATOM     85  C   UNL A   1      46.030  36.000  28.166  1.00  0.00     0.198 A 
ATOM     86  F   UNL A   1      44.559  34.597  26.982  1.00  0.00    -0.203 F 
ATOM     87  F   UNL A   1      47.790  35.479  31.291  1.00  0.00    -0.200 F 
ATOM     88  C   UNL A   1      46.853  36.231  29.258  1.00  0.00     0.200 A 
ATOM     89  F   UNL A   1      45.881  36.946  27.228  1.00  0.00    -0.200 F 
ATOM     90  F   UNL A   1      47.487  37.405  29.385  1.00  0.00    -0.200 F 
ENDBRANCH  57  80
ENDBRANCH  31  32
ENDBRANCH  24  26
ENDBRANCH  23  24
ENDBRANCH  22  23
ENDBRANCH   1  22
TORSDOF 17
ENDMDL
MODEL 3
REMARK VINA RESULT:     -11.0      0.665      1.529
REMARK SMILES CCc1ccc(C(=O)NC[C@@H](CC(C)C)C(=O)OCCOC(=O)c2ccc(-c3c4nc(c(-c5c(F)c(F)c(F)c(F)c5F)c5ccc([nH]5)c(-c5c(F)c(F)c(F)c(F)c5F)c5nc(c(-c6c(F)c(F)c(F)c(F)c6F)c6ccc3[nH]6)C=C5)C=C4)cc2)s1
REMARK SMILES IDX 19 1 18 2 16 3 17 4 11 5 10 6 9 7 7 8 8 9 6 11 3 12 4 13
REMARK SMILES IDX 87 14 5 15 2 16 1 17 12 18 13 19 14 20 15 21 20 22 21 23
REMARK SMILES IDX 22 24 23 25 24 26 25 27 86 28 26 29 85 30 27 31 28 32 29 33
REMARK SMILES IDX 79 34 30 35 84 36 78 37 80 38 31 39 83 40 77 41 76 42 32 44
REMARK SMILES IDX 64 45 44 46 63 47 45 48 48 49 62 50 81 51 46 52 47 53 61 55
REMARK SMILES IDX 82 56 49 57 33 58 34 59 42 60 35 61 36 62 40 63 43 64 37 65
REMARK SMILES IDX 38 66 41 67 39 68 65 69 66 70 74 71 67 72 68 73 72 74 75 75
REMARK SMILES IDX 69 76 70 77 73 78 71 79 50 80 51 81 59 82 52 83 53 84 57 85
REMARK SMILES IDX 60 86 54 87 55 88 58 89 56 90
REMARK H PARENT 9 10 80 43 48 54
REMARK Flexibility Score: inf
ROOT
ATOM      1  C   UNL A   1      31.408  29.345  24.619  1.00  0.00     0.274 C 
ENDROOT
BRANCH   1   2
ATOM      2  O   UNL A   1      30.999  28.063  25.138  1.00  0.00    -0.462 OA
BRANCH   2   3
ATOM      3  C   UNL A   1      31.840  27.019  24.917  1.00  0.00     0.310 C 
ATOM      4  O   UNL A   1      32.999  27.125  24.534  1.00  0.00    -0.252 OA
BRANCH   3   5
ATOM      5  C   UNL A   1      31.182  25.668  25.155  1.00  0.00     0.118 C 
BRANCH   5   6
ATOM      6  C   UNL A   1      30.685  25.002  23.866  1.00  0.00     0.131 C 
BRANCH   6   7
ATOM      7  N   UNL A   1      31.665  25.086  22.789  1.00  0.00    -0.350 N 
ATOM      8  C   UNL A   1      32.736  24.287  22.446  1.00  0.00     0.261 C 
ATOM      9  O   UNL A   1      33.468  24.755  21.568  1.00  0.00    -0.268 OA
ATOM     10  H   UNL A   1      31.539  25.860  22.195  1.00  0.00     0.163 HD
BRANCH   8  11
ATOM     11  C   UNL A   1      32.973  22.992  23.072  1.00  0.00     0.092 A 
ATOM     12  C   UNL A   1      34.108  21.117  24.282  1.00  0.00     0.005 A 
ATOM     13  C   UNL A   1      32.871  20.761  23.789  1.00  0.00     0.016 A 
ATOM     14  S   UNL A   1      34.449  22.761  23.932  1.00  0.00    -0.135 S 
ATOM     15  C   UNL A   1      32.248  21.817  23.057  1.00  0.00     0.026 A 
BRANCH  12  16
ATOM     16  C   UNL A   1      35.141  20.291  25.001  1.00  0.00     0.043 C 
ATOM     17  C   UNL A   1      36.536  20.901  25.000  1.00  0.00     0.010 C 
ENDBRANCH  12  16
ENDBRANCH   8  11
ENDBRANCH   6   7
ENDBRANCH   5   6
BRANCH   5  18
ATOM     18  C   UNL A   1      32.034  24.794  26.093  1.00  0.00     0.020 C 
BRANCH  18  19
ATOM     19  C   UNL A   1      31.620  23.327  26.342  1.00  0.00    -0.017 C 
ATOM     20  C   UNL A   1      32.522  22.582  27.324  1.00  0.00     0.007 C 
ATOM     21  C   UNL A   1      30.182  23.302  26.877  1.00  0.00     0.007 C 
ENDBRANCH  18  19
ENDBRANCH   5  18
ENDBRANCH   3   5
ENDBRANCH   2   3
ENDBRANCH   1   2
BRANCH   1  22
ATOM     22  C   UNL A   1      31.607  30.363  25.741  1.00  0.00     0.275 C 
BRANCH  22  23
ATOM     23  O   UNL A   1      32.983  30.409  26.156  1.00  0.00    -0.458 OA
BRANCH  23  24
ATOM     24  C   UNL A   1      33.287  31.426  26.992  1.00  0.00     0.338 C 
ATOM     25  O   UNL A   1      32.598  32.402  27.248  1.00  0.00    -0.246 OA
BRANCH  24  26
ATOM     26  C   UNL A   1      34.547  31.125  27.681  1.00  0.00     0.060 A 
ATOM     27  C   UNL A   1      34.789  29.808  28.081  1.00  0.00     0.016 A 
ATOM     28  C   UNL A   1      35.455  32.140  27.979  1.00  0.00     0.016 A 
ATOM     29  C   UNL A   1      35.955  29.493  28.772  1.00  0.00     0.010 A 
ATOM     30  C   UNL A   1      36.621  31.825  28.681  1.00  0.00     0.010 A 
ATOM     31  C   UNL A   1      36.873  30.502  29.084  1.00  0.00    -0.014 A 
BRANCH  31  32
ATOM     32  C   UNL A   1      38.075  30.189  29.890  1.00  0.00     0.031 A 
ATOM     33  C   UNL A   1      39.115  29.266  29.330  1.00  0.00     0.074 A 
ATOM     34  C   UNL A   1      38.220  30.721  31.116  1.00  0.00     0.049 A 
ATOM     35  N   UNL A   1      40.166  28.750  29.915  1.00  0.00    -0.248 NA
ATOM     36  C   UNL A   1      38.947  28.867  27.924  1.00  0.00     0.031 C 
ATOM     37  C   UNL A   1      37.296  31.668  31.739  1.00  0.00     0.029 A 
ATOM     38  N   UNL A   1      39.196  30.529  32.060  1.00  0.00    -0.354 N 
ATOM     39  C   UNL A   1      40.771  27.948  28.959  1.00  0.00     0.074 A 
ATOM     40  C   UNL A   1      39.967  28.036  27.758  1.00  0.00     0.031 C 
ATOM     41  C   UNL A   1      37.744  31.967  32.970  1.00  0.00     0.029 A 
ATOM     42  C   UNL A   1      38.958  31.199  33.235  1.00  0.00     0.049 A 
ATOM     43  H   UNL A   1      39.989  29.966  31.912  1.00  0.00     0.167 HD
ATOM     44  C   UNL A   1      41.898  27.207  29.078  1.00  0.00     0.037 A 
ATOM     45  C   UNL A   1      39.629  31.168  34.402  1.00  0.00     0.037 A 
ATOM     46  C   UNL A   1      42.701  27.140  30.271  1.00  0.00     0.049 A 
ATOM     47  C   UNL A   1      40.852  30.298  34.522  1.00  0.00     0.074 A 
ATOM     48  C   UNL A   1      43.864  26.424  30.491  1.00  0.00     0.029 A 
ATOM     49  N   UNL A   1      42.424  27.824  31.446  1.00  0.00    -0.354 N 
ATOM     50  N   UNL A   1      41.409  29.524  33.623  1.00  0.00    -0.248 NA
ATOM     51  C   UNL A   1      41.534  30.290  35.824  1.00  0.00     0.031 C 
ATOM     52  C   UNL A   1      44.273  26.646  31.811  1.00  0.00     0.029 A 
ATOM     53  C   UNL A   1      43.386  27.533  32.400  1.00  0.00     0.049 A 
ATOM     54  H   UNL A   1      41.658  28.426  31.582  1.00  0.00     0.167 HD
ATOM     55  C   UNL A   1      42.514  28.956  34.239  1.00  0.00     0.074 A 
ATOM     56  C   UNL A   1      42.558  29.482  35.587  1.00  0.00     0.031 C 
ATOM     57  C   UNL A   1      43.413  28.074  33.734  1.00  0.00     0.037 A 
BRANCH  44  58
ATOM     58  C   UNL A   1      42.311  26.383  27.896  1.00  0.00     0.064 A 
ATOM     59  C   UNL A   1      41.753  25.121  27.645  1.00  0.00     0.173 A 
ATOM     60  C   UNL A   1      43.258  26.877  26.986  1.00  0.00     0.173 A 
ATOM     61  F   UNL A   1      40.857  24.599  28.495  1.00  0.00    -0.203 F 
ATOM     62  C   UNL A   1      42.144  24.374  26.537  1.00  0.00     0.198 A 
ATOM     63  C   UNL A   1      43.628  26.138  25.865  1.00  0.00     0.198 A 
ATOM     64  F   UNL A   1      43.821  28.079  27.181  1.00  0.00    -0.203 F 
ATOM     65  F   UNL A   1      41.630  23.152  26.338  1.00  0.00    -0.200 F 
ATOM     66  C   UNL A   1      43.076  24.885  25.645  1.00  0.00     0.200 A 
ATOM     67  F   UNL A   1      44.523  26.636  25.001  1.00  0.00    -0.200 F 
ATOM     68  F   UNL A   1      43.448  24.166  24.577  1.00  0.00    -0.200 F 
ENDBRANCH  44  58
BRANCH  45  69
ATOM     69  C   UNL A   1      39.146  31.967  35.556  1.00  0.00     0.064 A 
ATOM     70  C   UNL A   1      39.527  33.306  35.717  1.00  0.00     0.173 A 
ATOM     71  C   UNL A   1      38.299  31.407  36.525  1.00  0.00     0.173 A 
ATOM     72  F   UNL A   1      40.358  33.876  34.832  1.00  0.00    -0.203 F 
ATOM     73  C   UNL A   1      39.089  34.051  36.810  1.00  0.00     0.198 A 
ATOM     74  C   UNL A   1      37.842  32.161  37.603  1.00  0.00     0.198 A 
ATOM     75  F   UNL A   1      37.909  30.128  36.418  1.00  0.00    -0.203 F 
ATOM     76  F   UNL A   1      39.501  35.318  36.963  1.00  0.00    -0.200 F 
ATOM     77  C   UNL A   1      38.242  33.481  37.747  1.00  0.00     0.200 A 
ATOM     78  F   UNL A   1      37.016  31.608  38.502  1.00  0.00    -0.200 F 
ATOM     79  F   UNL A   1      37.819  34.200  38.797  1.00  0.00    -0.200 F 
ENDBRANCH  45  69
BRANCH  57  80
ATOM     80  C   UNL A   1      44.534  27.650  34.635  1.00  0.00     0.064 A 
ATOM     81  C   UNL A   1      45.733  28.373  34.703  1.00  0.00     0.173 A 
ATOM     82  C   UNL A   1      44.391  26.529  35.466  1.00  0.00     0.173 A 
ATOM     83  F   UNL A   1      45.921  29.443  33.916  1.00  0.00    -0.203 F 
ATOM     84  C   UNL A   1      46.758  27.977  35.559  1.00  0.00     0.198 A 
ATOM     85  C   UNL A   1      45.408  26.150  36.337  1.00  0.00     0.198 A 
ATOM     86  F   UNL A   1      43.260  25.807  35.439  1.00  0.00    -0.203 F 
ATOM     87  F   UNL A   1      47.910  28.661  35.580  1.00  0.00    -0.200 F 
ATOM     88  C   UNL A   1      46.592  26.871  36.379  1.00  0.00     0.200 A 
ATOM     89  F   UNL A   1      45.244  25.086  37.135  1.00  0.00    -0.200 F 
ATOM     90  F   UNL A   1      47.578  26.495  37.205  1.00  0.00    -0.200 F 
ENDBRANCH  57  80
ENDBRANCH  31  32
ENDBRANCH  24  26
ENDBRANCH  23  24
ENDBRANCH  22  23
ENDBRANCH   1  22
TORSDOF 17
ENDMDL
