MODEL 1
REMARK VINA RESULT:     -12.1      0.000      0.000
REMARK SMILES O=C(OCCOC(=O)[C@@H]1CCN(C(=O)c2c(F)cc(Br)cc2F)C1)c1ccc(-c2c3nc(c(-c4c(F)c(F)c(F)c(F)c4F)c4ccc([nH]4)c(-c4c(F)c(F)c(F)c(F)c4F)c4nc(c(-c5c(F)c(F)c(F)c(F)c5F)c5ccc2[nH]5)C=C4)C=C3)cc1
REMARK SMILES IDX 4 1 3 2 2 3 1 4 25 5 26 6 87 7 27 8 86 9 28 10 29 11 30 12
REMARK SMILES IDX 80 13 31 14 85 15 79 16 81 17 32 18 84 19 78 20 77 21 33 23
REMARK SMILES IDX 65 24 45 25 64 26 46 27 49 28 63 29 82 30 47 31 48 32 62 34
REMARK SMILES IDX 83 35 50 36 34 37 35 38 43 39 36 40 37 41 41 42 44 43 38 44
REMARK SMILES IDX 39 45 42 46 40 47 66 48 67 49 75 50 68 51 69 52 73 53 76 54
REMARK SMILES IDX 70 55 71 56 74 57 72 58 51 59 52 60 60 61 53 62 54 63 58 64
REMARK SMILES IDX 61 65 55 66 56 67 59 68 57 69 5 70 6 71 7 72 8 73 9 74 10 75
REMARK SMILES IDX 24 76 11 77 12 78 13 79 14 80 15 81 16 82 22 83 17 84 18 85
REMARK SMILES IDX 21 86 23 87 19 88 20 89
REMARK H PARENT 81 22 49 33
REMARK Flexibility Score: inf
ROOT
ATOM      1  C   UNL A   1      38.978  20.132  25.770  1.00  0.00     0.275 C 
ENDROOT
BRANCH   1   2
ATOM      2  O   UNL A   1      40.040  19.171  25.634  1.00  0.00    -0.458 OA
BRANCH   2   3
ATOM      3  C   UNL A   1      41.363  19.355  25.859  1.00  0.00     0.338 C 
ATOM      4  O   UNL A   1      42.128  18.396  25.800  1.00  0.00    -0.246 OA
BRANCH   3   5
ATOM      5  C   UNL A   1      41.915  20.646  26.364  1.00  0.00     0.060 A 
ATOM      6  C   UNL A   1      42.016  21.016  27.709  1.00  0.00     0.016 A 
ATOM      7  C   UNL A   1      42.294  21.582  25.385  1.00  0.00     0.016 A 
ATOM      8  C   UNL A   1      42.553  22.260  28.074  1.00  0.00     0.010 A 
ATOM      9  C   UNL A   1      42.808  22.831  25.746  1.00  0.00     0.010 A 
ATOM     10  C   UNL A   1      42.949  23.176  27.097  1.00  0.00    -0.014 A 
BRANCH  10  11
ATOM     11  C   UNL A   1      43.417  24.536  27.456  1.00  0.00     0.031 A 
ATOM     12  C   UNL A   1      42.413  25.622  27.699  1.00  0.00     0.074 A 
ATOM     13  C   UNL A   1      44.728  24.830  27.504  1.00  0.00     0.049 A 
ATOM     14  N   UNL A   1      42.621  26.889  27.957  1.00  0.00    -0.248 NA
ATOM     15  C   UNL A   1      40.995  25.231  27.690  1.00  0.00     0.031 C 
ATOM     16  C   UNL A   1      45.822  23.881  27.341  1.00  0.00     0.029 A 
ATOM     17  N   UNL A   1      45.358  26.050  27.614  1.00  0.00    -0.354 N 
ATOM     18  C   UNL A   1      41.374  27.421  28.238  1.00  0.00     0.074 A 
ATOM     19  C   UNL A   1      40.402  26.373  28.014  1.00  0.00     0.031 C 
ATOM     20  C   UNL A   1      46.971  24.562  27.195  1.00  0.00     0.029 A 
ATOM     21  C   UNL A   1      46.683  25.987  27.252  1.00  0.00     0.049 A 
ATOM     22  H   UNL A   1      44.910  26.872  27.918  1.00  0.00     0.167 HD
ATOM     23  C   UNL A   1      41.085  28.656  28.710  1.00  0.00     0.037 A 
ATOM     24  C   UNL A   1      47.536  26.975  26.925  1.00  0.00     0.037 A 
ATOM     25  C   UNL A   1      42.051  29.706  28.885  1.00  0.00     0.049 A 
ATOM     26  C   UNL A   1      47.130  28.402  27.131  1.00  0.00     0.074 A 
ATOM     27  C   UNL A   1      41.898  30.941  29.489  1.00  0.00     0.029 A 
ATOM     28  N   UNL A   1      43.348  29.656  28.402  1.00  0.00    -0.354 N 
ATOM     29  N   UNL A   1      45.990  28.881  27.553  1.00  0.00    -0.248 NA
ATOM     30  C   UNL A   1      48.158  29.423  26.877  1.00  0.00     0.031 C 
ATOM     31  C   UNL A   1      43.089  31.663  29.320  1.00  0.00     0.029 A 
ATOM     32  C   UNL A   1      43.987  30.862  28.635  1.00  0.00     0.049 A 
ATOM     33  H   UNL A   1      43.755  28.878  27.958  1.00  0.00     0.167 HD
ATOM     34  C   UNL A   1      46.181  30.247  27.688  1.00  0.00     0.074 A 
ATOM     35  C   UNL A   1      47.531  30.531  27.248  1.00  0.00     0.031 C 
ATOM     36  C   UNL A   1      45.322  31.163  28.191  1.00  0.00     0.037 A 
BRANCH  23  37
ATOM     37  C   UNL A   1      39.674  28.908  29.126  1.00  0.00     0.064 A 
ATOM     38  C   UNL A   1      38.738  29.399  28.203  1.00  0.00     0.173 A 
ATOM     39  C   UNL A   1      39.241  28.628  30.426  1.00  0.00     0.173 A 
ATOM     40  F   UNL A   1      39.114  29.689  26.947  1.00  0.00    -0.203 F 
ATOM     41  C   UNL A   1      37.416  29.617  28.574  1.00  0.00     0.198 A 
ATOM     42  C   UNL A   1      37.913  28.835  30.792  1.00  0.00     0.198 A 
ATOM     43  F   UNL A   1      40.102  28.158  31.340  1.00  0.00    -0.203 F 
ATOM     44  F   UNL A   1      36.544  30.112  27.685  1.00  0.00    -0.200 F 
ATOM     45  C   UNL A   1      37.003  29.331  29.867  1.00  0.00     0.200 A 
ATOM     46  F   UNL A   1      37.512  28.558  32.040  1.00  0.00    -0.200 F 
ATOM     47  F   UNL A   1      35.729  29.541  30.225  1.00  0.00    -0.200 F 
ENDBRANCH  23  37
BRANCH  24  48
ATOM     48  C   UNL A   1      48.840  26.681  26.290  1.00  0.00     0.064 A 
ATOM     49  C   UNL A   1      49.984  26.413  27.046  1.00  0.00     0.173 A 
ATOM     50  C   UNL A   1      48.977  26.807  24.899  1.00  0.00     0.173 A 
ATOM     51  F   UNL A   1      49.900  26.320  28.381  1.00  0.00    -0.203 F 
ATOM     52  C   UNL A   1      51.232  26.310  26.436  1.00  0.00     0.198 A 
ATOM     53  C   UNL A   1      50.224  26.699  24.291  1.00  0.00     0.198 A 
ATOM     54  F   UNL A   1      47.912  27.104  24.141  1.00  0.00    -0.203 F 
ATOM     55  F   UNL A   1      52.326  26.098  27.180  1.00  0.00    -0.200 F 
ATOM     56  C   UNL A   1      51.352  26.463  25.062  1.00  0.00     0.200 A 
ATOM     57  F   UNL A   1      50.341  26.850  22.964  1.00  0.00    -0.200 F 
ATOM     58  F   UNL A   1      52.558  26.402  24.483  1.00  0.00    -0.200 F 
ENDBRANCH  24  48
BRANCH  36  59
ATOM     59  C   UNL A   1      45.843  32.553  28.367  1.00  0.00     0.064 A 
ATOM     60  C   UNL A   1      46.547  32.939  29.515  1.00  0.00     0.173 A 
ATOM     61  C   UNL A   1      45.621  33.517  27.372  1.00  0.00     0.173 A 
ATOM     62  F   UNL A   1      46.751  32.061  30.509  1.00  0.00    -0.203 F 
ATOM     63  C   UNL A   1      46.998  34.248  29.666  1.00  0.00     0.198 A 
ATOM     64  C   UNL A   1      46.092  34.816  27.515  1.00  0.00     0.198 A 
ATOM     65  F   UNL A   1      44.940  33.196  26.261  1.00  0.00    -0.203 F 
ATOM     66  F   UNL A   1      47.630  34.611  30.792  1.00  0.00    -0.200 F 
ATOM     67  C   UNL A   1      46.777  35.183  28.665  1.00  0.00     0.200 A 
ATOM     68  F   UNL A   1      45.878  35.717  26.547  1.00  0.00    -0.200 F 
ATOM     69  F   UNL A   1      47.211  36.441  28.814  1.00  0.00    -0.200 F 
ENDBRANCH  36  59
ENDBRANCH  10  11
ENDBRANCH   3   5
ENDBRANCH   2   3
ENDBRANCH   1   2
BRANCH   1  70
ATOM     70  C   UNL A   1      37.785  19.894  24.847  1.00  0.00     0.274 C 
BRANCH  70  71
ATOM     71  O   UNL A   1      37.114  21.118  24.516  1.00  0.00    -0.462 OA
BRANCH  71  72
ATOM     72  C   UNL A   1      35.762  21.107  24.671  1.00  0.00     0.310 C 
ATOM     73  O   UNL A   1      35.114  20.121  25.000  1.00  0.00    -0.252 OA
BRANCH  72  74
ATOM     74  C   UNL A   1      35.149  22.483  24.496  1.00  0.00     0.120 C 
ATOM     75  C   UNL A   1      35.744  23.464  25.515  1.00  0.00     0.039 C 
ATOM     76  C   UNL A   1      33.650  22.566  24.780  1.00  0.00     0.135 C 
ATOM     77  C   UNL A   1      34.833  23.293  26.722  1.00  0.00     0.121 C 
ATOM     78  N   UNL A   1      33.532  23.178  26.096  1.00  0.00    -0.338 N 
BRANCH  78  79
ATOM     79  C   UNL A   1      32.385  23.843  26.478  1.00  0.00     0.259 C 
ATOM     80  O   UNL A   1      31.778  23.632  27.519  1.00  0.00    -0.269 OA
BRANCH  79  81
ATOM     81  C   UNL A   1      31.869  24.885  25.597  1.00  0.00     0.111 A 
ATOM     82  C   UNL A   1      30.796  24.617  24.756  1.00  0.00     0.140 A 
ATOM     83  C   UNL A   1      32.392  26.171  25.667  1.00  0.00     0.140 A 
ATOM     84  F   UNL A   1      30.279  23.383  24.679  1.00  0.00    -0.206 F 
ATOM     85  C   UNL A   1      30.258  25.625  23.963  1.00  0.00     0.056 A 
ATOM     86  C   UNL A   1      31.860  27.193  24.887  1.00  0.00     0.056 A 
ATOM     87  F   UNL A   1      33.403  26.459  26.499  1.00  0.00    -0.206 F 
ATOM     88  C   UNL A   1      30.796  26.911  24.032  1.00  0.00     0.023 A 
ATOM     89  Br  UNL A   1      30.070  28.287  22.961  1.00  0.00    -0.051 Br
ENDBRANCH  79  81
ENDBRANCH  78  79
ENDBRANCH  72  74
ENDBRANCH  71  72
ENDBRANCH  70  71
ENDBRANCH   1  70
TORSDOF 13
ENDMDL
MODEL 2
REMARK VINA RESULT:     -12.0      5.709     10.885
REMARK SMILES O=C(OCCOC(=O)[C@@H]1CCN(C(=O)c2c(F)cc(Br)cc2F)C1)c1ccc(-c2c3nc(c(-c4c(F)c(F)c(F)c(F)c4F)c4ccc([nH]4)c(-c4c(F)c(F)c(F)c(F)c4F)c4nc(c(-c5c(F)c(F)c(F)c(F)c5F)c5ccc2[nH]5)C=C4)C=C3)cc1
REMARK SMILES IDX 4 1 3 2 2 3 1 4 25 5 26 6 87 7 27 8 86 9 28 10 29 11 30 12
REMARK SMILES IDX 80 13 31 14 85 15 79 16 81 17 32 18 84 19 78 20 77 21 33 23
REMARK SMILES IDX 65 24 45 25 64 26 46 27 49 28 63 29 82 30 47 31 48 32 62 34
REMARK SMILES IDX 83 35 50 36 34 37 35 38 43 39 36 40 37 41 41 42 44 43 38 44
REMARK SMILES IDX 39 45 42 46 40 47 66 48 67 49 75 50 68 51 69 52 73 53 76 54
REMARK SMILES IDX 70 55 71 56 74 57 72 58 51 59 52 60 60 61 53 62 54 63 58 64
REMARK SMILES IDX 61 65 55 66 56 67 59 68 57 69 5 70 6 71 7 72 8 73 9 74 10 75
REMARK SMILES IDX 24 76 11 77 12 78 13 79 14 80 15 81 16 82 22 83 17 84 18 85
REMARK SMILES IDX 21 86 23 87 19 88 20 89
REMARK H PARENT 81 22 49 33
REMARK Flexibility Score: inf
ROOT
ATOM      1  C   UNL A   1      32.603  32.615  27.080  1.00  0.00     0.275 C 
ENDROOT
BRANCH   1   2
ATOM      2  O   UNL A   1      32.220  33.810  27.785  1.00  0.00    -0.458 OA
BRANCH   2   3
ATOM      3  C   UNL A   1      32.990  34.588  28.582  1.00  0.00     0.338 C 
ATOM      4  O   UNL A   1      32.699  35.772  28.740  1.00  0.00    -0.246 OA
BRANCH   3   5
ATOM      5  C   UNL A   1      34.294  34.121  29.137  1.00  0.00     0.060 A 
ATOM      6  C   UNL A   1      35.547  34.337  28.556  1.00  0.00     0.016 A 
ATOM      7  C   UNL A   1      34.225  33.339  30.304  1.00  0.00     0.016 A 
ATOM      8  C   UNL A   1      36.715  33.851  29.165  1.00  0.00     0.010 A 
ATOM      9  C   UNL A   1      35.385  32.835  30.900  1.00  0.00     0.010 A 
ATOM     10  C   UNL A   1      36.642  33.095  30.337  1.00  0.00    -0.014 A 
BRANCH  10  11
ATOM     11  C   UNL A   1      37.850  32.480  30.936  1.00  0.00     0.031 A 
ATOM     12  C   UNL A   1      38.382  31.196  30.376  1.00  0.00     0.074 A 
ATOM     13  C   UNL A   1      38.442  33.020  32.017  1.00  0.00     0.049 A 
ATOM     14  N   UNL A   1      39.382  30.467  30.800  1.00  0.00    -0.248 NA
ATOM     15  C   UNL A   1      37.732  30.682  29.160  1.00  0.00     0.031 C 
ATOM     16  C   UNL A   1      38.077  34.283  32.647  1.00  0.00     0.029 A 
ATOM     17  N   UNL A   1      39.426  32.510  32.833  1.00  0.00    -0.354 N 
ATOM     18  C   UNL A   1      39.545  29.469  29.854  1.00  0.00     0.074 A 
ATOM     19  C   UNL A   1      38.476  29.617  28.890  1.00  0.00     0.031 C 
ATOM     20  C   UNL A   1      38.703  34.372  33.832  1.00  0.00     0.029 A 
ATOM     21  C   UNL A   1      39.502  33.173  34.036  1.00  0.00     0.049 A 
ATOM     22  H   UNL A   1      40.009  31.757  32.585  1.00  0.00     0.167 HD
ATOM     23  C   UNL A   1      40.544  28.561  29.767  1.00  0.00     0.037 A 
ATOM     24  C   UNL A   1      40.085  32.804  35.190  1.00  0.00     0.037 A 
ATOM     25  C   UNL A   1      41.576  28.391  30.753  1.00  0.00     0.049 A 
ATOM     26  C   UNL A   1      40.963  31.591  35.220  1.00  0.00     0.074 A 
ATOM     27  C   UNL A   1      42.714  27.607  30.700  1.00  0.00     0.029 A 
ATOM     28  N   UNL A   1      41.559  28.985  32.004  1.00  0.00    -0.354 N 
ATOM     29  N   UNL A   1      41.231  30.744  34.262  1.00  0.00    -0.248 NA
ATOM     30  C   UNL A   1      41.672  31.321  36.481  1.00  0.00     0.031 C 
ATOM     31  C   UNL A   1      43.358  27.682  31.943  1.00  0.00     0.029 A 
ATOM     32  C   UNL A   1      42.632  28.535  32.756  1.00  0.00     0.049 A 
ATOM     33  H   UNL A   1      40.884  29.632  32.313  1.00  0.00     0.167 HD
ATOM     34  C   UNL A   1      42.193  29.888  34.773  1.00  0.00     0.074 A 
ATOM     35  C   UNL A   1      42.422  30.279  36.148  1.00  0.00     0.031 C 
ATOM     36  C   UNL A   1      42.863  28.905  34.127  1.00  0.00     0.037 A 
BRANCH  23  37
ATOM     37  C   UNL A   1      40.595  27.728  28.530  1.00  0.00     0.064 A 
ATOM     38  C   UNL A   1      41.320  28.162  27.410  1.00  0.00     0.173 A 
ATOM     39  C   UNL A   1      39.957  26.484  28.466  1.00  0.00     0.173 A 
ATOM     40  F   UNL A   1      41.941  29.352  27.426  1.00  0.00    -0.203 F 
ATOM     41  C   UNL A   1      41.392  27.384  26.260  1.00  0.00     0.198 A 
ATOM     42  C   UNL A   1      40.041  25.701  27.318  1.00  0.00     0.198 A 
ATOM     43  F   UNL A   1      39.251  26.031  29.513  1.00  0.00    -0.203 F 
ATOM     44  F   UNL A   1      42.069  27.829  25.192  1.00  0.00    -0.200 F 
ATOM     45  C   UNL A   1      40.756  26.152  26.216  1.00  0.00     0.200 A 
ATOM     46  F   UNL A   1      39.428  24.510  27.273  1.00  0.00    -0.200 F 
ATOM     47  F   UNL A   1      40.826  25.402  25.108  1.00  0.00    -0.200 F 
ENDBRANCH  23  37
BRANCH  24  48
ATOM     48  C   UNL A   1      39.813  33.528  36.452  1.00  0.00     0.064 A 
ATOM     49  C   UNL A   1      38.814  33.114  37.337  1.00  0.00     0.173 A 
ATOM     50  C   UNL A   1      40.471  34.740  36.711  1.00  0.00     0.173 A 
ATOM     51  F   UNL A   1      38.137  31.981  37.105  1.00  0.00    -0.203 F 
ATOM     52  C   UNL A   1      38.460  33.905  38.428  1.00  0.00     0.198 A 
ATOM     53  C   UNL A   1      40.119  35.525  37.804  1.00  0.00     0.198 A 
ATOM     54  F   UNL A   1      41.407  35.193  35.865  1.00  0.00    -0.203 F 
ATOM     55  F   UNL A   1      37.469  33.516  39.243  1.00  0.00    -0.200 F 
ATOM     56  C   UNL A   1      39.104  35.112  38.654  1.00  0.00     0.200 A 
ATOM     57  F   UNL A   1      40.739  36.694  38.022  1.00  0.00    -0.200 F 
ATOM     58  F   UNL A   1      38.735  35.888  39.682  1.00  0.00    -0.200 F 
ENDBRANCH  24  48
BRANCH  36  59
ATOM     59  C   UNL A   1      43.966  28.232  34.878  1.00  0.00     0.064 A 
ATOM     60  C   UNL A   1      45.261  28.765  34.926  1.00  0.00     0.173 A 
ATOM     61  C   UNL A   1      43.721  27.024  35.550  1.00  0.00     0.173 A 
ATOM     62  F   UNL A   1      45.549  29.897  34.268  1.00  0.00    -0.203 F 
ATOM     63  C   UNL A   1      46.277  28.103  35.611  1.00  0.00     0.198 A 
ATOM     64  C   UNL A   1      44.733  26.378  36.252  1.00  0.00     0.198 A 
ATOM     65  F   UNL A   1      42.500  26.470  35.521  1.00  0.00    -0.203 F 
ATOM     66  F   UNL A   1      47.520  28.604  35.607  1.00  0.00    -0.200 F 
ATOM     67  C   UNL A   1      46.012  26.916  36.278  1.00  0.00     0.200 A 
ATOM     68  F   UNL A   1      44.474  25.232  36.895  1.00  0.00    -0.200 F 
ATOM     69  F   UNL A   1      46.992  26.281  36.934  1.00  0.00    -0.200 F 
ENDBRANCH  36  59
ENDBRANCH  10  11
ENDBRANCH   3   5
ENDBRANCH   2   3
ENDBRANCH   1   2
BRANCH   1  70
ATOM     70  C   UNL A   1      31.457  31.641  26.815  1.00  0.00     0.274 C 
BRANCH  70  71
ATOM     71  O   UNL A   1      31.902  30.277  26.826  1.00  0.00    -0.462 OA
BRANCH  71  72
ATOM     72  C   UNL A   1      31.643  29.566  25.695  1.00  0.00     0.310 C 
ATOM     73  O   UNL A   1      31.143  30.039  24.682  1.00  0.00    -0.252 OA
BRANCH  72  74
ATOM     74  C   UNL A   1      32.145  28.137  25.785  1.00  0.00     0.120 C 
ATOM     75  C   UNL A   1      33.678  28.114  25.855  1.00  0.00     0.039 C 
ATOM     76  C   UNL A   1      31.848  27.268  24.563  1.00  0.00     0.135 C 
ATOM     77  C   UNL A   1      34.084  28.087  24.388  1.00  0.00     0.121 C 
ATOM     78  N   UNL A   1      33.102  27.183  23.827  1.00  0.00    -0.338 N 
BRANCH  78  79
ATOM     79  C   UNL A   1      33.359  26.134  22.969  1.00  0.00     0.259 C 
ATOM     80  O   UNL A   1      33.804  26.260  21.836  1.00  0.00    -0.269 OA
BRANCH  79  81
ATOM     81  C   UNL A   1      33.110  24.778  23.446  1.00  0.00     0.111 A 
ATOM     82  C   UNL A   1      31.956  24.107  23.062  1.00  0.00     0.140 A 
ATOM     83  C   UNL A   1      34.071  24.126  24.210  1.00  0.00     0.140 A 
ATOM     84  F   UNL A   1      31.021  24.721  22.323  1.00  0.00    -0.206 F 
ATOM     85  C   UNL A   1      31.745  22.791  23.459  1.00  0.00     0.056 A 
ATOM     86  C   UNL A   1      33.879  22.807  24.609  1.00  0.00     0.056 A 
ATOM     87  F   UNL A   1      35.207  24.745  24.561  1.00  0.00    -0.206 F 
ATOM     88  C   UNL A   1      32.710  22.147  24.235  1.00  0.00     0.023 A 
ATOM     89  Br  UNL A   1      32.434  20.359  24.778  1.00  0.00    -0.051 Br
ENDBRANCH  79  81
ENDBRANCH  78  79
ENDBRANCH  72  74
ENDBRANCH  71  72
ENDBRANCH  70  71
ENDBRANCH   1  70
TORSDOF 13
ENDMDL
MODEL 3
REMARK VINA RESULT:     -12.0      5.749     10.928
REMARK SMILES O=C(OCCOC(=O)[C@@H]1CCN(C(=O)c2c(F)cc(Br)cc2F)C1)c1ccc(-c2c3nc(c(-c4c(F)c(F)c(F)c(F)c4F)c4ccc([nH]4)c(-c4c(F)c(F)c(F)c(F)c4F)c4nc(c(-c5c(F)c(F)c(F)c(F)c5F)c5ccc2[nH]5)C=C4)C=C3)cc1
REMARK SMILES IDX 4 1 3 2 2 3 1 4 25 5 26 6 87 7 27 8 86 9 28 10 29 11 30 12
REMARK SMILES IDX 80 13 31 14 85 15 79 16 81 17 32 18 84 19 78 20 77 21 33 23
REMARK SMILES IDX 65 24 45 25 64 26 46 27 49 28 63 29 82 30 47 31 48 32 62 34
REMARK SMILES IDX 83 35 50 36 34 37 35 38 43 39 36 40 37 41 41 42 44 43 38 44
REMARK SMILES IDX 39 45 42 46 40 47 66 48 67 49 75 50 68 51 69 52 73 53 76 54
REMARK SMILES IDX 70 55 71 56 74 57 72 58 51 59 52 60 60 61 53 62 54 63 58 64
REMARK SMILES IDX 61 65 55 66 56 67 59 68 57 69 5 70 6 71 7 72 8 73 9 74 10 75
REMARK SMILES IDX 24 76 11 77 12 78 13 79 14 80 15 81 16 82 22 83 17 84 18 85
REMARK SMILES IDX 21 86 23 87 19 88 20 89
REMARK H PARENT 81 22 49 33
REMARK Flexibility Score: inf
ROOT
ATOM      1  C   UNL A   1      32.582  32.608  27.059  1.00  0.00     0.275 C 
ENDROOT
BRANCH   1   2
ATOM      2  O   UNL A   1      32.196  33.853  27.669  1.00  0.00    -0.458 OA
BRANCH   2   3
ATOM      3  C   UNL A   1      32.900  34.599  28.554  1.00  0.00     0.338 C 
ATOM      4  O   UNL A   1      32.550  35.754  28.788  1.00  0.00    -0.246 OA
BRANCH   3   5
ATOM      5  C   UNL A   1      34.202  34.146  29.125  1.00  0.00     0.060 A 
ATOM      6  C   UNL A   1      35.460  34.378  28.559  1.00  0.00     0.016 A 
ATOM      7  C   UNL A   1      34.128  33.361  30.289  1.00  0.00     0.016 A 
ATOM      8  C   UNL A   1      36.626  33.904  29.182  1.00  0.00     0.010 A 
ATOM      9  C   UNL A   1      35.286  32.868  30.898  1.00  0.00     0.010 A 
ATOM     10  C   UNL A   1      36.547  33.144  30.352  1.00  0.00    -0.014 A 
BRANCH  10  11
ATOM     11  C   UNL A   1      37.754  32.542  30.966  1.00  0.00     0.031 A 
ATOM     12  C   UNL A   1      38.290  31.249  30.428  1.00  0.00     0.074 A 
ATOM     13  C   UNL A   1      38.341  33.101  32.039  1.00  0.00     0.049 A 
ATOM     14  N   UNL A   1      39.291  30.530  30.868  1.00  0.00    -0.248 NA
ATOM     15  C   UNL A   1      37.645  30.714  29.219  1.00  0.00     0.031 C 
ATOM     16  C   UNL A   1      37.972  34.373  32.647  1.00  0.00     0.029 A 
ATOM     17  N   UNL A   1      39.324  32.607  32.867  1.00  0.00    -0.354 N 
ATOM     18  C   UNL A   1      39.459  29.517  29.939  1.00  0.00     0.074 A 
ATOM     19  C   UNL A   1      38.393  29.647  28.969  1.00  0.00     0.031 C 
ATOM     20  C   UNL A   1      38.594  34.484  33.833  1.00  0.00     0.029 A 
ATOM     21  C   UNL A   1      39.394  33.290  34.058  1.00  0.00     0.049 A 
ATOM     22  H   UNL A   1      39.909  31.851  32.633  1.00  0.00     0.167 HD
ATOM     23  C   UNL A   1      40.460  28.610  29.871  1.00  0.00     0.037 A 
ATOM     24  C   UNL A   1      39.974  32.942  35.221  1.00  0.00     0.037 A 
ATOM     25  C   UNL A   1      41.489  28.458  30.863  1.00  0.00     0.049 A 
ATOM     26  C   UNL A   1      40.855  31.731  35.274  1.00  0.00     0.074 A 
ATOM     27  C   UNL A   1      42.629  27.676  30.826  1.00  0.00     0.029 A 
ATOM     28  N   UNL A   1      41.467  29.073  32.104  1.00  0.00    -0.354 N 
ATOM     29  N   UNL A   1      41.128  30.869  34.331  1.00  0.00    -0.248 NA
ATOM     30  C   UNL A   1      41.560  31.484  36.541  1.00  0.00     0.031 C 
ATOM     31  C   UNL A   1      43.268  27.773  32.071  1.00  0.00     0.029 A 
ATOM     32  C   UNL A   1      42.538  28.638  32.867  1.00  0.00     0.049 A 
ATOM     33  H   UNL A   1      40.790  29.723  32.399  1.00  0.00     0.167 HD
ATOM     34  C   UNL A   1      42.090  30.023  34.860  1.00  0.00     0.074 A 
ATOM     35  C   UNL A   1      42.313  30.438  36.228  1.00  0.00     0.031 C 
ATOM     36  C   UNL A   1      42.764  29.031  34.232  1.00  0.00     0.037 A 
BRANCH  23  37
ATOM     37  C   UNL A   1      40.517  27.756  28.647  1.00  0.00     0.064 A 
ATOM     38  C   UNL A   1      41.256  28.167  27.528  1.00  0.00     0.173 A 
ATOM     39  C   UNL A   1      39.871  26.516  28.598  1.00  0.00     0.173 A 
ATOM     40  F   UNL A   1      41.884  29.353  27.531  1.00  0.00    -0.203 F 
ATOM     41  C   UNL A   1      41.333  27.370  26.391  1.00  0.00     0.198 A 
ATOM     42  C   UNL A   1      39.960  25.714  27.464  1.00  0.00     0.198 A 
ATOM     43  F   UNL A   1      39.152  26.085  29.645  1.00  0.00    -0.203 F 
ATOM     44  F   UNL A   1      42.023  27.792  25.323  1.00  0.00    -0.200 F 
ATOM     45  C   UNL A   1      40.689  26.142  26.361  1.00  0.00     0.200 A 
ATOM     46  F   UNL A   1      39.339  24.526  27.433  1.00  0.00    -0.200 F 
ATOM     47  F   UNL A   1      40.764  25.373  25.266  1.00  0.00    -0.200 F 
ENDBRANCH  23  37
BRANCH  24  48
ATOM     48  C   UNL A   1      39.696  33.686  36.469  1.00  0.00     0.064 A 
ATOM     49  C   UNL A   1      40.533  34.712  36.917  1.00  0.00     0.173 A 
ATOM     50  C   UNL A   1      38.648  33.271  37.304  1.00  0.00     0.173 A 
ATOM     51  F   UNL A   1      41.568  35.112  36.163  1.00  0.00    -0.203 F 
ATOM     52  C   UNL A   1      40.350  35.280  38.175  1.00  0.00     0.198 A 
ATOM     53  C   UNL A   1      38.464  33.844  38.559  1.00  0.00     0.198 A 
ATOM     54  F   UNL A   1      37.846  32.263  36.930  1.00  0.00    -0.203 F 
ATOM     55  F   UNL A   1      41.189  36.231  38.609  1.00  0.00    -0.200 F 
ATOM     56  C   UNL A   1      39.324  34.839  38.998  1.00  0.00     0.200 A 
ATOM     57  F   UNL A   1      37.474  33.416  39.355  1.00  0.00    -0.200 F 
ATOM     58  F   UNL A   1      39.174  35.361  40.222  1.00  0.00    -0.200 F 
ENDBRANCH  24  48
BRANCH  36  59
ATOM     59  C   UNL A   1      43.866  28.373  34.998  1.00  0.00     0.064 A 
ATOM     60  C   UNL A   1      45.162  28.904  35.033  1.00  0.00     0.173 A 
ATOM     61  C   UNL A   1      43.619  27.182  35.697  1.00  0.00     0.173 A 
ATOM     62  F   UNL A   1      45.452  30.021  34.350  1.00  0.00    -0.203 F 
ATOM     63  C   UNL A   1      46.177  28.256  35.732  1.00  0.00     0.198 A 
ATOM     64  C   UNL A   1      44.629  26.550  36.413  1.00  0.00     0.198 A 
ATOM     65  F   UNL A   1      42.397  26.629  35.681  1.00  0.00    -0.203 F 
ATOM     66  F   UNL A   1      47.421  28.755  35.717  1.00  0.00    -0.200 F 
ATOM     67  C   UNL A   1      45.909  27.085  36.426  1.00  0.00     0.200 A 
ATOM     68  F   UNL A   1      44.369  25.419  37.083  1.00  0.00    -0.200 F 
ATOM     69  F   UNL A   1      46.888  26.463  37.096  1.00  0.00    -0.200 F 
ENDBRANCH  36  59
ENDBRANCH  10  11
ENDBRANCH   3   5
ENDBRANCH   2   3
ENDBRANCH   1   2
BRANCH   1  70
ATOM     70  C   UNL A   1      31.416  31.688  26.705  1.00  0.00     0.274 C 
BRANCH  70  71
ATOM     71  O   UNL A   1      31.815  30.310  26.670  1.00  0.00    -0.462 OA
BRANCH  71  72
ATOM     72  C   UNL A   1      31.425  29.613  25.569  1.00  0.00     0.310 C 
ATOM     73  O   UNL A   1      30.909  30.119  24.580  1.00  0.00    -0.252 OA
BRANCH  72  74
ATOM     74  C   UNL A   1      31.798  28.145  25.652  1.00  0.00     0.120 C 
ATOM     75  C   UNL A   1      33.287  27.993  25.988  1.00  0.00     0.039 C 
ATOM     76  C   UNL A   1      31.664  27.367  24.343  1.00  0.00     0.135 C 
ATOM     77  C   UNL A   1      33.948  28.007  24.617  1.00  0.00     0.121 C 
ATOM     78  N   UNL A   1      33.020  27.217  23.835  1.00  0.00    -0.338 N 
BRANCH  78  79
ATOM     79  C   UNL A   1      33.351  26.196  22.968  1.00  0.00     0.259 C 
ATOM     80  O   UNL A   1      33.840  26.361  21.858  1.00  0.00    -0.269 OA
BRANCH  79  81
ATOM     81  C   UNL A   1      33.131  24.822  23.408  1.00  0.00     0.111 A 
ATOM     82  C   UNL A   1      31.986  24.142  23.016  1.00  0.00     0.140 A 
ATOM     83  C   UNL A   1      34.111  24.166  24.144  1.00  0.00     0.140 A 
ATOM     84  F   UNL A   1      31.033  24.759  22.305  1.00  0.00    -0.206 F 
ATOM     85  C   UNL A   1      31.803  22.811  23.377  1.00  0.00     0.056 A 
ATOM     86  C   UNL A   1      33.948  22.833  24.506  1.00  0.00     0.056 A 
ATOM     87  F   UNL A   1      35.240  24.794  24.502  1.00  0.00    -0.206 F 
ATOM     88  C   UNL A   1      32.786  22.163  24.125  1.00  0.00     0.023 A 
ATOM     89  Br  UNL A   1      32.548  20.355  24.618  1.00  0.00    -0.051 Br
ENDBRANCH  79  81
ENDBRANCH  78  79
ENDBRANCH  72  74
ENDBRANCH  71  72
ENDBRANCH  70  71
ENDBRANCH   1  70
TORSDOF 13
ENDMDL
