MODEL 1
REMARK VINA RESULT:     -10.1      0.000      0.000
REMARK SMILES CS(=O)(=O)c1ccc(-n2nc(C(F)(F)F)cc2-c2ccc(CC(=O)OCCOC(=O)c3ccc(-c4c5nc(c(-c6c(F)c(F)c(F)c(F)c6F)c6ccc([nH]6)c(-c6c(F)c(F)c(F)c(F)c6F)c6nc(c(-c7c(F)c(F)c(F)c(F)c7F)c7ccc4[nH]7)C=C6)C=C5)cc3)cc2)cc1
REMARK SMILES IDX 26 1 25 2 23 3 24 4 22 5 21 6 18 7 19 8 95 9 20 10 94 11
REMARK SMILES IDX 17 12 9 13 10 14 11 15 16 16 8 17 5 18 6 19 97 20 7 21 96 22
REMARK SMILES IDX 2 23 1 24 3 25 4 26 12 27 13 28 14 29 15 30 27 31 28 32
REMARK SMILES IDX 29 33 30 34 31 35 32 36 93 37 33 38 92 39 34 40 35 41 36 42
REMARK SMILES IDX 86 43 37 44 91 45 85 46 87 47 38 48 90 49 84 50 83 51 39 53
REMARK SMILES IDX 71 54 51 55 70 56 52 57 55 58 69 59 88 60 53 61 54 62 68 64
REMARK SMILES IDX 89 65 56 66 40 67 41 68 49 69 42 70 43 71 47 72 50 73 44 74
REMARK SMILES IDX 45 75 48 76 46 77 72 78 73 79 81 80 74 81 75 82 79 83 82 84
REMARK SMILES IDX 76 85 77 86 80 87 78 88 57 89 58 90 66 91 59 92 60 93 64 94
REMARK SMILES IDX 67 95 61 96 62 97 65 98 63 99
REMARK H PARENT 87 52 55 63
REMARK Flexibility Score: inf
ROOT
ATOM      1  C   UNL A   1      33.816  34.858  28.929  1.00  0.00     0.274 C 
ENDROOT
BRANCH   1   2
ATOM      2  O   UNL A   1      34.693  34.657  30.057  1.00  0.00    -0.462 OA
BRANCH   2   3
ATOM      3  C   UNL A   1      34.107  34.170  31.185  1.00  0.00     0.310 C 
ATOM      4  O   UNL A   1      33.232  34.758  31.816  1.00  0.00    -0.252 OA
BRANCH   3   5
ATOM      5  C   UNL A   1      34.718  32.874  31.677  1.00  0.00     0.158 C 
BRANCH   5   6
ATOM      6  C   UNL A   1      35.920  32.975  32.584  1.00  0.00    -0.037 A 
ATOM      7  C   UNL A   1      38.188  33.122  34.258  1.00  0.00     0.000 A 
ATOM      8  C   UNL A   1      37.701  31.883  33.834  1.00  0.00     0.010 A 
ATOM      9  C   UNL A   1      37.506  34.284  33.884  1.00  0.00     0.010 A 
ATOM     10  C   UNL A   1      36.565  31.816  33.026  1.00  0.00     0.005 A 
ATOM     11  C   UNL A   1      36.393  34.212  33.036  1.00  0.00     0.005 A 
BRANCH   7  12
ATOM     12  C   UNL A   1      39.405  33.185  35.063  1.00  0.00     0.075 A 
ATOM     13  N   UNL A   1      40.693  33.346  34.559  1.00  0.00    -0.233 N 
ATOM     14  N   UNL A   1      41.634  33.063  35.498  1.00  0.00    -0.163 NA
ATOM     15  C   UNL A   1      40.954  32.945  36.654  1.00  0.00     0.167 A 
ATOM     16  C   UNL A   1      39.557  32.986  36.420  1.00  0.00     0.064 A 
BRANCH  13  17
ATOM     17  C   UNL A   1      41.091  33.792  33.268  1.00  0.00     0.065 A 
ATOM     18  C   UNL A   1      41.873  34.663  30.734  1.00  0.00     0.067 A 
ATOM     19  C   UNL A   1      42.469  35.216  31.869  1.00  0.00     0.022 A 
ATOM     20  C   UNL A   1      40.910  33.656  30.854  1.00  0.00     0.022 A 
ATOM     21  C   UNL A   1      42.066  34.790  33.134  1.00  0.00     0.030 A 
ATOM     22  C   UNL A   1      40.538  33.201  32.123  1.00  0.00     0.030 A 
BRANCH  18  23
ATOM     23  S   UNL A   1      42.372  35.235  29.130  1.00  0.00     0.175 S 
ATOM     24  C   UNL A   1      43.418  36.633  29.441  1.00  0.00     0.163 C 
ATOM     25  O   UNL A   1      41.181  35.750  28.459  1.00  0.00    -0.224 OA
ATOM     26  O   UNL A   1      43.171  34.196  28.539  1.00  0.00    -0.224 OA
ENDBRANCH  18  23
ENDBRANCH  13  17
BRANCH  15  27
ATOM     27  C   UNL A   1      41.627  32.775  37.990  1.00  0.00     0.435 C 
ATOM     28  F   UNL A   1      42.691  33.601  38.164  1.00  0.00    -0.164 F 
ATOM     29  F   UNL A   1      40.771  33.000  39.022  1.00  0.00    -0.164 F 
ATOM     30  F   UNL A   1      42.095  31.505  38.157  1.00  0.00    -0.164 F 
ENDBRANCH  15  27
ENDBRANCH   7  12
ENDBRANCH   5   6
ENDBRANCH   3   5
ENDBRANCH   2   3
ENDBRANCH   1   2
BRANCH   1  31
ATOM     31  C   UNL A   1      33.704  33.644  28.009  1.00  0.00     0.275 C 
BRANCH  31  32
ATOM     32  O   UNL A   1      34.958  33.002  27.764  1.00  0.00    -0.458 OA
BRANCH  32  33
ATOM     33  C   UNL A   1      34.918  31.667  27.942  1.00  0.00     0.338 C 
ATOM     34  O   UNL A   1      33.998  30.916  27.642  1.00  0.00    -0.246 OA
BRANCH  33  35
ATOM     35  C   UNL A   1      36.053  31.199  28.734  1.00  0.00     0.060 A 
ATOM     36  C   UNL A   1      37.110  32.090  28.944  1.00  0.00     0.016 A 
ATOM     37  C   UNL A   1      36.191  29.829  28.977  1.00  0.00     0.016 A 
ATOM     38  C   UNL A   1      38.360  31.600  29.256  1.00  0.00     0.010 A 
ATOM     39  C   UNL A   1      37.444  29.337  29.287  1.00  0.00     0.010 A 
ATOM     40  C   UNL A   1      38.527  30.220  29.351  1.00  0.00    -0.014 A 
BRANCH  40  41
ATOM     41  C   UNL A   1      39.880  29.720  29.523  1.00  0.00     0.031 A 
ATOM     42  C   UNL A   1      40.383  29.675  30.921  1.00  0.00     0.074 A 
ATOM     43  C   UNL A   1      40.544  29.173  28.487  1.00  0.00     0.049 A 
ATOM     44  N   UNL A   1      41.531  30.059  31.383  1.00  0.00    -0.248 NA
ATOM     45  C   UNL A   1      39.460  29.169  31.950  1.00  0.00     0.031 C 
ATOM     46  C   UNL A   1      40.026  28.890  27.145  1.00  0.00     0.029 A 
ATOM     47  N   UNL A   1      41.779  28.601  28.471  1.00  0.00    -0.354 N 
ATOM     48  C   UNL A   1      41.535  29.702  32.729  1.00  0.00     0.074 A 
ATOM     49  C   UNL A   1      40.205  29.257  33.050  1.00  0.00     0.031 C 
ATOM     50  C   UNL A   1      40.830  27.983  26.550  1.00  0.00     0.029 A 
ATOM     51  C   UNL A   1      41.957  27.709  27.426  1.00  0.00     0.049 A 
ATOM     52  H   UNL A   1      42.477  28.802  29.137  1.00  0.00     0.167 HD
ATOM     53  C   UNL A   1      42.682  29.600  33.450  1.00  0.00     0.037 A 
ATOM     54  C   UNL A   1      42.889  26.727  27.357  1.00  0.00     0.037 A 
ATOM     55  C   UNL A   1      43.752  30.373  32.889  1.00  0.00     0.049 A 
ATOM     56  C   UNL A   1      43.942  27.021  28.363  1.00  0.00     0.074 A 
ATOM     57  C   UNL A   1      43.912  31.712  32.576  1.00  0.00     0.029 A 
ATOM     58  N   UNL A   1      44.790  29.732  32.260  1.00  0.00    -0.354 N 
ATOM     59  N   UNL A   1      44.809  27.989  28.269  1.00  0.00    -0.248 NA
ATOM     60  C   UNL A   1      43.769  26.466  29.699  1.00  0.00     0.031 C 
ATOM     61  C   UNL A   1      44.699  31.725  31.388  1.00  0.00     0.029 A 
ATOM     62  C   UNL A   1      44.987  30.398  31.076  1.00  0.00     0.049 A 
ATOM     63  H   UNL A   1      45.291  28.952  32.590  1.00  0.00     0.167 HD
ATOM     64  C   UNL A   1      44.974  28.441  29.570  1.00  0.00     0.074 A 
ATOM     65  C   UNL A   1      44.390  27.404  30.415  1.00  0.00     0.031 C 
ATOM     66  C   UNL A   1      45.307  29.738  29.836  1.00  0.00     0.037 A 
BRANCH  53  67
ATOM     67  C   UNL A   1      42.896  28.540  34.496  1.00  0.00     0.064 A 
ATOM     68  C   UNL A   1      43.383  28.896  35.767  1.00  0.00     0.173 A 
ATOM     69  C   UNL A   1      42.909  27.158  34.198  1.00  0.00     0.173 A 
ATOM     70  F   UNL A   1      43.453  30.184  36.135  1.00  0.00    -0.203 F 
ATOM     71  C   UNL A   1      43.891  27.941  36.653  1.00  0.00     0.198 A 
ATOM     72  C   UNL A   1      43.363  26.204  35.105  1.00  0.00     0.198 A 
ATOM     73  F   UNL A   1      42.588  26.695  32.983  1.00  0.00    -0.203 F 
ATOM     74  F   UNL A   1      44.451  28.335  37.804  1.00  0.00    -0.200 F 
ATOM     75  C   UNL A   1      43.881  26.597  36.322  1.00  0.00     0.200 A 
ATOM     76  F   UNL A   1      43.364  24.910  34.756  1.00  0.00    -0.200 F 
ATOM     77  F   UNL A   1      44.415  25.689  37.146  1.00  0.00    -0.200 F 
ENDBRANCH  53  67
BRANCH  54  78
ATOM     78  C   UNL A   1      42.760  25.404  26.704  1.00  0.00     0.064 A 
ATOM     79  C   UNL A   1      43.513  25.088  25.563  1.00  0.00     0.173 A 
ATOM     80  C   UNL A   1      42.078  24.334  27.319  1.00  0.00     0.173 A 
ATOM     81  F   UNL A   1      44.241  26.033  24.952  1.00  0.00    -0.203 F 
ATOM     82  C   UNL A   1      43.580  23.781  25.068  1.00  0.00     0.198 A 
ATOM     83  C   UNL A   1      42.129  23.036  26.813  1.00  0.00     0.198 A 
ATOM     84  F   UNL A   1      41.422  24.505  28.475  1.00  0.00    -0.203 F 
ATOM     85  F   UNL A   1      44.358  23.506  24.012  1.00  0.00    -0.200 F 
ATOM     86  C   UNL A   1      42.889  22.757  25.694  1.00  0.00     0.200 A 
ATOM     87  F   UNL A   1      41.486  22.050  27.454  1.00  0.00    -0.200 F 
ATOM     88  F   UNL A   1      42.990  21.497  25.249  1.00  0.00    -0.200 F 
ENDBRANCH  54  78
BRANCH  66  89
ATOM     89  C   UNL A   1      45.757  30.605  28.697  1.00  0.00     0.064 A 
ATOM     90  C   UNL A   1      44.875  31.241  27.806  1.00  0.00     0.173 A 
ATOM     91  C   UNL A   1      47.119  30.923  28.595  1.00  0.00     0.173 A 
ATOM     92  F   UNL A   1      43.550  31.085  27.918  1.00  0.00    -0.203 F 
ATOM     93  C   UNL A   1      45.345  32.104  26.818  1.00  0.00     0.198 A 
ATOM     94  C   UNL A   1      47.581  31.817  27.632  1.00  0.00     0.198 A 
ATOM     95  F   UNL A   1      47.999  30.399  29.462  1.00  0.00    -0.203 F 
ATOM     96  F   UNL A   1      44.484  32.682  25.968  1.00  0.00    -0.200 F 
ATOM     97  C   UNL A   1      46.697  32.395  26.736  1.00  0.00     0.200 A 
ATOM     98  F   UNL A   1      48.881  32.139  27.591  1.00  0.00    -0.200 F 
ATOM     99  F   UNL A   1      47.144  33.256  25.812  1.00  0.00    -0.200 F 
ENDBRANCH  66  89
ENDBRANCH  40  41
ENDBRANCH  33  35
ENDBRANCH  32  33
ENDBRANCH  31  32
ENDBRANCH   1  31
TORSDOF 16
ENDMDL
MODEL 2
REMARK VINA RESULT:     -10.1      4.494      8.370
REMARK SMILES CS(=O)(=O)c1ccc(-n2nc(C(F)(F)F)cc2-c2ccc(CC(=O)OCCOC(=O)c3ccc(-c4c5nc(c(-c6c(F)c(F)c(F)c(F)c6F)c6ccc([nH]6)c(-c6c(F)c(F)c(F)c(F)c6F)c6nc(c(-c7c(F)c(F)c(F)c(F)c7F)c7ccc4[nH]7)C=C6)C=C5)cc3)cc2)cc1
REMARK SMILES IDX 26 1 25 2 23 3 24 4 22 5 21 6 18 7 19 8 95 9 20 10 94 11
REMARK SMILES IDX 17 12 9 13 10 14 11 15 16 16 8 17 5 18 6 19 97 20 7 21 96 22
REMARK SMILES IDX 2 23 1 24 3 25 4 26 12 27 13 28 14 29 15 30 27 31 28 32
REMARK SMILES IDX 29 33 30 34 31 35 32 36 93 37 33 38 92 39 34 40 35 41 36 42
REMARK SMILES IDX 86 43 37 44 91 45 85 46 87 47 38 48 90 49 84 50 83 51 39 53
REMARK SMILES IDX 71 54 51 55 70 56 52 57 55 58 69 59 88 60 53 61 54 62 68 64
REMARK SMILES IDX 89 65 56 66 40 67 41 68 49 69 42 70 43 71 47 72 50 73 44 74
REMARK SMILES IDX 45 75 48 76 46 77 72 78 73 79 81 80 74 81 75 82 79 83 82 84
REMARK SMILES IDX 76 85 77 86 80 87 78 88 57 89 58 90 66 91 59 92 60 93 64 94
REMARK SMILES IDX 67 95 61 96 62 97 65 98 63 99
REMARK H PARENT 87 52 55 63
REMARK Flexibility Score: inf
ROOT
ATOM      1  C   UNL A   1      33.922  34.242  28.341  1.00  0.00     0.274 C 
ENDROOT
BRANCH   1   2
ATOM      2  O   UNL A   1      34.421  32.918  28.624  1.00  0.00    -0.462 OA
BRANCH   2   3
ATOM      3  C   UNL A   1      33.809  31.899  27.962  1.00  0.00     0.310 C 
ATOM      4  O   UNL A   1      32.792  32.030  27.285  1.00  0.00    -0.252 OA
BRANCH   3   5
ATOM      5  C   UNL A   1      34.424  30.542  28.233  1.00  0.00     0.158 C 
BRANCH   5   6
ATOM      6  C   UNL A   1      34.093  29.425  27.273  1.00  0.00    -0.037 A 
ATOM      7  C   UNL A   1      33.523  27.335  25.463  1.00  0.00     0.000 A 
ATOM      8  C   UNL A   1      34.504  28.283  25.162  1.00  0.00     0.010 A 
ATOM      9  C   UNL A   1      32.793  27.466  26.649  1.00  0.00     0.010 A 
ATOM     10  C   UNL A   1      34.764  29.328  26.050  1.00  0.00     0.005 A 
ATOM     11  C   UNL A   1      33.091  28.491  27.556  1.00  0.00     0.005 A 
BRANCH   7  12
ATOM     12  C   UNL A   1      33.291  26.219  24.550  1.00  0.00     0.075 A 
ATOM     13  N   UNL A   1      32.160  26.057  23.754  1.00  0.00    -0.233 N 
ATOM     14  N   UNL A   1      32.082  24.796  23.252  1.00  0.00    -0.163 NA
ATOM     15  C   UNL A   1      33.269  24.229  23.538  1.00  0.00     0.167 A 
ATOM     16  C   UNL A   1      34.040  25.075  24.372  1.00  0.00     0.064 A 
BRANCH  13  17
ATOM     17  C   UNL A   1      31.177  27.023  23.400  1.00  0.00     0.065 A 
ATOM     18  C   UNL A   1      29.251  28.920  22.706  1.00  0.00     0.067 A 
ATOM     19  C   UNL A   1      28.876  27.787  23.432  1.00  0.00     0.022 A 
ATOM     20  C   UNL A   1      30.587  29.127  22.350  1.00  0.00     0.022 A 
ATOM     21  C   UNL A   1      29.837  26.834  23.764  1.00  0.00     0.030 A 
ATOM     22  C   UNL A   1      31.557  28.190  22.720  1.00  0.00     0.030 A 
BRANCH  18  23
ATOM     23  S   UNL A   1      28.013  30.112  22.262  1.00  0.00     0.175 S 
ATOM     24  C   UNL A   1      28.661  31.674  22.797  1.00  0.00     0.163 C 
ATOM     25  O   UNL A   1      26.835  29.848  23.087  1.00  0.00    -0.224 OA
ATOM     26  O   UNL A   1      27.932  30.123  20.827  1.00  0.00    -0.224 OA
ENDBRANCH  18  23
ENDBRANCH  13  17
BRANCH  15  27
ATOM     27  C   UNL A   1      33.673  22.869  23.034  1.00  0.00     0.435 C 
ATOM     28  F   UNL A   1      33.584  21.898  23.979  1.00  0.00    -0.164 F 
ATOM     29  F   UNL A   1      32.912  22.472  21.978  1.00  0.00    -0.164 F 
ATOM     30  F   UNL A   1      34.963  22.860  22.593  1.00  0.00    -0.164 F 
ENDBRANCH  15  27
ENDBRANCH   7  12
ENDBRANCH   5   6
ENDBRANCH   3   5
ENDBRANCH   2   3
ENDBRANCH   1   2
BRANCH   1  31
ATOM     31  C   UNL A   1      33.219  34.904  29.524  1.00  0.00     0.275 C 
BRANCH  31  32
ATOM     32  O   UNL A   1      34.107  35.243  30.592  1.00  0.00    -0.458 OA
BRANCH  32  33
ATOM     33  C   UNL A   1      33.878  34.543  31.720  1.00  0.00     0.338 C 
ATOM     34  O   UNL A   1      32.889  34.620  32.442  1.00  0.00    -0.246 OA
BRANCH  33  35
ATOM     35  C   UNL A   1      35.055  33.780  32.126  1.00  0.00     0.060 A 
ATOM     36  C   UNL A   1      36.229  34.492  32.392  1.00  0.00     0.016 A 
ATOM     37  C   UNL A   1      35.067  32.396  31.933  1.00  0.00     0.016 A 
ATOM     38  C   UNL A   1      37.446  33.848  32.319  1.00  0.00     0.010 A 
ATOM     39  C   UNL A   1      36.285  31.749  31.857  1.00  0.00     0.010 A 
ATOM     40  C   UNL A   1      37.462  32.496  31.979  1.00  0.00    -0.014 A 
BRANCH  40  41
ATOM     41  C   UNL A   1      38.757  31.879  31.753  1.00  0.00     0.031 A 
ATOM     42  C   UNL A   1      39.589  31.652  32.964  1.00  0.00     0.074 A 
ATOM     43  C   UNL A   1      39.081  31.391  30.540  1.00  0.00     0.049 A 
ATOM     44  N   UNL A   1      40.848  31.897  33.141  1.00  0.00    -0.248 NA
ATOM     45  C   UNL A   1      38.907  31.115  34.155  1.00  0.00     0.031 C 
ATOM     46  C   UNL A   1      38.216  31.288  29.361  1.00  0.00     0.029 A 
ATOM     47  N   UNL A   1      40.208  30.730  30.160  1.00  0.00    -0.354 N 
ATOM     48  C   UNL A   1      41.154  31.404  34.408  1.00  0.00     0.074 A 
ATOM     49  C   UNL A   1      39.910  31.033  35.026  1.00  0.00     0.031 C 
ATOM     50  C   UNL A   1      38.749  30.387  28.507  1.00  0.00     0.029 A 
ATOM     51  C   UNL A   1      40.026  29.938  29.036  1.00  0.00     0.049 A 
ATOM     52  H   UNL A   1      41.067  30.807  30.634  1.00  0.00     0.167 HD
ATOM     53  C   UNL A   1      42.430  31.140  34.796  1.00  0.00     0.037 A 
ATOM     54  C   UNL A   1      40.807  28.900  28.651  1.00  0.00     0.037 A 
ATOM     55  C   UNL A   1      43.397  31.882  34.039  1.00  0.00     0.049 A 
ATOM     56  C   UNL A   1      42.103  29.007  29.368  1.00  0.00     0.074 A 
ATOM     57  C   UNL A   1      43.607  33.229  33.803  1.00  0.00     0.029 A 
ATOM     58  N   UNL A   1      44.173  31.230  33.113  1.00  0.00    -0.354 N 
ATOM     59  N   UNL A   1      43.012  29.910  29.130  1.00  0.00    -0.248 NA
ATOM     60  C   UNL A   1      42.216  28.333  30.655  1.00  0.00     0.031 C 
ATOM     61  C   UNL A   1      44.067  33.303  32.456  1.00  0.00     0.029 A 
ATOM     62  C   UNL A   1      44.133  31.997  31.976  1.00  0.00     0.049 A 
ATOM     63  H   UNL A   1      44.659  30.384  33.239  1.00  0.00     0.167 HD
ATOM     64  C   UNL A   1      43.543  30.212  30.374  1.00  0.00     0.074 A 
ATOM     65  C   UNL A   1      43.089  29.142  31.257  1.00  0.00     0.031 C 
ATOM     66  C   UNL A   1      44.061  31.445  30.646  1.00  0.00     0.037 A 
BRANCH  53  67
ATOM     67  C   UNL A   1      42.792  29.965  35.663  1.00  0.00     0.064 A 
ATOM     68  C   UNL A   1      43.675  30.137  36.744  1.00  0.00     0.173 A 
ATOM     69  C   UNL A   1      42.525  28.627  35.294  1.00  0.00     0.173 A 
ATOM     70  F   UNL A   1      44.028  31.366  37.149  1.00  0.00    -0.203 F 
ATOM     71  C   UNL A   1      44.283  29.048  37.376  1.00  0.00     0.198 A 
ATOM     72  C   UNL A   1      43.087  27.543  35.962  1.00  0.00     0.198 A 
ATOM     73  F   UNL A   1      41.801  28.325  34.208  1.00  0.00    -0.203 F 
ATOM     74  F   UNL A   1      45.205  29.260  38.324  1.00  0.00    -0.200 F 
ATOM     75  C   UNL A   1      43.989  27.753  36.985  1.00  0.00     0.200 A 
ATOM     76  F   UNL A   1      42.807  26.298  35.554  1.00  0.00    -0.200 F 
ATOM     77  F   UNL A   1      44.609  26.713  37.553  1.00  0.00    -0.200 F 
ENDBRANCH  53  67
BRANCH  54  78
ATOM     78  C   UNL A   1      40.385  27.665  27.950  1.00  0.00     0.064 A 
ATOM     79  C   UNL A   1      40.977  27.288  26.735  1.00  0.00     0.173 A 
ATOM     80  C   UNL A   1      39.564  26.701  28.571  1.00  0.00     0.173 A 
ATOM     81  F   UNL A   1      41.821  28.120  26.109  1.00  0.00    -0.203 F 
ATOM     82  C   UNL A   1      40.763  26.022  26.177  1.00  0.00     0.198 A 
ATOM     83  C   UNL A   1      39.334  25.449  28.004  1.00  0.00     0.198 A 
ATOM     84  F   UNL A   1      39.041  26.917  29.786  1.00  0.00    -0.203 F 
ATOM     85  F   UNL A   1      41.393  25.676  25.047  1.00  0.00    -0.200 F 
ATOM     86  C   UNL A   1      39.942  25.105  26.812  1.00  0.00     0.200 A 
ATOM     87  F   UNL A   1      38.569  24.558  28.650  1.00  0.00    -0.200 F 
ATOM     88  F   UNL A   1      39.773  23.878  26.302  1.00  0.00    -0.200 F 
ENDBRANCH  54  78
BRANCH  66  89
ATOM     89  C   UNL A   1      44.296  32.387  29.503  1.00  0.00     0.064 A 
ATOM     90  C   UNL A   1      43.322  33.273  29.011  1.00  0.00     0.173 A 
ATOM     91  C   UNL A   1      45.594  32.502  28.984  1.00  0.00     0.173 A 
ATOM     92  F   UNL A   1      42.093  33.310  29.540  1.00  0.00    -0.203 F 
ATOM     93  C   UNL A   1      43.621  34.187  28.001  1.00  0.00     0.198 A 
ATOM     94  C   UNL A   1      45.899  33.442  28.004  1.00  0.00     0.198 A 
ATOM     95  F   UNL A   1      46.581  31.729  29.463  1.00  0.00    -0.203 F 
ATOM     96  F   UNL A   1      42.668  35.008  27.537  1.00  0.00    -0.200 F 
ATOM     97  C   UNL A   1      44.910  34.274  27.503  1.00  0.00     0.200 A 
ATOM     98  F   UNL A   1      47.159  33.562  27.564  1.00  0.00    -0.200 F 
ATOM     99  F   UNL A   1      45.207  35.179  26.561  1.00  0.00    -0.200 F 
ENDBRANCH  66  89
ENDBRANCH  40  41
ENDBRANCH  33  35
ENDBRANCH  32  33
ENDBRANCH  31  32
ENDBRANCH   1  31
TORSDOF 16
ENDMDL
MODEL 3
REMARK VINA RESULT:     -10.0      6.356     12.077
REMARK SMILES CS(=O)(=O)c1ccc(-n2nc(C(F)(F)F)cc2-c2ccc(CC(=O)OCCOC(=O)c3ccc(-c4c5nc(c(-c6c(F)c(F)c(F)c(F)c6F)c6ccc([nH]6)c(-c6c(F)c(F)c(F)c(F)c6F)c6nc(c(-c7c(F)c(F)c(F)c(F)c7F)c7ccc4[nH]7)C=C6)C=C5)cc3)cc2)cc1
REMARK SMILES IDX 26 1 25 2 23 3 24 4 22 5 21 6 18 7 19 8 95 9 20 10 94 11
REMARK SMILES IDX 17 12 9 13 10 14 11 15 16 16 8 17 5 18 6 19 97 20 7 21 96 22
REMARK SMILES IDX 2 23 1 24 3 25 4 26 12 27 13 28 14 29 15 30 27 31 28 32
REMARK SMILES IDX 29 33 30 34 31 35 32 36 93 37 33 38 92 39 34 40 35 41 36 42
REMARK SMILES IDX 86 43 37 44 91 45 85 46 87 47 38 48 90 49 84 50 83 51 39 53
REMARK SMILES IDX 71 54 51 55 70 56 52 57 55 58 69 59 88 60 53 61 54 62 68 64
REMARK SMILES IDX 89 65 56 66 40 67 41 68 49 69 42 70 43 71 47 72 50 73 44 74
REMARK SMILES IDX 45 75 48 76 46 77 72 78 73 79 81 80 74 81 75 82 79 83 82 84
REMARK SMILES IDX 76 85 77 86 80 87 78 88 57 89 58 90 66 91 59 92 60 93 64 94
REMARK SMILES IDX 67 95 61 96 62 97 65 98 63 99
REMARK H PARENT 87 52 55 63
REMARK Flexibility Score: inf
ROOT
ATOM      1  C   UNL A   1      40.862  20.400  26.596  1.00  0.00     0.274 C 
ENDROOT
BRANCH   1   2
ATOM      2  O   UNL A   1      40.379  21.466  25.752  1.00  0.00    -0.462 OA
BRANCH   2   3
ATOM      3  C   UNL A   1      39.033  21.669  25.765  1.00  0.00     0.310 C 
ATOM      4  O   UNL A   1      38.204  20.815  25.461  1.00  0.00    -0.252 OA
BRANCH   3   5
ATOM      5  C   UNL A   1      38.637  23.099  26.072  1.00  0.00     0.158 C 
BRANCH   5   6
ATOM      6  C   UNL A   1      37.264  23.548  25.633  1.00  0.00    -0.037 A 
ATOM      7  C   UNL A   1      34.697  24.351  24.779  1.00  0.00     0.000 A 
ATOM      8  C   UNL A   1      35.613  23.823  23.866  1.00  0.00     0.010 A 
ATOM      9  C   UNL A   1      35.088  24.524  26.110  1.00  0.00     0.010 A 
ATOM     10  C   UNL A   1      36.890  23.450  24.290  1.00  0.00     0.005 A 
ATOM     11  C   UNL A   1      36.355  24.106  26.538  1.00  0.00     0.005 A 
BRANCH   7  12
ATOM     12  C   UNL A   1      33.348  24.694  24.335  1.00  0.00     0.075 A 
ATOM     13  N   UNL A   1      32.448  23.808  23.749  1.00  0.00    -0.233 N 
ATOM     14  N   UNL A   1      31.409  24.465  23.169  1.00  0.00    -0.163 NA
ATOM     15  C   UNL A   1      31.527  25.742  23.581  1.00  0.00     0.167 A 
ATOM     16  C   UNL A   1      32.740  25.931  24.286  1.00  0.00     0.064 A 
BRANCH  13  17
ATOM     17  C   UNL A   1      32.481  22.385  23.739  1.00  0.00     0.065 A 
ATOM     18  C   UNL A   1      32.542  19.595  23.717  1.00  0.00     0.067 A 
ATOM     19  C   UNL A   1      32.830  20.283  24.897  1.00  0.00     0.022 A 
ATOM     20  C   UNL A   1      32.195  20.289  22.554  1.00  0.00     0.022 A 
ATOM     21  C   UNL A   1      32.813  21.677  24.902  1.00  0.00     0.030 A 
ATOM     22  C   UNL A   1      32.138  21.686  22.572  1.00  0.00     0.030 A 
BRANCH  18  23
ATOM     23  S   UNL A   1      32.596  17.821  23.716  1.00  0.00     0.175 S 
ATOM     24  C   UNL A   1      34.284  17.409  24.074  1.00  0.00     0.163 C 
ATOM     25  O   UNL A   1      32.343  17.376  22.347  1.00  0.00    -0.224 OA
ATOM     26  O   UNL A   1      31.779  17.371  24.810  1.00  0.00    -0.224 OA
ENDBRANCH  18  23
ENDBRANCH  13  17
BRANCH  15  27
ATOM     27  C   UNL A   1      30.492  26.797  23.290  1.00  0.00     0.435 C 
ATOM     28  F   UNL A   1      30.574  27.295  22.030  1.00  0.00    -0.164 F 
ATOM     29  F   UNL A   1      29.227  26.327  23.455  1.00  0.00    -0.164 F 
ATOM     30  F   UNL A   1      30.612  27.862  24.133  1.00  0.00    -0.164 F 
ENDBRANCH  15  27
ENDBRANCH   7  12
ENDBRANCH   5   6
ENDBRANCH   3   5
ENDBRANCH   2   3
ENDBRANCH   1   2
BRANCH   1  31
ATOM     31  C   UNL A   1      42.317  20.016  26.335  1.00  0.00     0.275 C 
BRANCH  31  32
ATOM     32  O   UNL A   1      42.826  20.532  25.102  1.00  0.00    -0.458 OA
BRANCH  32  33
ATOM     33  C   UNL A   1      44.130  20.866  25.161  1.00  0.00     0.338 C 
ATOM     34  O   UNL A   1      45.083  20.096  25.158  1.00  0.00    -0.246 OA
BRANCH  33  35
ATOM     35  C   UNL A   1      44.306  22.291  25.429  1.00  0.00     0.060 A 
ATOM     36  C   UNL A   1      45.291  22.660  26.351  1.00  0.00     0.016 A 
ATOM     37  C   UNL A   1      43.314  23.187  25.019  1.00  0.00     0.016 A 
ATOM     38  C   UNL A   1      45.204  23.882  26.984  1.00  0.00     0.010 A 
ATOM     39  C   UNL A   1      43.225  24.409  25.654  1.00  0.00     0.010 A 
ATOM     40  C   UNL A   1      44.127  24.712  26.680  1.00  0.00    -0.014 A 
BRANCH  40  41
ATOM     41  C   UNL A   1      43.970  25.920  27.471  1.00  0.00     0.031 A 
ATOM     42  C   UNL A   1      44.940  27.011  27.193  1.00  0.00     0.074 A 
ATOM     43  C   UNL A   1      42.896  26.081  28.269  1.00  0.00     0.049 A 
ATOM     44  N   UNL A   1      45.605  27.739  28.033  1.00  0.00    -0.248 NA
ATOM     45  C   UNL A   1      45.241  27.297  25.780  1.00  0.00     0.031 C 
ATOM     46  C   UNL A   1      41.728  25.201  28.380  1.00  0.00     0.029 A 
ATOM     47  N   UNL A   1      42.549  27.156  29.026  1.00  0.00    -0.354 N 
ATOM     48  C   UNL A   1      46.287  28.678  27.262  1.00  0.00     0.074 A 
ATOM     49  C   UNL A   1      46.113  28.297  25.886  1.00  0.00     0.031 C 
ATOM     50  C   UNL A   1      40.713  25.893  28.939  1.00  0.00     0.029 A 
ATOM     51  C   UNL A   1      41.193  27.214  29.308  1.00  0.00     0.049 A 
ATOM     52  H   UNL A   1      43.197  27.826  29.343  1.00  0.00     0.167 HD
ATOM     53  C   UNL A   1      46.784  29.827  27.789  1.00  0.00     0.037 A 
ATOM     54  C   UNL A   1      40.499  28.313  29.691  1.00  0.00     0.037 A 
ATOM     55  C   UNL A   1      47.010  29.730  29.202  1.00  0.00     0.049 A 
ATOM     56  C   UNL A   1      41.471  29.331  30.165  1.00  0.00     0.074 A 
ATOM     57  C   UNL A   1      47.759  28.884  30.001  1.00  0.00     0.029 A 
ATOM     58  N   UNL A   1      46.174  30.393  30.066  1.00  0.00    -0.354 N 
ATOM     59  N   UNL A   1      42.150  29.250  31.274  1.00  0.00    -0.248 NA
ATOM     60  C   UNL A   1      41.994  30.270  29.181  1.00  0.00     0.031 C 
ATOM     61  C   UNL A   1      46.987  28.713  31.188  1.00  0.00     0.029 A 
ATOM     62  C   UNL A   1      45.838  29.488  31.041  1.00  0.00     0.049 A 
ATOM     63  H   UNL A   1      45.876  31.328  29.999  1.00  0.00     0.167 HD
ATOM     64  C   UNL A   1      43.388  29.794  30.970  1.00  0.00     0.074 A 
ATOM     65  C   UNL A   1      43.201  30.495  29.704  1.00  0.00     0.031 C 
ATOM     66  C   UNL A   1      44.520  29.392  31.618  1.00  0.00     0.037 A 
BRANCH  53  67
ATOM     67  C   UNL A   1      46.767  31.137  27.049  1.00  0.00     0.064 A 
ATOM     68  C   UNL A   1      47.931  31.925  26.990  1.00  0.00     0.173 A 
ATOM     69  C   UNL A   1      45.572  31.774  26.642  1.00  0.00     0.173 A 
ATOM     70  F   UNL A   1      49.111  31.431  27.393  1.00  0.00    -0.203 F 
ATOM     71  C   UNL A   1      47.890  33.267  26.599  1.00  0.00     0.198 A 
ATOM     72  C   UNL A   1      45.545  33.093  26.198  1.00  0.00     0.198 A 
ATOM     73  F   UNL A   1      44.378  31.180  26.763  1.00  0.00    -0.203 F 
ATOM     74  F   UNL A   1      49.001  34.013  26.668  1.00  0.00    -0.200 F 
ATOM     75  C   UNL A   1      46.698  33.850  26.204  1.00  0.00     0.200 A 
ATOM     76  F   UNL A   1      44.377  33.645  25.841  1.00  0.00    -0.200 F 
ATOM     77  F   UNL A   1      46.649  35.147  25.880  1.00  0.00    -0.200 F 
ENDBRANCH  53  67
BRANCH  54  78
ATOM     78  C   UNL A   1      39.090  28.645  29.377  1.00  0.00     0.064 A 
ATOM     79  C   UNL A   1      38.132  28.758  30.396  1.00  0.00     0.173 A 
ATOM     80  C   UNL A   1      38.699  29.095  28.099  1.00  0.00     0.173 A 
ATOM     81  F   UNL A   1      38.441  28.411  31.653  1.00  0.00    -0.203 F 
ATOM     82  C   UNL A   1      36.861  29.291  30.151  1.00  0.00     0.198 A 
ATOM     83  C   UNL A   1      37.426  29.605  27.852  1.00  0.00     0.198 A 
ATOM     84  F   UNL A   1      39.572  29.135  27.083  1.00  0.00    -0.203 F 
ATOM     85  F   UNL A   1      35.994  29.439  31.162  1.00  0.00    -0.200 F 
ATOM     86  C   UNL A   1      36.510  29.714  28.880  1.00  0.00     0.200 A 
ATOM     87  F   UNL A   1      37.115  30.047  26.625  1.00  0.00    -0.200 F 
ATOM     88  F   UNL A   1      35.310  30.266  28.655  1.00  0.00    -0.200 F 
ENDBRANCH  54  78
BRANCH  66  89
ATOM     89  C   UNL A   1      44.375  28.549  32.850  1.00  0.00     0.064 A 
ATOM     90  C   UNL A   1      44.149  27.161  32.823  1.00  0.00     0.173 A 
ATOM     91  C   UNL A   1      44.619  29.138  34.098  1.00  0.00     0.173 A 
ATOM     92  F   UNL A   1      44.028  26.505  31.662  1.00  0.00    -0.203 F 
ATOM     93  C   UNL A   1      44.106  26.414  33.998  1.00  0.00     0.198 A 
ATOM     94  C   UNL A   1      44.616  28.381  35.267  1.00  0.00     0.198 A 
ATOM     95  F   UNL A   1      44.909  30.446  34.180  1.00  0.00    -0.203 F 
ATOM     96  F   UNL A   1      43.869  25.095  33.946  1.00  0.00    -0.200 F 
ATOM     97  C   UNL A   1      44.345  27.024  35.218  1.00  0.00     0.200 A 
ATOM     98  F   UNL A   1      44.903  28.964  36.439  1.00  0.00    -0.200 F 
ATOM     99  F   UNL A   1      44.344  26.298  36.344  1.00  0.00    -0.200 F 
ENDBRANCH  66  89
ENDBRANCH  40  41
ENDBRANCH  33  35
ENDBRANCH  32  33
ENDBRANCH  31  32
ENDBRANCH   1  31
TORSDOF 16
ENDMDL
