MODEL 1
REMARK VINA RESULT:     -13.4      0.000      0.000
REMARK SMILES CS(=O)(=O)c1ccc(C2=NN(c3ccc(C(=O)OCCOC(=O)c4ccc(-c5c6nc(c(-c7c(F)c(F)c(F)c(F)c7F)c7ccc([nH]7)c(-c7c(F)c(F)c(F)c(F)c7F)c7nc(c(-c8c(F)c(F)c(F)c(F)c8F)c8ccc5[nH]8)C=C7)C=C6)cc4)cc3)[C@H](c3cccs3)C2)cc1
REMARK SMILES IDX 19 1 18 2 16 3 17 4 15 5 12 6 13 7 88 8 14 9 87 10 11 11
REMARK SMILES IDX 9 12 10 13 95 14 89 15 8 16 5 17 6 18 97 19 7 20 96 21 2 22
REMARK SMILES IDX 1 23 3 24 4 25 90 26 91 27 94 28 92 29 93 30 20 31 21 32
REMARK SMILES IDX 22 33 23 34 24 35 25 36 86 37 26 38 85 39 27 40 28 41 29 42
REMARK SMILES IDX 79 43 30 44 84 45 78 46 80 47 31 48 83 49 77 50 76 51 32 53
REMARK SMILES IDX 64 54 44 55 63 56 45 57 48 58 62 59 81 60 46 61 47 62 61 64
REMARK SMILES IDX 82 65 49 66 33 67 34 68 42 69 35 70 36 71 40 72 43 73 37 74
REMARK SMILES IDX 38 75 41 76 39 77 65 78 66 79 74 80 67 81 68 82 72 83 75 84
REMARK SMILES IDX 69 85 70 86 73 87 71 88 50 89 51 90 59 91 52 92 53 93 57 94
REMARK SMILES IDX 60 95 54 96 55 97 58 98 56 99
REMARK H PARENT 80 52 48 63
REMARK Flexibility Score: inf
ROOT
ATOM      1  C   UNL A   1      41.599  20.742  26.096  1.00  0.00     0.275 C 
ENDROOT
BRANCH   1   2
ATOM      2  O   UNL A   1      40.444  21.442  25.593  1.00  0.00    -0.458 OA
BRANCH   2   3
ATOM      3  C   UNL A   1      39.630  21.985  26.530  1.00  0.00     0.338 C 
ATOM      4  O   UNL A   1      39.915  22.217  27.696  1.00  0.00    -0.246 OA
BRANCH   3   5
ATOM      5  C   UNL A   1      38.325  22.366  25.939  1.00  0.00     0.060 A 
ATOM      6  C   UNL A   1      35.812  23.145  24.949  1.00  0.00     0.060 A 
ATOM      7  C   UNL A   1      36.521  23.987  25.809  1.00  0.00     0.029 A 
ATOM      8  C   UNL A   1      36.393  21.928  24.560  1.00  0.00     0.029 A 
ATOM      9  C   UNL A   1      37.749  23.584  26.330  1.00  0.00     0.018 A 
ATOM     10  C   UNL A   1      37.649  21.542  25.038  1.00  0.00     0.018 A 
BRANCH   6  11
ATOM     11  N   UNL A   1      34.494  23.436  24.589  1.00  0.00    -0.257 N 
ATOM     12  C   UNL A   1      32.929  24.871  24.427  1.00  0.00     0.071 C 
ATOM     13  N   UNL A   1      34.172  24.669  24.117  1.00  0.00    -0.176 NA
ATOM     14  C   UNL A   1      32.285  23.828  25.297  1.00  0.00     0.091 C 
ATOM     15  C   UNL A   1      33.431  22.819  25.398  1.00  0.00     0.154 C 
BRANCH  12  16
ATOM     16  C   UNL A   1      32.161  26.024  23.934  1.00  0.00    -0.002 A 
ATOM     17  C   UNL A   1      30.602  28.185  23.140  1.00  0.00     0.067 A 
ATOM     18  C   UNL A   1      29.993  26.953  23.394  1.00  0.00     0.021 A 
ATOM     19  C   UNL A   1      31.987  28.341  23.275  1.00  0.00     0.021 A 
ATOM     20  C   UNL A   1      30.779  25.866  23.773  1.00  0.00     0.011 A 
ATOM     21  C   UNL A   1      32.769  27.257  23.684  1.00  0.00     0.011 A 
BRANCH  17  22
ATOM     22  S   UNL A   1      29.586  29.577  22.701  1.00  0.00     0.175 S 
ATOM     23  C   UNL A   1      27.929  28.948  22.745  1.00  0.00     0.163 C 
ATOM     24  O   UNL A   1      29.887  29.922  21.325  1.00  0.00    -0.224 OA
ATOM     25  O   UNL A   1      29.736  30.550  23.765  1.00  0.00    -0.224 OA
ENDBRANCH  17  22
ENDBRANCH  12  16
BRANCH  15  26
ATOM     26  C   UNL A   1      33.119  21.392  25.005  1.00  0.00     0.030 A 
ATOM     27  C   UNL A   1      33.377  20.261  25.763  1.00  0.00     0.017 A 
ATOM     28  S   UNL A   1      32.522  20.968  23.455  1.00  0.00    -0.147 S 
ATOM     29  C   UNL A   1      33.099  19.053  25.063  1.00  0.00     0.012 A 
ATOM     30  C   UNL A   1      32.608  19.296  23.801  1.00  0.00     0.065 A 
ENDBRANCH  15  26
ENDBRANCH   6  11
ENDBRANCH   3   5
ENDBRANCH   2   3
ENDBRANCH   1   2
BRANCH   1  31
ATOM     31  C   UNL A   1      42.882  21.475  25.710  1.00  0.00     0.275 C 
BRANCH  31  32
ATOM     32  O   UNL A   1      42.555  22.685  25.001  1.00  0.00    -0.458 OA
BRANCH  32  33
ATOM     33  C   UNL A   1      43.390  23.730  25.196  1.00  0.00     0.338 C 
ATOM     34  O   UNL A   1      44.472  23.932  24.671  1.00  0.00    -0.246 OA
BRANCH  33  35
ATOM     35  C   UNL A   1      42.795  24.658  26.171  1.00  0.00     0.060 A 
ATOM     36  C   UNL A   1      42.944  26.030  25.985  1.00  0.00     0.016 A 
ATOM     37  C   UNL A   1      42.205  24.174  27.336  1.00  0.00     0.016 A 
ATOM     38  C   UNL A   1      42.585  26.921  26.993  1.00  0.00     0.010 A 
ATOM     39  C   UNL A   1      41.759  25.076  28.310  1.00  0.00     0.010 A 
ATOM     40  C   UNL A   1      41.977  26.460  28.168  1.00  0.00    -0.014 A 
BRANCH  40  41
ATOM     41  C   UNL A   1      41.622  27.408  29.264  1.00  0.00     0.031 A 
ATOM     42  C   UNL A   1      42.442  27.441  30.529  1.00  0.00     0.074 A 
ATOM     43  C   UNL A   1      40.583  28.257  29.133  1.00  0.00     0.049 A 
ATOM     44  N   UNL A   1      42.194  28.044  31.666  1.00  0.00    -0.248 NA
ATOM     45  C   UNL A   1      43.704  26.683  30.518  1.00  0.00     0.031 C 
ATOM     46  C   UNL A   1      39.730  28.380  27.951  1.00  0.00     0.029 A 
ATOM     47  N   UNL A   1      40.068  29.185  30.008  1.00  0.00    -0.354 N 
ATOM     48  C   UNL A   1      43.233  27.690  32.518  1.00  0.00     0.074 A 
ATOM     49  C   UNL A   1      44.115  26.820  31.771  1.00  0.00     0.031 C 
ATOM     50  C   UNL A   1      38.826  29.350  28.158  1.00  0.00     0.029 A 
ATOM     51  C   UNL A   1      38.973  29.855  29.518  1.00  0.00     0.049 A 
ATOM     52  H   UNL A   1      40.447  29.354  30.901  1.00  0.00     0.167 HD
ATOM     53  C   UNL A   1      43.431  28.058  33.807  1.00  0.00     0.037 A 
ATOM     54  C   UNL A   1      38.149  30.743  30.108  1.00  0.00     0.037 A 
ATOM     55  C   UNL A   1      42.589  28.975  34.532  1.00  0.00     0.049 A 
ATOM     56  C   UNL A   1      38.375  31.115  31.547  1.00  0.00     0.074 A 
ATOM     57  C   UNL A   1      42.715  29.414  35.839  1.00  0.00     0.029 A 
ATOM     58  N   UNL A   1      41.477  29.611  34.002  1.00  0.00    -0.354 N 
ATOM     59  N   UNL A   1      39.321  30.722  32.364  1.00  0.00    -0.248 NA
ATOM     60  C   UNL A   1      37.404  32.039  32.153  1.00  0.00     0.031 C 
ATOM     61  C   UNL A   1      41.661  30.295  36.110  1.00  0.00     0.029 A 
ATOM     62  C   UNL A   1      40.903  30.434  34.959  1.00  0.00     0.049 A 
ATOM     63  H   UNL A   1      41.143  29.494  33.083  1.00  0.00     0.167 HD
ATOM     64  C   UNL A   1      39.067  31.355  33.574  1.00  0.00     0.074 A 
ATOM     65  C   UNL A   1      37.892  32.178  33.377  1.00  0.00     0.031 C 
ATOM     66  C   UNL A   1      39.741  31.254  34.745  1.00  0.00     0.037 A 
BRANCH  53  67
ATOM     67  C   UNL A   1      44.593  27.450  34.537  1.00  0.00     0.064 A 
ATOM     68  C   UNL A   1      45.874  28.017  34.497  1.00  0.00     0.173 A 
ATOM     69  C   UNL A   1      44.403  26.311  35.337  1.00  0.00     0.173 A 
ATOM     70  F   UNL A   1      46.110  29.098  33.740  1.00  0.00    -0.203 F 
ATOM     71  C   UNL A   1      46.928  27.456  35.215  1.00  0.00     0.198 A 
ATOM     72  C   UNL A   1      45.452  25.769  36.074  1.00  0.00     0.198 A 
ATOM     73  F   UNL A   1      43.195  25.734  35.416  1.00  0.00    -0.203 F 
ATOM     74  F   UNL A   1      48.152  27.995  35.135  1.00  0.00    -0.200 F 
ATOM     75  C   UNL A   1      46.714  26.339  36.009  1.00  0.00     0.200 A 
ATOM     76  F   UNL A   1      45.241  24.698  36.852  1.00  0.00    -0.200 F 
ATOM     77  F   UNL A   1      47.727  25.809  36.710  1.00  0.00    -0.200 F 
ENDBRANCH  53  67
BRANCH  54  78
ATOM     78  C   UNL A   1      36.999  31.308  29.352  1.00  0.00     0.064 A 
ATOM     79  C   UNL A   1      36.994  32.648  28.943  1.00  0.00     0.173 A 
ATOM     80  C   UNL A   1      35.881  30.524  29.032  1.00  0.00     0.173 A 
ATOM     81  F   UNL A   1      38.026  33.447  29.251  1.00  0.00    -0.203 F 
ATOM     82  C   UNL A   1      35.907  33.185  28.256  1.00  0.00     0.198 A 
ATOM     83  C   UNL A   1      34.810  31.054  28.317  1.00  0.00     0.198 A 
ATOM     84  F   UNL A   1      35.835  29.236  29.405  1.00  0.00    -0.203 F 
ATOM     85  F   UNL A   1      35.906  34.483  27.918  1.00  0.00    -0.200 F 
ATOM     86  C   UNL A   1      34.821  32.386  27.936  1.00  0.00     0.200 A 
ATOM     87  F   UNL A   1      33.769  30.273  27.998  1.00  0.00    -0.200 F 
ATOM     88  F   UNL A   1      33.779  32.902  27.268  1.00  0.00    -0.200 F 
ENDBRANCH  54  78
BRANCH  66  89
ATOM     89  C   UNL A   1      39.242  32.079  35.893  1.00  0.00     0.064 A 
ATOM     90  C   UNL A   1      39.699  33.387  36.111  1.00  0.00     0.173 A 
ATOM     91  C   UNL A   1      38.275  31.564  36.770  1.00  0.00     0.173 A 
ATOM     92  F   UNL A   1      40.636  33.916  35.309  1.00  0.00    -0.203 F 
ATOM     93  C   UNL A   1      39.224  34.142  37.180  1.00  0.00     0.198 A 
ATOM     94  C   UNL A   1      37.783  32.331  37.823  1.00  0.00     0.198 A 
ATOM     95  F   UNL A   1      37.803  30.320  36.602  1.00  0.00    -0.203 F 
ATOM     96  F   UNL A   1      39.708  35.373  37.396  1.00  0.00    -0.200 F 
ATOM     97  C   UNL A   1      38.263  33.615  38.031  1.00  0.00     0.200 A 
ATOM     98  F   UNL A   1      36.848  31.825  38.639  1.00  0.00    -0.200 F 
ATOM     99  F   UNL A   1      37.805  34.345  39.058  1.00  0.00    -0.200 F 
ENDBRANCH  66  89
ENDBRANCH  40  41
ENDBRANCH  33  35
ENDBRANCH  32  33
ENDBRANCH  31  32
ENDBRANCH   1  31
TORSDOF 15
ENDMDL
MODEL 2
REMARK VINA RESULT:     -13.1      5.258     10.626
REMARK SMILES CS(=O)(=O)c1ccc(C2=NN(c3ccc(C(=O)OCCOC(=O)c4ccc(-c5c6nc(c(-c7c(F)c(F)c(F)c(F)c7F)c7ccc([nH]7)c(-c7c(F)c(F)c(F)c(F)c7F)c7nc(c(-c8c(F)c(F)c(F)c(F)c8F)c8ccc5[nH]8)C=C7)C=C6)cc4)cc3)[C@H](c3cccs3)C2)cc1
REMARK SMILES IDX 19 1 18 2 16 3 17 4 15 5 12 6 13 7 88 8 14 9 87 10 11 11
REMARK SMILES IDX 9 12 10 13 95 14 89 15 8 16 5 17 6 18 97 19 7 20 96 21 2 22
REMARK SMILES IDX 1 23 3 24 4 25 90 26 91 27 94 28 92 29 93 30 20 31 21 32
REMARK SMILES IDX 22 33 23 34 24 35 25 36 86 37 26 38 85 39 27 40 28 41 29 42
REMARK SMILES IDX 79 43 30 44 84 45 78 46 80 47 31 48 83 49 77 50 76 51 32 53
REMARK SMILES IDX 64 54 44 55 63 56 45 57 48 58 62 59 81 60 46 61 47 62 61 64
REMARK SMILES IDX 82 65 49 66 33 67 34 68 42 69 35 70 36 71 40 72 43 73 37 74
REMARK SMILES IDX 38 75 41 76 39 77 65 78 66 79 74 80 67 81 68 82 72 83 75 84
REMARK SMILES IDX 69 85 70 86 73 87 71 88 50 89 51 90 59 91 52 92 53 93 57 94
REMARK SMILES IDX 60 95 54 96 55 97 58 98 56 99
REMARK H PARENT 80 52 48 63
REMARK Flexibility Score: inf
ROOT
ATOM      1  C   UNL A   1      34.418  33.535  29.891  1.00  0.00     0.275 C 
ENDROOT
BRANCH   1   2
ATOM      2  O   UNL A   1      33.951  32.336  29.243  1.00  0.00    -0.458 OA
BRANCH   2   3
ATOM      3  C   UNL A   1      34.581  32.006  28.091  1.00  0.00     0.338 C 
ATOM      4  O   UNL A   1      35.560  32.560  27.611  1.00  0.00    -0.246 OA
BRANCH   3   5
ATOM      5  C   UNL A   1      33.984  30.788  27.492  1.00  0.00     0.060 A 
ATOM      6  C   UNL A   1      32.968  28.472  26.266  1.00  0.00     0.060 A 
ATOM      7  C   UNL A   1      34.331  28.576  26.553  1.00  0.00     0.029 A 
ATOM      8  C   UNL A   1      32.116  29.523  26.635  1.00  0.00     0.029 A 
ATOM      9  C   UNL A   1      34.841  29.740  27.125  1.00  0.00     0.018 A 
ATOM     10  C   UNL A   1      32.613  30.672  27.258  1.00  0.00     0.018 A 
BRANCH   6  11
ATOM     11  N   UNL A   1      32.477  27.409  25.504  1.00  0.00    -0.257 N 
ATOM     12  C   UNL A   1      32.750  25.439  24.744  1.00  0.00     0.071 C 
ATOM     13  N   UNL A   1      32.782  26.129  25.842  1.00  0.00    -0.176 NA
ATOM     14  C   UNL A   1      32.555  26.221  23.475  1.00  0.00     0.091 C 
ATOM     15  C   UNL A   1      32.367  27.625  24.053  1.00  0.00     0.154 C 
BRANCH  12  16
ATOM     16  C   UNL A   1      32.854  23.972  24.720  1.00  0.00    -0.002 A 
ATOM     17  C   UNL A   1      32.882  21.194  24.623  1.00  0.00     0.067 A 
ATOM     18  C   UNL A   1      31.900  21.846  25.373  1.00  0.00     0.021 A 
ATOM     19  C   UNL A   1      33.854  21.921  23.927  1.00  0.00     0.021 A 
ATOM     20  C   UNL A   1      31.899  23.239  25.435  1.00  0.00     0.011 A 
ATOM     21  C   UNL A   1      33.834  23.318  23.968  1.00  0.00     0.011 A 
BRANCH  17  22
ATOM     22  S   UNL A   1      32.847  19.418  24.513  1.00  0.00     0.175 S 
ATOM     23  C   UNL A   1      34.548  18.933  24.627  1.00  0.00     0.163 C 
ATOM     24  O   UNL A   1      32.379  19.072  23.184  1.00  0.00    -0.224 OA
ATOM     25  O   UNL A   1      32.154  18.945  25.696  1.00  0.00    -0.224 OA
ENDBRANCH  17  22
ENDBRANCH  12  16
BRANCH  15  26
ATOM     26  C   UNL A   1      31.115  28.369  23.642  1.00  0.00     0.030 A 
ATOM     27  C   UNL A   1      30.849  29.709  23.874  1.00  0.00     0.017 A 
ATOM     28  S   UNL A   1      29.758  27.585  22.947  1.00  0.00    -0.147 S 
ATOM     29  C   UNL A   1      29.528  30.081  23.494  1.00  0.00     0.012 A 
ATOM     30  C   UNL A   1      28.834  29.023  22.956  1.00  0.00     0.065 A 
ENDBRANCH  15  26
ENDBRANCH   6  11
ENDBRANCH   3   5
ENDBRANCH   2   3
ENDBRANCH   1   2
BRANCH   1  31
ATOM     31  C   UNL A   1      34.401  33.367  31.409  1.00  0.00     0.275 C 
BRANCH  31  32
ATOM     32  O   UNL A   1      34.813  32.031  31.754  1.00  0.00    -0.458 OA
BRANCH  32  33
ATOM     33  C   UNL A   1      35.896  31.934  32.557  1.00  0.00     0.338 C 
ATOM     34  O   UNL A   1      36.013  32.321  33.706  1.00  0.00    -0.246 OA
BRANCH  33  35
ATOM     35  C   UNL A   1      36.982  31.251  31.834  1.00  0.00     0.060 A 
ATOM     36  C   UNL A   1      37.972  30.590  32.558  1.00  0.00     0.016 A 
ATOM     37  C   UNL A   1      37.096  31.375  30.452  1.00  0.00     0.016 A 
ATOM     38  C   UNL A   1      39.119  30.125  31.920  1.00  0.00     0.010 A 
ATOM     39  C   UNL A   1      38.206  30.825  29.799  1.00  0.00     0.010 A 
ATOM     40  C   UNL A   1      39.250  30.226  30.528  1.00  0.00    -0.014 A 
BRANCH  40  41
ATOM     41  C   UNL A   1      40.492  29.760  29.846  1.00  0.00     0.031 A 
ATOM     42  C   UNL A   1      41.655  30.703  29.666  1.00  0.00     0.074 A 
ATOM     43  C   UNL A   1      40.601  28.491  29.400  1.00  0.00     0.049 A 
ATOM     44  N   UNL A   1      42.737  30.561  28.941  1.00  0.00    -0.248 NA
ATOM     45  C   UNL A   1      41.584  31.984  30.388  1.00  0.00     0.031 C 
ATOM     46  C   UNL A   1      39.585  27.449  29.548  1.00  0.00     0.029 A 
ATOM     47  N   UNL A   1      41.625  27.860  28.733  1.00  0.00    -0.354 N 
ATOM     48  C   UNL A   1      43.442  31.751  29.073  1.00  0.00     0.074 A 
ATOM     49  C   UNL A   1      42.667  32.607  29.945  1.00  0.00     0.031 C 
ATOM     50  C   UNL A   1      40.048  26.304  29.024  1.00  0.00     0.029 A 
ATOM     51  C   UNL A   1      41.354  26.549  28.422  1.00  0.00     0.049 A 
ATOM     52  H   UNL A   1      42.472  28.305  28.500  1.00  0.00     0.167 HD
ATOM     53  C   UNL A   1      44.627  32.097  28.515  1.00  0.00     0.037 A 
ATOM     54  C   UNL A   1      42.052  25.656  27.695  1.00  0.00     0.037 A 
ATOM     55  C   UNL A   1      45.431  31.224  27.699  1.00  0.00     0.049 A 
ATOM     56  C   UNL A   1      43.353  26.073  27.066  1.00  0.00     0.074 A 
ATOM     57  C   UNL A   1      46.650  31.483  27.097  1.00  0.00     0.029 A 
ATOM     58  N   UNL A   1      45.104  29.912  27.391  1.00  0.00    -0.354 N 
ATOM     59  N   UNL A   1      43.976  27.223  27.140  1.00  0.00    -0.248 NA
ATOM     60  C   UNL A   1      44.036  25.073  26.231  1.00  0.00     0.031 C 
ATOM     61  C   UNL A   1      47.048  30.338  26.399  1.00  0.00     0.029 A 
ATOM     62  C   UNL A   1      46.097  29.352  26.601  1.00  0.00     0.049 A 
ATOM     63  H   UNL A   1      44.289  29.448  27.687  1.00  0.00     0.167 HD
ATOM     64  C   UNL A   1      45.126  27.084  26.373  1.00  0.00     0.074 A 
ATOM     65  C   UNL A   1      45.126  25.729  25.863  1.00  0.00     0.031 C 
ATOM     66  C   UNL A   1      46.088  28.000  26.109  1.00  0.00     0.037 A 
BRANCH  53  67
ATOM     67  C   UNL A   1      45.125  33.495  28.742  1.00  0.00     0.064 A 
ATOM     68  C   UNL A   1      46.014  33.806  29.781  1.00  0.00     0.173 A 
ATOM     69  C   UNL A   1      44.748  34.527  27.869  1.00  0.00     0.173 A 
ATOM     70  F   UNL A   1      46.397  32.859  30.649  1.00  0.00    -0.203 F 
ATOM     71  C   UNL A   1      46.493  35.104  29.947  1.00  0.00     0.198 A 
ATOM     72  C   UNL A   1      45.248  35.816  28.022  1.00  0.00     0.198 A 
ATOM     73  F   UNL A   1      43.906  34.280  26.854  1.00  0.00    -0.203 F 
ATOM     74  F   UNL A   1      47.315  35.386  30.967  1.00  0.00    -0.200 F 
ATOM     75  C   UNL A   1      46.117  36.105  29.063  1.00  0.00     0.200 A 
ATOM     76  F   UNL A   1      44.896  36.780  27.159  1.00  0.00    -0.200 F 
ATOM     77  F   UNL A   1      46.590  37.350  29.218  1.00  0.00    -0.200 F 
ENDBRANCH  53  67
BRANCH  54  78
ATOM     78  C   UNL A   1      41.513  24.286  27.481  1.00  0.00     0.064 A 
ATOM     79  C   UNL A   1      42.127  23.170  28.065  1.00  0.00     0.173 A 
ATOM     80  C   UNL A   1      40.382  24.065  26.682  1.00  0.00     0.173 A 
ATOM     81  F   UNL A   1      43.229  23.325  28.814  1.00  0.00    -0.203 F 
ATOM     82  C   UNL A   1      41.637  21.884  27.846  1.00  0.00     0.198 A 
ATOM     83  C   UNL A   1      39.875  22.782  26.490  1.00  0.00     0.198 A 
ATOM     84  F   UNL A   1      39.761  25.099  26.095  1.00  0.00    -0.203 F 
ATOM     85  F   UNL A   1      42.270  20.828  28.378  1.00  0.00    -0.200 F 
ATOM     86  C   UNL A   1      40.507  21.692  27.066  1.00  0.00     0.200 A 
ATOM     87  F   UNL A   1      38.774  22.604  25.747  1.00  0.00    -0.200 F 
ATOM     88  F   UNL A   1      40.032  20.455  26.862  1.00  0.00    -0.200 F 
ENDBRANCH  54  78
BRANCH  66  89
ATOM     89  C   UNL A   1      47.237  27.556  25.254  1.00  0.00     0.064 A 
ATOM     90  C   UNL A   1      48.316  26.838  25.791  1.00  0.00     0.173 A 
ATOM     91  C   UNL A   1      47.246  27.828  23.878  1.00  0.00     0.173 A 
ATOM     92  F   UNL A   1      48.361  26.568  27.104  1.00  0.00    -0.203 F 
ATOM     93  C   UNL A   1      49.374  26.429  24.984  1.00  0.00     0.198 A 
ATOM     94  C   UNL A   1      48.294  27.396  23.070  1.00  0.00     0.198 A 
ATOM     95  F   UNL A   1      46.235  28.508  23.317  1.00  0.00    -0.203 F 
ATOM     96  F   UNL A   1      50.417  25.784  25.525  1.00  0.00    -0.200 F 
ATOM     97  C   UNL A   1      49.360  26.704  23.624  1.00  0.00     0.200 A 
ATOM     98  F   UNL A   1      48.274  27.654  21.755  1.00  0.00    -0.200 F 
ATOM     99  F   UNL A   1      50.378  26.307  22.849  1.00  0.00    -0.200 F 
ENDBRANCH  66  89
ENDBRANCH  40  41
ENDBRANCH  33  35
ENDBRANCH  32  33
ENDBRANCH  31  32
ENDBRANCH   1  31
TORSDOF 15
ENDMDL
MODEL 3
REMARK VINA RESULT:     -13.0      4.801      8.878
REMARK SMILES CS(=O)(=O)c1ccc(C2=NN(c3ccc(C(=O)OCCOC(=O)c4ccc(-c5c6nc(c(-c7c(F)c(F)c(F)c(F)c7F)c7ccc([nH]7)c(-c7c(F)c(F)c(F)c(F)c7F)c7nc(c(-c8c(F)c(F)c(F)c(F)c8F)c8ccc5[nH]8)C=C7)C=C6)cc4)cc3)[C@H](c3cccs3)C2)cc1
REMARK SMILES IDX 19 1 18 2 16 3 17 4 15 5 12 6 13 7 88 8 14 9 87 10 11 11
REMARK SMILES IDX 9 12 10 13 95 14 89 15 8 16 5 17 6 18 97 19 7 20 96 21 2 22
REMARK SMILES IDX 1 23 3 24 4 25 90 26 91 27 94 28 92 29 93 30 20 31 21 32
REMARK SMILES IDX 22 33 23 34 24 35 25 36 86 37 26 38 85 39 27 40 28 41 29 42
REMARK SMILES IDX 79 43 30 44 84 45 78 46 80 47 31 48 83 49 77 50 76 51 32 53
REMARK SMILES IDX 64 54 44 55 63 56 45 57 48 58 62 59 81 60 46 61 47 62 61 64
REMARK SMILES IDX 82 65 49 66 33 67 34 68 42 69 35 70 36 71 40 72 43 73 37 74
REMARK SMILES IDX 38 75 41 76 39 77 65 78 66 79 74 80 67 81 68 82 72 83 75 84
REMARK SMILES IDX 69 85 70 86 73 87 71 88 50 89 51 90 59 91 52 92 53 93 57 94
REMARK SMILES IDX 60 95 54 96 55 97 58 98 56 99
REMARK H PARENT 80 52 48 63
REMARK Flexibility Score: inf
ROOT
ATOM      1  C   UNL A   1      38.699  21.018  25.376  1.00  0.00     0.275 C 
ENDROOT
BRANCH   1   2
ATOM      2  O   UNL A   1      39.068  22.001  26.364  1.00  0.00    -0.458 OA
BRANCH   2   3
ATOM      3  C   UNL A   1      38.638  23.263  26.127  1.00  0.00     0.338 C 
ATOM      4  O   UNL A   1      39.299  24.288  26.221  1.00  0.00    -0.246 OA
BRANCH   3   5
ATOM      5  C   UNL A   1      37.240  23.261  25.632  1.00  0.00     0.060 A 
ATOM      6  C   UNL A   1      34.632  23.353  24.590  1.00  0.00     0.060 A 
ATOM      7  C   UNL A   1      35.732  23.329  23.730  1.00  0.00     0.029 A 
ATOM      8  C   UNL A   1      34.851  23.291  25.974  1.00  0.00     0.029 A 
ATOM      9  C   UNL A   1      37.026  23.323  24.247  1.00  0.00     0.018 A 
ATOM     10  C   UNL A   1      36.146  23.231  26.498  1.00  0.00     0.018 A 
BRANCH   6  11
ATOM     11  N   UNL A   1      33.343  23.574  24.096  1.00  0.00    -0.257 N 
ATOM     12  C   UNL A   1      31.651  24.857  23.944  1.00  0.00     0.071 C 
ATOM     13  N   UNL A   1      32.938  24.833  23.786  1.00  0.00    -0.176 NA
ATOM     14  C   UNL A   1      31.033  23.621  24.535  1.00  0.00     0.091 C 
ATOM     15  C   UNL A   1      32.269  22.725  24.636  1.00  0.00     0.154 C 
BRANCH  12  16
ATOM     16  C   UNL A   1      30.818  25.999  23.535  1.00  0.00    -0.002 A 
ATOM     17  C   UNL A   1      29.209  28.184  22.935  1.00  0.00     0.067 A 
ATOM     18  C   UNL A   1      28.695  27.146  23.717  1.00  0.00     0.021 A 
ATOM     19  C   UNL A   1      30.519  28.133  22.446  1.00  0.00     0.021 A 
ATOM     20  C   UNL A   1      29.498  26.042  24.001  1.00  0.00     0.011 A 
ATOM     21  C   UNL A   1      31.331  27.039  22.757  1.00  0.00     0.011 A 
BRANCH  17  22
ATOM     22  S   UNL A   1      28.192  29.609  22.616  1.00  0.00     0.175 S 
ATOM     23  C   UNL A   1      28.982  30.926  23.501  1.00  0.00     0.163 C 
ATOM     24  O   UNL A   1      26.903  29.374  23.238  1.00  0.00    -0.224 OA
ATOM     25  O   UNL A   1      28.297  29.882  21.196  1.00  0.00    -0.224 OA
ENDBRANCH  17  22
ENDBRANCH  12  16
BRANCH  15  26
ATOM     26  C   UNL A   1      32.181  21.366  23.979  1.00  0.00     0.030 A 
ATOM     27  C   UNL A   1      32.342  20.142  24.611  1.00  0.00     0.017 A 
ATOM     28  S   UNL A   1      32.014  21.164  22.285  1.00  0.00    -0.147 S 
ATOM     29  C   UNL A   1      32.342  19.048  23.700  1.00  0.00     0.012 A 
ATOM     30  C   UNL A   1      32.153  19.464  22.403  1.00  0.00     0.065 A 
ENDBRANCH  15  26
ENDBRANCH   6  11
ENDBRANCH   3   5
ENDBRANCH   2   3
ENDBRANCH   1   2
BRANCH   1  31
ATOM     31  C   UNL A   1      39.274  19.650  25.738  1.00  0.00     0.275 C 
BRANCH  31  32
ATOM     32  O   UNL A   1      40.340  19.809  26.693  1.00  0.00    -0.458 OA
BRANCH  32  33
ATOM     33  C   UNL A   1      41.595  19.706  26.202  1.00  0.00     0.338 C 
ATOM     34  O   UNL A   1      42.099  18.756  25.628  1.00  0.00    -0.246 OA
BRANCH  33  35
ATOM     35  C   UNL A   1      42.324  20.962  26.449  1.00  0.00     0.060 A 
ATOM     36  C   UNL A   1      42.653  21.313  27.756  1.00  0.00     0.016 A 
ATOM     37  C   UNL A   1      42.563  21.854  25.407  1.00  0.00     0.016 A 
ATOM     38  C   UNL A   1      43.143  22.584  28.042  1.00  0.00     0.010 A 
ATOM     39  C   UNL A   1      43.143  23.098  25.684  1.00  0.00     0.010 A 
ATOM     40  C   UNL A   1      43.406  23.495  27.009  1.00  0.00    -0.014 A 
BRANCH  40  41
ATOM     41  C   UNL A   1      43.898  24.869  27.314  1.00  0.00     0.031 A 
ATOM     42  C   UNL A   1      42.958  25.900  27.886  1.00  0.00     0.074 A 
ATOM     43  C   UNL A   1      45.188  25.204  27.103  1.00  0.00     0.049 A 
ATOM     44  N   UNL A   1      43.130  27.189  28.042  1.00  0.00    -0.248 NA
ATOM     45  C   UNL A   1      41.641  25.416  28.332  1.00  0.00     0.031 C 
ATOM     46  C   UNL A   1      46.229  24.304  26.605  1.00  0.00     0.029 A 
ATOM     47  N   UNL A   1      45.846  26.397  27.286  1.00  0.00    -0.354 N 
ATOM     48  C   UNL A   1      41.930  27.676  28.544  1.00  0.00     0.074 A 
ATOM     49  C   UNL A   1      41.034  26.546  28.668  1.00  0.00     0.031 C 
ATOM     50  C   UNL A   1      47.396  24.962  26.558  1.00  0.00     0.029 A 
ATOM     51  C   UNL A   1      47.174  26.354  26.933  1.00  0.00     0.049 A 
ATOM     52  H   UNL A   1      45.409  27.207  27.637  1.00  0.00     0.167 HD
ATOM     53  C   UNL A   1      41.605  28.950  28.869  1.00  0.00     0.037 A 
ATOM     54  C   UNL A   1      48.100  27.330  26.873  1.00  0.00     0.037 A 
ATOM     55  C   UNL A   1      42.515  30.065  28.808  1.00  0.00     0.049 A 
ATOM     56  C   UNL A   1      47.707  28.741  27.216  1.00  0.00     0.074 A 
ATOM     57  C   UNL A   1      42.279  31.392  29.127  1.00  0.00     0.029 A 
ATOM     58  N   UNL A   1      43.844  29.977  28.422  1.00  0.00    -0.354 N 
ATOM     59  N   UNL A   1      46.550  29.202  27.623  1.00  0.00    -0.248 NA
ATOM     60  C   UNL A   1      48.745  29.772  27.067  1.00  0.00     0.031 C 
ATOM     61  C   UNL A   1      43.457  32.113  28.905  1.00  0.00     0.029 A 
ATOM     62  C   UNL A   1      44.438  31.229  28.488  1.00  0.00     0.049 A 
ATOM     63  H   UNL A   1      44.297  29.150  28.141  1.00  0.00     0.167 HD
ATOM     64  C   UNL A   1      46.722  30.570  27.790  1.00  0.00     0.074 A 
ATOM     65  C   UNL A   1      48.102  30.861  27.463  1.00  0.00     0.031 C 
ATOM     66  C   UNL A   1      45.814  31.501  28.169  1.00  0.00     0.037 A 
BRANCH  53  67
ATOM     67  C   UNL A   1      40.194  29.223  29.302  1.00  0.00     0.064 A 
ATOM     68  C   UNL A   1      39.153  29.392  28.376  1.00  0.00     0.173 A 
ATOM     69  C   UNL A   1      39.871  29.260  30.667  1.00  0.00     0.173 A 
ATOM     70  F   UNL A   1      39.411  29.377  27.061  1.00  0.00    -0.203 F 
ATOM     71  C   UNL A   1      37.844  29.605  28.803  1.00  0.00     0.198 A 
ATOM     72  C   UNL A   1      38.558  29.447  31.090  1.00  0.00     0.198 A 
ATOM     73  F   UNL A   1      40.828  29.096  31.593  1.00  0.00    -0.203 F 
ATOM     74  F   UNL A   1      36.872  29.797  27.903  1.00  0.00    -0.200 F 
ATOM     75  C   UNL A   1      37.547  29.623  30.158  1.00  0.00     0.200 A 
ATOM     76  F   UNL A   1      38.269  29.450  32.399  1.00  0.00    -0.200 F 
ATOM     77  F   UNL A   1      36.284  29.815  30.565  1.00  0.00    -0.200 F 
ENDBRANCH  53  67
BRANCH  54  78
ATOM     78  C   UNL A   1      49.482  27.018  26.423  1.00  0.00     0.064 A 
ATOM     79  C   UNL A   1      49.821  27.041  25.063  1.00  0.00     0.173 A 
ATOM     80  C   UNL A   1      50.489  26.681  27.340  1.00  0.00     0.173 A 
ATOM     81  F   UNL A   1      48.887  27.327  24.144  1.00  0.00    -0.203 F 
ATOM     82  C   UNL A   1      51.111  26.726  24.638  1.00  0.00     0.198 A 
ATOM     83  C   UNL A   1      51.785  26.398  26.916  1.00  0.00     0.198 A 
ATOM     84  F   UNL A   1      50.215  26.640  28.652  1.00  0.00    -0.203 F 
ATOM     85  F   UNL A   1      51.397  26.709  23.328  1.00  0.00    -0.200 F 
ATOM     86  C   UNL A   1      52.093  26.413  25.565  1.00  0.00     0.200 A 
ATOM     87  F   UNL A   1      52.734  26.110  27.817  1.00  0.00    -0.200 F 
ATOM     88  F   UNL A   1      53.335  26.117  25.156  1.00  0.00    -0.200 F 
ENDBRANCH  54  78
BRANCH  66  89
ATOM     89  C   UNL A   1      46.295  32.916  28.282  1.00  0.00     0.064 A 
ATOM     90  C   UNL A   1      46.861  33.407  29.468  1.00  0.00     0.173 A 
ATOM     91  C   UNL A   1      46.212  33.784  27.183  1.00  0.00     0.173 A 
ATOM     92  F   UNL A   1      46.946  32.619  30.551  1.00  0.00    -0.203 F 
ATOM     93  C   UNL A   1      47.306  34.723  29.557  1.00  0.00     0.198 A 
ATOM     94  C   UNL A   1      46.682  35.093  27.267  1.00  0.00     0.198 A 
ATOM     95  F   UNL A   1      45.682  33.362  26.026  1.00  0.00    -0.203 F 
ATOM     96  F   UNL A   1      47.803  35.184  30.713  1.00  0.00    -0.200 F 
ATOM     97  C   UNL A   1      47.220  35.562  28.456  1.00  0.00     0.200 A 
ATOM     98  F   UNL A   1      46.607  35.900  26.200  1.00  0.00    -0.200 F 
ATOM     99  F   UNL A   1      47.652  36.828  28.542  1.00  0.00    -0.200 F 
ENDBRANCH  66  89
ENDBRANCH  40  41
ENDBRANCH  33  35
ENDBRANCH  32  33
ENDBRANCH  31  32
ENDBRANCH   1  31
TORSDOF 15
ENDMDL
