MODEL 1
REMARK VINA RESULT:     -12.3      0.000      0.000
REMARK SMILES C[C@@H](c1ccc(Cl)cc1)N1C[C@H](C(=O)OCCOC(=O)c2ccc(-c3c4nc(c(-c5c(F)c(F)c(F)c(F)c5F)c5ccc([nH]5)c(-c5c(F)c(F)c(F)c(F)c5F)c5nc(c(-c6c(F)c(F)c(F)c(F)c6F)c6ccc3[nH]6)C=C5)C=C4)cc2)CC1=O
REMARK SMILES IDX 16 1 15 2 13 3 14 4 12 5 10 6 11 7 85 8 84 9 86 10 2 11 1 12
REMARK SMILES IDX 3 13 4 14 9 15 5 16 8 17 6 18 7 19 17 20 18 21 19 22 20 23
REMARK SMILES IDX 21 24 22 25 83 26 23 27 82 28 24 29 25 30 26 31 76 32 27 33
REMARK SMILES IDX 81 34 75 35 77 36 28 37 80 38 74 39 73 40 29 42 61 43 41 44
REMARK SMILES IDX 60 45 42 46 45 47 59 48 78 49 43 50 44 51 58 53 79 54 46 55
REMARK SMILES IDX 30 56 31 57 39 58 32 59 33 60 37 61 40 62 34 63 35 64 38 65
REMARK SMILES IDX 36 66 62 67 63 68 71 69 64 70 65 71 69 72 72 73 66 74 67 75
REMARK SMILES IDX 70 76 68 77 47 78 48 79 56 80 49 81 50 82 54 83 57 84 51 85
REMARK SMILES IDX 52 86 55 87 53 88
REMARK H PARENT 77 41 45 52
REMARK Flexibility Score: inf
ROOT
ATOM      1  C   UNL A   1      31.175  28.876  24.650  1.00  0.00     0.274 C 
ENDROOT
BRANCH   1   2
ATOM      2  O   UNL A   1      31.852  27.823  25.374  1.00  0.00    -0.462 OA
BRANCH   2   3
ATOM      3  C   UNL A   1      32.288  26.744  24.664  1.00  0.00     0.311 C 
ATOM      4  O   UNL A   1      33.416  26.613  24.210  1.00  0.00    -0.252 OA
BRANCH   3   5
ATOM      5  C   UNL A   1      31.154  25.748  24.464  1.00  0.00     0.128 C 
ATOM      6  N   UNL A   1      31.979  23.652  25.112  1.00  0.00    -0.335 N 
ATOM      7  C   UNL A   1      31.630  24.400  23.920  1.00  0.00     0.136 C 
ATOM      8  C   UNL A   1      31.364  24.197  26.239  1.00  0.00     0.224 C 
ATOM      9  C   UNL A   1      30.523  25.368  25.798  1.00  0.00     0.117 C 
ATOM     10  O   UNL A   1      31.426  23.773  27.381  1.00  0.00    -0.275 OA
BRANCH   6  11
ATOM     11  C   UNL A   1      32.660  22.342  25.170  1.00  0.00     0.112 C 
ATOM     12  C   UNL A   1      32.258  21.476  23.962  1.00  0.00     0.036 C 
BRANCH  11  13
ATOM     13  C   UNL A   1      34.166  22.361  25.463  1.00  0.00    -0.026 A 
ATOM     14  C   UNL A   1      34.947  21.196  25.346  1.00  0.00     0.007 A 
ATOM     15  C   UNL A   1      34.854  23.563  25.722  1.00  0.00     0.007 A 
ATOM     16  C   UNL A   1      36.337  21.220  25.516  1.00  0.00     0.021 A 
ATOM     17  C   UNL A   1      36.245  23.596  25.876  1.00  0.00     0.021 A 
ATOM     18  C   UNL A   1      36.982  22.424  25.774  1.00  0.00     0.041 A 
ATOM     19  Cl  UNL A   1      38.692  22.466  25.943  1.00  0.00    -0.084 Cl
ENDBRANCH  11  13
ENDBRANCH   6  11
ENDBRANCH   3   5
ENDBRANCH   2   3
ENDBRANCH   1   2
BRANCH   1  20
ATOM     20  C   UNL A   1      31.403  30.217  25.346  1.00  0.00     0.275 C 
BRANCH  20  21
ATOM     21  O   UNL A   1      32.732  30.218  25.892  1.00  0.00    -0.458 OA
BRANCH  21  22
ATOM     22  C   UNL A   1      33.004  31.142  26.845  1.00  0.00     0.338 C 
ATOM     23  O   UNL A   1      32.276  32.045  27.213  1.00  0.00    -0.246 OA
BRANCH  22  24
ATOM     24  C   UNL A   1      34.361  30.886  27.389  1.00  0.00     0.060 A 
ATOM     25  C   UNL A   1      34.805  29.584  27.600  1.00  0.00     0.016 A 
ATOM     26  C   UNL A   1      35.176  31.955  27.767  1.00  0.00     0.016 A 
ATOM     27  C   UNL A   1      36.011  29.362  28.263  1.00  0.00     0.010 A 
ATOM     28  C   UNL A   1      36.423  31.716  28.369  1.00  0.00     0.010 A 
ATOM     29  C   UNL A   1      36.840  30.411  28.681  1.00  0.00    -0.014 A 
BRANCH  29  30
ATOM     30  C   UNL A   1      38.056  30.140  29.524  1.00  0.00     0.031 A 
ATOM     31  C   UNL A   1      39.219  29.359  28.953  1.00  0.00     0.074 A 
ATOM     32  C   UNL A   1      38.197  30.638  30.773  1.00  0.00     0.049 A 
ATOM     33  N   UNL A   1      40.223  28.787  29.577  1.00  0.00    -0.248 NA
ATOM     34  C   UNL A   1      39.253  29.184  27.493  1.00  0.00     0.031 C 
ATOM     35  C   UNL A   1      37.236  31.492  31.471  1.00  0.00     0.029 A 
ATOM     36  N   UNL A   1      39.231  30.512  31.676  1.00  0.00    -0.354 N 
ATOM     37  C   UNL A   1      40.934  28.097  28.602  1.00  0.00     0.074 A 
ATOM     38  C   UNL A   1      40.271  28.348  27.341  1.00  0.00     0.031 C 
ATOM     39  C   UNL A   1      37.759  31.887  32.639  1.00  0.00     0.029 A 
ATOM     40  C   UNL A   1      39.025  31.196  32.851  1.00  0.00     0.049 A 
ATOM     41  H   UNL A   1      40.041  29.984  31.496  1.00  0.00     0.167 HD
ATOM     42  C   UNL A   1      42.033  27.316  28.750  1.00  0.00     0.037 A 
ATOM     43  C   UNL A   1      39.726  31.217  34.003  1.00  0.00     0.037 A 
ATOM     44  C   UNL A   1      42.775  27.167  29.977  1.00  0.00     0.049 A 
ATOM     45  C   UNL A   1      40.938  30.343  34.153  1.00  0.00     0.074 A 
ATOM     46  C   UNL A   1      43.909  26.406  30.214  1.00  0.00     0.029 A 
ATOM     47  N   UNL A   1      42.485  27.825  31.161  1.00  0.00    -0.354 N 
ATOM     48  N   UNL A   1      41.507  29.558  33.274  1.00  0.00    -0.248 NA
ATOM     49  C   UNL A   1      41.577  30.321  35.479  1.00  0.00     0.031 C 
ATOM     50  C   UNL A   1      44.292  26.589  31.547  1.00  0.00     0.029 A 
ATOM     51  C   UNL A   1      43.419  27.490  32.129  1.00  0.00     0.049 A 
ATOM     52  H   UNL A   1      41.728  28.440  31.295  1.00  0.00     0.167 HD
ATOM     53  C   UNL A   1      42.561  28.944  33.936  1.00  0.00     0.074 A 
ATOM     54  C   UNL A   1      42.576  29.470  35.284  1.00  0.00     0.031 C 
ATOM     55  C   UNL A   1      43.427  28.012  33.470  1.00  0.00     0.037 A 
BRANCH  42  56
ATOM     56  C   UNL A   1      42.488  26.513  27.566  1.00  0.00     0.064 A 
ATOM     57  C   UNL A   1      43.510  26.947  26.712  1.00  0.00     0.173 A 
ATOM     58  C   UNL A   1      41.929  25.245  27.332  1.00  0.00     0.173 A 
ATOM     59  F   UNL A   1      44.071  28.152  26.888  1.00  0.00    -0.203 F 
ATOM     60  C   UNL A   1      43.944  26.148  25.654  1.00  0.00     0.198 A 
ATOM     61  C   UNL A   1      42.384  24.439  26.293  1.00  0.00     0.198 A 
ATOM     62  F   UNL A   1      40.956  24.779  28.129  1.00  0.00    -0.203 F 
ATOM     63  F   UNL A   1      44.900  26.594  24.830  1.00  0.00    -0.200 F 
ATOM     64  C   UNL A   1      43.387  24.893  25.452  1.00  0.00     0.200 A 
ATOM     65  F   UNL A   1      41.857  23.221  26.112  1.00  0.00    -0.200 F 
ATOM     66  F   UNL A   1      43.820  24.120  24.447  1.00  0.00    -0.200 F 
ENDBRANCH  42  56
BRANCH  43  67
ATOM     67  C   UNL A   1      39.240  32.037  35.144  1.00  0.00     0.064 A 
ATOM     68  C   UNL A   1      38.480  31.466  36.173  1.00  0.00     0.173 A 
ATOM     69  C   UNL A   1      39.531  33.408  35.231  1.00  0.00     0.173 A 
ATOM     70  F   UNL A   1      38.138  30.170  36.115  1.00  0.00    -0.203 F 
ATOM     71  C   UNL A   1      38.033  32.234  37.247  1.00  0.00     0.198 A 
ATOM     72  C   UNL A   1      39.115  34.166  36.321  1.00  0.00     0.198 A 
ATOM     73  F   UNL A   1      40.244  34.005  34.264  1.00  0.00    -0.203 F 
ATOM     74  F   UNL A   1      37.270  31.677  38.197  1.00  0.00    -0.200 F 
ATOM     75  C   UNL A   1      38.362  33.580  37.326  1.00  0.00     0.200 A 
ATOM     76  F   UNL A   1      39.447  35.462  36.398  1.00  0.00    -0.200 F 
ATOM     77  F   UNL A   1      37.944  34.316  38.365  1.00  0.00    -0.200 F 
ENDBRANCH  43  67
BRANCH  55  78
ATOM     78  C   UNL A   1      44.475  27.514  34.419  1.00  0.00     0.064 A 
ATOM     79  C   UNL A   1      45.700  28.181  34.569  1.00  0.00     0.173 A 
ATOM     80  C   UNL A   1      44.246  26.373  35.202  1.00  0.00     0.173 A 
ATOM     81  F   UNL A   1      45.972  29.267  33.831  1.00  0.00    -0.203 F 
ATOM     82  C   UNL A   1      46.666  27.710  35.455  1.00  0.00     0.198 A 
ATOM     83  C   UNL A   1      45.206  25.918  36.102  1.00  0.00     0.198 A 
ATOM     84  F   UNL A   1      43.089  25.703  35.097  1.00  0.00    -0.203 F 
ATOM     85  F   UNL A   1      47.846  28.339  35.552  1.00  0.00    -0.200 F 
ATOM     86  C   UNL A   1      46.417  26.584  36.224  1.00  0.00     0.200 A 
ATOM     87  F   UNL A   1      44.961  24.833  36.850  1.00  0.00    -0.200 F 
ATOM     88  F   UNL A   1      47.349  26.132  37.074  1.00  0.00    -0.200 F 
ENDBRANCH  55  78
ENDBRANCH  29  30
ENDBRANCH  22  24
ENDBRANCH  21  22
ENDBRANCH  20  21
ENDBRANCH   1  20
TORSDOF 13
ENDMDL
MODEL 2
REMARK VINA RESULT:     -12.3      0.306      1.726
REMARK SMILES C[C@@H](c1ccc(Cl)cc1)N1C[C@H](C(=O)OCCOC(=O)c2ccc(-c3c4nc(c(-c5c(F)c(F)c(F)c(F)c5F)c5ccc([nH]5)c(-c5c(F)c(F)c(F)c(F)c5F)c5nc(c(-c6c(F)c(F)c(F)c(F)c6F)c6ccc3[nH]6)C=C5)C=C4)cc2)CC1=O
REMARK SMILES IDX 16 1 15 2 13 3 14 4 12 5 10 6 11 7 85 8 84 9 86 10 2 11 1 12
REMARK SMILES IDX 3 13 4 14 9 15 5 16 8 17 6 18 7 19 17 20 18 21 19 22 20 23
REMARK SMILES IDX 21 24 22 25 83 26 23 27 82 28 24 29 25 30 26 31 76 32 27 33
REMARK SMILES IDX 81 34 75 35 77 36 28 37 80 38 74 39 73 40 29 42 61 43 41 44
REMARK SMILES IDX 60 45 42 46 45 47 59 48 78 49 43 50 44 51 58 53 79 54 46 55
REMARK SMILES IDX 30 56 31 57 39 58 32 59 33 60 37 61 40 62 34 63 35 64 38 65
REMARK SMILES IDX 36 66 62 67 63 68 71 69 64 70 65 71 69 72 72 73 66 74 67 75
REMARK SMILES IDX 70 76 68 77 47 78 48 79 56 80 49 81 50 82 54 83 57 84 51 85
REMARK SMILES IDX 52 86 55 87 53 88
REMARK H PARENT 77 41 45 52
REMARK Flexibility Score: inf
ROOT
ATOM      1  C   UNL A   1      31.346  29.045  24.263  1.00  0.00     0.274 C 
ENDROOT
BRANCH   1   2
ATOM      2  O   UNL A   1      31.199  27.721  24.826  1.00  0.00    -0.462 OA
BRANCH   2   3
ATOM      3  C   UNL A   1      31.586  26.660  24.062  1.00  0.00     0.311 C 
ATOM      4  O   UNL A   1      32.590  26.627  23.364  1.00  0.00    -0.252 OA
BRANCH   3   5
ATOM      5  C   UNL A   1      30.560  25.539  24.155  1.00  0.00     0.128 C 
ATOM      6  N   UNL A   1      31.693  23.655  24.967  1.00  0.00    -0.335 N 
ATOM      7  C   UNL A   1      31.121  24.178  23.742  1.00  0.00     0.136 C 
ATOM      8  C   UNL A   1      31.157  24.301  26.080  1.00  0.00     0.224 C 
ATOM      9  C   UNL A   1      30.140  25.304  25.601  1.00  0.00     0.117 C 
ATOM     10  O   UNL A   1      31.403  24.062  27.251  1.00  0.00    -0.275 OA
BRANCH   6  11
ATOM     11  C   UNL A   1      32.524  22.442  25.112  1.00  0.00     0.112 C 
ATOM     12  C   UNL A   1      32.137  21.399  24.048  1.00  0.00     0.036 C 
BRANCH  11  13
ATOM     13  C   UNL A   1      34.035  22.657  25.269  1.00  0.00    -0.026 A 
ATOM     14  C   UNL A   1      34.582  23.950  25.367  1.00  0.00     0.007 A 
ATOM     15  C   UNL A   1      34.919  21.577  25.461  1.00  0.00     0.007 A 
ATOM     16  C   UNL A   1      35.946  24.157  25.608  1.00  0.00     0.021 A 
ATOM     17  C   UNL A   1      36.281  21.778  25.719  1.00  0.00     0.021 A 
ATOM     18  C   UNL A   1      36.790  23.067  25.789  1.00  0.00     0.041 A 
ATOM     19  Cl  UNL A   1      38.458  23.316  26.126  1.00  0.00    -0.084 Cl
ENDBRANCH  11  13
ENDBRANCH   6  11
ENDBRANCH   3   5
ENDBRANCH   2   3
ENDBRANCH   1   2
BRANCH   1  20
ATOM     20  C   UNL A   1      31.393  30.085  25.382  1.00  0.00     0.275 C 
BRANCH  20  21
ATOM     21  O   UNL A   1      32.729  30.112  25.911  1.00  0.00    -0.458 OA
BRANCH  21  22
ATOM     22  C   UNL A   1      33.003  31.064  26.836  1.00  0.00     0.338 C 
ATOM     23  O   UNL A   1      32.278  31.980  27.176  1.00  0.00    -0.246 OA
BRANCH  22  24
ATOM     24  C   UNL A   1      34.358  30.819  27.390  1.00  0.00     0.060 A 
ATOM     25  C   UNL A   1      34.835  29.521  27.548  1.00  0.00     0.016 A 
ATOM     26  C   UNL A   1      35.138  31.891  27.830  1.00  0.00     0.016 A 
ATOM     27  C   UNL A   1      36.036  29.300  28.221  1.00  0.00     0.010 A 
ATOM     28  C   UNL A   1      36.381  31.658  28.441  1.00  0.00     0.010 A 
ATOM     29  C   UNL A   1      36.829  30.351  28.700  1.00  0.00    -0.014 A 
BRANCH  29  30
ATOM     30  C   UNL A   1      38.039  30.074  29.549  1.00  0.00     0.031 A 
ATOM     31  C   UNL A   1      39.202  29.288  28.984  1.00  0.00     0.074 A 
ATOM     32  C   UNL A   1      38.175  30.569  30.800  1.00  0.00     0.049 A 
ATOM     33  N   UNL A   1      40.199  28.710  29.612  1.00  0.00    -0.248 NA
ATOM     34  C   UNL A   1      39.243  29.114  27.524  1.00  0.00     0.031 C 
ATOM     35  C   UNL A   1      37.215  31.428  31.493  1.00  0.00     0.029 A 
ATOM     36  N   UNL A   1      39.204  30.438  31.708  1.00  0.00    -0.354 N 
ATOM     37  C   UNL A   1      40.913  28.018  28.641  1.00  0.00     0.074 A 
ATOM     38  C   UNL A   1      40.258  28.273  27.377  1.00  0.00     0.031 C 
ATOM     39  C   UNL A   1      37.733  31.819  32.664  1.00  0.00     0.029 A 
ATOM     40  C   UNL A   1      38.995  31.121  32.882  1.00  0.00     0.049 A 
ATOM     41  H   UNL A   1      40.013  29.907  31.532  1.00  0.00     0.167 HD
ATOM     42  C   UNL A   1      42.007  27.232  28.795  1.00  0.00     0.037 A 
ATOM     43  C   UNL A   1      39.689  31.139  34.038  1.00  0.00     0.037 A 
ATOM     44  C   UNL A   1      42.742  27.078  30.025  1.00  0.00     0.049 A 
ATOM     45  C   UNL A   1      40.897  30.258  34.195  1.00  0.00     0.074 A 
ATOM     46  C   UNL A   1      43.871  26.312  30.268  1.00  0.00     0.029 A 
ATOM     47  N   UNL A   1      42.448  27.737  31.208  1.00  0.00    -0.354 N 
ATOM     48  N   UNL A   1      41.467  29.472  33.317  1.00  0.00    -0.248 NA
ATOM     49  C   UNL A   1      41.528  30.232  35.523  1.00  0.00     0.031 C 
ATOM     50  C   UNL A   1      44.248  26.492  31.603  1.00  0.00     0.029 A 
ATOM     51  C   UNL A   1      43.375  27.397  32.181  1.00  0.00     0.049 A 
ATOM     52  H   UNL A   1      41.693  28.355  31.339  1.00  0.00     0.167 HD
ATOM     53  C   UNL A   1      42.514  28.852  33.985  1.00  0.00     0.074 A 
ATOM     54  C   UNL A   1      42.524  29.378  35.334  1.00  0.00     0.031 C 
ATOM     55  C   UNL A   1      43.378  27.917  33.523  1.00  0.00     0.037 A 
BRANCH  42  56
ATOM     56  C   UNL A   1      42.466  26.429  27.612  1.00  0.00     0.064 A 
ATOM     57  C   UNL A   1      43.485  26.865  26.757  1.00  0.00     0.173 A 
ATOM     58  C   UNL A   1      41.912  25.157  27.382  1.00  0.00     0.173 A 
ATOM     59  F   UNL A   1      44.040  28.073  26.929  1.00  0.00    -0.203 F 
ATOM     60  C   UNL A   1      43.922  26.065  25.700  1.00  0.00     0.198 A 
ATOM     61  C   UNL A   1      42.370  24.351  26.344  1.00  0.00     0.198 A 
ATOM     62  F   UNL A   1      40.942  24.688  28.181  1.00  0.00    -0.203 F 
ATOM     63  F   UNL A   1      44.875  26.514  24.874  1.00  0.00    -0.200 F 
ATOM     64  C   UNL A   1      43.370  24.807  25.502  1.00  0.00     0.200 A 
ATOM     65  F   UNL A   1      41.849  23.129  26.167  1.00  0.00    -0.200 F 
ATOM     66  F   UNL A   1      43.806  24.034  24.498  1.00  0.00    -0.200 F 
ENDBRANCH  42  56
BRANCH  43  67
ATOM     67  C   UNL A   1      39.201  31.959  35.178  1.00  0.00     0.064 A 
ATOM     68  C   UNL A   1      39.481  33.330  35.255  1.00  0.00     0.173 A 
ATOM     69  C   UNL A   1      38.440  31.389  36.211  1.00  0.00     0.173 A 
ATOM     70  F   UNL A   1      40.241  33.913  34.316  1.00  0.00    -0.203 F 
ATOM     71  C   UNL A   1      39.015  34.099  36.320  1.00  0.00     0.198 A 
ATOM     72  C   UNL A   1      37.945  32.165  37.255  1.00  0.00     0.198 A 
ATOM     73  F   UNL A   1      38.157  30.078  36.190  1.00  0.00    -0.203 F 
ATOM     74  F   UNL A   1      39.333  35.399  36.396  1.00  0.00    -0.200 F 
ATOM     75  C   UNL A   1      38.236  33.518  37.312  1.00  0.00     0.200 A 
ATOM     76  F   UNL A   1      37.183  31.601  38.202  1.00  0.00    -0.200 F 
ATOM     77  F   UNL A   1      37.777  34.260  38.328  1.00  0.00    -0.200 F 
ENDBRANCH  43  67
BRANCH  55  78
ATOM     78  C   UNL A   1      44.419  27.413  34.477  1.00  0.00     0.064 A 
ATOM     79  C   UNL A   1      44.202  26.266  35.254  1.00  0.00     0.173 A 
ATOM     80  C   UNL A   1      45.653  28.068  34.598  1.00  0.00     0.173 A 
ATOM     81  F   UNL A   1      43.032  25.615  35.185  1.00  0.00    -0.203 F 
ATOM     82  C   UNL A   1      45.176  25.806  36.137  1.00  0.00     0.198 A 
ATOM     83  C   UNL A   1      46.634  27.592  35.466  1.00  0.00     0.198 A 
ATOM     84  F   UNL A   1      45.910  29.167  33.874  1.00  0.00    -0.203 F 
ATOM     85  F   UNL A   1      44.932  24.733  36.901  1.00  0.00    -0.200 F 
ATOM     86  C   UNL A   1      46.392  26.465  36.238  1.00  0.00     0.200 A 
ATOM     87  F   UNL A   1      47.810  28.226  35.558  1.00  0.00    -0.200 F 
ATOM     88  F   UNL A   1      47.328  26.022  37.088  1.00  0.00    -0.200 F 
ENDBRANCH  55  78
ENDBRANCH  29  30
ENDBRANCH  22  24
ENDBRANCH  21  22
ENDBRANCH  20  21
ENDBRANCH   1  20
TORSDOF 13
ENDMDL
MODEL 3
REMARK VINA RESULT:     -12.2      1.238      2.455
REMARK SMILES C[C@@H](c1ccc(Cl)cc1)N1C[C@H](C(=O)OCCOC(=O)c2ccc(-c3c4nc(c(-c5c(F)c(F)c(F)c(F)c5F)c5ccc([nH]5)c(-c5c(F)c(F)c(F)c(F)c5F)c5nc(c(-c6c(F)c(F)c(F)c(F)c6F)c6ccc3[nH]6)C=C5)C=C4)cc2)CC1=O
REMARK SMILES IDX 16 1 15 2 13 3 14 4 12 5 10 6 11 7 85 8 84 9 86 10 2 11 1 12
REMARK SMILES IDX 3 13 4 14 9 15 5 16 8 17 6 18 7 19 17 20 18 21 19 22 20 23
REMARK SMILES IDX 21 24 22 25 83 26 23 27 82 28 24 29 25 30 26 31 76 32 27 33
REMARK SMILES IDX 81 34 75 35 77 36 28 37 80 38 74 39 73 40 29 42 61 43 41 44
REMARK SMILES IDX 60 45 42 46 45 47 59 48 78 49 43 50 44 51 58 53 79 54 46 55
REMARK SMILES IDX 30 56 31 57 39 58 32 59 33 60 37 61 40 62 34 63 35 64 38 65
REMARK SMILES IDX 36 66 62 67 63 68 71 69 64 70 65 71 69 72 72 73 66 74 67 75
REMARK SMILES IDX 70 76 68 77 47 78 48 79 56 80 49 81 50 82 54 83 57 84 51 85
REMARK SMILES IDX 52 86 55 87 53 88
REMARK H PARENT 77 41 45 52
REMARK Flexibility Score: inf
ROOT
ATOM      1  C   UNL A   1      31.661  27.986  26.869  1.00  0.00     0.274 C 
ENDROOT
BRANCH   1   2
ATOM      2  O   UNL A   1      31.263  27.021  25.869  1.00  0.00    -0.462 OA
BRANCH   2   3
ATOM      3  C   UNL A   1      32.048  25.918  25.703  1.00  0.00     0.311 C 
ATOM      4  O   UNL A   1      31.684  24.764  25.879  1.00  0.00    -0.252 OA
BRANCH   3   5
ATOM      5  C   UNL A   1      33.465  26.329  25.324  1.00  0.00     0.128 C 
ATOM      6  N   UNL A   1      34.361  24.570  24.062  1.00  0.00    -0.335 N 
ATOM      7  C   UNL A   1      34.459  25.170  25.378  1.00  0.00     0.136 C 
ATOM      8  C   UNL A   1      33.806  25.465  23.149  1.00  0.00     0.224 C 
ATOM      9  C   UNL A   1      33.533  26.763  23.865  1.00  0.00     0.117 C 
ATOM     10  O   UNL A   1      33.629  25.275  21.956  1.00  0.00    -0.275 OA
BRANCH   6  11
ATOM     11  C   UNL A   1      34.976  23.303  23.616  1.00  0.00     0.112 C 
ATOM     12  C   UNL A   1      36.496  23.330  23.865  1.00  0.00     0.036 C 
BRANCH  11  13
ATOM     13  C   UNL A   1      34.284  22.007  24.058  1.00  0.00    -0.026 A 
ATOM     14  C   UNL A   1      32.944  21.743  23.718  1.00  0.00     0.007 A 
ATOM     15  C   UNL A   1      34.994  20.971  24.697  1.00  0.00     0.007 A 
ATOM     16  C   UNL A   1      32.331  20.523  24.031  1.00  0.00     0.021 A 
ATOM     17  C   UNL A   1      34.391  19.743  24.997  1.00  0.00     0.021 A 
ATOM     18  C   UNL A   1      33.061  19.524  24.665  1.00  0.00     0.041 A 
ATOM     19  Cl  UNL A   1      32.325  18.010  25.015  1.00  0.00    -0.084 Cl
ENDBRANCH  11  13
ENDBRANCH   6  11
ENDBRANCH   3   5
ENDBRANCH   2   3
ENDBRANCH   1   2
BRANCH   1  20
ATOM     20  C   UNL A   1      31.600  29.397  26.284  1.00  0.00     0.275 C 
BRANCH  20  21
ATOM     21  O   UNL A   1      32.945  29.887  26.158  1.00  0.00    -0.458 OA
BRANCH  21  22
ATOM     22  C   UNL A   1      33.289  30.940  26.938  1.00  0.00     0.338 C 
ATOM     23  O   UNL A   1      32.624  31.935  27.156  1.00  0.00    -0.246 OA
BRANCH  22  24
ATOM     24  C   UNL A   1      34.640  30.697  27.504  1.00  0.00     0.060 A 
ATOM     25  C   UNL A   1      35.122  29.400  27.652  1.00  0.00     0.016 A 
ATOM     26  C   UNL A   1      35.409  31.768  27.965  1.00  0.00     0.016 A 
ATOM     27  C   UNL A   1      36.317  29.178  28.335  1.00  0.00     0.010 A 
ATOM     28  C   UNL A   1      36.647  31.535  28.586  1.00  0.00     0.010 A 
ATOM     29  C   UNL A   1      37.100  30.228  28.835  1.00  0.00    -0.014 A 
BRANCH  29  30
ATOM     30  C   UNL A   1      38.301  29.947  29.694  1.00  0.00     0.031 A 
ATOM     31  C   UNL A   1      39.459  29.143  29.145  1.00  0.00     0.074 A 
ATOM     32  C   UNL A   1      38.436  30.456  30.940  1.00  0.00     0.049 A 
ATOM     33  N   UNL A   1      40.447  28.562  29.785  1.00  0.00    -0.248 NA
ATOM     34  C   UNL A   1      39.507  28.952  27.687  1.00  0.00     0.031 C 
ATOM     35  C   UNL A   1      37.481  31.332  31.618  1.00  0.00     0.029 A 
ATOM     36  N   UNL A   1      39.459  30.324  31.855  1.00  0.00    -0.354 N 
ATOM     37  C   UNL A   1      41.159  27.852  28.826  1.00  0.00     0.074 A 
ATOM     38  C   UNL A   1      40.513  28.099  27.555  1.00  0.00     0.031 C 
ATOM     39  C   UNL A   1      37.997  31.731  32.788  1.00  0.00     0.029 A 
ATOM     40  C   UNL A   1      39.250  31.023  33.020  1.00  0.00     0.049 A 
ATOM     41  H   UNL A   1      40.263  29.782  31.690  1.00  0.00     0.167 HD
ATOM     42  C   UNL A   1      42.244  27.056  28.994  1.00  0.00     0.037 A 
ATOM     43  C   UNL A   1      39.938  31.046  34.180  1.00  0.00     0.037 A 
ATOM     44  C   UNL A   1      42.970  26.908  30.231  1.00  0.00     0.049 A 
ATOM     45  C   UNL A   1      41.135  30.155  34.353  1.00  0.00     0.074 A 
ATOM     46  C   UNL A   1      44.090  26.133  30.488  1.00  0.00     0.029 A 
ATOM     47  N   UNL A   1      42.677  27.584  31.405  1.00  0.00    -0.354 N 
ATOM     48  N   UNL A   1      41.702  29.353  33.488  1.00  0.00    -0.248 NA
ATOM     49  C   UNL A   1      41.759  30.137  35.686  1.00  0.00     0.031 C 
ATOM     50  C   UNL A   1      44.461  26.324  31.823  1.00  0.00     0.029 A 
ATOM     51  C   UNL A   1      43.595  27.245  32.387  1.00  0.00     0.049 A 
ATOM     52  H   UNL A   1      41.927  28.211  31.524  1.00  0.00     0.167 HD
ATOM     53  C   UNL A   1      42.739  28.730  34.168  1.00  0.00     0.074 A 
ATOM     54  C   UNL A   1      42.747  29.270  35.511  1.00  0.00     0.031 C 
ATOM     55  C   UNL A   1      43.596  27.781  33.722  1.00  0.00     0.037 A 
BRANCH  42  56
ATOM     56  C   UNL A   1      42.701  26.234  27.823  1.00  0.00     0.064 A 
ATOM     57  C   UNL A   1      42.141  24.989  27.516  1.00  0.00     0.173 A 
ATOM     58  C   UNL A   1      43.674  26.751  26.952  1.00  0.00     0.173 A 
ATOM     59  F   UNL A   1      41.214  24.448  28.320  1.00  0.00    -0.203 F 
ATOM     60  C   UNL A   1      42.552  24.279  26.388  1.00  0.00     0.198 A 
ATOM     61  C   UNL A   1      44.062  26.054  25.811  1.00  0.00     0.198 A 
ATOM     62  F   UNL A   1      44.232  27.947  27.195  1.00  0.00    -0.203 F 
ATOM     63  F   UNL A   1      42.028  23.074  26.129  1.00  0.00    -0.200 F 
ATOM     64  C   UNL A   1      43.504  24.817  25.534  1.00  0.00     0.200 A 
ATOM     65  F   UNL A   1      44.967  26.584  24.979  1.00  0.00    -0.200 F 
ATOM     66  F   UNL A   1      43.883  24.141  24.440  1.00  0.00    -0.200 F 
ENDBRANCH  42  56
BRANCH  43  67
ATOM     67  C   UNL A   1      39.452  31.885  35.308  1.00  0.00     0.064 A 
ATOM     68  C   UNL A   1      38.592  31.361  36.281  1.00  0.00     0.173 A 
ATOM     69  C   UNL A   1      39.843  33.227  35.436  1.00  0.00     0.173 A 
ATOM     70  F   UNL A   1      38.154  30.097  36.179  1.00  0.00    -0.203 F 
ATOM     71  C   UNL A   1      38.144  32.146  37.342  1.00  0.00     0.198 A 
ATOM     72  C   UNL A   1      39.425  34.000  36.516  1.00  0.00     0.198 A 
ATOM     73  F   UNL A   1      40.655  33.780  34.523  1.00  0.00    -0.203 F 
ATOM     74  F   UNL A   1      37.286  31.637  38.236  1.00  0.00    -0.200 F 
ATOM     75  C   UNL A   1      38.572  33.461  37.465  1.00  0.00     0.200 A 
ATOM     76  F   UNL A   1      39.852  35.265  36.636  1.00  0.00    -0.200 F 
ATOM     77  F   UNL A   1      38.153  34.212  38.492  1.00  0.00    -0.200 F 
ENDBRANCH  43  67
BRANCH  55  78
ATOM     78  C   UNL A   1      44.626  27.277  34.687  1.00  0.00     0.064 A 
ATOM     79  C   UNL A   1      44.388  26.148  35.485  1.00  0.00     0.173 A 
ATOM     80  C   UNL A   1      45.871  27.914  34.801  1.00  0.00     0.173 A 
ATOM     81  F   UNL A   1      43.208  25.514  35.424  1.00  0.00    -0.203 F 
ATOM     82  C   UNL A   1      45.353  25.687  36.378  1.00  0.00     0.198 A 
ATOM     83  C   UNL A   1      46.841  27.437  35.679  1.00  0.00     0.198 A 
ATOM     84  F   UNL A   1      46.147  28.994  34.057  1.00  0.00    -0.203 F 
ATOM     85  F   UNL A   1      45.089  24.631  37.160  1.00  0.00    -0.200 F 
ATOM     86  C   UNL A   1      46.579  26.328  36.470  1.00  0.00     0.200 A 
ATOM     87  F   UNL A   1      48.028  28.053  35.763  1.00  0.00    -0.200 F 
ATOM     88  F   UNL A   1      47.505  25.884  37.331  1.00  0.00    -0.200 F 
ENDBRANCH  55  78
ENDBRANCH  29  30
ENDBRANCH  22  24
ENDBRANCH  21  22
ENDBRANCH  20  21
ENDBRANCH   1  20
TORSDOF 13
ENDMDL
