MODEL 1
REMARK VINA RESULT:     -11.8      0.000      0.000
REMARK SMILES Cc1cc(C)n([C@@H](C(=O)OCCOC(=O)c2ccc(-c3c4nc(c(-c5c(F)c(F)c(F)c(F)c5F)c5ccc([nH]5)c(-c5c(F)c(F)c(F)c(F)c5F)c5nc(c(-c6c(F)c(F)c(F)c(F)c6F)c6ccc3[nH]6)C=C5)C=C4)cc2)C(C)C)n1
REMARK SMILES IDX 12 1 11 2 10 3 8 4 9 5 7 6 6 7 1 8 2 9 3 10 82 11 4 12 5 13
REMARK SMILES IDX 79 14 80 15 81 16 13 17 14 18 15 19 16 20 17 21 78 22 18 23
REMARK SMILES IDX 77 24 19 25 20 26 21 27 71 28 22 29 76 30 70 31 72 32 23 33
REMARK SMILES IDX 75 34 69 35 68 36 24 38 56 39 36 40 55 41 37 42 40 43 54 44
REMARK SMILES IDX 73 45 38 46 39 47 53 49 74 50 41 51 25 52 26 53 34 54 27 55
REMARK SMILES IDX 28 56 32 57 35 58 29 59 30 60 33 61 31 62 57 63 58 64 66 65
REMARK SMILES IDX 59 66 60 67 64 68 67 69 61 70 62 71 65 72 63 73 42 74 43 75
REMARK SMILES IDX 51 76 44 77 45 78 49 79 52 80 46 81 47 82 50 83 48 84
REMARK H PARENT 72 37 40 48
REMARK Flexibility Score: inf
ROOT
ATOM      1  C   UNL A   1      35.449  29.760  27.093  1.00  0.00     0.275 C 
ENDROOT
BRANCH   1   2
ATOM      2  C   UNL A   1      33.931  29.769  27.286  1.00  0.00     0.274 C 
BRANCH   2   3
ATOM      3  O   UNL A   1      33.467  28.442  27.626  1.00  0.00    -0.460 OA
BRANCH   3   4
ATOM      4  C   UNL A   1      32.398  27.971  26.917  1.00  0.00     0.331 C 
ATOM      5  O   UNL A   1      31.364  27.577  27.457  1.00  0.00    -0.250 OA
BRANCH   4   6
ATOM      6  C   UNL A   1      32.573  28.005  25.392  1.00  0.00     0.219 C 
BRANCH   6   7
ATOM      7  N   UNL A   1      31.301  28.057  24.639  1.00  0.00    -0.255 N 
ATOM      8  C   UNL A   1      29.523  29.997  22.241  1.00  0.00     0.069 C 
ATOM      9  C   UNL A   1      30.006  28.990  23.209  1.00  0.00     0.060 A 
ATOM     10  C   UNL A   1      29.473  27.718  23.443  1.00  0.00     0.048 A 
ATOM     11  N   UNL A   1      31.092  29.212  23.947  1.00  0.00    -0.177 NA
ATOM     12  C   UNL A   1      30.335  27.107  24.332  1.00  0.00     0.037 A 
ATOM     13  C   UNL A   1      30.212  25.706  24.801  1.00  0.00     0.066 C 
ENDBRANCH   6   7
BRANCH   6  14
ATOM     14  C   UNL A   1      33.653  27.060  24.769  1.00  0.00     0.019 C 
ATOM     15  C   UNL A   1      33.653  25.702  25.488  1.00  0.00     0.010 C 
ATOM     16  C   UNL A   1      33.514  26.811  23.262  1.00  0.00     0.010 C 
ENDBRANCH   6  14
ENDBRANCH   4   6
ENDBRANCH   3   4
ENDBRANCH   2   3
ENDBRANCH   1   2
BRANCH   1  17
ATOM     17  O   UNL A   1      36.223  29.331  28.231  1.00  0.00    -0.458 OA
BRANCH  17  18
ATOM     18  C   UNL A   1      37.445  29.887  28.343  1.00  0.00     0.338 C 
ATOM     19  O   UNL A   1      37.708  31.053  28.536  1.00  0.00    -0.246 OA
BRANCH  18  20
ATOM     20  C   UNL A   1      38.511  29.024  27.848  1.00  0.00     0.060 A 
ATOM     21  C   UNL A   1      38.668  27.817  28.549  1.00  0.00     0.016 A 
ATOM     22  C   UNL A   1      39.498  29.525  27.005  1.00  0.00     0.016 A 
ATOM     23  C   UNL A   1      39.906  27.233  28.601  1.00  0.00     0.010 A 
ATOM     24  C   UNL A   1      40.718  28.889  26.993  1.00  0.00     0.010 A 
ATOM     25  C   UNL A   1      40.935  27.807  27.859  1.00  0.00    -0.014 A 
BRANCH  25  26
ATOM     26  C   UNL A   1      42.216  27.125  27.879  1.00  0.00     0.031 A 
ATOM     27  C   UNL A   1      42.991  27.355  29.137  1.00  0.00     0.074 A 
ATOM     28  C   UNL A   1      42.524  26.231  26.922  1.00  0.00     0.049 A 
ATOM     29  N   UNL A   1      44.246  27.626  29.292  1.00  0.00    -0.248 NA
ATOM     30  C   UNL A   1      42.212  27.405  30.395  1.00  0.00     0.031 C 
ATOM     31  C   UNL A   1      41.680  25.775  25.811  1.00  0.00     0.029 A 
ATOM     32  N   UNL A   1      43.592  25.400  26.847  1.00  0.00    -0.354 N 
ATOM     33  C   UNL A   1      44.442  27.724  30.671  1.00  0.00     0.074 A 
ATOM     34  C   UNL A   1      43.144  27.734  31.283  1.00  0.00     0.031 C 
ATOM     35  C   UNL A   1      42.133  24.577  25.383  1.00  0.00     0.029 A 
ATOM     36  C   UNL A   1      43.348  24.254  26.109  1.00  0.00     0.049 A 
ATOM     37  H   UNL A   1      44.458  25.593  27.276  1.00  0.00     0.167 HD
ATOM     38  C   UNL A   1      45.664  27.559  31.243  1.00  0.00     0.037 A 
ATOM     39  C   UNL A   1      44.021  23.084  26.214  1.00  0.00     0.037 A 
ATOM     40  C   UNL A   1      46.725  27.815  30.311  1.00  0.00     0.049 A 
ATOM     41  C   UNL A   1      45.291  23.359  26.939  1.00  0.00     0.074 A 
ATOM     42  C   UNL A   1      47.129  28.924  29.593  1.00  0.00     0.029 A 
ATOM     43  N   UNL A   1      47.365  26.747  29.733  1.00  0.00    -0.354 N 
ATOM     44  N   UNL A   1      46.266  24.078  26.454  1.00  0.00    -0.248 NA
ATOM     45  C   UNL A   1      45.286  23.215  28.389  1.00  0.00     0.031 C 
ATOM     46  C   UNL A   1      47.582  28.410  28.343  1.00  0.00     0.029 A 
ATOM     47  C   UNL A   1      47.460  27.022  28.394  1.00  0.00     0.049 A 
ATOM     48  H   UNL A   1      47.692  25.940  30.192  1.00  0.00     0.167 HD
ATOM     49  C   UNL A   1      46.750  24.802  27.537  1.00  0.00     0.074 A 
ATOM     50  C   UNL A   1      46.165  24.168  28.714  1.00  0.00     0.031 C 
ATOM     51  C   UNL A   1      47.344  26.018  27.365  1.00  0.00     0.037 A 
BRANCH  38  52
ATOM     52  C   UNL A   1      45.874  26.825  32.543  1.00  0.00     0.064 A 
ATOM     53  C   UNL A   1      46.637  27.429  33.559  1.00  0.00     0.173 A 
ATOM     54  C   UNL A   1      45.617  25.445  32.711  1.00  0.00     0.173 A 
ATOM     55  F   UNL A   1      46.954  28.731  33.494  1.00  0.00    -0.203 F 
ATOM     56  C   UNL A   1      47.172  26.687  34.616  1.00  0.00     0.198 A 
ATOM     57  C   UNL A   1      46.104  24.722  33.796  1.00  0.00     0.198 A 
ATOM     58  F   UNL A   1      44.985  24.716  31.783  1.00  0.00    -0.203 F 
ATOM     59  F   UNL A   1      48.001  27.277  35.487  1.00  0.00    -0.200 F 
ATOM     60  C   UNL A   1      46.912  25.334  34.729  1.00  0.00     0.200 A 
ATOM     61  F   UNL A   1      45.852  23.407  33.876  1.00  0.00    -0.200 F 
ATOM     62  F   UNL A   1      47.478  24.608  35.702  1.00  0.00    -0.200 F 
ENDBRANCH  38  52
BRANCH  39  63
ATOM     63  C   UNL A   1      43.450  21.724  26.072  1.00  0.00     0.064 A 
ATOM     64  C   UNL A   1      44.046  20.770  25.236  1.00  0.00     0.173 A 
ATOM     65  C   UNL A   1      42.431  21.256  26.929  1.00  0.00     0.173 A 
ATOM     66  F   UNL A   1      45.061  21.121  24.434  1.00  0.00    -0.203 F 
ATOM     67  C   UNL A   1      43.644  19.430  25.252  1.00  0.00     0.198 A 
ATOM     68  C   UNL A   1      42.020  19.924  26.934  1.00  0.00     0.198 A 
ATOM     69  F   UNL A   1      41.871  22.064  27.841  1.00  0.00    -0.203 F 
ATOM     70  F   UNL A   1      44.269  18.535  24.473  1.00  0.00    -0.200 F 
ATOM     71  C   UNL A   1      42.632  19.008  26.102  1.00  0.00     0.200 A 
ATOM     72  F   UNL A   1      41.066  19.526  27.788  1.00  0.00    -0.200 F 
ATOM     73  F   UNL A   1      42.277  17.717  26.148  1.00  0.00    -0.200 F 
ENDBRANCH  39  63
BRANCH  51  74
ATOM     74  C   UNL A   1      47.650  26.456  25.961  1.00  0.00     0.064 A 
ATOM     75  C   UNL A   1      46.781  27.250  25.192  1.00  0.00     0.173 A 
ATOM     76  C   UNL A   1      48.922  26.203  25.437  1.00  0.00     0.173 A 
ATOM     77  F   UNL A   1      45.595  27.637  25.674  1.00  0.00    -0.203 F 
ATOM     78  C   UNL A   1      47.149  27.723  23.935  1.00  0.00     0.198 A 
ATOM     79  C   UNL A   1      49.303  26.708  24.196  1.00  0.00     0.198 A 
ATOM     80  F   UNL A   1      49.819  25.509  26.155  1.00  0.00    -0.203 F 
ATOM     81  F   UNL A   1      46.294  28.470  23.222  1.00  0.00    -0.200 F 
ATOM     82  C   UNL A   1      48.413  27.457  23.441  1.00  0.00     0.200 A 
ATOM     83  F   UNL A   1      50.547  26.498  23.746  1.00  0.00    -0.200 F 
ATOM     84  F   UNL A   1      48.786  27.949  22.251  1.00  0.00    -0.200 F 
ENDBRANCH  51  74
ENDBRANCH  25  26
ENDBRANCH  18  20
ENDBRANCH  17  18
ENDBRANCH   1  17
TORSDOF 13
ENDMDL
MODEL 2
REMARK VINA RESULT:     -11.5      5.329     10.898
REMARK SMILES Cc1cc(C)n([C@@H](C(=O)OCCOC(=O)c2ccc(-c3c4nc(c(-c5c(F)c(F)c(F)c(F)c5F)c5ccc([nH]5)c(-c5c(F)c(F)c(F)c(F)c5F)c5nc(c(-c6c(F)c(F)c(F)c(F)c6F)c6ccc3[nH]6)C=C5)C=C4)cc2)C(C)C)n1
REMARK SMILES IDX 12 1 11 2 10 3 8 4 9 5 7 6 6 7 1 8 2 9 3 10 82 11 4 12 5 13
REMARK SMILES IDX 79 14 80 15 81 16 13 17 14 18 15 19 16 20 17 21 78 22 18 23
REMARK SMILES IDX 77 24 19 25 20 26 21 27 71 28 22 29 76 30 70 31 72 32 23 33
REMARK SMILES IDX 75 34 69 35 68 36 24 38 56 39 36 40 55 41 37 42 40 43 54 44
REMARK SMILES IDX 73 45 38 46 39 47 53 49 74 50 41 51 25 52 26 53 34 54 27 55
REMARK SMILES IDX 28 56 32 57 35 58 29 59 30 60 33 61 31 62 57 63 58 64 66 65
REMARK SMILES IDX 59 66 60 67 64 68 67 69 61 70 62 71 65 72 63 73 42 74 43 75
REMARK SMILES IDX 51 76 44 77 45 78 49 79 52 80 46 81 47 82 50 83 48 84
REMARK H PARENT 72 37 40 48
REMARK Flexibility Score: inf
ROOT
ATOM      1  C   UNL A   1      40.635  20.346  26.313  1.00  0.00     0.275 C 
ENDROOT
BRANCH   1   2
ATOM      2  C   UNL A   1      42.132  20.124  26.541  1.00  0.00     0.274 C 
BRANCH   2   3
ATOM      3  O   UNL A   1      42.873  20.494  25.354  1.00  0.00    -0.460 OA
BRANCH   3   4
ATOM      4  C   UNL A   1      43.392  21.758  25.332  1.00  0.00     0.331 C 
ATOM      5  O   UNL A   1      42.842  22.691  24.745  1.00  0.00    -0.250 OA
BRANCH   4   6
ATOM      6  C   UNL A   1      44.695  21.932  26.122  1.00  0.00     0.219 C 
BRANCH   6   7
ATOM      7  N   UNL A   1      44.737  23.154  26.956  1.00  0.00    -0.255 N 
ATOM      8  C   UNL A   1      44.919  24.253  30.338  1.00  0.00     0.069 C 
ATOM      9  C   UNL A   1      44.861  24.116  28.868  1.00  0.00     0.060 A 
ATOM     10  C   UNL A   1      45.088  25.115  27.915  1.00  0.00     0.048 A 
ATOM     11  N   UNL A   1      44.621  22.937  28.296  1.00  0.00    -0.177 NA
ATOM     12  C   UNL A   1      45.049  24.481  26.689  1.00  0.00     0.037 A 
ATOM     13  C   UNL A   1      45.324  25.138  25.389  1.00  0.00     0.066 C 
ENDBRANCH   6   7
BRANCH   6  14
ATOM     14  C   UNL A   1      46.036  21.610  25.384  1.00  0.00     0.019 C 
ATOM     15  C   UNL A   1      46.174  20.096  25.166  1.00  0.00     0.010 C 
ATOM     16  C   UNL A   1      46.226  22.315  24.035  1.00  0.00     0.010 C 
ENDBRANCH   6  14
ENDBRANCH   4   6
ENDBRANCH   3   4
ENDBRANCH   2   3
ENDBRANCH   1   2
BRANCH   1  17
ATOM     17  O   UNL A   1      40.007  21.314  27.177  1.00  0.00    -0.458 OA
BRANCH  17  18
ATOM     18  C   UNL A   1      39.371  22.324  26.549  1.00  0.00     0.338 C 
ATOM     19  O   UNL A   1      38.554  22.239  25.660  1.00  0.00    -0.246 OA
BRANCH  18  20
ATOM     20  C   UNL A   1      40.006  23.618  26.766  1.00  0.00     0.060 A 
ATOM     21  C   UNL A   1      41.142  23.588  27.592  1.00  0.00     0.016 A 
ATOM     22  C   UNL A   1      39.329  24.800  26.481  1.00  0.00     0.016 A 
ATOM     23  C   UNL A   1      41.459  24.697  28.331  1.00  0.00     0.010 A 
ATOM     24  C   UNL A   1      39.701  25.936  27.162  1.00  0.00     0.010 A 
ATOM     25  C   UNL A   1      40.700  25.850  28.143  1.00  0.00    -0.014 A 
BRANCH  25  26
ATOM     26  C   UNL A   1      41.104  27.029  28.888  1.00  0.00     0.031 A 
ATOM     27  C   UNL A   1      42.360  27.656  28.371  1.00  0.00     0.074 A 
ATOM     28  C   UNL A   1      40.281  27.567  29.806  1.00  0.00     0.049 A 
ATOM     29  N   UNL A   1      43.383  28.103  29.023  1.00  0.00    -0.248 NA
ATOM     30  C   UNL A   1      42.538  27.669  26.902  1.00  0.00     0.031 C 
ATOM     31  C   UNL A   1      38.922  27.138  30.156  1.00  0.00     0.029 A 
ATOM     32  N   UNL A   1      40.415  28.728  30.491  1.00  0.00    -0.354 N 
ATOM     33  C   UNL A   1      44.260  28.596  28.054  1.00  0.00     0.074 A 
ATOM     34  C   UNL A   1      43.763  28.166  26.778  1.00  0.00     0.031 C 
ATOM     35  C   UNL A   1      38.273  28.172  30.735  1.00  0.00     0.029 A 
ATOM     36  C   UNL A   1      39.207  29.273  30.891  1.00  0.00     0.049 A 
ATOM     37  H   UNL A   1      41.286  29.143  30.686  1.00  0.00     0.167 HD
ATOM     38  C   UNL A   1      45.213  29.521  28.343  1.00  0.00     0.037 A 
ATOM     39  C   UNL A   1      38.982  30.577  31.183  1.00  0.00     0.037 A 
ATOM     40  C   UNL A   1      45.558  29.512  29.735  1.00  0.00     0.049 A 
ATOM     41  C   UNL A   1      40.305  31.225  31.393  1.00  0.00     0.074 A 
ATOM     42  C   UNL A   1      46.109  28.571  30.584  1.00  0.00     0.029 A 
ATOM     43  N   UNL A   1      45.030  30.481  30.550  1.00  0.00    -0.354 N 
ATOM     44  N   UNL A   1      41.098  30.956  32.394  1.00  0.00    -0.248 NA
ATOM     45  C   UNL A   1      40.948  31.838  30.237  1.00  0.00     0.031 C 
ATOM     46  C   UNL A   1      45.456  28.774  31.834  1.00  0.00     0.029 A 
ATOM     47  C   UNL A   1      44.577  29.845  31.677  1.00  0.00     0.049 A 
ATOM     48  H   UNL A   1      44.985  31.446  30.362  1.00  0.00     0.167 HD
ATOM     49  C   UNL A   1      42.377  30.985  31.854  1.00  0.00     0.074 A 
ATOM     50  C   UNL A   1      42.229  31.613  30.545  1.00  0.00     0.031 C 
ATOM     51  C   UNL A   1      43.387  30.239  32.390  1.00  0.00     0.037 A 
BRANCH  38  52
ATOM     52  C   UNL A   1      45.562  30.660  27.419  1.00  0.00     0.064 A 
ATOM     53  C   UNL A   1      46.916  30.980  27.200  1.00  0.00     0.173 A 
ATOM     54  C   UNL A   1      44.629  31.630  26.987  1.00  0.00     0.173 A 
ATOM     55  F   UNL A   1      47.887  30.138  27.585  1.00  0.00    -0.203 F 
ATOM     56  C   UNL A   1      47.304  32.213  26.670  1.00  0.00     0.198 A 
ATOM     57  C   UNL A   1      45.018  32.834  26.407  1.00  0.00     0.198 A 
ATOM     58  F   UNL A   1      43.315  31.508  27.211  1.00  0.00    -0.203 F 
ATOM     59  F   UNL A   1      48.603  32.527  26.602  1.00  0.00    -0.200 F 
ATOM     60  C   UNL A   1      46.355  33.141  26.281  1.00  0.00     0.200 A 
ATOM     61  F   UNL A   1      44.081  33.725  26.052  1.00  0.00    -0.200 F 
ATOM     62  F   UNL A   1      46.724  34.349  25.836  1.00  0.00    -0.200 F 
ENDBRANCH  38  52
BRANCH  39  63
ATOM     63  C   UNL A   1      37.743  31.341  30.905  1.00  0.00     0.064 A 
ATOM     64  C   UNL A   1      37.343  31.623  29.592  1.00  0.00     0.173 A 
ATOM     65  C   UNL A   1      36.803  31.618  31.920  1.00  0.00     0.173 A 
ATOM     66  F   UNL A   1      38.156  31.334  28.566  1.00  0.00    -0.203 F 
ATOM     67  C   UNL A   1      36.080  32.156  29.311  1.00  0.00     0.198 A 
ATOM     68  C   UNL A   1      35.550  32.163  31.641  1.00  0.00     0.198 A 
ATOM     69  F   UNL A   1      37.045  31.287  33.197  1.00  0.00    -0.203 F 
ATOM     70  F   UNL A   1      35.713  32.368  28.039  1.00  0.00    -0.200 F 
ATOM     71  C   UNL A   1      35.184  32.424  30.335  1.00  0.00     0.200 A 
ATOM     72  F   UNL A   1      34.683  32.382  32.639  1.00  0.00    -0.200 F 
ATOM     73  F   UNL A   1      33.959  32.893  30.062  1.00  0.00    -0.200 F 
ENDBRANCH  39  63
BRANCH  51  74
ATOM     74  C   UNL A   1      43.130  29.553  33.702  1.00  0.00     0.064 A 
ATOM     75  C   UNL A   1      43.267  30.191  34.947  1.00  0.00     0.173 A 
ATOM     76  C   UNL A   1      42.576  28.268  33.694  1.00  0.00     0.173 A 
ATOM     77  F   UNL A   1      43.673  31.462  35.028  1.00  0.00    -0.203 F 
ATOM     78  C   UNL A   1      42.915  29.551  36.133  1.00  0.00     0.198 A 
ATOM     79  C   UNL A   1      42.190  27.645  34.878  1.00  0.00     0.198 A 
ATOM     80  F   UNL A   1      42.358  27.638  32.530  1.00  0.00    -0.203 F 
ATOM     81  F   UNL A   1      43.065  30.183  37.307  1.00  0.00    -0.200 F 
ATOM     82  C   UNL A   1      42.369  28.281  36.096  1.00  0.00     0.200 A 
ATOM     83  F   UNL A   1      41.610  26.438  34.834  1.00  0.00    -0.200 F 
ATOM     84  F   UNL A   1      41.988  27.681  37.233  1.00  0.00    -0.200 F 
ENDBRANCH  51  74
ENDBRANCH  25  26
ENDBRANCH  18  20
ENDBRANCH  17  18
ENDBRANCH   1  17
TORSDOF 13
ENDMDL
MODEL 3
REMARK VINA RESULT:     -11.4      7.164     11.854
REMARK SMILES Cc1cc(C)n([C@@H](C(=O)OCCOC(=O)c2ccc(-c3c4nc(c(-c5c(F)c(F)c(F)c(F)c5F)c5ccc([nH]5)c(-c5c(F)c(F)c(F)c(F)c5F)c5nc(c(-c6c(F)c(F)c(F)c(F)c6F)c6ccc3[nH]6)C=C5)C=C4)cc2)C(C)C)n1
REMARK SMILES IDX 12 1 11 2 10 3 8 4 9 5 7 6 6 7 1 8 2 9 3 10 82 11 4 12 5 13
REMARK SMILES IDX 79 14 80 15 81 16 13 17 14 18 15 19 16 20 17 21 78 22 18 23
REMARK SMILES IDX 77 24 19 25 20 26 21 27 71 28 22 29 76 30 70 31 72 32 23 33
REMARK SMILES IDX 75 34 69 35 68 36 24 38 56 39 36 40 55 41 37 42 40 43 54 44
REMARK SMILES IDX 73 45 38 46 39 47 53 49 74 50 41 51 25 52 26 53 34 54 27 55
REMARK SMILES IDX 28 56 32 57 35 58 29 59 30 60 33 61 31 62 57 63 58 64 66 65
REMARK SMILES IDX 59 66 60 67 64 68 67 69 61 70 62 71 65 72 63 73 42 74 43 75
REMARK SMILES IDX 51 76 44 77 45 78 49 79 52 80 46 81 47 82 50 83 48 84
REMARK H PARENT 72 37 40 48
REMARK Flexibility Score: inf
ROOT
ATOM      1  C   UNL A   1      38.496  23.812  26.520  1.00  0.00     0.275 C 
ENDROOT
BRANCH   1   2
ATOM      2  C   UNL A   1      37.065  23.716  25.986  1.00  0.00     0.274 C 
BRANCH   2   3
ATOM      3  O   UNL A   1      37.081  23.622  24.542  1.00  0.00    -0.460 OA
BRANCH   3   4
ATOM      4  C   UNL A   1      35.882  23.377  23.936  1.00  0.00     0.331 C 
ATOM      5  O   UNL A   1      35.792  23.021  22.760  1.00  0.00    -0.250 OA
BRANCH   4   6
ATOM      6  C   UNL A   1      34.656  23.547  24.844  1.00  0.00     0.219 C 
BRANCH   6   7
ATOM      7  N   UNL A   1      33.919  22.291  25.106  1.00  0.00    -0.255 N 
ATOM      8  C   UNL A   1      32.500  19.462  23.476  1.00  0.00     0.069 C 
ATOM      9  C   UNL A   1      32.996  20.481  24.424  1.00  0.00     0.060 A 
ATOM     10  C   UNL A   1      33.104  20.362  25.814  1.00  0.00     0.048 A 
ATOM     11  N   UNL A   1      33.460  21.653  23.994  1.00  0.00    -0.177 NA
ATOM     12  C   UNL A   1      33.737  21.512  26.242  1.00  0.00     0.037 A 
ATOM     13  C   UNL A   1      34.139  21.784  27.642  1.00  0.00     0.066 C 
ENDBRANCH   6   7
BRANCH   6  14
ATOM     14  C   UNL A   1      33.741  24.791  24.595  1.00  0.00     0.019 C 
ATOM     15  C   UNL A   1      33.887  25.799  25.744  1.00  0.00     0.010 C 
ATOM     16  C   UNL A   1      33.980  25.526  23.270  1.00  0.00     0.010 C 
ENDBRANCH   6  14
ENDBRANCH   4   6
ENDBRANCH   3   4
ENDBRANCH   2   3
ENDBRANCH   1   2
BRANCH   1  17
ATOM     17  O   UNL A   1      39.003  25.147  26.719  1.00  0.00    -0.458 OA
BRANCH  17  18
ATOM     18  C   UNL A   1      39.703  25.337  27.855  1.00  0.00     0.338 C 
ATOM     19  O   UNL A   1      40.505  24.583  28.360  1.00  0.00    -0.246 OA
BRANCH  18  20
ATOM     20  C   UNL A   1      39.163  26.408  28.684  1.00  0.00     0.060 A 
ATOM     21  C   UNL A   1      38.905  27.609  28.003  1.00  0.00     0.016 A 
ATOM     22  C   UNL A   1      39.250  26.347  30.071  1.00  0.00     0.016 A 
ATOM     23  C   UNL A   1      38.977  28.793  28.689  1.00  0.00     0.010 A 
ATOM     24  C   UNL A   1      39.238  27.532  30.770  1.00  0.00     0.010 A 
ATOM     25  C   UNL A   1      39.193  28.743  30.063  1.00  0.00    -0.014 A 
BRANCH  25  26
ATOM     26  C   UNL A   1      39.194  30.010  30.773  1.00  0.00     0.031 A 
ATOM     27  C   UNL A   1      40.517  30.706  30.742  1.00  0.00     0.074 A 
ATOM     28  C   UNL A   1      38.039  30.542  31.213  1.00  0.00     0.049 A 
ATOM     29  N   UNL A   1      41.157  31.297  31.698  1.00  0.00    -0.248 NA
ATOM     30  C   UNL A   1      41.283  30.618  29.479  1.00  0.00     0.031 C 
ATOM     31  C   UNL A   1      36.680  30.019  31.029  1.00  0.00     0.029 A 
ATOM     32  N   UNL A   1      37.819  31.762  31.761  1.00  0.00    -0.354 N 
ATOM     33  C   UNL A   1      42.329  31.789  31.118  1.00  0.00     0.074 A 
ATOM     34  C   UNL A   1      42.424  31.214  29.806  1.00  0.00     0.031 C 
ATOM     35  C   UNL A   1      35.799  31.032  31.178  1.00  0.00     0.029 A 
ATOM     36  C   UNL A   1      36.528  32.224  31.575  1.00  0.00     0.049 A 
ATOM     37  H   UNL A   1      38.512  32.269  32.244  1.00  0.00     0.167 HD
ATOM     38  C   UNL A   1      43.030  32.817  31.663  1.00  0.00     0.037 A 
ATOM     39  C   UNL A   1      36.137  33.520  31.605  1.00  0.00     0.037 A 
ATOM     40  C   UNL A   1      42.771  32.952  33.067  1.00  0.00     0.049 A 
ATOM     41  C   UNL A   1      37.221  34.302  32.258  1.00  0.00     0.074 A 
ATOM     42  C   UNL A   1      42.972  32.137  34.165  1.00  0.00     0.029 A 
ATOM     43  N   UNL A   1      41.905  33.931  33.487  1.00  0.00    -0.354 N 
ATOM     44  N   UNL A   1      37.545  34.188  33.517  1.00  0.00    -0.248 NA
ATOM     45  C   UNL A   1      38.250  34.877  31.401  1.00  0.00     0.031 C 
ATOM     46  C   UNL A   1      41.852  32.378  35.013  1.00  0.00     0.029 A 
ATOM     47  C   UNL A   1      41.062  33.348  34.397  1.00  0.00     0.049 A 
ATOM     48  H   UNL A   1      41.893  34.869  33.190  1.00  0.00     0.167 HD
ATOM     49  C   UNL A   1      38.929  34.291  33.542  1.00  0.00     0.074 A 
ATOM     50  C   UNL A   1      39.301  34.796  32.224  1.00  0.00     0.031 C 
ATOM     51  C   UNL A   1      39.666  33.687  34.520  1.00  0.00     0.037 A 
BRANCH  38  52
ATOM     52  C   UNL A   1      43.670  33.906  30.839  1.00  0.00     0.064 A 
ATOM     53  C   UNL A   1      45.030  34.208  31.034  1.00  0.00     0.173 A 
ATOM     54  C   UNL A   1      42.935  34.857  30.095  1.00  0.00     0.173 A 
ATOM     55  F   UNL A   1      45.819  33.383  31.739  1.00  0.00    -0.203 F 
ATOM     56  C   UNL A   1      45.588  35.411  30.592  1.00  0.00     0.198 A 
ATOM     57  C   UNL A   1      43.507  36.028  29.607  1.00  0.00     0.198 A 
ATOM     58  F   UNL A   1      41.613  34.753  29.907  1.00  0.00    -0.203 F 
ATOM     59  F   UNL A   1      46.851  35.715  30.914  1.00  0.00    -0.200 F 
ATOM     60  C   UNL A   1      44.824  36.322  29.886  1.00  0.00     0.200 A 
ATOM     61  F   UNL A   1      42.744  36.904  28.938  1.00  0.00    -0.200 F 
ATOM     62  F   UNL A   1      45.337  37.504  29.519  1.00  0.00    -0.200 F 
ENDBRANCH  38  52
BRANCH  39  63
ATOM     63  C   UNL A   1      35.084  34.142  30.767  1.00  0.00     0.064 A 
ATOM     64  C   UNL A   1      34.025  34.857  31.343  1.00  0.00     0.173 A 
ATOM     65  C   UNL A   1      35.216  34.239  29.365  1.00  0.00     0.173 A 
ATOM     66  F   UNL A   1      33.866  34.864  32.674  1.00  0.00    -0.203 F 
ATOM     67  C   UNL A   1      33.148  35.619  30.564  1.00  0.00     0.198 A 
ATOM     68  C   UNL A   1      34.334  34.987  28.588  1.00  0.00     0.198 A 
ATOM     69  F   UNL A   1      36.256  33.681  28.729  1.00  0.00    -0.203 F 
ATOM     70  F   UNL A   1      32.176  36.329  31.154  1.00  0.00    -0.200 F 
ATOM     71  C   UNL A   1      33.304  35.685  29.188  1.00  0.00     0.200 A 
ATOM     72  F   UNL A   1      34.519  35.069  27.263  1.00  0.00    -0.200 F 
ATOM     73  F   UNL A   1      32.490  36.450  28.447  1.00  0.00    -0.200 F 
ENDBRANCH  39  63
BRANCH  51  74
ATOM     74  C   UNL A   1      38.927  33.088  35.682  1.00  0.00     0.064 A 
ATOM     75  C   UNL A   1      38.543  31.737  35.740  1.00  0.00     0.173 A 
ATOM     76  C   UNL A   1      38.747  33.858  36.837  1.00  0.00     0.173 A 
ATOM     77  F   UNL A   1      38.794  30.906  34.723  1.00  0.00    -0.203 F 
ATOM     78  C   UNL A   1      37.956  31.197  36.882  1.00  0.00     0.198 A 
ATOM     79  C   UNL A   1      38.195  33.307  37.990  1.00  0.00     0.198 A 
ATOM     80  F   UNL A   1      39.158  35.135  36.863  1.00  0.00    -0.203 F 
ATOM     81  F   UNL A   1      37.591  29.907  36.903  1.00  0.00    -0.200 F 
ATOM     82  C   UNL A   1      37.789  31.981  38.009  1.00  0.00     0.200 A 
ATOM     83  F   UNL A   1      38.087  34.053  39.097  1.00  0.00    -0.200 F 
ATOM     84  F   UNL A   1      37.266  31.452  39.123  1.00  0.00    -0.200 F 
ENDBRANCH  51  74
ENDBRANCH  25  26
ENDBRANCH  18  20
ENDBRANCH  17  18
ENDBRANCH   1  17
TORSDOF 13
ENDMDL
