MODEL 1
REMARK VINA RESULT:     -13.1      0.000      0.000
REMARK SMILES Cc1c(C[N@H+]2CC[C@@H](C(=O)OCCOC(=O)c3ccc(-c4c5nc(c(-c6c(F)c(F)c(F)c(F)c6F)c6ccc([nH]6)c(-c6c(F)c(F)c(F)c(F)c6F)c6nc(c(-c7c(F)c(F)c(F)c(F)c7F)c7ccc4[nH]7)C=C6)C=C5)cc3)[C@@H]2C)cccc1[N+](=O)[O-]
REMARK SMILES IDX 12 1 11 2 9 3 10 4 8 5 5 6 6 7 80 8 7 10 81 11 4 12 3 13
REMARK SMILES IDX 1 14 2 15 85 16 82 17 84 18 83 19 86 20 87 21 88 22 13 23
REMARK SMILES IDX 14 24 15 25 16 26 17 27 18 28 79 29 19 30 78 31 20 32 21 33
REMARK SMILES IDX 22 34 72 35 23 36 77 37 71 38 73 39 24 40 76 41 70 42 69 43
REMARK SMILES IDX 25 45 57 46 37 47 56 48 38 49 41 50 55 51 74 52 39 53 40 54
REMARK SMILES IDX 54 56 75 57 42 58 26 59 27 60 35 61 28 62 29 63 33 64 36 65
REMARK SMILES IDX 30 66 31 67 34 68 32 69 58 70 59 71 67 72 60 73 61 74 65 75
REMARK SMILES IDX 68 76 62 77 63 78 66 79 64 80 43 81 44 82 52 83 45 84 46 85
REMARK SMILES IDX 50 86 53 87 47 88 48 89 51 90 49 91
REMARK H PARENT 5 9 73 44 41 55
REMARK Flexibility Score: inf
ROOT
ATOM      1  C   UNL A   1      33.830  28.585  25.960  1.00  0.00     0.274 C 
ENDROOT
BRANCH   1   2
ATOM      2  O   UNL A   1      33.353  27.306  26.393  1.00  0.00    -0.462 OA
BRANCH   2   3
ATOM      3  C   UNL A   1      32.005  27.094  26.302  1.00  0.00     0.315 C 
ATOM      4  O   UNL A   1      31.239  27.112  27.253  1.00  0.00    -0.252 OA
BRANCH   3   5
ATOM      5  C   UNL A   1      31.597  26.928  24.856  1.00  0.00     0.162 C 
ATOM      6  N   UNL A   1      31.251  24.750  23.936  1.00  0.00    -0.328 N 
ATOM      7  C   UNL A   1      30.069  25.542  23.610  1.00  0.00     0.263 C 
ATOM      8  C   UNL A   1      32.312  25.732  24.226  1.00  0.00     0.195 C 
ATOM      9  H   UNL A   1      31.535  24.162  23.153  1.00  0.00     0.348 HD
ATOM     10  C   UNL A   1      30.109  26.681  24.601  1.00  0.00     0.083 C 
ATOM     11  C   UNL A   1      32.996  26.220  22.936  1.00  0.00     0.076 C 
BRANCH   6  12
ATOM     12  C   UNL A   1      31.032  23.691  24.956  1.00  0.00     0.299 C 
BRANCH  12  13
ATOM     13  C   UNL A   1      32.207  22.929  25.591  1.00  0.00     0.016 A 
ATOM     14  C   UNL A   1      32.902  21.843  23.399  1.00  0.00     0.052 C 
ATOM     15  C   UNL A   1      33.058  22.024  24.887  1.00  0.00     0.036 A 
ATOM     16  C   UNL A   1      34.075  21.352  25.621  1.00  0.00     0.272 A 
ATOM     17  C   UNL A   1      32.502  23.197  26.949  1.00  0.00     0.010 A 
ATOM     18  C   UNL A   1      34.276  21.568  26.990  1.00  0.00     0.086 A 
ATOM     19  C   UNL A   1      33.512  22.523  27.640  1.00  0.00     0.008 A 
BRANCH  16  20
ATOM     20  N   UNL A   1      35.031  20.439  24.994  1.00  0.00     0.062 N 
ATOM     21  O   UNL A   1      36.126  20.908  24.647  1.00  0.00    -0.258 OA
ATOM     22  O   UNL A   1      34.661  19.278  24.785  1.00  0.00    -0.258 OA
ENDBRANCH  16  20
ENDBRANCH  12  13
ENDBRANCH   6  12
ENDBRANCH   3   5
ENDBRANCH   2   3
ENDBRANCH   1   2
BRANCH   1  23
ATOM     23  C   UNL A   1      33.859  29.590  27.124  1.00  0.00     0.275 C 
BRANCH  23  24
ATOM     24  O   UNL A   1      34.946  29.602  28.101  1.00  0.00    -0.458 OA
BRANCH  24  25
ATOM     25  C   UNL A   1      35.993  30.465  28.054  1.00  0.00     0.338 C 
ATOM     26  O   UNL A   1      35.905  31.622  27.666  1.00  0.00    -0.246 OA
BRANCH  25  27
ATOM     27  C   UNL A   1      37.270  29.853  28.488  1.00  0.00     0.060 A 
ATOM     28  C   UNL A   1      37.358  29.080  29.662  1.00  0.00     0.016 A 
ATOM     29  C   UNL A   1      38.301  29.844  27.569  1.00  0.00     0.016 A 
ATOM     30  C   UNL A   1      38.424  28.183  29.833  1.00  0.00     0.010 A 
ATOM     31  C   UNL A   1      39.174  28.796  27.615  1.00  0.00     0.010 A 
ATOM     32  C   UNL A   1      39.311  28.012  28.772  1.00  0.00    -0.014 A 
BRANCH  32  33
ATOM     33  C   UNL A   1      40.568  27.261  28.768  1.00  0.00     0.031 A 
ATOM     34  C   UNL A   1      40.700  25.818  28.506  1.00  0.00     0.074 A 
ATOM     35  C   UNL A   1      41.634  28.096  28.838  1.00  0.00     0.049 A 
ATOM     36  N   UNL A   1      41.754  25.127  28.761  1.00  0.00    -0.248 NA
ATOM     37  C   UNL A   1      39.655  24.992  27.930  1.00  0.00     0.031 C 
ATOM     38  C   UNL A   1      43.052  27.891  28.642  1.00  0.00     0.029 A 
ATOM     39  N   UNL A   1      41.563  29.437  29.273  1.00  0.00    -0.354 N 
ATOM     40  C   UNL A   1      41.645  23.898  28.126  1.00  0.00     0.074 A 
ATOM     41  C   UNL A   1      40.268  23.820  27.733  1.00  0.00     0.031 C 
ATOM     42  C   UNL A   1      43.706  28.862  29.315  1.00  0.00     0.029 A 
ATOM     43  C   UNL A   1      42.705  29.647  30.036  1.00  0.00     0.049 A 
ATOM     44  H   UNL A   1      40.853  30.088  29.075  1.00  0.00     0.167 HD
ATOM     45  C   UNL A   1      42.792  23.186  27.910  1.00  0.00     0.037 A 
ATOM     46  C   UNL A   1      42.511  29.720  31.386  1.00  0.00     0.037 A 
ATOM     47  C   UNL A   1      43.884  23.851  28.618  1.00  0.00     0.049 A 
ATOM     48  C   UNL A   1      43.156  28.529  32.044  1.00  0.00     0.074 A 
ATOM     49  C   UNL A   1      44.843  24.762  28.214  1.00  0.00     0.029 A 
ATOM     50  N   UNL A   1      43.803  23.940  30.003  1.00  0.00    -0.354 N 
ATOM     51  N   UNL A   1      43.276  27.352  31.485  1.00  0.00    -0.248 NA
ATOM     52  C   UNL A   1      43.829  28.622  33.330  1.00  0.00     0.031 C 
ATOM     53  C   UNL A   1      45.236  25.501  29.366  1.00  0.00     0.029 A 
ATOM     54  C   UNL A   1      44.533  25.019  30.461  1.00  0.00     0.049 A 
ATOM     55  H   UNL A   1      43.298  23.320  30.576  1.00  0.00     0.167 HD
ATOM     56  C   UNL A   1      44.109  26.581  32.247  1.00  0.00     0.074 A 
ATOM     57  C   UNL A   1      44.406  27.411  33.403  1.00  0.00     0.031 C 
ATOM     58  C   UNL A   1      44.546  25.339  31.879  1.00  0.00     0.037 A 
BRANCH  45  59
ATOM     59  C   UNL A   1      43.034  22.057  26.918  1.00  0.00     0.064 A 
ATOM     60  C   UNL A   1      42.340  20.828  27.073  1.00  0.00     0.173 A 
ATOM     61  C   UNL A   1      43.945  22.068  25.844  1.00  0.00     0.173 A 
ATOM     62  F   UNL A   1      41.385  20.675  28.000  1.00  0.00    -0.203 F 
ATOM     63  C   UNL A   1      42.590  19.701  26.281  1.00  0.00     0.198 A 
ATOM     64  C   UNL A   1      44.204  20.934  25.056  1.00  0.00     0.198 A 
ATOM     65  F   UNL A   1      44.584  23.183  25.478  1.00  0.00    -0.203 F 
ATOM     66  F   UNL A   1      41.904  18.569  26.496  1.00  0.00    -0.200 F 
ATOM     67  C   UNL A   1      43.537  19.748  25.282  1.00  0.00     0.200 A 
ATOM     68  F   UNL A   1      45.096  21.006  24.057  1.00  0.00    -0.200 F 
ATOM     69  F   UNL A   1      43.781  18.669  24.525  1.00  0.00    -0.200 F 
ENDBRANCH  45  59
BRANCH  46  70
ATOM     70  C   UNL A   1      41.204  30.381  31.763  1.00  0.00     0.064 A 
ATOM     71  C   UNL A   1      40.211  29.580  32.387  1.00  0.00     0.173 A 
ATOM     72  C   UNL A   1      41.013  31.767  31.838  1.00  0.00     0.173 A 
ATOM     73  F   UNL A   1      40.315  28.241  32.357  1.00  0.00    -0.203 F 
ATOM     74  C   UNL A   1      39.178  30.129  33.150  1.00  0.00     0.198 A 
ATOM     75  C   UNL A   1      39.944  32.317  32.568  1.00  0.00     0.198 A 
ATOM     76  F   UNL A   1      41.895  32.608  31.281  1.00  0.00    -0.203 F 
ATOM     77  F   UNL A   1      38.357  29.326  33.845  1.00  0.00    -0.200 F 
ATOM     78  C   UNL A   1      39.052  31.500  33.252  1.00  0.00     0.200 A 
ATOM     79  F   UNL A   1      39.825  33.648  32.685  1.00  0.00    -0.200 F 
ATOM     80  F   UNL A   1      38.110  32.031  34.044  1.00  0.00    -0.200 F 
ENDBRANCH  46  70
BRANCH  58  81
ATOM     81  C   UNL A   1      45.117  24.324  32.837  1.00  0.00     0.064 A 
ATOM     82  C   UNL A   1      46.382  24.458  33.431  1.00  0.00     0.173 A 
ATOM     83  C   UNL A   1      44.321  23.260  33.330  1.00  0.00     0.173 A 
ATOM     84  F   UNL A   1      47.167  25.513  33.179  1.00  0.00    -0.203 F 
ATOM     85  C   UNL A   1      46.859  23.539  34.362  1.00  0.00     0.198 A 
ATOM     86  C   UNL A   1      44.767  22.400  34.328  1.00  0.00     0.198 A 
ATOM     87  F   UNL A   1      43.073  23.046  32.889  1.00  0.00    -0.203 F 
ATOM     88  F   UNL A   1      48.105  23.669  34.837  1.00  0.00    -0.200 F 
ATOM     89  C   UNL A   1      46.048  22.519  34.820  1.00  0.00     0.200 A 
ATOM     90  F   UNL A   1      43.937  21.471  34.823  1.00  0.00    -0.200 F 
ATOM     91  F   UNL A   1      46.492  21.671  35.756  1.00  0.00    -0.200 F 
ENDBRANCH  58  81
ENDBRANCH  32  33
ENDBRANCH  25  27
ENDBRANCH  24  25
ENDBRANCH  23  24
ENDBRANCH   1  23
TORSDOF 14
ENDMDL
MODEL 2
REMARK VINA RESULT:     -13.0      3.855     10.278
REMARK SMILES Cc1c(C[N@H+]2CC[C@@H](C(=O)OCCOC(=O)c3ccc(-c4c5nc(c(-c6c(F)c(F)c(F)c(F)c6F)c6ccc([nH]6)c(-c6c(F)c(F)c(F)c(F)c6F)c6nc(c(-c7c(F)c(F)c(F)c(F)c7F)c7ccc4[nH]7)C=C6)C=C5)cc3)[C@@H]2C)cccc1[N+](=O)[O-]
REMARK SMILES IDX 12 1 11 2 9 3 10 4 8 5 5 6 6 7 80 8 7 10 81 11 4 12 3 13
REMARK SMILES IDX 1 14 2 15 85 16 82 17 84 18 83 19 86 20 87 21 88 22 13 23
REMARK SMILES IDX 14 24 15 25 16 26 17 27 18 28 79 29 19 30 78 31 20 32 21 33
REMARK SMILES IDX 22 34 72 35 23 36 77 37 71 38 73 39 24 40 76 41 70 42 69 43
REMARK SMILES IDX 25 45 57 46 37 47 56 48 38 49 41 50 55 51 74 52 39 53 40 54
REMARK SMILES IDX 54 56 75 57 42 58 26 59 27 60 35 61 28 62 29 63 33 64 36 65
REMARK SMILES IDX 30 66 31 67 34 68 32 69 58 70 59 71 67 72 60 73 61 74 65 75
REMARK SMILES IDX 68 76 62 77 63 78 66 79 64 80 43 81 44 82 52 83 45 84 46 85
REMARK SMILES IDX 50 86 53 87 47 88 48 89 51 90 49 91
REMARK H PARENT 5 9 73 44 41 55
REMARK Flexibility Score: inf
ROOT
ATOM      1  C   UNL A   1      36.449  22.679  25.529  1.00  0.00     0.274 C 
ENDROOT
BRANCH   1   2
ATOM      2  O   UNL A   1      35.351  23.281  24.836  1.00  0.00    -0.462 OA
BRANCH   2   3
ATOM      3  C   UNL A   1      35.268  23.033  23.494  1.00  0.00     0.315 C 
ATOM      4  O   UNL A   1      36.227  23.002  22.738  1.00  0.00    -0.252 OA
BRANCH   3   5
ATOM      5  C   UNL A   1      33.841  22.719  23.107  1.00  0.00     0.162 C 
ATOM      6  N   UNL A   1      32.018  23.799  24.211  1.00  0.00    -0.328 N 
ATOM      7  C   UNL A   1      31.797  23.953  22.777  1.00  0.00     0.263 C 
ATOM      8  C   UNL A   1      32.945  22.660  24.345  1.00  0.00     0.195 C 
ATOM      9  H   UNL A   1      31.150  23.592  24.703  1.00  0.00     0.348 HD
ATOM     10  C   UNL A   1      33.162  23.721  22.171  1.00  0.00     0.083 C 
ATOM     11  C   UNL A   1      32.193  21.317  24.316  1.00  0.00     0.076 C 
BRANCH   6  12
ATOM     12  C   UNL A   1      32.398  25.048  24.923  1.00  0.00     0.299 C 
BRANCH  12  13
ATOM     13  C   UNL A   1      32.415  26.409  24.209  1.00  0.00     0.016 A 
ATOM     14  C   UNL A   1      29.894  26.707  24.360  1.00  0.00     0.052 C 
ATOM     15  C   UNL A   1      31.250  27.172  23.895  1.00  0.00     0.036 A 
ATOM     16  C   UNL A   1      31.420  28.394  23.185  1.00  0.00     0.272 A 
ATOM     17  C   UNL A   1      33.678  26.971  23.905  1.00  0.00     0.010 A 
ATOM     18  C   UNL A   1      32.681  28.872  22.812  1.00  0.00     0.086 A 
ATOM     19  C   UNL A   1      33.811  28.176  23.210  1.00  0.00     0.008 A 
BRANCH  16  20
ATOM     20  N   UNL A   1      30.302  29.276  22.851  1.00  0.00     0.062 N 
ATOM     21  O   UNL A   1      29.871  29.237  21.688  1.00  0.00    -0.258 OA
ATOM     22  O   UNL A   1      29.906  30.055  23.727  1.00  0.00    -0.258 OA
ENDBRANCH  16  20
ENDBRANCH  12  13
ENDBRANCH   6  12
ENDBRANCH   3   5
ENDBRANCH   2   3
ENDBRANCH   1   2
BRANCH   1  23
ATOM     23  C   UNL A   1      37.210  23.716  26.374  1.00  0.00     0.275 C 
BRANCH  23  24
ATOM     24  O   UNL A   1      38.601  24.064  26.092  1.00  0.00    -0.458 OA
BRANCH  24  25
ATOM     25  C   UNL A   1      39.591  24.026  27.020  1.00  0.00     0.338 C 
ATOM     26  O   UNL A   1      40.132  22.996  27.398  1.00  0.00    -0.246 OA
BRANCH  25  27
ATOM     27  C   UNL A   1      39.929  25.362  27.562  1.00  0.00     0.060 A 
ATOM     28  C   UNL A   1      40.399  26.399  26.733  1.00  0.00     0.016 A 
ATOM     29  C   UNL A   1      39.518  25.634  28.853  1.00  0.00     0.016 A 
ATOM     30  C   UNL A   1      40.311  27.734  27.160  1.00  0.00     0.010 A 
ATOM     31  C   UNL A   1      39.192  26.926  29.149  1.00  0.00     0.010 A 
ATOM     32  C   UNL A   1      39.657  27.993  28.363  1.00  0.00    -0.014 A 
BRANCH  32  33
ATOM     33  C   UNL A   1      39.575  29.266  29.080  1.00  0.00     0.031 A 
ATOM     34  C   UNL A   1      38.576  30.321  28.837  1.00  0.00     0.074 A 
ATOM     35  C   UNL A   1      40.414  29.280  30.145  1.00  0.00     0.049 A 
ATOM     36  N   UNL A   1      38.670  31.525  29.280  1.00  0.00    -0.248 NA
ATOM     37  C   UNL A   1      37.362  30.136  28.066  1.00  0.00     0.031 C 
ATOM     38  C   UNL A   1      40.547  30.172  31.275  1.00  0.00     0.029 A 
ATOM     39  N   UNL A   1      41.503  28.396  30.307  1.00  0.00    -0.354 N 
ATOM     40  C   UNL A   1      37.442  32.153  29.125  1.00  0.00     0.074 A 
ATOM     41  C   UNL A   1      36.706  31.288  28.250  1.00  0.00     0.031 C 
ATOM     42  C   UNL A   1      41.810  30.060  31.742  1.00  0.00     0.029 A 
ATOM     43  C   UNL A   1      42.531  29.159  30.845  1.00  0.00     0.049 A 
ATOM     44  H   UNL A   1      41.527  27.438  30.086  1.00  0.00     0.167 HD
ATOM     45  C   UNL A   1      37.190  33.260  29.887  1.00  0.00     0.037 A 
ATOM     46  C   UNL A   1      43.551  29.468  29.990  1.00  0.00     0.037 A 
ATOM     47  C   UNL A   1      38.426  33.638  30.568  1.00  0.00     0.049 A 
ATOM     48  C   UNL A   1      43.547  30.951  29.730  1.00  0.00     0.074 A 
ATOM     49  C   UNL A   1      38.916  33.367  31.833  1.00  0.00     0.029 A 
ATOM     50  N   UNL A   1      39.512  34.012  29.788  1.00  0.00    -0.354 N 
ATOM     51  N   UNL A   1      42.472  31.697  29.729  1.00  0.00    -0.248 NA
ATOM     52  C   UNL A   1      44.774  31.718  29.584  1.00  0.00     0.031 C 
ATOM     53  C   UNL A   1      40.336  33.446  31.762  1.00  0.00     0.029 A 
ATOM     54  C   UNL A   1      40.695  33.787  30.465  1.00  0.00     0.049 A 
ATOM     55  H   UNL A   1      39.449  34.385  28.879  1.00  0.00     0.167 HD
ATOM     56  C   UNL A   1      42.845  33.013  29.699  1.00  0.00     0.074 A 
ATOM     57  C   UNL A   1      44.293  32.971  29.583  1.00  0.00     0.031 C 
ATOM     58  C   UNL A   1      41.968  34.055  29.817  1.00  0.00     0.037 A 
BRANCH  45  59
ATOM     59  C   UNL A   1      35.846  33.889  30.229  1.00  0.00     0.064 A 
ATOM     60  C   UNL A   1      35.048  34.444  29.194  1.00  0.00     0.173 A 
ATOM     61  C   UNL A   1      35.297  34.038  31.518  1.00  0.00     0.173 A 
ATOM     62  F   UNL A   1      35.390  34.321  27.905  1.00  0.00    -0.203 F 
ATOM     63  C   UNL A   1      33.861  35.144  29.434  1.00  0.00     0.198 A 
ATOM     64  C   UNL A   1      34.110  34.751  31.760  1.00  0.00     0.198 A 
ATOM     65  F   UNL A   1      35.852  33.463  32.588  1.00  0.00    -0.203 F 
ATOM     66  F   UNL A   1      33.167  35.652  28.405  1.00  0.00    -0.200 F 
ATOM     67  C   UNL A   1      33.400  35.314  30.720  1.00  0.00     0.200 A 
ATOM     68  F   UNL A   1      33.648  34.871  33.013  1.00  0.00    -0.200 F 
ATOM     69  F   UNL A   1      32.264  35.988  30.952  1.00  0.00    -0.200 F 
ENDBRANCH  45  59
BRANCH  46  70
ATOM     70  C   UNL A   1      43.851  28.364  29.001  1.00  0.00     0.064 A 
ATOM     71  C   UNL A   1      43.570  28.606  27.631  1.00  0.00     0.173 A 
ATOM     72  C   UNL A   1      44.668  27.258  29.276  1.00  0.00     0.173 A 
ATOM     73  F   UNL A   1      42.790  29.642  27.280  1.00  0.00    -0.203 F 
ATOM     74  C   UNL A   1      44.175  27.878  26.603  1.00  0.00     0.198 A 
ATOM     75  C   UNL A   1      45.238  26.499  28.239  1.00  0.00     0.198 A 
ATOM     76  F   UNL A   1      44.992  26.948  30.539  1.00  0.00    -0.203 F 
ATOM     77  F   UNL A   1      43.995  28.246  25.325  1.00  0.00    -0.200 F 
ATOM     78  C   UNL A   1      45.021  26.832  26.908  1.00  0.00     0.200 A 
ATOM     79  F   UNL A   1      46.075  25.490  28.528  1.00  0.00    -0.200 F 
ATOM     80  F   UNL A   1      45.664  26.180  25.928  1.00  0.00    -0.200 F 
ENDBRANCH  46  70
BRANCH  58  81
ATOM     81  C   UNL A   1      42.274  35.470  29.397  1.00  0.00     0.064 A 
ATOM     82  C   UNL A   1      43.142  36.311  30.112  1.00  0.00     0.173 A 
ATOM     83  C   UNL A   1      41.835  35.969  28.145  1.00  0.00     0.173 A 
ATOM     84  F   UNL A   1      43.759  35.898  31.226  1.00  0.00    -0.203 F 
ATOM     85  C   UNL A   1      43.457  37.592  29.668  1.00  0.00     0.198 A 
ATOM     86  C   UNL A   1      42.229  37.213  27.662  1.00  0.00     0.198 A 
ATOM     87  F   UNL A   1      41.045  35.252  27.333  1.00  0.00    -0.203 F 
ATOM     88  F   UNL A   1      44.226  38.383  30.430  1.00  0.00    -0.200 F 
ATOM     89  C   UNL A   1      43.014  38.038  28.438  1.00  0.00     0.200 A 
ATOM     90  F   UNL A   1      41.861  37.594  26.431  1.00  0.00    -0.200 F 
ATOM     91  F   UNL A   1      43.365  39.250  27.991  1.00  0.00    -0.200 F 
ENDBRANCH  58  81
ENDBRANCH  32  33
ENDBRANCH  25  27
ENDBRANCH  24  25
ENDBRANCH  23  24
ENDBRANCH   1  23
TORSDOF 14
ENDMDL
MODEL 3
REMARK VINA RESULT:     -13.0      0.895      1.516
REMARK SMILES Cc1c(C[N@H+]2CC[C@@H](C(=O)OCCOC(=O)c3ccc(-c4c5nc(c(-c6c(F)c(F)c(F)c(F)c6F)c6ccc([nH]6)c(-c6c(F)c(F)c(F)c(F)c6F)c6nc(c(-c7c(F)c(F)c(F)c(F)c7F)c7ccc4[nH]7)C=C6)C=C5)cc3)[C@@H]2C)cccc1[N+](=O)[O-]
REMARK SMILES IDX 12 1 11 2 9 3 10 4 8 5 5 6 6 7 80 8 7 10 81 11 4 12 3 13
REMARK SMILES IDX 1 14 2 15 85 16 82 17 84 18 83 19 86 20 87 21 88 22 13 23
REMARK SMILES IDX 14 24 15 25 16 26 17 27 18 28 79 29 19 30 78 31 20 32 21 33
REMARK SMILES IDX 22 34 72 35 23 36 77 37 71 38 73 39 24 40 76 41 70 42 69 43
REMARK SMILES IDX 25 45 57 46 37 47 56 48 38 49 41 50 55 51 74 52 39 53 40 54
REMARK SMILES IDX 54 56 75 57 42 58 26 59 27 60 35 61 28 62 29 63 33 64 36 65
REMARK SMILES IDX 30 66 31 67 34 68 32 69 58 70 59 71 67 72 60 73 61 74 65 75
REMARK SMILES IDX 68 76 62 77 63 78 66 79 64 80 43 81 44 82 52 83 45 84 46 85
REMARK SMILES IDX 50 86 53 87 47 88 48 89 51 90 49 91
REMARK H PARENT 5 9 73 44 41 55
REMARK Flexibility Score: inf
ROOT
ATOM      1  C   UNL A   1      32.251  29.343  26.822  1.00  0.00     0.274 C 
ENDROOT
BRANCH   1   2
ATOM      2  O   UNL A   1      31.665  28.351  25.973  1.00  0.00    -0.462 OA
BRANCH   2   3
ATOM      3  C   UNL A   1      31.050  28.805  24.839  1.00  0.00     0.315 C 
ATOM      4  O   UNL A   1      30.777  29.976  24.624  1.00  0.00    -0.252 OA
BRANCH   3   5
ATOM      5  C   UNL A   1      30.842  27.668  23.865  1.00  0.00     0.162 C 
ATOM      6  N   UNL A   1      31.742  25.502  24.318  1.00  0.00    -0.328 N 
ATOM      7  C   UNL A   1      30.332  25.316  23.992  1.00  0.00     0.263 C 
ATOM      8  C   UNL A   1      32.106  26.814  23.752  1.00  0.00     0.195 C 
ATOM      9  H   UNL A   1      32.322  24.777  23.897  1.00  0.00     0.348 HD
ATOM     10  C   UNL A   1      29.725  26.682  24.210  1.00  0.00     0.083 C 
ATOM     11  C   UNL A   1      32.465  26.704  22.259  1.00  0.00     0.076 C 
BRANCH   6  12
ATOM     12  C   UNL A   1      32.089  25.278  25.746  1.00  0.00     0.299 C 
BRANCH  12  13
ATOM     13  C   UNL A   1      32.959  24.090  26.187  1.00  0.00     0.016 A 
ATOM     14  C   UNL A   1      34.865  24.688  24.614  1.00  0.00     0.052 C 
ATOM     15  C   UNL A   1      34.235  23.773  25.632  1.00  0.00     0.036 A 
ATOM     16  C   UNL A   1      34.903  22.610  26.109  1.00  0.00     0.272 A 
ATOM     17  C   UNL A   1      32.488  23.300  27.263  1.00  0.00     0.010 A 
ATOM     18  C   UNL A   1      34.360  21.792  27.107  1.00  0.00     0.086 A 
ATOM     19  C   UNL A   1      33.170  22.165  27.710  1.00  0.00     0.008 A 
BRANCH  16  20
ATOM     20  N   UNL A   1      36.233  22.215  25.644  1.00  0.00     0.062 N 
ATOM     21  O   UNL A   1      37.201  22.876  26.053  1.00  0.00    -0.258 OA
ATOM     22  O   UNL A   1      36.302  21.296  24.820  1.00  0.00    -0.258 OA
ENDBRANCH  16  20
ENDBRANCH  12  13
ENDBRANCH   6  12
ENDBRANCH   3   5
ENDBRANCH   2   3
ENDBRANCH   1   2
BRANCH   1  23
ATOM     23  C   UNL A   1      33.754  29.505  26.533  1.00  0.00     0.275 C 
BRANCH  23  24
ATOM     24  O   UNL A   1      34.753  29.429  27.597  1.00  0.00    -0.458 OA
BRANCH  24  25
ATOM     25  C   UNL A   1      35.692  30.384  27.820  1.00  0.00     0.338 C 
ATOM     26  O   UNL A   1      35.507  31.578  27.632  1.00  0.00    -0.246 OA
BRANCH  25  27
ATOM     27  C   UNL A   1      36.985  29.829  28.281  1.00  0.00     0.060 A 
ATOM     28  C   UNL A   1      37.093  29.106  29.485  1.00  0.00     0.016 A 
ATOM     29  C   UNL A   1      38.020  29.815  27.366  1.00  0.00     0.016 A 
ATOM     30  C   UNL A   1      38.185  28.249  29.695  1.00  0.00     0.010 A 
ATOM     31  C   UNL A   1      38.925  28.797  27.455  1.00  0.00     0.010 A 
ATOM     32  C   UNL A   1      39.081  28.064  28.644  1.00  0.00    -0.014 A 
BRANCH  32  33
ATOM     33  C   UNL A   1      40.360  27.352  28.673  1.00  0.00     0.031 A 
ATOM     34  C   UNL A   1      40.541  25.910  28.433  1.00  0.00     0.074 A 
ATOM     35  C   UNL A   1      41.398  28.220  28.752  1.00  0.00     0.049 A 
ATOM     36  N   UNL A   1      41.611  25.256  28.716  1.00  0.00    -0.248 NA
ATOM     37  C   UNL A   1      39.533  25.046  27.849  1.00  0.00     0.031 C 
ATOM     38  C   UNL A   1      42.825  28.057  28.584  1.00  0.00     0.029 A 
ATOM     39  N   UNL A   1      41.278  29.564  29.167  1.00  0.00    -0.354 N 
ATOM     40  C   UNL A   1      41.552  24.016  28.096  1.00  0.00     0.074 A 
ATOM     41  C   UNL A   1      40.186  23.890  27.679  1.00  0.00     0.031 C 
ATOM     42  C   UNL A   1      43.437  29.057  29.256  1.00  0.00     0.029 A 
ATOM     43  C   UNL A   1      42.398  29.819  29.948  1.00  0.00     0.049 A 
ATOM     44  H   UNL A   1      40.552  30.190  28.947  1.00  0.00     0.167 HD
ATOM     45  C   UNL A   1      42.724  23.337  27.910  1.00  0.00     0.037 A 
ATOM     46  C   UNL A   1      42.177  29.904  31.293  1.00  0.00     0.037 A 
ATOM     47  C   UNL A   1      43.781  24.045  28.630  1.00  0.00     0.049 A 
ATOM     48  C   UNL A   1      42.846  28.742  31.979  1.00  0.00     0.074 A 
ATOM     49  C   UNL A   1      44.719  24.980  28.231  1.00  0.00     0.029 A 
ATOM     50  N   UNL A   1      43.672  24.149  30.011  1.00  0.00    -0.354 N 
ATOM     51  N   UNL A   1      43.012  27.562  31.437  1.00  0.00    -0.248 NA
ATOM     52  C   UNL A   1      43.491  28.872  33.276  1.00  0.00     0.031 C 
ATOM     53  C   UNL A   1      45.067  25.746  29.380  1.00  0.00     0.029 A 
ATOM     54  C   UNL A   1      44.359  25.256  30.469  1.00  0.00     0.049 A 
ATOM     55  H   UNL A   1      43.175  23.521  30.584  1.00  0.00     0.167 HD
ATOM     56  C   UNL A   1      43.854  26.827  32.226  1.00  0.00     0.074 A 
ATOM     57  C   UNL A   1      44.104  27.681  33.375  1.00  0.00     0.031 C 
ATOM     58  C   UNL A   1      44.336  25.594  31.882  1.00  0.00     0.037 A 
BRANCH  45  59
ATOM     59  C   UNL A   1      43.019  22.203  26.939  1.00  0.00     0.064 A 
ATOM     60  C   UNL A   1      42.337  20.966  27.078  1.00  0.00     0.173 A 
ATOM     61  C   UNL A   1      43.971  22.219  25.900  1.00  0.00     0.173 A 
ATOM     62  F   UNL A   1      41.350  20.807  27.969  1.00  0.00    -0.203 F 
ATOM     63  C   UNL A   1      42.633  19.837  26.306  1.00  0.00     0.198 A 
ATOM     64  C   UNL A   1      44.275  21.082  25.132  1.00  0.00     0.198 A 
ATOM     65  F   UNL A   1      44.607  23.339  25.548  1.00  0.00    -0.203 F 
ATOM     66  F   UNL A   1      41.955  18.697  26.505  1.00  0.00    -0.200 F 
ATOM     67  C   UNL A   1      43.616  19.889  25.343  1.00  0.00     0.200 A 
ATOM     68  F   UNL A   1      45.203  21.159  24.167  1.00  0.00    -0.200 F 
ATOM     69  F   UNL A   1      43.904  18.807  24.606  1.00  0.00    -0.200 F 
ENDBRANCH  45  59
BRANCH  46  70
ATOM     70  C   UNL A   1      40.843  30.528  31.637  1.00  0.00     0.064 A 
ATOM     71  C   UNL A   1      39.854  29.698  32.228  1.00  0.00     0.173 A 
ATOM     72  C   UNL A   1      40.614  31.909  31.715  1.00  0.00     0.173 A 
ATOM     73  F   UNL A   1      39.993  28.362  32.192  1.00  0.00    -0.203 F 
ATOM     74  C   UNL A   1      38.786  30.215  32.964  1.00  0.00     0.198 A 
ATOM     75  C   UNL A   1      39.512  32.426  32.418  1.00  0.00     0.198 A 
ATOM     76  F   UNL A   1      41.491  32.775  31.189  1.00  0.00    -0.203 F 
ATOM     77  F   UNL A   1      37.967  29.387  33.631  1.00  0.00    -0.200 F 
ATOM     78  C   UNL A   1      38.623  31.582  33.071  1.00  0.00     0.200 A 
ATOM     79  F   UNL A   1      39.356  33.753  32.540  1.00  0.00    -0.200 F 
ATOM     80  F   UNL A   1      37.644  32.084  33.840  1.00  0.00    -0.200 F 
ENDBRANCH  46  70
BRANCH  58  81
ATOM     81  C   UNL A   1      44.920  24.610  32.864  1.00  0.00     0.064 A 
ATOM     82  C   UNL A   1      44.261  23.433  33.253  1.00  0.00     0.173 A 
ATOM     83  C   UNL A   1      46.257  24.738  33.314  1.00  0.00     0.173 A 
ATOM     84  F   UNL A   1      43.057  23.109  32.764  1.00  0.00    -0.203 F 
ATOM     85  C   UNL A   1      44.850  22.510  34.113  1.00  0.00     0.198 A 
ATOM     86  C   UNL A   1      46.873  23.767  34.097  1.00  0.00     0.198 A 
ATOM     87  F   UNL A   1      47.022  25.786  32.977  1.00  0.00    -0.203 F 
ATOM     88  F   UNL A   1      44.145  21.443  34.515  1.00  0.00    -0.200 F 
ATOM     89  C   UNL A   1      46.159  22.668  34.523  1.00  0.00     0.200 A 
ATOM     90  F   UNL A   1      48.169  23.893  34.414  1.00  0.00    -0.200 F 
ATOM     91  F   UNL A   1      46.738  21.749  35.305  1.00  0.00    -0.200 F 
ENDBRANCH  58  81
ENDBRANCH  32  33
ENDBRANCH  25  27
ENDBRANCH  24  25
ENDBRANCH  23  24
ENDBRANCH   1  23
TORSDOF 14
ENDMDL
