MODEL 1
REMARK VINA RESULT:     -13.6      0.000      0.000
REMARK SMILES Cc1cccc(S(=O)(=O)Nc2cc(C(=O)OCCOC(=O)c3ccc(-c4c5nc(c(-c6c(F)c(F)c(F)c(F)c6F)c6ccc([nH]6)c(-c6c(F)c(F)c(F)c(F)c6F)c6nc(c(-c7c(F)c(F)c(F)c(F)c7F)c7ccc4[nH]7)C=C6)C=C5)cc3)cnc2N2CCC[C@H](C)C2)c1
REMARK SMILES IDX 17 1 16 2 14 3 15 4 13 5 11 6 12 7 87 8 86 9 85 10 10 11
REMARK SMILES IDX 7 13 8 14 9 15 6 16 1 17 2 18 3 19 95 20 4 21 5 22 88 23
REMARK SMILES IDX 89 24 94 25 90 26 92 27 91 28 93 29 18 30 19 31 20 32 21 33
REMARK SMILES IDX 22 34 23 35 84 36 24 37 83 38 25 39 26 40 27 41 77 42 28 43
REMARK SMILES IDX 82 44 76 45 78 46 29 47 81 48 75 49 74 50 30 52 62 53 42 54
REMARK SMILES IDX 61 55 43 56 46 57 60 58 79 59 44 60 45 61 59 63 80 64 47 65
REMARK SMILES IDX 31 66 32 67 40 68 33 69 34 70 38 71 41 72 35 73 36 74 39 75
REMARK SMILES IDX 37 76 63 77 64 78 72 79 65 80 66 81 70 82 73 83 67 84 68 85
REMARK SMILES IDX 71 86 69 87 48 88 49 89 57 90 50 91 51 92 55 93 58 94 52 95
REMARK SMILES IDX 53 96 56 97 54 98
REMARK H PARENT 10 12 78 51 46 62
REMARK Flexibility Score: inf
ROOT
ATOM      1  C   UNL A   1      32.313  28.189  27.615  1.00  0.00     0.275 C 
ENDROOT
BRANCH   1   2
ATOM      2  O   UNL A   1      32.475  27.246  26.543  1.00  0.00    -0.458 OA
BRANCH   2   3
ATOM      3  C   UNL A   1      31.459  26.366  26.502  1.00  0.00     0.339 C 
ATOM      4  O   UNL A   1      30.322  26.567  26.903  1.00  0.00    -0.246 OA
BRANCH   3   5
ATOM      5  C   UNL A   1      31.752  25.033  26.011  1.00  0.00     0.080 A 
ATOM      6  C   UNL A   1      32.443  24.145  23.888  1.00  0.00     0.092 A 
ATOM      7  C   UNL A   1      31.565  24.908  24.642  1.00  0.00     0.048 A 
ATOM      8  C   UNL A   1      33.383  23.320  24.573  1.00  0.00     0.153 A 
ATOM      9  N   UNL A   1      33.444  23.357  25.937  1.00  0.00    -0.236 NA
ATOM     10  C   UNL A   1      32.688  24.241  26.626  1.00  0.00     0.129 A 
BRANCH   6  11
ATOM     11  N   UNL A   1      32.503  24.345  22.467  1.00  0.00    -0.276 N 
ATOM     12  H   UNL A   1      32.523  23.529  21.916  1.00  0.00     0.180 HD
BRANCH  11  13
ATOM     13  S   UNL A   1      32.543  25.795  21.634  1.00  0.00     0.262 S 
ATOM     14  O   UNL A   1      31.861  25.587  20.375  1.00  0.00    -0.201 OA
ATOM     15  O   UNL A   1      33.947  26.158  21.654  1.00  0.00    -0.201 OA
BRANCH  13  16
ATOM     16  C   UNL A   1      31.694  27.118  22.474  1.00  0.00     0.088 A 
ATOM     17  C   UNL A   1      28.356  28.920  22.856  1.00  0.00     0.044 C 
ATOM     18  C   UNL A   1      29.800  28.546  22.978  1.00  0.00    -0.050 A 
ATOM     19  C   UNL A   1      30.647  29.479  23.573  1.00  0.00     0.003 A 
ATOM     20  C   UNL A   1      30.317  27.330  22.473  1.00  0.00     0.025 A 
ATOM     21  C   UNL A   1      32.009  29.233  23.640  1.00  0.00     0.002 A 
ATOM     22  C   UNL A   1      32.531  28.071  23.075  1.00  0.00     0.022 A 
ENDBRANCH  13  16
ENDBRANCH  11  13
ENDBRANCH   6  11
BRANCH   8  23
ATOM     23  N   UNL A   1      34.267  22.436  23.977  1.00  0.00    -0.355 N 
ATOM     24  C   UNL A   1      34.451  21.015  24.235  1.00  0.00     0.118 C 
ATOM     25  C   UNL A   1      35.378  23.031  23.217  1.00  0.00     0.121 C 
ATOM     26  C   UNL A   1      35.705  20.807  25.095  1.00  0.00     0.022 C 
ATOM     27  C   UNL A   1      36.653  22.970  24.079  1.00  0.00     0.005 C 
ATOM     28  C   UNL A   1      36.933  21.516  24.510  1.00  0.00     0.007 C 
ATOM     29  C   UNL A   1      36.564  23.917  25.282  1.00  0.00     0.009 C 
ENDBRANCH   8  23
ENDBRANCH   3   5
ENDBRANCH   2   3
ENDBRANCH   1   2
BRANCH   1  30
ATOM     30  C   UNL A   1      32.191  29.626  27.117  1.00  0.00     0.275 C 
BRANCH  30  31
ATOM     31  O   UNL A   1      33.385  30.384  26.761  1.00  0.00    -0.458 OA
BRANCH  31  32
ATOM     32  C   UNL A   1      33.939  31.349  27.534  1.00  0.00     0.338 C 
ATOM     33  O   UNL A   1      33.375  32.406  27.789  1.00  0.00    -0.246 OA
BRANCH  32  34
ATOM     34  C   UNL A   1      35.320  31.072  27.996  1.00  0.00     0.060 A 
ATOM     35  C   UNL A   1      36.276  32.109  28.071  1.00  0.00     0.016 A 
ATOM     36  C   UNL A   1      35.620  29.814  28.489  1.00  0.00     0.016 A 
ATOM     37  C   UNL A   1      37.504  31.913  28.723  1.00  0.00     0.010 A 
ATOM     38  C   UNL A   1      36.761  29.662  29.234  1.00  0.00     0.010 A 
ATOM     39  C   UNL A   1      37.745  30.679  29.310  1.00  0.00    -0.014 A 
BRANCH  39  40
ATOM     40  C   UNL A   1      39.020  30.180  29.843  1.00  0.00     0.031 A 
ATOM     41  C   UNL A   1      39.609  28.848  29.560  1.00  0.00     0.074 A 
ATOM     42  C   UNL A   1      39.772  31.224  30.269  1.00  0.00     0.049 A 
ATOM     43  N   UNL A   1      40.868  28.731  29.314  1.00  0.00    -0.248 NA
ATOM     44  C   UNL A   1      38.901  27.566  29.409  1.00  0.00     0.031 C 
ATOM     45  C   UNL A   1      41.198  31.384  30.488  1.00  0.00     0.029 A 
ATOM     46  N   UNL A   1      39.242  32.423  30.787  1.00  0.00    -0.354 N 
ATOM     47  C   UNL A   1      41.144  27.428  28.974  1.00  0.00     0.074 A 
ATOM     48  C   UNL A   1      39.874  26.750  28.945  1.00  0.00     0.031 C 
ATOM     49  C   UNL A   1      41.370  32.321  31.442  1.00  0.00     0.029 A 
ATOM     50  C   UNL A   1      40.037  32.684  31.911  1.00  0.00     0.049 A 
ATOM     51  H   UNL A   1      38.488  32.952  30.440  1.00  0.00     0.167 HD
ATOM     52  C   UNL A   1      42.455  27.067  28.922  1.00  0.00     0.037 A 
ATOM     53  C   UNL A   1      39.486  32.345  33.116  1.00  0.00     0.037 A 
ATOM     54  C   UNL A   1      43.133  27.830  29.953  1.00  0.00     0.049 A 
ATOM     55  C   UNL A   1      40.255  31.189  33.722  1.00  0.00     0.074 A 
ATOM     56  C   UNL A   1      43.880  28.988  30.003  1.00  0.00     0.029 A 
ATOM     57  N   UNL A   1      42.721  27.554  31.246  1.00  0.00    -0.354 N 
ATOM     58  N   UNL A   1      40.824  30.223  33.042  1.00  0.00    -0.248 NA
ATOM     59  C   UNL A   1      40.582  31.153  35.139  1.00  0.00     0.031 C 
ATOM     60  C   UNL A   1      43.772  29.484  31.342  1.00  0.00     0.029 A 
ATOM     61  C   UNL A   1      42.981  28.612  32.080  1.00  0.00     0.049 A 
ATOM     62  H   UNL A   1      42.297  26.711  31.529  1.00  0.00     0.167 HD
ATOM     63  C   UNL A   1      41.667  29.530  33.874  1.00  0.00     0.074 A 
ATOM     64  C   UNL A   1      41.459  30.137  35.176  1.00  0.00     0.031 C 
ATOM     65  C   UNL A   1      42.532  28.552  33.463  1.00  0.00     0.037 A 
BRANCH  52  66
ATOM     66  C   UNL A   1      43.158  26.107  28.007  1.00  0.00     0.064 A 
ATOM     67  C   UNL A   1      43.914  26.610  26.919  1.00  0.00     0.173 A 
ATOM     68  C   UNL A   1      42.958  24.718  28.003  1.00  0.00     0.173 A 
ATOM     69  F   UNL A   1      44.194  27.917  26.810  1.00  0.00    -0.203 F 
ATOM     70  C   UNL A   1      44.371  25.799  25.878  1.00  0.00     0.198 A 
ATOM     71  C   UNL A   1      43.425  23.902  26.961  1.00  0.00     0.198 A 
ATOM     72  F   UNL A   1      42.288  24.119  28.994  1.00  0.00    -0.203 F 
ATOM     73  F   UNL A   1      45.030  26.346  24.845  1.00  0.00    -0.200 F 
ATOM     74  C   UNL A   1      44.115  24.444  25.891  1.00  0.00     0.200 A 
ATOM     75  F   UNL A   1      43.174  22.584  26.979  1.00  0.00    -0.200 F 
ATOM     76  F   UNL A   1      44.521  23.671  24.874  1.00  0.00    -0.200 F 
ENDBRANCH  52  66
BRANCH  53  77
ATOM     77  C   UNL A   1      37.996  32.597  33.144  1.00  0.00     0.064 A 
ATOM     78  C   UNL A   1      37.569  33.944  33.294  1.00  0.00     0.173 A 
ATOM     79  C   UNL A   1      37.033  31.693  32.681  1.00  0.00     0.173 A 
ATOM     80  F   UNL A   1      38.433  34.873  33.739  1.00  0.00    -0.203 F 
ATOM     81  C   UNL A   1      36.320  34.385  32.856  1.00  0.00     0.198 A 
ATOM     82  C   UNL A   1      35.752  32.131  32.299  1.00  0.00     0.198 A 
ATOM     83  F   UNL A   1      37.343  30.401  32.499  1.00  0.00    -0.203 F 
ATOM     84  F   UNL A   1      36.033  35.696  32.859  1.00  0.00    -0.200 F 
ATOM     85  C   UNL A   1      35.415  33.478  32.344  1.00  0.00     0.200 A 
ATOM     86  F   UNL A   1      34.871  31.258  31.787  1.00  0.00    -0.200 F 
ATOM     87  F   UNL A   1      34.241  33.904  31.853  1.00  0.00    -0.200 F 
ENDBRANCH  53  77
BRANCH  65  88
ATOM     88  C   UNL A   1      43.066  27.452  34.363  1.00  0.00     0.064 A 
ATOM     89  C   UNL A   1      42.263  26.425  34.888  1.00  0.00     0.173 A 
ATOM     90  C   UNL A   1      44.459  27.289  34.582  1.00  0.00     0.173 A 
ATOM     91  F   UNL A   1      40.958  26.337  34.605  1.00  0.00    -0.203 F 
ATOM     92  C   UNL A   1      42.786  25.394  35.667  1.00  0.00     0.198 A 
ATOM     93  C   UNL A   1      44.986  26.203  35.281  1.00  0.00     0.198 A 
ATOM     94  F   UNL A   1      45.364  28.145  34.087  1.00  0.00    -0.203 F 
ATOM     95  F   UNL A   1      41.954  24.491  36.207  1.00  0.00    -0.200 F 
ATOM     96  C   UNL A   1      44.148  25.274  35.855  1.00  0.00     0.200 A 
ATOM     97  F   UNL A   1      46.316  26.051  35.368  1.00  0.00    -0.200 F 
ATOM     98  F   UNL A   1      44.648  24.251  36.557  1.00  0.00    -0.200 F 
ENDBRANCH  65  88
ENDBRANCH  39  40
ENDBRANCH  32  34
ENDBRANCH  31  32
ENDBRANCH  30  31
ENDBRANCH   1  30
TORSDOF 15
ENDMDL
MODEL 2
REMARK VINA RESULT:     -13.6      2.253      3.666
REMARK SMILES Cc1cccc(S(=O)(=O)Nc2cc(C(=O)OCCOC(=O)c3ccc(-c4c5nc(c(-c6c(F)c(F)c(F)c(F)c6F)c6ccc([nH]6)c(-c6c(F)c(F)c(F)c(F)c6F)c6nc(c(-c7c(F)c(F)c(F)c(F)c7F)c7ccc4[nH]7)C=C6)C=C5)cc3)cnc2N2CCC[C@H](C)C2)c1
REMARK SMILES IDX 17 1 16 2 14 3 15 4 13 5 11 6 12 7 87 8 86 9 85 10 10 11
REMARK SMILES IDX 7 13 8 14 9 15 6 16 1 17 2 18 3 19 95 20 4 21 5 22 88 23
REMARK SMILES IDX 89 24 94 25 90 26 92 27 91 28 93 29 18 30 19 31 20 32 21 33
REMARK SMILES IDX 22 34 23 35 84 36 24 37 83 38 25 39 26 40 27 41 77 42 28 43
REMARK SMILES IDX 82 44 76 45 78 46 29 47 81 48 75 49 74 50 30 52 62 53 42 54
REMARK SMILES IDX 61 55 43 56 46 57 60 58 79 59 44 60 45 61 59 63 80 64 47 65
REMARK SMILES IDX 31 66 32 67 40 68 33 69 34 70 38 71 41 72 35 73 36 74 39 75
REMARK SMILES IDX 37 76 63 77 64 78 72 79 65 80 66 81 70 82 73 83 67 84 68 85
REMARK SMILES IDX 71 86 69 87 48 88 49 89 57 90 50 91 51 92 55 93 58 94 52 95
REMARK SMILES IDX 53 96 56 97 54 98
REMARK H PARENT 10 12 78 51 46 62
REMARK Flexibility Score: inf
ROOT
ATOM      1  C   UNL A   1      33.167  33.431  27.586  1.00  0.00     0.275 C 
ENDROOT
BRANCH   1   2
ATOM      2  O   UNL A   1      33.405  32.016  27.657  1.00  0.00    -0.458 OA
BRANCH   2   3
ATOM      3  C   UNL A   1      32.456  31.322  27.005  1.00  0.00     0.339 C 
ATOM      4  O   UNL A   1      31.442  31.791  26.509  1.00  0.00    -0.246 OA
BRANCH   3   5
ATOM      5  C   UNL A   1      32.603  29.880  26.950  1.00  0.00     0.080 A 
ATOM      6  C   UNL A   1      31.972  28.192  25.362  1.00  0.00     0.092 A 
ATOM      7  C   UNL A   1      31.635  29.268  26.169  1.00  0.00     0.048 A 
ATOM      8  C   UNL A   1      33.257  27.596  25.530  1.00  0.00     0.153 A 
ATOM      9  N   UNL A   1      34.141  28.140  26.418  1.00  0.00    -0.236 NA
ATOM     10  C   UNL A   1      33.836  29.290  27.061  1.00  0.00     0.129 A 
BRANCH   6  11
ATOM     11  N   UNL A   1      31.105  27.834  24.274  1.00  0.00    -0.276 N 
ATOM     12  H   UNL A   1      30.485  27.087  24.443  1.00  0.00     0.180 HD
BRANCH  11  13
ATOM     13  S   UNL A   1      31.021  28.529  22.755  1.00  0.00     0.262 S 
ATOM     14  O   UNL A   1      30.623  27.491  21.828  1.00  0.00    -0.201 OA
ATOM     15  O   UNL A   1      32.306  29.184  22.611  1.00  0.00    -0.201 OA
BRANCH  13  16
ATOM     16  C   UNL A   1      29.805  29.826  22.637  1.00  0.00     0.088 A 
ATOM     17  C   UNL A   1      27.930  32.118  20.236  1.00  0.00     0.044 C 
ATOM     18  C   UNL A   1      28.450  31.472  21.482  1.00  0.00    -0.050 A 
ATOM     19  C   UNL A   1      28.192  32.123  22.687  1.00  0.00     0.003 A 
ATOM     20  C   UNL A   1      29.215  30.283  21.461  1.00  0.00     0.025 A 
ATOM     21  C   UNL A   1      28.718  31.625  23.868  1.00  0.00     0.002 A 
ATOM     22  C   UNL A   1      29.536  30.497  23.840  1.00  0.00     0.022 A 
ENDBRANCH  13  16
ENDBRANCH  11  13
ENDBRANCH   6  11
BRANCH   8  23
ATOM     23  N   UNL A   1      33.717  26.469  24.870  1.00  0.00    -0.355 N 
ATOM     24  C   UNL A   1      33.553  26.098  23.471  1.00  0.00     0.118 C 
ATOM     25  C   UNL A   1      34.155  25.346  25.715  1.00  0.00     0.121 C 
ATOM     26  C   UNL A   1      32.458  25.031  23.348  1.00  0.00     0.022 C 
ATOM     27  C   UNL A   1      33.038  24.284  25.738  1.00  0.00     0.005 C 
ATOM     28  C   UNL A   1      32.688  23.851  24.301  1.00  0.00     0.007 C 
ATOM     29  C   UNL A   1      31.806  24.781  26.503  1.00  0.00     0.009 C 
ENDBRANCH   8  23
ENDBRANCH   3   5
ENDBRANCH   2   3
ENDBRANCH   1   2
BRANCH   1  30
ATOM     30  C   UNL A   1      33.309  34.117  28.942  1.00  0.00     0.275 C 
BRANCH  30  31
ATOM     31  O   UNL A   1      34.560  34.026  29.684  1.00  0.00    -0.458 OA
BRANCH  31  32
ATOM     32  C   UNL A   1      34.809  33.122  30.661  1.00  0.00     0.338 C 
ATOM     33  O   UNL A   1      34.082  32.976  31.637  1.00  0.00    -0.246 OA
BRANCH  32  34
ATOM     34  C   UNL A   1      36.072  32.362  30.512  1.00  0.00     0.060 A 
ATOM     35  C   UNL A   1      36.951  32.629  29.438  1.00  0.00     0.016 A 
ATOM     36  C   UNL A   1      36.450  31.489  31.516  1.00  0.00     0.016 A 
ATOM     37  C   UNL A   1      38.247  32.091  29.414  1.00  0.00     0.010 A 
ATOM     38  C   UNL A   1      37.755  31.068  31.557  1.00  0.00     0.010 A 
ATOM     39  C   UNL A   1      38.650  31.306  30.485  1.00  0.00    -0.014 A 
BRANCH  39  40
ATOM     40  C   UNL A   1      39.856  30.472  30.574  1.00  0.00     0.031 A 
ATOM     41  C   UNL A   1      39.974  29.074  30.089  1.00  0.00     0.074 A 
ATOM     42  C   UNL A   1      40.941  31.263  30.760  1.00  0.00     0.049 A 
ATOM     43  N   UNL A   1      41.027  28.691  29.452  1.00  0.00    -0.248 NA
ATOM     44  C   UNL A   1      38.954  28.015  30.144  1.00  0.00     0.031 C 
ATOM     45  C   UNL A   1      42.358  31.062  30.517  1.00  0.00     0.029 A 
ATOM     46  N   UNL A   1      40.915  32.494  31.446  1.00  0.00    -0.354 N 
ATOM     47  C   UNL A   1      40.847  27.401  29.014  1.00  0.00     0.074 A 
ATOM     48  C   UNL A   1      39.500  27.045  29.376  1.00  0.00     0.031 C 
ATOM     49  C   UNL A   1      43.043  31.832  31.387  1.00  0.00     0.029 A 
ATOM     50  C   UNL A   1      42.053  32.448  32.263  1.00  0.00     0.049 A 
ATOM     51  H   UNL A   1      40.252  33.217  31.368  1.00  0.00     0.167 HD
ATOM     52  C   UNL A   1      41.944  26.751  28.539  1.00  0.00     0.037 A 
ATOM     53  C   UNL A   1      41.826  32.127  33.574  1.00  0.00     0.037 A 
ATOM     54  C   UNL A   1      43.073  27.227  29.316  1.00  0.00     0.049 A 
ATOM     55  C   UNL A   1      42.423  30.769  33.878  1.00  0.00     0.074 A 
ATOM     56  C   UNL A   1      44.068  28.168  29.151  1.00  0.00     0.029 A 
ATOM     57  N   UNL A   1      43.016  26.926  30.667  1.00  0.00    -0.354 N 
ATOM     58  N   UNL A   1      42.494  29.770  33.031  1.00  0.00    -0.248 NA
ATOM     59  C   UNL A   1      43.143  30.515  35.116  1.00  0.00     0.031 C 
ATOM     60  C   UNL A   1      44.500  28.538  30.465  1.00  0.00     0.029 A 
ATOM     61  C   UNL A   1      43.776  27.805  31.398  1.00  0.00     0.049 A 
ATOM     62  H   UNL A   1      42.499  26.182  31.052  1.00  0.00     0.167 HD
ATOM     63  C   UNL A   1      43.345  28.819  33.536  1.00  0.00     0.074 A 
ATOM     64  C   UNL A   1      43.703  29.324  34.850  1.00  0.00     0.031 C 
ATOM     65  C   UNL A   1      43.767  27.713  32.850  1.00  0.00     0.037 A 
BRANCH  52  66
ATOM     66  C   UNL A   1      42.070  25.750  27.427  1.00  0.00     0.064 A 
ATOM     67  C   UNL A   1      41.478  24.471  27.573  1.00  0.00     0.173 A 
ATOM     68  C   UNL A   1      42.921  25.892  26.320  1.00  0.00     0.173 A 
ATOM     69  F   UNL A   1      40.631  24.205  28.577  1.00  0.00    -0.203 F 
ATOM     70  C   UNL A   1      41.768  23.403  26.721  1.00  0.00     0.198 A 
ATOM     71  C   UNL A   1      43.205  24.820  25.459  1.00  0.00     0.198 A 
ATOM     72  F   UNL A   1      43.514  27.061  26.057  1.00  0.00    -0.203 F 
ATOM     73  F   UNL A   1      41.220  22.200  26.948  1.00  0.00    -0.200 F 
ATOM     74  C   UNL A   1      42.644  23.573  25.670  1.00  0.00     0.200 A 
ATOM     75  F   UNL A   1      44.057  24.992  24.437  1.00  0.00    -0.200 F 
ATOM     76  F   UNL A   1      42.952  22.540  24.873  1.00  0.00    -0.200 F 
ENDBRANCH  52  66
BRANCH  53  77
ATOM     77  C   UNL A   1      40.530  32.717  34.080  1.00  0.00     0.064 A 
ATOM     78  C   UNL A   1      39.522  31.806  34.498  1.00  0.00     0.173 A 
ATOM     79  C   UNL A   1      40.377  34.042  34.505  1.00  0.00     0.173 A 
ATOM     80  F   UNL A   1      39.592  30.516  34.126  1.00  0.00    -0.203 F 
ATOM     81  C   UNL A   1      38.527  32.160  35.409  1.00  0.00     0.198 A 
ATOM     82  C   UNL A   1      39.335  34.409  35.376  1.00  0.00     0.198 A 
ATOM     83  F   UNL A   1      41.282  34.973  34.170  1.00  0.00    -0.203 F 
ATOM     84  F   UNL A   1      37.707  31.221  35.905  1.00  0.00    -0.200 F 
ATOM     85  C   UNL A   1      38.442  33.461  35.860  1.00  0.00     0.200 A 
ATOM     86  F   UNL A   1      39.255  35.669  35.829  1.00  0.00    -0.200 F 
ATOM     87  F   UNL A   1      37.535  33.793  36.791  1.00  0.00    -0.200 F 
ENDBRANCH  53  77
BRANCH  65  88
ATOM     88  C   UNL A   1      44.253  26.433  33.509  1.00  0.00     0.064 A 
ATOM     89  C   UNL A   1      45.586  25.995  33.455  1.00  0.00     0.173 A 
ATOM     90  C   UNL A   1      43.418  25.690  34.383  1.00  0.00     0.173 A 
ATOM     91  F   UNL A   1      46.535  26.700  32.827  1.00  0.00    -0.203 F 
ATOM     92  C   UNL A   1      46.022  24.846  34.115  1.00  0.00     0.198 A 
ATOM     93  C   UNL A   1      43.882  24.598  35.116  1.00  0.00     0.198 A 
ATOM     94  F   UNL A   1      42.136  26.022  34.600  1.00  0.00    -0.203 F 
ATOM     95  F   UNL A   1      47.289  24.437  33.955  1.00  0.00    -0.200 F 
ATOM     96  C   UNL A   1      45.174  24.154  34.955  1.00  0.00     0.200 A 
ATOM     97  F   UNL A   1      43.072  24.000  36.002  1.00  0.00    -0.200 F 
ATOM     98  F   UNL A   1      45.613  23.084  35.629  1.00  0.00    -0.200 F 
ENDBRANCH  65  88
ENDBRANCH  39  40
ENDBRANCH  32  34
ENDBRANCH  31  32
ENDBRANCH  30  31
ENDBRANCH   1  30
TORSDOF 15
ENDMDL
MODEL 3
REMARK VINA RESULT:     -13.5      3.017      8.929
REMARK SMILES Cc1cccc(S(=O)(=O)Nc2cc(C(=O)OCCOC(=O)c3ccc(-c4c5nc(c(-c6c(F)c(F)c(F)c(F)c6F)c6ccc([nH]6)c(-c6c(F)c(F)c(F)c(F)c6F)c6nc(c(-c7c(F)c(F)c(F)c(F)c7F)c7ccc4[nH]7)C=C6)C=C5)cc3)cnc2N2CCC[C@H](C)C2)c1
REMARK SMILES IDX 17 1 16 2 14 3 15 4 13 5 11 6 12 7 87 8 86 9 85 10 10 11
REMARK SMILES IDX 7 13 8 14 9 15 6 16 1 17 2 18 3 19 95 20 4 21 5 22 88 23
REMARK SMILES IDX 89 24 94 25 90 26 92 27 91 28 93 29 18 30 19 31 20 32 21 33
REMARK SMILES IDX 22 34 23 35 84 36 24 37 83 38 25 39 26 40 27 41 77 42 28 43
REMARK SMILES IDX 82 44 76 45 78 46 29 47 81 48 75 49 74 50 30 52 62 53 42 54
REMARK SMILES IDX 61 55 43 56 46 57 60 58 79 59 44 60 45 61 59 63 80 64 47 65
REMARK SMILES IDX 31 66 32 67 40 68 33 69 34 70 38 71 41 72 35 73 36 74 39 75
REMARK SMILES IDX 37 76 63 77 64 78 72 79 65 80 66 81 70 82 73 83 67 84 68 85
REMARK SMILES IDX 71 86 69 87 48 88 49 89 57 90 50 91 51 92 55 93 58 94 52 95
REMARK SMILES IDX 53 96 56 97 54 98
REMARK H PARENT 10 12 78 51 46 62
REMARK Flexibility Score: inf
ROOT
ATOM      1  C   UNL A   1      36.106  23.702  24.542  1.00  0.00     0.275 C 
ENDROOT
BRANCH   1   2
ATOM      2  O   UNL A   1      35.699  23.894  23.177  1.00  0.00    -0.458 OA
BRANCH   2   3
ATOM      3  C   UNL A   1      34.431  23.493  22.979  1.00  0.00     0.339 C 
ATOM      4  O   UNL A   1      34.075  22.359  22.696  1.00  0.00    -0.246 OA
BRANCH   3   5
ATOM      5  C   UNL A   1      33.397  24.509  23.028  1.00  0.00     0.080 A 
ATOM      6  C   UNL A   1      31.531  24.929  24.482  1.00  0.00     0.092 A 
ATOM      7  C   UNL A   1      32.239  24.071  23.654  1.00  0.00     0.048 A 
ATOM      8  C   UNL A   1      31.883  26.310  24.486  1.00  0.00     0.153 A 
ATOM      9  N   UNL A   1      32.945  26.737  23.741  1.00  0.00    -0.236 NA
ATOM     10  C   UNL A   1      33.715  25.842  23.082  1.00  0.00     0.129 A 
BRANCH   6  11
ATOM     11  N   UNL A   1      30.602  24.379  25.431  1.00  0.00    -0.276 N 
ATOM     12  H   UNL A   1      29.722  24.819  25.479  1.00  0.00     0.180 HD
BRANCH  11  13
ATOM     13  S   UNL A   1      30.834  23.084  26.463  1.00  0.00     0.262 S 
ATOM     14  O   UNL A   1      29.577  22.371  26.547  1.00  0.00    -0.201 OA
ATOM     15  O   UNL A   1      31.410  23.693  27.646  1.00  0.00    -0.201 OA
BRANCH  13  16
ATOM     16  C   UNL A   1      32.053  21.922  25.879  1.00  0.00     0.088 A 
ATOM     17  C   UNL A   1      32.576  18.643  24.007  1.00  0.00     0.044 C 
ATOM     18  C   UNL A   1      32.815  19.887  24.803  1.00  0.00    -0.050 A 
ATOM     19  C   UNL A   1      34.064  20.023  25.405  1.00  0.00     0.003 A 
ATOM     20  C   UNL A   1      31.818  20.872  24.995  1.00  0.00     0.025 A 
ATOM     21  C   UNL A   1      34.322  21.108  26.227  1.00  0.00     0.002 A 
ATOM     22  C   UNL A   1      33.316  22.040  26.479  1.00  0.00     0.022 A 
ENDBRANCH  13  16
ENDBRANCH  11  13
ENDBRANCH   6  11
BRANCH   8  23
ATOM     23  N   UNL A   1      31.225  27.310  25.184  1.00  0.00    -0.355 N 
ATOM     24  C   UNL A   1      30.655  28.552  24.681  1.00  0.00     0.118 C 
ATOM     25  C   UNL A   1      31.378  27.299  26.648  1.00  0.00     0.121 C 
ATOM     26  C   UNL A   1      31.595  29.719  25.012  1.00  0.00     0.022 C 
ATOM     27  C   UNL A   1      32.412  28.371  27.043  1.00  0.00     0.005 C 
ATOM     28  C   UNL A   1      31.983  29.747  26.496  1.00  0.00     0.007 C 
ATOM     29  C   UNL A   1      33.824  27.987  26.585  1.00  0.00     0.009 C 
ENDBRANCH   8  23
ENDBRANCH   3   5
ENDBRANCH   2   3
ENDBRANCH   1   2
BRANCH   1  30
ATOM     30  C   UNL A   1      37.404  22.908  24.659  1.00  0.00     0.275 C 
BRANCH  30  31
ATOM     31  O   UNL A   1      37.978  22.627  25.970  1.00  0.00    -0.458 OA
BRANCH  31  32
ATOM     32  C   UNL A   1      39.290  22.766  26.278  1.00  0.00     0.338 C 
ATOM     33  O   UNL A   1      40.112  21.873  26.114  1.00  0.00    -0.246 OA
BRANCH  32  34
ATOM     34  C   UNL A   1      39.657  24.057  26.905  1.00  0.00     0.060 A 
ATOM     35  C   UNL A   1      40.373  25.034  26.177  1.00  0.00     0.016 A 
ATOM     36  C   UNL A   1      39.166  24.353  28.165  1.00  0.00     0.016 A 
ATOM     37  C   UNL A   1      40.520  26.339  26.671  1.00  0.00     0.010 A 
ATOM     38  C   UNL A   1      39.200  25.657  28.587  1.00  0.00     0.010 A 
ATOM     39  C   UNL A   1      39.926  26.650  27.886  1.00  0.00    -0.014 A 
BRANCH  39  40
ATOM     40  C   UNL A   1      40.128  27.863  28.691  1.00  0.00     0.031 A 
ATOM     41  C   UNL A   1      39.256  29.063  28.673  1.00  0.00     0.074 A 
ATOM     42  C   UNL A   1      40.944  27.581  29.737  1.00  0.00     0.049 A 
ATOM     43  N   UNL A   1      38.933  29.651  29.773  1.00  0.00    -0.248 NA
ATOM     44  C   UNL A   1      38.579  29.664  27.513  1.00  0.00     0.031 C 
ATOM     45  C   UNL A   1      41.153  28.224  31.022  1.00  0.00     0.029 A 
ATOM     46  N   UNL A   1      41.964  26.609  29.706  1.00  0.00    -0.354 N 
ATOM     47  C   UNL A   1      38.036  30.657  29.503  1.00  0.00     0.074 A 
ATOM     48  C   UNL A   1      37.759  30.570  28.092  1.00  0.00     0.031 C 
ATOM     49  C   UNL A   1      42.417  27.967  31.415  1.00  0.00     0.029 A 
ATOM     50  C   UNL A   1      43.053  27.244  30.319  1.00  0.00     0.049 A 
ATOM     51  H   UNL A   1      41.921  25.697  29.339  1.00  0.00     0.167 HD
ATOM     52  C   UNL A   1      37.774  31.538  30.506  1.00  0.00     0.037 A 
ATOM     53  C   UNL A   1      44.001  27.742  29.468  1.00  0.00     0.037 A 
ATOM     54  C   UNL A   1      39.008  31.689  31.253  1.00  0.00     0.049 A 
ATOM     55  C   UNL A   1      43.995  29.256  29.526  1.00  0.00     0.074 A 
ATOM     56  C   UNL A   1      39.540  31.162  32.412  1.00  0.00     0.029 A 
ATOM     57  N   UNL A   1      40.058  32.239  30.537  1.00  0.00    -0.354 N 
ATOM     58  N   UNL A   1      42.933  29.998  29.722  1.00  0.00    -0.248 NA
ATOM     59  C   UNL A   1      45.233  30.020  29.543  1.00  0.00     0.031 C 
ATOM     60  C   UNL A   1      40.962  31.274  32.295  1.00  0.00     0.029 A 
ATOM     61  C   UNL A   1      41.266  31.881  31.082  1.00  0.00     0.049 A 
ATOM     62  H   UNL A   1      39.952  32.811  29.742  1.00  0.00     0.167 HD
ATOM     63  C   UNL A   1      43.332  31.280  30.009  1.00  0.00     0.074 A 
ATOM     64  C   UNL A   1      44.776  31.243  29.859  1.00  0.00     0.031 C 
ATOM     65  C   UNL A   1      42.493  32.283  30.412  1.00  0.00     0.037 A 
BRANCH  52  66
ATOM     66  C   UNL A   1      36.499  32.244  30.866  1.00  0.00     0.064 A 
ATOM     67  C   UNL A   1      35.988  33.242  29.999  1.00  0.00     0.173 A 
ATOM     68  C   UNL A   1      35.864  32.156  32.114  1.00  0.00     0.173 A 
ATOM     69  F   UNL A   1      36.491  33.422  28.769  1.00  0.00    -0.203 F 
ATOM     70  C   UNL A   1      34.973  34.123  30.378  1.00  0.00     0.198 A 
ATOM     71  C   UNL A   1      34.839  33.037  32.491  1.00  0.00     0.198 A 
ATOM     72  F   UNL A   1      36.235  31.232  33.008  1.00  0.00    -0.203 F 
ATOM     73  F   UNL A   1      34.575  35.086  29.532  1.00  0.00    -0.200 F 
ATOM     74  C   UNL A   1      34.406  34.031  31.632  1.00  0.00     0.200 A 
ATOM     75  F   UNL A   1      34.290  32.941  33.712  1.00  0.00    -0.200 F 
ATOM     76  F   UNL A   1      33.458  34.899  32.009  1.00  0.00    -0.200 F 
ENDBRANCH  52  66
BRANCH  53  77
ATOM     77  C   UNL A   1      44.200  26.850  28.264  1.00  0.00     0.064 A 
ATOM     78  C   UNL A   1      43.800  27.365  27.002  1.00  0.00     0.173 A 
ATOM     79  C   UNL A   1      45.055  25.742  28.235  1.00  0.00     0.173 A 
ATOM     80  F   UNL A   1      42.975  28.425  26.944  1.00  0.00    -0.203 F 
ATOM     81  C   UNL A   1      44.346  26.908  25.802  1.00  0.00     0.198 A 
ATOM     82  C   UNL A   1      45.555  25.244  27.018  1.00  0.00     0.198 A 
ATOM     83  F   UNL A   1      45.494  25.190  29.375  1.00  0.00    -0.203 F 
ATOM     84  F   UNL A   1      44.067  27.544  24.654  1.00  0.00    -0.200 F 
ATOM     85  C   UNL A   1      45.236  25.855  25.812  1.00  0.00     0.200 A 
ATOM     86  F   UNL A   1      46.432  24.228  27.021  1.00  0.00    -0.200 F 
ATOM     87  F   UNL A   1      45.822  25.458  24.672  1.00  0.00    -0.200 F 
ENDBRANCH  53  77
BRANCH  65  88
ATOM     88  C   UNL A   1      42.785  33.762  30.235  1.00  0.00     0.064 A 
ATOM     89  C   UNL A   1      42.977  34.645  31.312  1.00  0.00     0.173 A 
ATOM     90  C   UNL A   1      43.067  34.313  28.958  1.00  0.00     0.173 A 
ATOM     91  F   UNL A   1      42.935  34.227  32.582  1.00  0.00    -0.203 F 
ATOM     92  C   UNL A   1      43.299  35.990  31.126  1.00  0.00     0.198 A 
ATOM     93  C   UNL A   1      43.483  35.633  28.784  1.00  0.00     0.198 A 
ATOM     94  F   UNL A   1      43.000  33.582  27.836  1.00  0.00    -0.203 F 
ATOM     95  F   UNL A   1      43.386  36.798  32.192  1.00  0.00    -0.200 F 
ATOM     96  C   UNL A   1      43.564  36.482  29.865  1.00  0.00     0.200 A 
ATOM     97  F   UNL A   1      43.832  36.064  27.563  1.00  0.00    -0.200 F 
ATOM     98  F   UNL A   1      43.928  37.759  29.698  1.00  0.00    -0.200 F 
ENDBRANCH  65  88
ENDBRANCH  39  40
ENDBRANCH  32  34
ENDBRANCH  31  32
ENDBRANCH  30  31
ENDBRANCH   1  30
TORSDOF 15
ENDMDL
