MODEL 1
REMARK VINA RESULT:     -11.6      0.000      0.000
REMARK SMILES C[NH2+][C@@]1(C(=O)OCCOC(=O)c2ccc(-c3c4nc(c(-c5c(F)c(F)c(F)c(F)c5F)c5ccc([nH]5)c(-c5c(F)c(F)c(F)c(F)c5F)c5nc(c(-c6c(F)c(F)c(F)c(F)c6F)c6ccc3[nH]6)C=C5)C=C4)cc2)CC[C@H](Sc2ccc(C)c(C)c2)C1
REMARK SMILES IDX 7 1 6 2 4 3 5 4 3 5 75 6 87 7 76 8 77 9 2 10 1 11 78 14
REMARK SMILES IDX 79 15 80 16 86 17 81 18 84 19 82 20 85 21 83 22 8 23 9 24
REMARK SMILES IDX 10 25 11 26 12 27 13 28 74 29 14 30 73 31 15 32 16 33 17 34
REMARK SMILES IDX 67 35 18 36 72 37 66 38 68 39 19 40 71 41 65 42 64 43 20 45
REMARK SMILES IDX 52 46 32 47 51 48 33 49 36 50 50 51 69 52 34 53 35 54 49 56
REMARK SMILES IDX 70 57 37 58 21 59 22 60 30 61 23 62 24 63 28 64 31 65 25 66
REMARK SMILES IDX 26 67 29 68 27 69 53 70 54 71 62 72 55 73 56 74 60 75 63 76
REMARK SMILES IDX 57 77 58 78 61 79 59 80 38 81 39 82 47 83 40 84 41 85 45 86
REMARK SMILES IDX 48 87 42 88 43 89 46 90 44 91
REMARK H PARENT 2 12 2 13 68 44 36 55
REMARK Flexibility Score: inf
ROOT
ATOM      1  C   UNL A   1      31.477  29.201  24.410  1.00  0.00     0.274 C 
ENDROOT
BRANCH   1   2
ATOM      2  O   UNL A   1      30.772  27.943  24.391  1.00  0.00    -0.457 OA
BRANCH   2   3
ATOM      3  C   UNL A   1      31.459  26.854  23.966  1.00  0.00     0.368 C 
ATOM      4  O   UNL A   1      32.148  26.816  22.949  1.00  0.00    -0.245 OA
BRANCH   3   5
ATOM      5  C   UNL A   1      31.211  25.593  24.851  1.00  0.00     0.195 C 
ATOM      6  C   UNL A   1      31.937  25.843  26.179  1.00  0.00     0.082 C 
ATOM      7  C   UNL A   1      31.861  24.290  24.354  1.00  0.00     0.096 C 
ATOM      8  C   UNL A   1      33.384  25.485  25.858  1.00  0.00     0.022 C 
ATOM      9  C   UNL A   1      33.281  24.248  24.958  1.00  0.00     0.059 C 
BRANCH   5  10
ATOM     10  N   UNL A   1      29.751  25.482  25.118  1.00  0.00    -0.335 N 
ATOM     11  C   UNL A   1      29.421  25.193  26.506  1.00  0.00     0.331 C 
ATOM     12  H   UNL A   1      29.311  26.365  24.860  1.00  0.00     0.347 HD
ATOM     13  H   UNL A   1      29.411  24.695  24.565  1.00  0.00     0.347 HD
ENDBRANCH   5  10
BRANCH   9  14
ATOM     14  S   UNL A   1      34.507  24.137  23.605  1.00  0.00    -0.122 SA
BRANCH  14  15
ATOM     15  C   UNL A   1      35.918  23.327  24.327  1.00  0.00     0.008 A 
ATOM     16  C   UNL A   1      36.336  22.033  24.030  1.00  0.00     0.015 A 
ATOM     17  C   UNL A   1      36.663  24.076  25.248  1.00  0.00     0.018 A 
ATOM     18  C   UNL A   1      37.435  21.477  24.688  1.00  0.00     0.005 A 
ATOM     19  C   UNL A   1      37.788  23.542  25.899  1.00  0.00    -0.047 A 
ATOM     20  C   UNL A   1      38.173  22.219  25.623  1.00  0.00    -0.048 A 
ATOM     21  C   UNL A   1      38.548  24.414  26.861  1.00  0.00     0.044 C 
ATOM     22  C   UNL A   1      39.316  21.538  26.324  1.00  0.00     0.044 C 
ENDBRANCH  14  15
ENDBRANCH   9  14
ENDBRANCH   3   5
ENDBRANCH   2   3
ENDBRANCH   1   2
BRANCH   1  23
ATOM     23  C   UNL A   1      31.794  29.604  25.845  1.00  0.00     0.275 C 
BRANCH  23  24
ATOM     24  O   UNL A   1      33.077  30.250  25.857  1.00  0.00    -0.458 OA
BRANCH  24  25
ATOM     25  C   UNL A   1      33.294  31.126  26.863  1.00  0.00     0.338 C 
ATOM     26  O   UNL A   1      32.548  32.008  27.247  1.00  0.00    -0.246 OA
BRANCH  25  27
ATOM     27  C   UNL A   1      34.611  30.850  27.478  1.00  0.00     0.060 A 
ATOM     28  C   UNL A   1      34.992  29.546  27.797  1.00  0.00     0.016 A 
ATOM     29  C   UNL A   1      35.434  31.917  27.837  1.00  0.00     0.016 A 
ATOM     30  C   UNL A   1      36.139  29.314  28.553  1.00  0.00     0.010 A 
ATOM     31  C   UNL A   1      36.637  31.673  28.507  1.00  0.00     0.010 A 
ATOM     32  C   UNL A   1      36.988  30.371  28.906  1.00  0.00    -0.014 A 
BRANCH  32  33
ATOM     33  C   UNL A   1      38.206  30.131  29.733  1.00  0.00     0.031 A 
ATOM     34  C   UNL A   1      39.347  29.321  29.176  1.00  0.00     0.074 A 
ATOM     35  C   UNL A   1      38.312  30.639  30.977  1.00  0.00     0.049 A 
ATOM     36  N   UNL A   1      40.369  28.788  29.799  1.00  0.00    -0.248 NA
ATOM     37  C   UNL A   1      39.327  29.059  27.728  1.00  0.00     0.031 C 
ATOM     38  C   UNL A   1      37.322  31.491  31.636  1.00  0.00     0.029 A 
ATOM     39  N   UNL A   1      39.316  30.521  31.908  1.00  0.00    -0.354 N 
ATOM     40  C   UNL A   1      41.060  28.062  28.839  1.00  0.00     0.074 A 
ATOM     41  C   UNL A   1      40.360  28.240  27.585  1.00  0.00     0.031 C 
ATOM     42  C   UNL A   1      37.790  31.864  32.836  1.00  0.00     0.029 A 
ATOM     43  C   UNL A   1      39.065  31.197  33.077  1.00  0.00     0.049 A 
ATOM     44  H   UNL A   1      40.137  30.002  31.751  1.00  0.00     0.167 HD
ATOM     45  C   UNL A   1      42.170  27.303  28.998  1.00  0.00     0.037 A 
ATOM     46  C   UNL A   1      39.755  31.240  34.231  1.00  0.00     0.037 A 
ATOM     47  C   UNL A   1      42.914  27.194  30.226  1.00  0.00     0.049 A 
ATOM     48  C   UNL A   1      40.997  30.408  34.380  1.00  0.00     0.074 A 
ATOM     49  C   UNL A   1      44.051  26.449  30.487  1.00  0.00     0.029 A 
ATOM     50  N   UNL A   1      42.612  27.883  31.391  1.00  0.00    -0.354 N 
ATOM     51  N   UNL A   1      41.573  29.623  33.504  1.00  0.00    -0.248 NA
ATOM     52  C   UNL A   1      41.661  30.441  35.690  1.00  0.00     0.031 C 
ATOM     53  C   UNL A   1      44.429  26.675  31.816  1.00  0.00     0.029 A 
ATOM     54  C   UNL A   1      43.543  27.584  32.371  1.00  0.00     0.049 A 
ATOM     55  H   UNL A   1      41.848  28.493  31.504  1.00  0.00     0.167 HD
ATOM     56  C   UNL A   1      42.657  29.058  34.157  1.00  0.00     0.074 A 
ATOM     57  C   UNL A   1      42.681  29.615  35.494  1.00  0.00     0.031 C 
ATOM     58  C   UNL A   1      43.545  28.143  33.697  1.00  0.00     0.037 A 
BRANCH  45  59
ATOM     59  C   UNL A   1      42.633  26.491  27.825  1.00  0.00     0.064 A 
ATOM     60  C   UNL A   1      42.187  25.182  27.603  1.00  0.00     0.173 A 
ATOM     61  C   UNL A   1      43.506  27.059  26.883  1.00  0.00     0.173 A 
ATOM     62  F   UNL A   1      41.366  24.590  28.483  1.00  0.00    -0.203 F 
ATOM     63  C   UNL A   1      42.609  24.464  26.485  1.00  0.00     0.198 A 
ATOM     64  C   UNL A   1      43.907  26.348  25.757  1.00  0.00     0.198 A 
ATOM     65  F   UNL A   1      43.959  28.311  27.050  1.00  0.00    -0.203 F 
ATOM     66  F   UNL A   1      42.197  23.201  26.307  1.00  0.00    -0.200 F 
ATOM     67  C   UNL A   1      43.462  25.049  25.560  1.00  0.00     0.200 A 
ATOM     68  F   UNL A   1      44.723  26.918  24.859  1.00  0.00    -0.200 F 
ATOM     69  F   UNL A   1      43.859  24.360  24.482  1.00  0.00    -0.200 F 
ENDBRANCH  45  59
BRANCH  46  70
ATOM     70  C   UNL A   1      39.251  32.068  35.357  1.00  0.00     0.064 A 
ATOM     71  C   UNL A   1      38.464  31.501  36.368  1.00  0.00     0.173 A 
ATOM     72  C   UNL A   1      39.566  33.431  35.458  1.00  0.00     0.173 A 
ATOM     73  F   UNL A   1      38.112  30.209  36.299  1.00  0.00    -0.203 F 
ATOM     74  C   UNL A   1      38.014  32.268  37.441  1.00  0.00     0.198 A 
ATOM     75  C   UNL A   1      39.140  34.188  36.545  1.00  0.00     0.198 A 
ATOM     76  F   UNL A   1      40.314  34.018  34.512  1.00  0.00    -0.203 F 
ATOM     77  F   UNL A   1      37.240  31.710  38.382  1.00  0.00    -0.200 F 
ATOM     78  C   UNL A   1      38.361  33.608  37.534  1.00  0.00     0.200 A 
ATOM     79  F   UNL A   1      39.488  35.479  36.637  1.00  0.00    -0.200 F 
ATOM     80  F   UNL A   1      37.942  34.339  38.574  1.00  0.00    -0.200 F 
ENDBRANCH  46  70
BRANCH  58  81
ATOM     81  C   UNL A   1      44.611  27.693  34.647  1.00  0.00     0.064 A 
ATOM     82  C   UNL A   1      44.442  26.547  35.437  1.00  0.00     0.173 A 
ATOM     83  C   UNL A   1      45.818  28.398  34.752  1.00  0.00     0.173 A 
ATOM     84  F   UNL A   1      43.296  25.850  35.381  1.00  0.00    -0.203 F 
ATOM     85  C   UNL A   1      45.439  26.133  36.315  1.00  0.00     0.198 A 
ATOM     86  C   UNL A   1      46.820  27.970  35.618  1.00  0.00     0.198 A 
ATOM     87  F   UNL A   1      46.024  29.499  34.014  1.00  0.00    -0.203 F 
ATOM     88  F   UNL A   1      45.244  25.055  37.088  1.00  0.00    -0.200 F 
ATOM     89  C   UNL A   1      46.629  26.841  36.402  1.00  0.00     0.200 A 
ATOM     90  F   UNL A   1      47.971  28.653  35.698  1.00  0.00    -0.200 F 
ATOM     91  F   UNL A   1      47.587  26.443  37.248  1.00  0.00    -0.200 F 
ENDBRANCH  58  81
ENDBRANCH  32  33
ENDBRANCH  25  27
ENDBRANCH  24  25
ENDBRANCH  23  24
ENDBRANCH   1  23
TORSDOF 14
ENDMDL
MODEL 2
REMARK VINA RESULT:     -11.6      1.018      2.069
REMARK SMILES C[NH2+][C@@]1(C(=O)OCCOC(=O)c2ccc(-c3c4nc(c(-c5c(F)c(F)c(F)c(F)c5F)c5ccc([nH]5)c(-c5c(F)c(F)c(F)c(F)c5F)c5nc(c(-c6c(F)c(F)c(F)c(F)c6F)c6ccc3[nH]6)C=C5)C=C4)cc2)CC[C@H](Sc2ccc(C)c(C)c2)C1
REMARK SMILES IDX 7 1 6 2 4 3 5 4 3 5 75 6 87 7 76 8 77 9 2 10 1 11 78 14
REMARK SMILES IDX 79 15 80 16 86 17 81 18 84 19 82 20 85 21 83 22 8 23 9 24
REMARK SMILES IDX 10 25 11 26 12 27 13 28 74 29 14 30 73 31 15 32 16 33 17 34
REMARK SMILES IDX 67 35 18 36 72 37 66 38 68 39 19 40 71 41 65 42 64 43 20 45
REMARK SMILES IDX 52 46 32 47 51 48 33 49 36 50 50 51 69 52 34 53 35 54 49 56
REMARK SMILES IDX 70 57 37 58 21 59 22 60 30 61 23 62 24 63 28 64 31 65 25 66
REMARK SMILES IDX 26 67 29 68 27 69 53 70 54 71 62 72 55 73 56 74 60 75 63 76
REMARK SMILES IDX 57 77 58 78 61 79 59 80 38 81 39 82 47 83 40 84 41 85 45 86
REMARK SMILES IDX 48 87 42 88 43 89 46 90 44 91
REMARK H PARENT 2 12 2 13 68 44 36 55
REMARK Flexibility Score: inf
ROOT
ATOM      1  C   UNL A   1      31.413  28.625  26.348  1.00  0.00     0.274 C 
ENDROOT
BRANCH   1   2
ATOM      2  O   UNL A   1      32.102  27.786  25.399  1.00  0.00    -0.457 OA
BRANCH   2   3
ATOM      3  C   UNL A   1      31.443  27.471  24.256  1.00  0.00     0.368 C 
ATOM      4  O   UNL A   1      30.224  27.534  24.114  1.00  0.00    -0.245 OA
BRANCH   3   5
ATOM      5  C   UNL A   1      32.384  26.913  23.144  1.00  0.00     0.195 C 
ATOM      6  C   UNL A   1      31.560  25.892  22.348  1.00  0.00     0.082 C 
ATOM      7  C   UNL A   1      33.574  26.072  23.636  1.00  0.00     0.096 C 
ATOM      8  C   UNL A   1      31.633  24.637  23.211  1.00  0.00     0.022 C 
ATOM      9  C   UNL A   1      33.075  24.615  23.732  1.00  0.00     0.059 C 
BRANCH   5  10
ATOM     10  N   UNL A   1      32.761  28.032  22.239  1.00  0.00    -0.335 N 
ATOM     11  C   UNL A   1      34.020  28.677  22.583  1.00  0.00     0.331 C 
ATOM     12  H   UNL A   1      32.839  27.664  21.290  1.00  0.00     0.347 HD
ATOM     13  H   UNL A   1      32.034  28.740  22.329  1.00  0.00     0.347 HD
ENDBRANCH   5  10
BRANCH   9  14
ATOM     14  S   UNL A   1      33.299  24.015  25.446  1.00  0.00    -0.122 SA
BRANCH  14  15
ATOM     15  C   UNL A   1      34.879  23.196  25.444  1.00  0.00     0.008 A 
ATOM     16  C   UNL A   1      35.097  21.881  25.045  1.00  0.00     0.015 A 
ATOM     17  C   UNL A   1      35.978  23.960  25.859  1.00  0.00     0.018 A 
ATOM     18  C   UNL A   1      36.375  21.322  25.123  1.00  0.00     0.005 A 
ATOM     19  C   UNL A   1      37.275  23.422  25.919  1.00  0.00    -0.047 A 
ATOM     20  C   UNL A   1      37.474  22.079  25.556  1.00  0.00    -0.048 A 
ATOM     21  C   UNL A   1      38.407  24.310  26.357  1.00  0.00     0.044 C 
ATOM     22  C   UNL A   1      38.809  21.396  25.657  1.00  0.00     0.044 C 
ENDBRANCH  14  15
ENDBRANCH   9  14
ENDBRANCH   3   5
ENDBRANCH   2   3
ENDBRANCH   1   2
BRANCH   1  23
ATOM     23  C   UNL A   1      31.684  30.093  26.043  1.00  0.00     0.275 C 
BRANCH  23  24
ATOM     24  O   UNL A   1      33.094  30.329  26.184  1.00  0.00    -0.458 OA
BRANCH  24  25
ATOM     25  C   UNL A   1      33.453  31.291  27.062  1.00  0.00     0.338 C 
ATOM     26  O   UNL A   1      32.814  32.279  27.376  1.00  0.00    -0.246 OA
BRANCH  25  27
ATOM     27  C   UNL A   1      34.777  30.964  27.634  1.00  0.00     0.060 A 
ATOM     28  C   UNL A   1      35.116  29.647  27.947  1.00  0.00     0.016 A 
ATOM     29  C   UNL A   1      35.655  31.998  27.959  1.00  0.00     0.016 A 
ATOM     30  C   UNL A   1      36.278  29.371  28.666  1.00  0.00     0.010 A 
ATOM     31  C   UNL A   1      36.869  31.708  28.589  1.00  0.00     0.010 A 
ATOM     32  C   UNL A   1      37.180  30.395  28.984  1.00  0.00    -0.014 A 
BRANCH  32  33
ATOM     33  C   UNL A   1      38.415  30.108  29.770  1.00  0.00     0.031 A 
ATOM     34  C   UNL A   1      39.512  29.270  29.170  1.00  0.00     0.074 A 
ATOM     35  C   UNL A   1      38.575  30.601  31.015  1.00  0.00     0.049 A 
ATOM     36  N   UNL A   1      40.536  28.699  29.756  1.00  0.00    -0.248 NA
ATOM     37  C   UNL A   1      39.440  29.023  27.721  1.00  0.00     0.031 C 
ATOM     38  C   UNL A   1      37.633  31.476  31.712  1.00  0.00     0.029 A 
ATOM     39  N   UNL A   1      39.603  30.442  31.913  1.00  0.00    -0.354 N 
ATOM     40  C   UNL A   1      41.174  27.961  28.769  1.00  0.00     0.074 A 
ATOM     41  C   UNL A   1      40.442  28.174  27.539  1.00  0.00     0.031 C 
ATOM     42  C   UNL A   1      38.149  31.823  32.900  1.00  0.00     0.029 A 
ATOM     43  C   UNL A   1      39.409  31.114  33.095  1.00  0.00     0.049 A 
ATOM     44  H   UNL A   1      40.402  29.899  31.726  1.00  0.00     0.167 HD
ATOM     45  C   UNL A   1      42.265  27.167  28.886  1.00  0.00     0.037 A 
ATOM     46  C   UNL A   1      40.135  31.124  34.228  1.00  0.00     0.037 A 
ATOM     47  C   UNL A   1      43.042  27.023  30.090  1.00  0.00     0.049 A 
ATOM     48  C   UNL A   1      41.355  30.253  34.330  1.00  0.00     0.074 A 
ATOM     49  C   UNL A   1      44.163  26.240  30.309  1.00  0.00     0.029 A 
ATOM     50  N   UNL A   1      42.798  27.709  31.270  1.00  0.00    -0.354 N 
ATOM     51  N   UNL A   1      41.879  29.458  33.430  1.00  0.00    -0.248 NA
ATOM     52  C   UNL A   1      42.060  30.252  35.619  1.00  0.00     0.031 C 
ATOM     53  C   UNL A   1      44.588  26.441  31.627  1.00  0.00     0.029 A 
ATOM     54  C   UNL A   1      43.749  27.371  32.218  1.00  0.00     0.049 A 
ATOM     55  H   UNL A   1      42.057  28.341  31.412  1.00  0.00     0.167 HD
ATOM     56  C   UNL A   1      42.964  28.853  34.044  1.00  0.00     0.074 A 
ATOM     57  C   UNL A   1      43.046  29.397  35.385  1.00  0.00     0.031 C 
ATOM     58  C   UNL A   1      43.808  27.916  33.548  1.00  0.00     0.037 A 
BRANCH  45  59
ATOM     59  C   UNL A   1      42.665  26.353  27.693  1.00  0.00     0.064 A 
ATOM     60  C   UNL A   1      43.649  26.783  26.793  1.00  0.00     0.173 A 
ATOM     61  C   UNL A   1      42.078  25.096  27.475  1.00  0.00     0.173 A 
ATOM     62  F   UNL A   1      44.226  27.983  26.949  1.00  0.00    -0.203 F 
ATOM     63  C   UNL A   1      44.023  25.989  25.711  1.00  0.00     0.198 A 
ATOM     64  C   UNL A   1      42.470  24.296  26.407  1.00  0.00     0.198 A 
ATOM     65  F   UNL A   1      41.132  24.638  28.310  1.00  0.00    -0.203 F 
ATOM     66  F   UNL A   1      44.944  26.433  24.844  1.00  0.00    -0.200 F 
ATOM     67  C   UNL A   1      43.440  24.744  25.523  1.00  0.00     0.200 A 
ATOM     68  F   UNL A   1      41.913  23.089  26.232  1.00  0.00    -0.200 F 
ATOM     69  F   UNL A   1      43.808  23.979  24.486  1.00  0.00    -0.200 F 
ENDBRANCH  45  59
BRANCH  46  70
ATOM     70  C   UNL A   1      39.693  31.956  35.376  1.00  0.00     0.064 A 
ATOM     71  C   UNL A   1      40.216  33.240  35.576  1.00  0.00     0.173 A 
ATOM     72  C   UNL A   1      38.723  31.495  36.279  1.00  0.00     0.173 A 
ATOM     73  F   UNL A   1      41.167  33.711  34.755  1.00  0.00    -0.203 F 
ATOM     74  C   UNL A   1      39.781  34.034  36.634  1.00  0.00     0.198 A 
ATOM     75  C   UNL A   1      38.270  32.302  37.319  1.00  0.00     0.198 A 
ATOM     76  F   UNL A   1      38.195  30.271  36.131  1.00  0.00    -0.203 F 
ATOM     77  F   UNL A   1      40.316  35.250  36.820  1.00  0.00    -0.200 F 
ATOM     78  C   UNL A   1      38.801  33.569  37.498  1.00  0.00     0.200 A 
ATOM     79  F   UNL A   1      37.313  31.853  38.144  1.00  0.00    -0.200 F 
ATOM     80  F   UNL A   1      38.373  34.341  38.506  1.00  0.00    -0.200 F 
ENDBRANCH  46  70
BRANCH  58  81
ATOM     81  C   UNL A   1      44.889  27.424  34.461  1.00  0.00     0.064 A 
ATOM     82  C   UNL A   1      44.695  26.297  35.271  1.00  0.00     0.173 A 
ATOM     83  C   UNL A   1      46.133  28.068  34.508  1.00  0.00     0.173 A 
ATOM     84  F   UNL A   1      43.515  25.658  35.270  1.00  0.00    -0.203 F 
ATOM     85  C   UNL A   1      45.705  25.843  36.114  1.00  0.00     0.198 A 
ATOM     86  C   UNL A   1      47.147  27.601  35.338  1.00  0.00     0.198 A 
ATOM     87  F   UNL A   1      46.363  29.149  33.747  1.00  0.00    -0.203 F 
ATOM     88  F   UNL A   1      45.489  24.785  36.909  1.00  0.00    -0.200 F 
ATOM     89  C   UNL A   1      46.931  26.491  36.144  1.00  0.00     0.200 A 
ATOM     90  F   UNL A   1      48.333  28.226  35.363  1.00  0.00    -0.200 F 
ATOM     91  F   UNL A   1      47.902  26.055  36.956  1.00  0.00    -0.200 F 
ENDBRANCH  58  81
ENDBRANCH  32  33
ENDBRANCH  25  27
ENDBRANCH  24  25
ENDBRANCH  23  24
ENDBRANCH   1  23
TORSDOF 14
ENDMDL
MODEL 3
REMARK VINA RESULT:     -11.4      4.336      9.864
REMARK SMILES C[NH2+][C@@]1(C(=O)OCCOC(=O)c2ccc(-c3c4nc(c(-c5c(F)c(F)c(F)c(F)c5F)c5ccc([nH]5)c(-c5c(F)c(F)c(F)c(F)c5F)c5nc(c(-c6c(F)c(F)c(F)c(F)c6F)c6ccc3[nH]6)C=C5)C=C4)cc2)CC[C@H](Sc2ccc(C)c(C)c2)C1
REMARK SMILES IDX 7 1 6 2 4 3 5 4 3 5 75 6 87 7 76 8 77 9 2 10 1 11 78 14
REMARK SMILES IDX 79 15 80 16 86 17 81 18 84 19 82 20 85 21 83 22 8 23 9 24
REMARK SMILES IDX 10 25 11 26 12 27 13 28 74 29 14 30 73 31 15 32 16 33 17 34
REMARK SMILES IDX 67 35 18 36 72 37 66 38 68 39 19 40 71 41 65 42 64 43 20 45
REMARK SMILES IDX 52 46 32 47 51 48 33 49 36 50 50 51 69 52 34 53 35 54 49 56
REMARK SMILES IDX 70 57 37 58 21 59 22 60 30 61 23 62 24 63 28 64 31 65 25 66
REMARK SMILES IDX 26 67 29 68 27 69 53 70 54 71 62 72 55 73 56 74 60 75 63 76
REMARK SMILES IDX 57 77 58 78 61 79 59 80 38 81 39 82 47 83 40 84 41 85 45 86
REMARK SMILES IDX 48 87 42 88 43 89 46 90 44 91
REMARK H PARENT 2 12 2 13 68 44 36 55
REMARK Flexibility Score: inf
ROOT
ATOM      1  C   UNL A   1      36.456  22.663  23.759  1.00  0.00     0.274 C 
ENDROOT
BRANCH   1   2
ATOM      2  O   UNL A   1      35.037  22.644  23.506  1.00  0.00    -0.457 OA
BRANCH   2   3
ATOM      3  C   UNL A   1      34.216  22.857  24.565  1.00  0.00     0.368 C 
ATOM      4  O   UNL A   1      34.445  23.647  25.478  1.00  0.00    -0.245 OA
BRANCH   3   5
ATOM      5  C   UNL A   1      32.973  21.914  24.572  1.00  0.00     0.195 C 
ATOM      6  C   UNL A   1      32.206  22.194  23.274  1.00  0.00     0.082 C 
ATOM      7  C   UNL A   1      31.919  22.206  25.654  1.00  0.00     0.096 C 
ATOM      8  C   UNL A   1      31.408  23.451  23.606  1.00  0.00     0.022 C 
ATOM      9  C   UNL A   1      30.943  23.238  25.051  1.00  0.00     0.059 C 
BRANCH   5  10
ATOM     10  N   UNL A   1      33.449  20.504  24.550  1.00  0.00    -0.335 N 
ATOM     11  C   UNL A   1      32.534  19.577  23.899  1.00  0.00     0.331 C 
ATOM     12  H   UNL A   1      34.340  20.475  24.056  1.00  0.00     0.347 HD
ATOM     13  H   UNL A   1      33.527  20.205  25.522  1.00  0.00     0.347 HD
ENDBRANCH   5  10
BRANCH   9  14
ATOM     14  S   UNL A   1      30.914  24.728  26.112  1.00  0.00    -0.122 SA
BRANCH  14  15
ATOM     15  C   UNL A   1      30.577  26.078  25.000  1.00  0.00     0.008 A 
ATOM     16  C   UNL A   1      29.345  26.337  24.408  1.00  0.00     0.015 A 
ATOM     17  C   UNL A   1      31.644  26.945  24.731  1.00  0.00     0.018 A 
ATOM     18  C   UNL A   1      29.200  27.402  23.516  1.00  0.00     0.005 A 
ATOM     19  C   UNL A   1      31.510  28.037  23.857  1.00  0.00    -0.047 A 
ATOM     20  C   UNL A   1      30.272  28.261  23.231  1.00  0.00    -0.048 A 
ATOM     21  C   UNL A   1      32.696  28.935  23.633  1.00  0.00     0.044 C 
ATOM     22  C   UNL A   1      30.053  29.357  22.225  1.00  0.00     0.044 C 
ENDBRANCH  14  15
ENDBRANCH   9  14
ENDBRANCH   3   5
ENDBRANCH   2   3
ENDBRANCH   1   2
BRANCH   1  23
ATOM     23  C   UNL A   1      36.899  21.339  24.370  1.00  0.00     0.275 C 
BRANCH  23  24
ATOM     24  O   UNL A   1      37.345  21.590  25.712  1.00  0.00    -0.458 OA
BRANCH  24  25
ATOM     25  C   UNL A   1      38.649  21.342  25.963  1.00  0.00     0.338 C 
ATOM     26  O   UNL A   1      39.251  20.300  25.779  1.00  0.00    -0.246 OA
BRANCH  25  27
ATOM     27  C   UNL A   1      39.286  22.565  26.500  1.00  0.00     0.060 A 
ATOM     28  C   UNL A   1      38.808  23.830  26.158  1.00  0.00     0.016 A 
ATOM     29  C   UNL A   1      40.441  22.449  27.273  1.00  0.00     0.016 A 
ATOM     30  C   UNL A   1      39.529  24.972  26.503  1.00  0.00     0.010 A 
ATOM     31  C   UNL A   1      41.107  23.601  27.705  1.00  0.00     0.010 A 
ATOM     32  C   UNL A   1      40.680  24.877  27.295  1.00  0.00    -0.014 A 
BRANCH  32  33
ATOM     33  C   UNL A   1      41.467  26.093  27.650  1.00  0.00     0.031 A 
ATOM     34  C   UNL A   1      40.875  27.134  28.561  1.00  0.00     0.074 A 
ATOM     35  C   UNL A   1      42.716  26.274  27.176  1.00  0.00     0.049 A 
ATOM     36  N   UNL A   1      41.274  28.360  28.792  1.00  0.00    -0.248 NA
ATOM     37  C   UNL A   1      39.659  26.754  29.299  1.00  0.00     0.031 C 
ATOM     38  C   UNL A   1      43.452  25.332  26.332  1.00  0.00     0.029 A 
ATOM     39  N   UNL A   1      43.595  27.316  27.350  1.00  0.00    -0.354 N 
ATOM     40  C   UNL A   1      40.317  28.920  29.627  1.00  0.00     0.074 A 
ATOM     41  C   UNL A   1      39.328  27.895  29.887  1.00  0.00     0.031 C 
ATOM     42  C   UNL A   1      44.685  25.810  26.110  1.00  0.00     0.029 A 
ATOM     43  C   UNL A   1      44.796  27.136  26.707  1.00  0.00     0.049 A 
ATOM     44  H   UNL A   1      43.385  28.114  27.886  1.00  0.00     0.167 HD
ATOM     45  C   UNL A   1      40.263  30.181  30.118  1.00  0.00     0.037 A 
ATOM     46  C   UNL A   1      45.850  27.962  26.569  1.00  0.00     0.037 A 
ATOM     47  C   UNL A   1      41.290  31.173  29.929  1.00  0.00     0.049 A 
ATOM     48  C   UNL A   1      45.780  29.348  27.142  1.00  0.00     0.074 A 
ATOM     49  C   UNL A   1      41.327  32.479  30.386  1.00  0.00     0.029 A 
ATOM     50  N   UNL A   1      42.481  30.952  29.254  1.00  0.00    -0.354 N 
ATOM     51  N   UNL A   1      44.814  29.913  27.823  1.00  0.00    -0.248 NA
ATOM     52  C   UNL A   1      46.933  30.225  26.892  1.00  0.00     0.031 C 
ATOM     53  C   UNL A   1      42.534  33.055  29.974  1.00  0.00     0.029 A 
ATOM     54  C   UNL A   1      43.261  32.096  29.287  1.00  0.00     0.049 A 
ATOM     55  H   UNL A   1      42.734  30.108  28.816  1.00  0.00     0.167 HD
ATOM     56  C   UNL A   1      45.232  31.210  28.072  1.00  0.00     0.074 A 
ATOM     57  C   UNL A   1      46.556  31.343  27.498  1.00  0.00     0.031 C 
ATOM     58  C   UNL A   1      44.571  32.211  28.703  1.00  0.00     0.037 A 
BRANCH  45  59
ATOM     59  C   UNL A   1      39.034  30.581  30.877  1.00  0.00     0.064 A 
ATOM     60  C   UNL A   1      38.960  30.496  32.274  1.00  0.00     0.173 A 
ATOM     61  C   UNL A   1      37.927  31.102  30.189  1.00  0.00     0.173 A 
ATOM     62  F   UNL A   1      39.985  29.989  32.974  1.00  0.00    -0.203 F 
ATOM     63  C   UNL A   1      37.814  30.907  32.954  1.00  0.00     0.198 A 
ATOM     64  C   UNL A   1      36.794  31.533  30.873  1.00  0.00     0.198 A 
ATOM     65  F   UNL A   1      37.950  31.206  28.851  1.00  0.00    -0.203 F 
ATOM     66  F   UNL A   1      37.751  30.787  34.287  1.00  0.00    -0.200 F 
ATOM     67  C   UNL A   1      36.737  31.432  32.255  1.00  0.00     0.200 A 
ATOM     68  F   UNL A   1      35.758  32.048  30.196  1.00  0.00    -0.200 F 
ATOM     69  F   UNL A   1      35.641  31.834  32.912  1.00  0.00    -0.200 F 
ENDBRANCH  45  59
BRANCH  46  70
ATOM     70  C   UNL A   1      47.044  27.507  25.812  1.00  0.00     0.064 A 
ATOM     71  C   UNL A   1      47.121  27.680  24.424  1.00  0.00     0.173 A 
ATOM     72  C   UNL A   1      48.138  26.916  26.461  1.00  0.00     0.173 A 
ATOM     73  F   UNL A   1      46.088  28.213  23.756  1.00  0.00    -0.203 F 
ATOM     74  C   UNL A   1      48.252  27.282  23.714  1.00  0.00     0.198 A 
ATOM     75  C   UNL A   1      49.277  26.545  25.754  1.00  0.00     0.198 A 
ATOM     76  F   UNL A   1      48.108  26.726  27.788  1.00  0.00    -0.203 F 
ATOM     77  F   UNL A   1      48.292  27.433  22.382  1.00  0.00    -0.200 F 
ATOM     78  C   UNL A   1      49.333  26.725  24.380  1.00  0.00     0.200 A 
ATOM     79  F   UNL A   1      50.325  26.018  26.404  1.00  0.00    -0.200 F 
ATOM     80  F   UNL A   1      50.426  26.357  23.699  1.00  0.00    -0.200 F 
ENDBRANCH  46  70
BRANCH  58  81
ATOM     81  C   UNL A   1      45.272  33.530  28.805  1.00  0.00     0.064 A 
ATOM     82  C   UNL A   1      45.088  34.525  27.835  1.00  0.00     0.173 A 
ATOM     83  C   UNL A   1      46.113  33.810  29.890  1.00  0.00     0.173 A 
ATOM     84  F   UNL A   1      44.304  34.295  26.770  1.00  0.00    -0.203 F 
ATOM     85  C   UNL A   1      45.740  35.750  27.938  1.00  0.00     0.198 A 
ATOM     86  C   UNL A   1      46.749  35.043  30.000  1.00  0.00     0.198 A 
ATOM     87  F   UNL A   1      46.316  32.888  30.843  1.00  0.00    -0.203 F 
ATOM     88  F   UNL A   1      45.580  36.676  26.981  1.00  0.00    -0.200 F 
ATOM     89  C   UNL A   1      46.565  36.011  29.022  1.00  0.00     0.200 A 
ATOM     90  F   UNL A   1      47.543  35.295  31.050  1.00  0.00    -0.200 F 
ATOM     91  F   UNL A   1      47.194  37.189  29.119  1.00  0.00    -0.200 F 
ENDBRANCH  58  81
ENDBRANCH  32  33
ENDBRANCH  25  27
ENDBRANCH  24  25
ENDBRANCH  23  24
ENDBRANCH   1  23
TORSDOF 14
ENDMDL
