MODEL 1
REMARK VINA RESULT:     -11.5      0.000      0.000
REMARK SMILES CCCC1CN(c2ccc(C(=O)NCC(=O)OCCOC(=O)c3ccc(-c4c5nc(c(-c6c(F)c(F)c(F)c(F)c6F)c6ccc([nH]6)c(-c6c(F)c(F)c(F)c(F)c6F)c6nc(c(-c7c(F)c(F)c(F)c(F)c7F)c7ccc4[nH]7)C=C6)C=C5)cc3)cc2)C1
REMARK SMILES IDX 17 1 15 2 16 3 14 4 13 5 11 6 12 7 10 9 7 10 8 11 87 12 9 13
REMARK SMILES IDX 86 14 6 15 4 16 5 17 88 18 3 19 2 20 1 21 18 22 19 23 20 24
REMARK SMILES IDX 21 25 22 26 23 27 24 28 85 29 25 30 84 31 26 32 27 33 28 34
REMARK SMILES IDX 78 35 29 36 83 37 77 38 79 39 30 40 82 41 76 42 75 43 31 45
REMARK SMILES IDX 63 46 43 47 62 48 44 49 47 50 61 51 80 52 45 53 46 54 60 56
REMARK SMILES IDX 81 57 48 58 32 59 33 60 41 61 34 62 35 63 39 64 42 65 36 66
REMARK SMILES IDX 37 67 40 68 38 69 64 70 65 71 73 72 66 73 67 74 71 75 74 76
REMARK SMILES IDX 68 77 69 78 72 79 70 80 49 81 50 82 58 83 51 84 52 85 56 86
REMARK SMILES IDX 59 87 53 88 54 89 57 90 55 91
REMARK H PARENT 13 8 79 44 47 55
REMARK Flexibility Score: inf
ROOT
ATOM      1  O   UNL A   1      32.565  28.984  24.791  1.00  0.00    -0.461 OA
ENDROOT
BRANCH   1   2
ATOM      2  C   UNL A   1      32.825  28.655  23.497  1.00  0.00     0.325 C 
ATOM      3  O   UNL A   1      33.644  29.223  22.783  1.00  0.00    -0.250 OA
BRANCH   2   4
ATOM      4  C   UNL A   1      32.089  27.384  23.065  1.00  0.00     0.239 C 
BRANCH   4   5
ATOM      5  N   UNL A   1      32.445  26.918  21.740  1.00  0.00    -0.341 N 
ATOM      6  C   UNL A   1      32.844  25.686  21.304  1.00  0.00     0.251 C 
ATOM      7  O   UNL A   1      33.033  25.521  20.099  1.00  0.00    -0.269 OA
ATOM      8  H   UNL A   1      32.390  27.604  21.036  1.00  0.00     0.164 HD
BRANCH   6   9
ATOM      9  C   UNL A   1      33.012  24.537  22.230  1.00  0.00     0.039 A 
ATOM     10  C   UNL A   1      33.190  22.280  23.907  1.00  0.00     0.037 A 
ATOM     11  C   UNL A   1      31.995  22.584  23.248  1.00  0.00     0.027 A 
ATOM     12  C   UNL A   1      34.300  23.104  23.708  1.00  0.00     0.027 A 
ATOM     13  C   UNL A   1      31.901  23.708  22.426  1.00  0.00     0.016 A 
ATOM     14  C   UNL A   1      34.222  24.204  22.848  1.00  0.00     0.016 A 
BRANCH  10  15
ATOM     15  N   UNL A   1      33.253  21.115  24.693  1.00  0.00    -0.371 N 
ATOM     16  C   UNL A   1      33.343  19.046  24.474  1.00  0.00     0.028 C 
ATOM     17  C   UNL A   1      32.238  20.097  24.636  1.00  0.00     0.122 C 
ATOM     18  C   UNL A   1      34.331  20.173  24.794  1.00  0.00     0.122 C 
BRANCH  16  19
ATOM     19  C   UNL A   1      33.312  17.867  25.436  1.00  0.00     0.007 C 
BRANCH  19  20
ATOM     20  C   UNL A   1      33.308  16.529  24.693  1.00  0.00    -0.003 C 
ATOM     21  C   UNL A   1      34.034  16.574  23.357  1.00  0.00     0.004 C 
ENDBRANCH  19  20
ENDBRANCH  16  19
ENDBRANCH  10  15
ENDBRANCH   6   9
ENDBRANCH   4   5
ENDBRANCH   2   4
ENDBRANCH   1   2
BRANCH   1  22
ATOM     22  C   UNL A   1      31.371  29.746  25.044  1.00  0.00     0.274 C 
BRANCH  22  23
ATOM     23  C   UNL A   1      31.626  30.805  26.122  1.00  0.00     0.275 C 
BRANCH  23  24
ATOM     24  O   UNL A   1      32.867  30.571  26.819  1.00  0.00    -0.458 OA
BRANCH  24  25
ATOM     25  C   UNL A   1      33.483  31.678  27.288  1.00  0.00     0.338 C 
ATOM     26  O   UNL A   1      33.028  32.811  27.362  1.00  0.00    -0.246 OA
BRANCH  25  27
ATOM     27  C   UNL A   1      34.784  31.320  27.866  1.00  0.00     0.060 A 
ATOM     28  C   UNL A   1      34.964  30.014  28.324  1.00  0.00     0.016 A 
ATOM     29  C   UNL A   1      35.770  32.285  28.071  1.00  0.00     0.016 A 
ATOM     30  C   UNL A   1      36.107  29.671  29.030  1.00  0.00     0.010 A 
ATOM     31  C   UNL A   1      36.940  31.929  28.749  1.00  0.00     0.010 A 
ATOM     32  C   UNL A   1      37.106  30.626  29.250  1.00  0.00    -0.014 A 
BRANCH  32  33
ATOM     33  C   UNL A   1      38.298  30.246  30.042  1.00  0.00     0.031 A 
ATOM     34  C   UNL A   1      39.350  29.364  29.438  1.00  0.00     0.074 A 
ATOM     35  C   UNL A   1      38.455  30.742  31.284  1.00  0.00     0.049 A 
ATOM     36  N   UNL A   1      40.414  28.847  29.996  1.00  0.00    -0.248 NA
ATOM     37  C   UNL A   1      39.183  29.017  28.019  1.00  0.00     0.031 C 
ATOM     38  C   UNL A   1      37.528  31.659  31.950  1.00  0.00     0.029 A 
ATOM     39  N   UNL A   1      39.457  30.555  32.201  1.00  0.00    -0.354 N 
ATOM     40  C   UNL A   1      41.023  28.085  29.009  1.00  0.00     0.074 A 
ATOM     41  C   UNL A   1      40.211  28.204  27.816  1.00  0.00     0.031 C 
ATOM     42  C   UNL A   1      38.015  31.970  33.160  1.00  0.00     0.029 A 
ATOM     43  C   UNL A   1      39.253  31.229  33.379  1.00  0.00     0.049 A 
ATOM     44  H   UNL A   1      40.246  29.992  32.030  1.00  0.00     0.167 HD
ATOM     45  C   UNL A   1      42.157  27.349  29.096  1.00  0.00     0.037 A 
ATOM     46  C   UNL A   1      39.968  31.222  34.518  1.00  0.00     0.037 A 
ATOM     47  C   UNL A   1      42.978  27.264  30.275  1.00  0.00     0.049 A 
ATOM     48  C   UNL A   1      41.203  30.370  34.600  1.00  0.00     0.074 A 
ATOM     49  C   UNL A   1      44.146  26.547  30.465  1.00  0.00     0.029 A 
ATOM     50  N   UNL A   1      42.719  27.932  31.463  1.00  0.00    -0.354 N 
ATOM     51  N   UNL A   1      41.745  29.612  33.678  1.00  0.00    -0.248 NA
ATOM     52  C   UNL A   1      41.917  30.360  35.884  1.00  0.00     0.031 C 
ATOM     53  C   UNL A   1      44.580  26.760  31.779  1.00  0.00     0.029 A 
ATOM     54  C   UNL A   1      43.700  27.635  32.396  1.00  0.00     0.049 A 
ATOM     55  H   UNL A   1      41.952  28.529  31.621  1.00  0.00     0.167 HD
ATOM     56  C   UNL A   1      42.863  29.039  34.265  1.00  0.00     0.074 A 
ATOM     57  C   UNL A   1      42.935  29.556  35.617  1.00  0.00     0.031 C 
ATOM     58  C   UNL A   1      43.747  28.160  33.735  1.00  0.00     0.037 A 
BRANCH  45  59
ATOM     59  C   UNL A   1      42.554  26.546  27.895  1.00  0.00     0.064 A 
ATOM     60  C   UNL A   1      42.046  25.261  27.662  1.00  0.00     0.173 A 
ATOM     61  C   UNL A   1      43.438  27.087  26.948  1.00  0.00     0.173 A 
ATOM     62  F   UNL A   1      41.212  24.695  28.547  1.00  0.00    -0.203 F 
ATOM     63  C   UNL A   1      42.422  24.537  26.534  1.00  0.00     0.198 A 
ATOM     64  C   UNL A   1      43.795  26.369  25.810  1.00  0.00     0.198 A 
ATOM     65  F   UNL A   1      43.952  28.313  27.125  1.00  0.00    -0.203 F 
ATOM     66  F   UNL A   1      41.954  23.295  26.348  1.00  0.00    -0.200 F 
ATOM     67  C   UNL A   1      43.290  25.094  25.605  1.00  0.00     0.200 A 
ATOM     68  F   UNL A   1      44.629  26.912  24.912  1.00  0.00    -0.200 F 
ATOM     69  F   UNL A   1      43.649  24.397  24.518  1.00  0.00    -0.200 F 
ENDBRANCH  45  59
BRANCH  46  70
ATOM     70  C   UNL A   1      39.510  32.025  35.679  1.00  0.00     0.064 A 
ATOM     71  C   UNL A   1      40.008  33.314  35.907  1.00  0.00     0.173 A 
ATOM     72  C   UNL A   1      38.555  31.523  36.576  1.00  0.00     0.173 A 
ATOM     73  F   UNL A   1      40.940  33.825  35.090  1.00  0.00    -0.203 F 
ATOM     74  C   UNL A   1      39.571  34.071  36.992  1.00  0.00     0.198 A 
ATOM     75  C   UNL A   1      38.100  32.291  37.646  1.00  0.00     0.198 A 
ATOM     76  F   UNL A   1      38.049  30.294  36.400  1.00  0.00    -0.203 F 
ATOM     77  F   UNL A   1      40.086  35.289  37.207  1.00  0.00    -0.200 F 
ATOM     78  C   UNL A   1      38.611  33.563  37.856  1.00  0.00     0.200 A 
ATOM     79  F   UNL A   1      37.164  31.800  38.469  1.00  0.00    -0.200 F 
ATOM     80  F   UNL A   1      38.184  34.295  38.893  1.00  0.00    -0.200 F 
ENDBRANCH  46  70
BRANCH  58  81
ATOM     81  C   UNL A   1      44.872  27.714  34.619  1.00  0.00     0.064 A 
ATOM     82  C   UNL A   1      46.072  28.436  34.690  1.00  0.00     0.173 A 
ATOM     83  C   UNL A   1      44.736  26.575  35.425  1.00  0.00     0.173 A 
ATOM     84  F   UNL A   1      46.253  29.522  33.924  1.00  0.00    -0.203 F 
ATOM     85  C   UNL A   1      47.105  28.020  35.525  1.00  0.00     0.198 A 
ATOM     86  C   UNL A   1      45.763  26.175  36.273  1.00  0.00     0.198 A 
ATOM     87  F   UNL A   1      43.604  25.856  35.392  1.00  0.00    -0.203 F 
ATOM     88  F   UNL A   1      48.260  28.701  35.549  1.00  0.00    -0.200 F 
ATOM     89  C   UNL A   1      46.948  26.894  36.319  1.00  0.00     0.200 A 
ATOM     90  F   UNL A   1      45.608  25.090  37.046  1.00  0.00    -0.200 F 
ATOM     91  F   UNL A   1      47.944  26.496  37.124  1.00  0.00    -0.200 F 
ENDBRANCH  58  81
ENDBRANCH  32  33
ENDBRANCH  25  27
ENDBRANCH  24  25
ENDBRANCH  23  24
ENDBRANCH  22  23
ENDBRANCH   1  22
TORSDOF 16
ENDMDL
MODEL 2
REMARK VINA RESULT:     -11.3      5.226      9.576
REMARK SMILES CCCC1CN(c2ccc(C(=O)NCC(=O)OCCOC(=O)c3ccc(-c4c5nc(c(-c6c(F)c(F)c(F)c(F)c6F)c6ccc([nH]6)c(-c6c(F)c(F)c(F)c(F)c6F)c6nc(c(-c7c(F)c(F)c(F)c(F)c7F)c7ccc4[nH]7)C=C6)C=C5)cc3)cc2)C1
REMARK SMILES IDX 17 1 15 2 16 3 14 4 13 5 11 6 12 7 10 9 7 10 8 11 87 12 9 13
REMARK SMILES IDX 86 14 6 15 4 16 5 17 88 18 3 19 2 20 1 21 18 22 19 23 20 24
REMARK SMILES IDX 21 25 22 26 23 27 24 28 85 29 25 30 84 31 26 32 27 33 28 34
REMARK SMILES IDX 78 35 29 36 83 37 77 38 79 39 30 40 82 41 76 42 75 43 31 45
REMARK SMILES IDX 63 46 43 47 62 48 44 49 47 50 61 51 80 52 45 53 46 54 60 56
REMARK SMILES IDX 81 57 48 58 32 59 33 60 41 61 34 62 35 63 39 64 42 65 36 66
REMARK SMILES IDX 37 67 40 68 38 69 64 70 65 71 73 72 66 73 67 74 71 75 74 76
REMARK SMILES IDX 68 77 69 78 72 79 70 80 49 81 50 82 58 83 51 84 52 85 56 86
REMARK SMILES IDX 59 87 53 88 54 89 57 90 55 91
REMARK H PARENT 13 8 79 44 47 55
REMARK Flexibility Score: inf
ROOT
ATOM      1  O   UNL A   1      42.020  19.511  27.260  1.00  0.00    -0.461 OA
ENDROOT
BRANCH   1   2
ATOM      2  C   UNL A   1      42.683  18.967  26.203  1.00  0.00     0.325 C 
ATOM      3  O   UNL A   1      42.550  17.812  25.814  1.00  0.00    -0.250 OA
BRANCH   2   4
ATOM      4  C   UNL A   1      43.511  20.008  25.444  1.00  0.00     0.239 C 
BRANCH   4   5
ATOM      5  N   UNL A   1      44.871  19.592  25.170  1.00  0.00    -0.341 N 
ATOM      6  C   UNL A   1      46.022  20.321  25.061  1.00  0.00     0.251 C 
ATOM      7  O   UNL A   1      47.082  19.722  24.881  1.00  0.00    -0.269 OA
ATOM      8  H   UNL A   1      44.986  18.624  25.040  1.00  0.00     0.164 HD
BRANCH   6   9
ATOM      9  C   UNL A   1      46.037  21.800  25.198  1.00  0.00     0.039 A 
ATOM     10  C   UNL A   1      46.082  24.584  25.633  1.00  0.00     0.037 A 
ATOM     11  C   UNL A   1      45.747  23.706  26.669  1.00  0.00     0.027 A 
ATOM     12  C   UNL A   1      46.411  24.056  24.382  1.00  0.00     0.027 A 
ATOM     13  C   UNL A   1      45.712  22.328  26.453  1.00  0.00     0.016 A 
ATOM     14  C   UNL A   1      46.423  22.673  24.175  1.00  0.00     0.016 A 
BRANCH  10  15
ATOM     15  N   UNL A   1      46.145  25.962  25.905  1.00  0.00    -0.371 N 
ATOM     16  C   UNL A   1      44.891  27.547  26.406  1.00  0.00     0.028 C 
ATOM     17  C   UNL A   1      45.437  26.932  25.113  1.00  0.00     0.122 C 
ATOM     18  C   UNL A   1      45.874  26.632  27.145  1.00  0.00     0.122 C 
BRANCH  16  19
ATOM     19  C   UNL A   1      45.083  29.047  26.585  1.00  0.00     0.007 C 
BRANCH  19  20
ATOM     20  C   UNL A   1      43.790  29.735  27.029  1.00  0.00    -0.003 C 
ATOM     21  C   UNL A   1      42.557  29.256  26.275  1.00  0.00     0.004 C 
ENDBRANCH  19  20
ENDBRANCH  16  19
ENDBRANCH  10  15
ENDBRANCH   6   9
ENDBRANCH   4   5
ENDBRANCH   2   4
ENDBRANCH   1   2
BRANCH   1  22
ATOM     22  C   UNL A   1      41.899  20.944  27.287  1.00  0.00     0.274 C 
BRANCH  22  23
ATOM     23  C   UNL A   1      40.448  21.368  27.035  1.00  0.00     0.275 C 
BRANCH  23  24
ATOM     24  O   UNL A   1      40.372  22.613  26.311  1.00  0.00    -0.458 OA
BRANCH  24  25
ATOM     25  C   UNL A   1      39.189  23.259  26.397  1.00  0.00     0.338 C 
ATOM     26  O   UNL A   1      38.089  22.850  26.055  1.00  0.00    -0.246 OA
BRANCH  25  27
ATOM     27  C   UNL A   1      39.361  24.525  27.121  1.00  0.00     0.060 A 
ATOM     28  C   UNL A   1      40.066  25.552  26.492  1.00  0.00     0.016 A 
ATOM     29  C   UNL A   1      38.948  24.657  28.447  1.00  0.00     0.016 A 
ATOM     30  C   UNL A   1      40.405  26.700  27.192  1.00  0.00     0.010 A 
ATOM     31  C   UNL A   1      39.256  25.832  29.141  1.00  0.00     0.010 A 
ATOM     32  C   UNL A   1      40.003  26.851  28.524  1.00  0.00    -0.014 A 
BRANCH  32  33
ATOM     33  C   UNL A   1      40.413  28.067  29.262  1.00  0.00     0.031 A 
ATOM     34  C   UNL A   1      41.819  28.200  29.764  1.00  0.00     0.074 A 
ATOM     35  C   UNL A   1      39.531  29.071  29.430  1.00  0.00     0.049 A 
ATOM     36  N   UNL A   1      42.346  29.140  30.507  1.00  0.00    -0.248 NA
ATOM     37  C   UNL A   1      42.760  27.137  29.380  1.00  0.00     0.031 C 
ATOM     38  C   UNL A   1      38.156  29.078  28.930  1.00  0.00     0.029 A 
ATOM     39  N   UNL A   1      39.665  30.283  30.056  1.00  0.00    -0.354 N 
ATOM     40  C   UNL A   1      43.666  28.763  30.711  1.00  0.00     0.074 A 
ATOM     41  C   UNL A   1      43.863  27.508  30.014  1.00  0.00     0.031 C 
ATOM     42  C   UNL A   1      37.579  30.246  29.250  1.00  0.00     0.029 A 
ATOM     43  C   UNL A   1      38.522  31.042  30.030  1.00  0.00     0.049 A 
ATOM     44  H   UNL A   1      40.502  30.580  30.483  1.00  0.00     0.167 HD
ATOM     45  C   UNL A   1      44.623  29.406  31.420  1.00  0.00     0.037 A 
ATOM     46  C   UNL A   1      38.256  32.231  30.600  1.00  0.00     0.037 A 
ATOM     47  C   UNL A   1      44.429  30.671  32.080  1.00  0.00     0.049 A 
ATOM     48  C   UNL A   1      39.325  32.908  31.410  1.00  0.00     0.074 A 
ATOM     49  C   UNL A   1      45.335  31.407  32.822  1.00  0.00     0.029 A 
ATOM     50  N   UNL A   1      43.245  31.393  32.063  1.00  0.00    -0.354 N 
ATOM     51  N   UNL A   1      40.556  32.521  31.640  1.00  0.00    -0.248 NA
ATOM     52  C   UNL A   1      38.964  34.179  32.052  1.00  0.00     0.031 C 
ATOM     53  C   UNL A   1      44.690  32.563  33.279  1.00  0.00     0.029 A 
ATOM     54  C   UNL A   1      43.392  32.562  32.792  1.00  0.00     0.049 A 
ATOM     55  H   UNL A   1      42.420  31.116  31.601  1.00  0.00     0.167 HD
ATOM     56  C   UNL A   1      41.118  33.498  32.447  1.00  0.00     0.074 A 
ATOM     57  C   UNL A   1      40.100  34.509  32.649  1.00  0.00     0.031 C 
ATOM     58  C   UNL A   1      42.363  33.551  32.979  1.00  0.00     0.037 A 
BRANCH  45  59
ATOM     59  C   UNL A   1      45.956  28.735  31.551  1.00  0.00     0.064 A 
ATOM     60  C   UNL A   1      46.971  28.913  30.602  1.00  0.00     0.173 A 
ATOM     61  C   UNL A   1      46.227  27.919  32.661  1.00  0.00     0.173 A 
ATOM     62  F   UNL A   1      46.754  29.669  29.515  1.00  0.00    -0.203 F 
ATOM     63  C   UNL A   1      48.206  28.286  30.749  1.00  0.00     0.198 A 
ATOM     64  C   UNL A   1      47.470  27.311  32.816  1.00  0.00     0.198 A 
ATOM     65  F   UNL A   1      45.288  27.717  33.597  1.00  0.00    -0.203 F 
ATOM     66  F   UNL A   1      49.151  28.440  29.811  1.00  0.00    -0.200 F 
ATOM     67  C   UNL A   1      48.457  27.492  31.859  1.00  0.00     0.200 A 
ATOM     68  F   UNL A   1      47.711  26.549  33.892  1.00  0.00    -0.200 F 
ATOM     69  F   UNL A   1      49.647  26.891  32.000  1.00  0.00    -0.200 F 
ENDBRANCH  45  59
BRANCH  46  70
ATOM     70  C   UNL A   1      36.909  32.835  30.448  1.00  0.00     0.064 A 
ATOM     71  C   UNL A   1      35.949  32.722  31.461  1.00  0.00     0.173 A 
ATOM     72  C   UNL A   1      36.560  33.548  29.291  1.00  0.00     0.173 A 
ATOM     73  F   UNL A   1      36.229  32.029  32.574  1.00  0.00    -0.203 F 
ATOM     74  C   UNL A   1      34.687  33.297  31.322  1.00  0.00     0.198 A 
ATOM     75  C   UNL A   1      35.308  34.144  29.163  1.00  0.00     0.198 A 
ATOM     76  F   UNL A   1      37.446  33.684  28.293  1.00  0.00    -0.203 F 
ATOM     77  F   UNL A   1      33.775  33.148  32.291  1.00  0.00    -0.200 F 
ATOM     78  C   UNL A   1      34.370  34.015  30.177  1.00  0.00     0.200 A 
ATOM     79  F   UNL A   1      35.012  34.846  28.062  1.00  0.00    -0.200 F 
ATOM     80  F   UNL A   1      33.160  34.575  30.048  1.00  0.00    -0.200 F 
ENDBRANCH  46  70
BRANCH  58  81
ATOM     81  C   UNL A   1      42.691  34.748  33.818  1.00  0.00     0.064 A 
ATOM     82  C   UNL A   1      43.106  35.953  33.235  1.00  0.00     0.173 A 
ATOM     83  C   UNL A   1      42.558  34.698  35.213  1.00  0.00     0.173 A 
ATOM     84  F   UNL A   1      43.264  36.042  31.907  1.00  0.00    -0.203 F 
ATOM     85  C   UNL A   1      43.396  37.063  34.024  1.00  0.00     0.198 A 
ATOM     86  C   UNL A   1      42.828  35.816  35.996  1.00  0.00     0.198 A 
ATOM     87  F   UNL A   1      42.161  33.566  35.813  1.00  0.00    -0.203 F 
ATOM     88  F   UNL A   1      43.829  38.195  33.452  1.00  0.00    -0.200 F 
ATOM     89  C   UNL A   1      43.251  36.995  35.402  1.00  0.00     0.200 A 
ATOM     90  F   UNL A   1      42.682  35.751  37.327  1.00  0.00    -0.200 F 
ATOM     91  F   UNL A   1      43.528  38.066  36.159  1.00  0.00    -0.200 F 
ENDBRANCH  58  81
ENDBRANCH  32  33
ENDBRANCH  25  27
ENDBRANCH  24  25
ENDBRANCH  23  24
ENDBRANCH  22  23
ENDBRANCH   1  22
TORSDOF 16
ENDMDL
MODEL 3
REMARK VINA RESULT:     -11.2      1.221      2.267
REMARK SMILES CCCC1CN(c2ccc(C(=O)NCC(=O)OCCOC(=O)c3ccc(-c4c5nc(c(-c6c(F)c(F)c(F)c(F)c6F)c6ccc([nH]6)c(-c6c(F)c(F)c(F)c(F)c6F)c6nc(c(-c7c(F)c(F)c(F)c(F)c7F)c7ccc4[nH]7)C=C6)C=C5)cc3)cc2)C1
REMARK SMILES IDX 17 1 15 2 16 3 14 4 13 5 11 6 12 7 10 9 7 10 8 11 87 12 9 13
REMARK SMILES IDX 86 14 6 15 4 16 5 17 88 18 3 19 2 20 1 21 18 22 19 23 20 24
REMARK SMILES IDX 21 25 22 26 23 27 24 28 85 29 25 30 84 31 26 32 27 33 28 34
REMARK SMILES IDX 78 35 29 36 83 37 77 38 79 39 30 40 82 41 76 42 75 43 31 45
REMARK SMILES IDX 63 46 43 47 62 48 44 49 47 50 61 51 80 52 45 53 46 54 60 56
REMARK SMILES IDX 81 57 48 58 32 59 33 60 41 61 34 62 35 63 39 64 42 65 36 66
REMARK SMILES IDX 37 67 40 68 38 69 64 70 65 71 73 72 66 73 67 74 71 75 74 76
REMARK SMILES IDX 68 77 69 78 72 79 70 80 49 81 50 82 58 83 51 84 52 85 56 86
REMARK SMILES IDX 59 87 53 88 54 89 57 90 55 91
REMARK H PARENT 13 8 79 44 47 55
REMARK Flexibility Score: inf
ROOT
ATOM      1  O   UNL A   1      31.318  29.063  24.749  1.00  0.00    -0.461 OA
ENDROOT
BRANCH   1   2
ATOM      2  C   UNL A   1      31.982  28.850  23.580  1.00  0.00     0.325 C 
ATOM      3  O   UNL A   1      33.135  29.202  23.357  1.00  0.00    -0.250 OA
BRANCH   2   4
ATOM      4  C   UNL A   1      31.180  27.977  22.611  1.00  0.00     0.239 C 
BRANCH   4   5
ATOM      5  N   UNL A   1      29.821  27.716  23.041  1.00  0.00    -0.341 N 
ATOM      6  C   UNL A   1      29.286  26.656  23.718  1.00  0.00     0.251 C 
ATOM      7  O   UNL A   1      28.096  26.695  24.026  1.00  0.00    -0.269 OA
ATOM      8  H   UNL A   1      29.174  28.420  22.806  1.00  0.00     0.164 HD
BRANCH   6   9
ATOM      9  C   UNL A   1      30.105  25.487  24.128  1.00  0.00     0.039 A 
ATOM     10  C   UNL A   1      31.687  23.235  24.735  1.00  0.00     0.037 A 
ATOM     11  C   UNL A   1      31.085  23.365  23.479  1.00  0.00     0.027 A 
ATOM     12  C   UNL A   1      31.505  24.249  25.679  1.00  0.00     0.027 A 
ATOM     13  C   UNL A   1      30.291  24.474  23.180  1.00  0.00     0.016 A 
ATOM     14  C   UNL A   1      30.749  25.383  25.366  1.00  0.00     0.016 A 
BRANCH  10  15
ATOM     15  N   UNL A   1      32.511  22.122  24.979  1.00  0.00    -0.371 N 
ATOM     16  C   UNL A   1      34.502  21.541  24.792  1.00  0.00     0.028 C 
ATOM     17  C   UNL A   1      33.239  21.462  23.927  1.00  0.00     0.122 C 
ATOM     18  C   UNL A   1      33.582  22.006  25.927  1.00  0.00     0.122 C 
BRANCH  16  19
ATOM     19  C   UNL A   1      35.261  20.240  25.014  1.00  0.00     0.007 C 
BRANCH  19  20
ATOM     20  C   UNL A   1      36.776  20.455  24.985  1.00  0.00    -0.003 C 
ATOM     21  C   UNL A   1      37.182  21.862  24.570  1.00  0.00     0.004 C 
ENDBRANCH  19  20
ENDBRANCH  16  19
ENDBRANCH  10  15
ENDBRANCH   6   9
ENDBRANCH   4   5
ENDBRANCH   2   4
ENDBRANCH   1   2
BRANCH   1  22
ATOM     22  C   UNL A   1      31.086  30.431  25.127  1.00  0.00     0.274 C 
BRANCH  22  23
ATOM     23  C   UNL A   1      31.616  30.696  26.540  1.00  0.00     0.275 C 
BRANCH  23  24
ATOM     24  O   UNL A   1      33.058  30.739  26.572  1.00  0.00    -0.458 OA
BRANCH  24  25
ATOM     25  C   UNL A   1      33.590  31.781  27.248  1.00  0.00     0.338 C 
ATOM     26  O   UNL A   1      33.075  32.867  27.469  1.00  0.00    -0.246 OA
BRANCH  25  27
ATOM     27  C   UNL A   1      34.872  31.388  27.844  1.00  0.00     0.060 A 
ATOM     28  C   UNL A   1      35.009  30.078  28.306  1.00  0.00     0.016 A 
ATOM     29  C   UNL A   1      35.881  32.326  28.062  1.00  0.00     0.016 A 
ATOM     30  C   UNL A   1      36.133  29.705  29.028  1.00  0.00     0.010 A 
ATOM     31  C   UNL A   1      37.032  31.939  28.758  1.00  0.00     0.010 A 
ATOM     32  C   UNL A   1      37.154  30.631  29.261  1.00  0.00    -0.014 A 
BRANCH  32  33
ATOM     33  C   UNL A   1      38.324  30.220  30.072  1.00  0.00     0.031 A 
ATOM     34  C   UNL A   1      39.363  29.314  29.481  1.00  0.00     0.074 A 
ATOM     35  C   UNL A   1      38.474  30.708  31.317  1.00  0.00     0.049 A 
ATOM     36  N   UNL A   1      40.406  28.770  30.053  1.00  0.00    -0.248 NA
ATOM     37  C   UNL A   1      39.210  28.976  28.058  1.00  0.00     0.031 C 
ATOM     38  C   UNL A   1      37.559  31.646  31.971  1.00  0.00     0.029 A 
ATOM     39  N   UNL A   1      39.456  30.494  32.249  1.00  0.00    -0.354 N 
ATOM     40  C   UNL A   1      41.011  27.995  29.074  1.00  0.00     0.074 A 
ATOM     41  C   UNL A   1      40.221  28.139  27.869  1.00  0.00     0.031 C 
ATOM     42  C   UNL A   1      38.035  31.942  33.190  1.00  0.00     0.029 A 
ATOM     43  C   UNL A   1      39.250  31.169  33.426  1.00  0.00     0.049 A 
ATOM     44  H   UNL A   1      40.234  29.912  32.088  1.00  0.00     0.167 HD
ATOM     45  C   UNL A   1      42.125  27.231  29.176  1.00  0.00     0.037 A 
ATOM     46  C   UNL A   1      39.947  31.142  34.576  1.00  0.00     0.037 A 
ATOM     47  C   UNL A   1      42.925  27.123  30.367  1.00  0.00     0.049 A 
ATOM     48  C   UNL A   1      41.159  30.260  34.674  1.00  0.00     0.074 A 
ATOM     49  C   UNL A   1      44.072  26.377  30.574  1.00  0.00     0.029 A 
ATOM     50  N   UNL A   1      42.664  27.793  31.554  1.00  0.00    -0.354 N 
ATOM     51  N   UNL A   1      41.697  29.491  33.759  1.00  0.00    -0.248 NA
ATOM     52  C   UNL A   1      41.852  30.228  35.969  1.00  0.00     0.031 C 
ATOM     53  C   UNL A   1      44.490  26.575  31.895  1.00  0.00     0.029 A 
ATOM     54  C   UNL A   1      43.623  27.470  32.501  1.00  0.00     0.049 A 
ATOM     55  H   UNL A   1      41.910  28.409  31.701  1.00  0.00     0.167 HD
ATOM     56  C   UNL A   1      42.791  28.889  34.361  1.00  0.00     0.074 A 
ATOM     57  C   UNL A   1      42.855  29.399  35.716  1.00  0.00     0.031 C 
ATOM     58  C   UNL A   1      43.662  27.990  33.842  1.00  0.00     0.037 A 
BRANCH  45  59
ATOM     59  C   UNL A   1      42.521  26.423  27.978  1.00  0.00     0.064 A 
ATOM     60  C   UNL A   1      43.424  26.909  27.024  1.00  0.00     0.173 A 
ATOM     61  C   UNL A   1      42.005  25.130  27.800  1.00  0.00     0.173 A 
ATOM     62  F   UNL A   1      43.930  28.146  27.141  1.00  0.00    -0.203 F 
ATOM     63  C   UNL A   1      43.786  26.136  25.923  1.00  0.00     0.198 A 
ATOM     64  C   UNL A   1      42.386  24.351  26.710  1.00  0.00     0.198 A 
ATOM     65  F   UNL A   1      41.137  24.620  28.686  1.00  0.00    -0.203 F 
ATOM     66  F   UNL A   1      44.623  26.633  25.002  1.00  0.00    -0.200 F 
ATOM     67  C   UNL A   1      43.271  24.856  25.771  1.00  0.00     0.200 A 
ATOM     68  F   UNL A   1      41.892  23.113  26.569  1.00  0.00    -0.200 F 
ATOM     69  F   UNL A   1      43.623  24.113  24.712  1.00  0.00    -0.200 F 
ENDBRANCH  45  59
BRANCH  46  70
ATOM     70  C   UNL A   1      39.491  31.952  35.733  1.00  0.00     0.064 A 
ATOM     71  C   UNL A   1      38.476  31.493  36.581  1.00  0.00     0.173 A 
ATOM     72  C   UNL A   1      40.071  33.197  36.020  1.00  0.00     0.173 A 
ATOM     73  F   UNL A   1      37.876  30.320  36.332  1.00  0.00    -0.203 F 
ATOM     74  C   UNL A   1      38.054  32.249  37.672  1.00  0.00     0.198 A 
ATOM     75  C   UNL A   1      39.667  33.941  37.125  1.00  0.00     0.198 A 
ATOM     76  F   UNL A   1      41.047  33.680  35.237  1.00  0.00    -0.203 F 
ATOM     77  F   UNL A   1      37.059  31.802  38.450  1.00  0.00    -0.200 F 
ATOM     78  C   UNL A   1      38.655  33.470  37.948  1.00  0.00     0.200 A 
ATOM     79  F   UNL A   1      40.259  35.112  37.395  1.00  0.00    -0.200 F 
ATOM     80  F   UNL A   1      38.256  34.192  39.003  1.00  0.00    -0.200 F 
ENDBRANCH  46  70
BRANCH  58  81
ATOM     81  C   UNL A   1      44.761  27.514  34.742  1.00  0.00     0.064 A 
ATOM     82  C   UNL A   1      45.974  28.211  34.841  1.00  0.00     0.173 A 
ATOM     83  C   UNL A   1      44.587  26.371  35.536  1.00  0.00     0.173 A 
ATOM     84  F   UNL A   1      46.191  29.299  34.087  1.00  0.00    -0.203 F 
ATOM     85  C   UNL A   1      46.983  27.766  35.690  1.00  0.00     0.198 A 
ATOM     86  C   UNL A   1      45.591  25.943  36.399  1.00  0.00     0.198 A 
ATOM     87  F   UNL A   1      43.442  25.676  35.476  1.00  0.00    -0.203 F 
ATOM     88  F   UNL A   1      48.151  28.423  35.741  1.00  0.00    -0.200 F 
ATOM     89  C   UNL A   1      46.789  26.637  36.471  1.00  0.00     0.200 A 
ATOM     90  F   UNL A   1      45.400  24.855  37.159  1.00  0.00    -0.200 F 
ATOM     91  F   UNL A   1      47.762  26.213  37.290  1.00  0.00    -0.200 F 
ENDBRANCH  58  81
ENDBRANCH  32  33
ENDBRANCH  25  27
ENDBRANCH  24  25
ENDBRANCH  23  24
ENDBRANCH  22  23
ENDBRANCH   1  22
TORSDOF 16
ENDMDL
