MODEL 1
REMARK VINA RESULT:     -12.4      0.000      0.000
REMARK SMILES O=C(OCCOC(=O)[C@@H]1[C@H](C(=O)NCc2cccnc2)[C@H]2C=C[C@@H]1C2)c1ccc(-c2c3nc(c(-c4c(F)c(F)c(F)c(F)c4F)c4ccc([nH]4)c(-c4c(F)c(F)c(F)c(F)c4F)c4nc(c(-c5c(F)c(F)c(F)c(F)c5F)c5ccc2[nH]5)C=C4)C=C3)cc1
REMARK SMILES IDX 5 1 4 2 3 3 2 4 1 5 26 6 27 7 88 8 28 9 87 10 29 11 30 12
REMARK SMILES IDX 31 13 81 14 32 15 86 16 80 17 82 18 33 19 85 20 79 21 78 22
REMARK SMILES IDX 34 24 66 25 46 26 65 27 47 28 50 29 64 30 83 31 48 32 49 33
REMARK SMILES IDX 63 35 84 36 51 37 35 38 36 39 44 40 37 41 38 42 42 43 45 44
REMARK SMILES IDX 39 45 40 46 43 47 41 48 67 49 68 50 76 51 69 52 70 53 74 54
REMARK SMILES IDX 77 55 71 56 72 57 75 58 73 59 52 60 53 61 61 62 54 63 55 64
REMARK SMILES IDX 59 65 62 66 56 67 57 68 60 69 58 70 6 71 7 72 8 73 9 74
REMARK SMILES IDX 10 75 24 76 21 77 23 78 25 79 22 80 11 81 12 82 13 83 14 85
REMARK SMILES IDX 15 86 16 87 20 88 17 89 19 90 18 91
REMARK H PARENT 82 23 50 34 13 84
REMARK Flexibility Score: inf
ROOT
ATOM      1  C   UNL A   1      33.089  31.002  27.101  1.00  0.00     0.274 C 
ENDROOT
BRANCH   1   2
ATOM      2  C   UNL A   1      31.971  32.036  27.177  1.00  0.00     0.275 C 
BRANCH   2   3
ATOM      3  O   UNL A   1      32.414  33.395  27.236  1.00  0.00    -0.458 OA
BRANCH   3   4
ATOM      4  C   UNL A   1      33.032  34.047  28.241  1.00  0.00     0.338 C 
ATOM      5  O   UNL A   1      32.514  35.082  28.664  1.00  0.00    -0.246 OA
BRANCH   4   6
ATOM      6  C   UNL A   1      34.337  33.623  28.856  1.00  0.00     0.060 A 
ATOM      7  C   UNL A   1      35.625  33.871  28.360  1.00  0.00     0.016 A 
ATOM      8  C   UNL A   1      34.232  32.916  30.066  1.00  0.00     0.016 A 
ATOM      9  C   UNL A   1      36.771  33.525  29.086  1.00  0.00     0.010 A 
ATOM     10  C   UNL A   1      35.370  32.535  30.779  1.00  0.00     0.010 A 
ATOM     11  C   UNL A   1      36.648  32.864  30.305  1.00  0.00    -0.014 A 
BRANCH  11  12
ATOM     12  C   UNL A   1      37.830  32.339  31.014  1.00  0.00     0.031 A 
ATOM     13  C   UNL A   1      38.469  31.123  30.435  1.00  0.00     0.074 A 
ATOM     14  C   UNL A   1      38.308  32.896  32.143  1.00  0.00     0.049 A 
ATOM     15  N   UNL A   1      39.482  30.437  30.883  1.00  0.00    -0.248 NA
ATOM     16  C   UNL A   1      37.922  30.647  29.152  1.00  0.00     0.031 C 
ATOM     17  C   UNL A   1      37.874  34.162  32.714  1.00  0.00     0.029 A 
ATOM     18  N   UNL A   1      39.238  32.438  33.043  1.00  0.00    -0.354 N 
ATOM     19  C   UNL A   1      39.744  29.501  29.899  1.00  0.00     0.074 A 
ATOM     20  C   UNL A   1      38.721  29.629  28.886  1.00  0.00     0.031 C 
ATOM     21  C   UNL A   1      38.420  34.317  33.933  1.00  0.00     0.029 A 
ATOM     22  C   UNL A   1      39.276  33.173  34.207  1.00  0.00     0.049 A 
ATOM     23  H   UNL A   1      39.821  31.663  32.873  1.00  0.00     0.167 HD
ATOM     24  C   UNL A   1      40.790  28.651  29.824  1.00  0.00     0.037 A 
ATOM     25  C   UNL A   1      39.923  32.932  35.363  1.00  0.00     0.037 A 
ATOM     26  C   UNL A   1      41.749  28.491  30.878  1.00  0.00     0.049 A 
ATOM     27  C   UNL A   1      40.913  31.800  35.380  1.00  0.00     0.074 A 
ATOM     28  C   UNL A   1      42.825  27.630  30.944  1.00  0.00     0.029 A 
ATOM     29  N   UNL A   1      41.717  29.195  32.076  1.00  0.00    -0.354 N 
ATOM     30  N   UNL A   1      41.209  30.958  34.418  1.00  0.00    -0.248 NA
ATOM     31  C   UNL A   1      41.711  31.629  36.599  1.00  0.00     0.031 C 
ATOM     32  C   UNL A   1      43.403  27.763  32.211  1.00  0.00     0.029 A 
ATOM     33  C   UNL A   1      42.729  28.755  32.909  1.00  0.00     0.049 A 
ATOM     34  H   UNL A   1      41.070  29.902  32.298  1.00  0.00     0.167 HD
ATOM     35  C   UNL A   1      42.284  30.216  34.880  1.00  0.00     0.074 A 
ATOM     36  C   UNL A   1      42.567  30.689  36.222  1.00  0.00     0.031 C 
ATOM     37  C   UNL A   1      42.993  29.256  34.237  1.00  0.00     0.037 A 
BRANCH  24  38
ATOM     38  C   UNL A   1      40.888  27.841  28.572  1.00  0.00     0.064 A 
ATOM     39  C   UNL A   1      41.623  28.301  27.465  1.00  0.00     0.173 A 
ATOM     40  C   UNL A   1      40.171  26.647  28.438  1.00  0.00     0.173 A 
ATOM     41  F   UNL A   1      42.294  29.461  27.532  1.00  0.00    -0.203 F 
ATOM     42  C   UNL A   1      41.599  27.612  26.255  1.00  0.00     0.198 A 
ATOM     43  C   UNL A   1      40.172  25.947  27.236  1.00  0.00     0.198 A 
ATOM     44  F   UNL A   1      39.439  26.180  29.461  1.00  0.00    -0.203 F 
ATOM     45  F   UNL A   1      42.240  28.110  25.190  1.00  0.00    -0.200 F 
ATOM     46  C   UNL A   1      40.874  26.435  26.143  1.00  0.00     0.200 A 
ATOM     47  F   UNL A   1      39.466  24.813  27.125  1.00  0.00    -0.200 F 
ATOM     48  F   UNL A   1      40.832  25.784  24.973  1.00  0.00    -0.200 F 
ENDBRANCH  24  38
BRANCH  25  49
ATOM     49  C   UNL A   1      39.706  33.787  36.562  1.00  0.00     0.064 A 
ATOM     50  C   UNL A   1      38.833  33.400  37.588  1.00  0.00     0.173 A 
ATOM     51  C   UNL A   1      40.333  35.037  36.684  1.00  0.00     0.173 A 
ATOM     52  F   UNL A   1      38.199  32.221  37.513  1.00  0.00    -0.203 F 
ATOM     53  C   UNL A   1      38.567  34.240  38.669  1.00  0.00     0.198 A 
ATOM     54  C   UNL A   1      40.081  35.870  37.775  1.00  0.00     0.198 A 
ATOM     55  F   UNL A   1      41.181  35.459  35.735  1.00  0.00    -0.203 F 
ATOM     56  F   UNL A   1      37.689  33.862  39.608  1.00  0.00    -0.200 F 
ATOM     57  C   UNL A   1      39.190  35.475  38.762  1.00  0.00     0.200 A 
ATOM     58  F   UNL A   1      40.689  37.062  37.864  1.00  0.00    -0.200 F 
ATOM     59  F   UNL A   1      38.924  36.287  39.795  1.00  0.00    -0.200 F 
ENDBRANCH  25  49
BRANCH  37  60
ATOM     60  C   UNL A   1      44.186  28.697  34.952  1.00  0.00     0.064 A 
ATOM     61  C   UNL A   1      45.450  29.296  34.865  1.00  0.00     0.173 A 
ATOM     62  C   UNL A   1      44.040  27.575  35.783  1.00  0.00     0.173 A 
ATOM     63  F   UNL A   1      45.641  30.358  34.068  1.00  0.00    -0.203 F 
ATOM     64  C   UNL A   1      46.532  28.779  35.571  1.00  0.00     0.198 A 
ATOM     65  C   UNL A   1      45.115  27.084  36.516  1.00  0.00     0.198 A 
ATOM     66  F   UNL A   1      42.849  26.969  35.901  1.00  0.00    -0.203 F 
ATOM     67  F   UNL A   1      47.742  29.336  35.437  1.00  0.00    -0.200 F 
ATOM     68  C   UNL A   1      46.361  27.682  36.404  1.00  0.00     0.200 A 
ATOM     69  F   UNL A   1      44.944  26.037  37.334  1.00  0.00    -0.200 F 
ATOM     70  F   UNL A   1      47.400  27.199  37.097  1.00  0.00    -0.200 F 
ENDBRANCH  37  60
ENDBRANCH  11  12
ENDBRANCH   4   6
ENDBRANCH   3   4
ENDBRANCH   2   3
ENDBRANCH   1   2
BRANCH   1  71
ATOM     71  O   UNL A   1      32.664  29.620  27.132  1.00  0.00    -0.462 OA
BRANCH  71  72
ATOM     72  C   UNL A   1      33.623  28.731  26.790  1.00  0.00     0.310 C 
ATOM     73  O   UNL A   1      34.828  28.956  26.902  1.00  0.00    -0.252 OA
BRANCH  72  74
ATOM     74  C   UNL A   1      33.156  27.383  26.284  1.00  0.00     0.119 C 
ATOM     75  C   UNL A   1      33.408  27.225  24.774  1.00  0.00     0.100 C 
ATOM     76  C   UNL A   1      31.769  26.697  26.403  1.00  0.00     0.027 C 
ATOM     77  C   UNL A   1      32.450  26.070  24.367  1.00  0.00     0.025 C 
ATOM     78  C   UNL A   1      32.096  25.218  26.500  1.00  0.00    -0.027 C 
ATOM     79  C   UNL A   1      31.165  26.566  24.983  1.00  0.00     0.017 C 
ATOM     80  C   UNL A   1      32.573  24.860  25.293  1.00  0.00    -0.027 C 
BRANCH  75  81
ATOM     81  C   UNL A   1      33.299  28.529  23.938  1.00  0.00     0.224 C 
ATOM     82  O   UNL A   1      34.232  28.804  23.171  1.00  0.00    -0.275 OA
ATOM     83  N   UNL A   1      32.272  29.436  23.943  1.00  0.00    -0.352 N 
ATOM     84  H   UNL A   1      32.551  30.331  23.645  1.00  0.00     0.163 HD
BRANCH  83  85
ATOM     85  C   UNL A   1      30.855  29.371  24.291  1.00  0.00     0.153 C 
BRANCH  85  86
ATOM     86  C   UNL A   1      29.853  30.098  23.439  1.00  0.00    -0.010 A 
ATOM     87  C   UNL A   1      29.034  31.147  23.851  1.00  0.00     0.009 A 
ATOM     88  C   UNL A   1      29.679  29.643  22.125  1.00  0.00     0.116 A 
ATOM     89  C   UNL A   1      28.055  31.636  22.981  1.00  0.00     0.020 A 
ATOM     90  N   UNL A   1      28.731  30.083  21.271  1.00  0.00    -0.264 NA
ATOM     91  C   UNL A   1      27.932  31.070  21.720  1.00  0.00     0.111 A 
ENDBRANCH  85  86
ENDBRANCH  83  85
ENDBRANCH  75  81
ENDBRANCH  72  74
ENDBRANCH  71  72
ENDBRANCH   1  71
TORSDOF 14
ENDMDL
MODEL 2
REMARK VINA RESULT:     -12.3      5.985     11.203
REMARK SMILES O=C(OCCOC(=O)[C@@H]1[C@H](C(=O)NCc2cccnc2)[C@H]2C=C[C@@H]1C2)c1ccc(-c2c3nc(c(-c4c(F)c(F)c(F)c(F)c4F)c4ccc([nH]4)c(-c4c(F)c(F)c(F)c(F)c4F)c4nc(c(-c5c(F)c(F)c(F)c(F)c5F)c5ccc2[nH]5)C=C4)C=C3)cc1
REMARK SMILES IDX 5 1 4 2 3 3 2 4 1 5 26 6 27 7 88 8 28 9 87 10 29 11 30 12
REMARK SMILES IDX 31 13 81 14 32 15 86 16 80 17 82 18 33 19 85 20 79 21 78 22
REMARK SMILES IDX 34 24 66 25 46 26 65 27 47 28 50 29 64 30 83 31 48 32 49 33
REMARK SMILES IDX 63 35 84 36 51 37 35 38 36 39 44 40 37 41 38 42 42 43 45 44
REMARK SMILES IDX 39 45 40 46 43 47 41 48 67 49 68 50 76 51 69 52 70 53 74 54
REMARK SMILES IDX 77 55 71 56 72 57 75 58 73 59 52 60 53 61 61 62 54 63 55 64
REMARK SMILES IDX 59 65 62 66 56 67 57 68 60 69 58 70 6 71 7 72 8 73 9 74
REMARK SMILES IDX 10 75 24 76 21 77 23 78 25 79 22 80 11 81 12 82 13 83 14 85
REMARK SMILES IDX 15 86 16 87 20 88 17 89 19 90 18 91
REMARK H PARENT 82 23 50 34 13 84
REMARK Flexibility Score: inf
ROOT
ATOM      1  C   UNL A   1      38.246  21.411  25.486  1.00  0.00     0.274 C 
ENDROOT
BRANCH   1   2
ATOM      2  C   UNL A   1      38.544  19.972  25.077  1.00  0.00     0.275 C 
BRANCH   2   3
ATOM      3  O   UNL A   1      39.511  19.305  25.891  1.00  0.00    -0.458 OA
BRANCH   3   4
ATOM      4  C   UNL A   1      40.831  19.550  26.020  1.00  0.00     0.338 C 
ATOM      5  O   UNL A   1      41.617  18.636  25.759  1.00  0.00    -0.246 OA
BRANCH   4   6
ATOM      6  C   UNL A   1      41.413  20.849  26.501  1.00  0.00     0.060 A 
ATOM      7  C   UNL A   1      41.564  21.265  27.832  1.00  0.00     0.016 A 
ATOM      8  C   UNL A   1      41.863  21.719  25.494  1.00  0.00     0.016 A 
ATOM      9  C   UNL A   1      42.230  22.452  28.160  1.00  0.00     0.010 A 
ATOM     10  C   UNL A   1      42.496  22.922  25.810  1.00  0.00     0.010 A 
ATOM     11  C   UNL A   1      42.709  23.282  27.149  1.00  0.00    -0.014 A 
BRANCH  11  12
ATOM     12  C   UNL A   1      43.266  24.614  27.451  1.00  0.00     0.031 A 
ATOM     13  C   UNL A   1      42.291  25.670  27.845  1.00  0.00     0.074 A 
ATOM     14  C   UNL A   1      44.580  24.892  27.355  1.00  0.00     0.049 A 
ATOM     15  N   UNL A   1      42.507  26.927  28.115  1.00  0.00    -0.248 NA
ATOM     16  C   UNL A   1      40.891  25.239  28.004  1.00  0.00     0.031 C 
ATOM     17  C   UNL A   1      45.639  23.919  27.136  1.00  0.00     0.029 A 
ATOM     18  N   UNL A   1      45.246  26.092  27.383  1.00  0.00    -0.354 N 
ATOM     19  C   UNL A   1      41.289  27.413  28.553  1.00  0.00     0.074 A 
ATOM     20  C   UNL A   1      40.314  26.357  28.407  1.00  0.00     0.031 C 
ATOM     21  C   UNL A   1      46.799  24.560  26.903  1.00  0.00     0.029 A 
ATOM     22  C   UNL A   1      46.564  25.992  26.998  1.00  0.00     0.049 A 
ATOM     23  H   UNL A   1      44.823  26.940  27.652  1.00  0.00     0.167 HD
ATOM     24  C   UNL A   1      41.028  28.625  29.089  1.00  0.00     0.037 A 
ATOM     25  C   UNL A   1      47.468  26.957  26.742  1.00  0.00     0.037 A 
ATOM     26  C   UNL A   1      41.995  29.681  29.152  1.00  0.00     0.049 A 
ATOM     27  C   UNL A   1      47.088  28.371  27.088  1.00  0.00     0.074 A 
ATOM     28  C   UNL A   1      41.841  30.967  29.626  1.00  0.00     0.029 A 
ATOM     29  N   UNL A   1      43.300  29.573  28.685  1.00  0.00    -0.354 N 
ATOM     30  N   UNL A   1      45.953  28.818  27.571  1.00  0.00    -0.248 NA
ATOM     31  C   UNL A   1      48.124  29.397  26.932  1.00  0.00     0.031 C 
ATOM     32  C   UNL A   1      43.032  31.660  29.382  1.00  0.00     0.029 A 
ATOM     33  C   UNL A   1      43.950  30.787  28.818  1.00  0.00     0.049 A 
ATOM     34  H   UNL A   1      43.702  28.755  28.315  1.00  0.00     0.167 HD
ATOM     35  C   UNL A   1      46.165  30.157  27.859  1.00  0.00     0.074 A 
ATOM     36  C   UNL A   1      47.529  30.454  27.468  1.00  0.00     0.031 C 
ATOM     37  C   UNL A   1      45.316  31.048  28.430  1.00  0.00     0.037 A 
BRANCH  24  38
ATOM     38  C   UNL A   1      39.638  28.829  29.600  1.00  0.00     0.064 A 
ATOM     39  C   UNL A   1      38.636  29.378  28.780  1.00  0.00     0.173 A 
ATOM     40  C   UNL A   1      39.326  28.567  30.938  1.00  0.00     0.173 A 
ATOM     41  F   UNL A   1      38.900  29.683  27.500  1.00  0.00    -0.203 F 
ATOM     42  C   UNL A   1      37.384  29.695  29.298  1.00  0.00     0.198 A 
ATOM     43  C   UNL A   1      38.064  28.860  31.445  1.00  0.00     0.198 A 
ATOM     44  F   UNL A   1      40.256  28.063  31.763  1.00  0.00    -0.203 F 
ATOM     45  F   UNL A   1      36.470  30.291  28.521  1.00  0.00    -0.200 F 
ATOM     46  C   UNL A   1      37.099  29.435  30.631  1.00  0.00     0.200 A 
ATOM     47  F   UNL A   1      37.791  28.615  32.734  1.00  0.00    -0.200 F 
ATOM     48  F   UNL A   1      35.902  29.760  31.135  1.00  0.00    -0.200 F 
ENDBRANCH  24  38
BRANCH  25  49
ATOM     49  C   UNL A   1      48.809  26.631  26.188  1.00  0.00     0.064 A 
ATOM     50  C   UNL A   1      49.855  26.192  27.012  1.00  0.00     0.173 A 
ATOM     51  C   UNL A   1      49.090  26.798  24.822  1.00  0.00     0.173 A 
ATOM     52  F   UNL A   1      49.642  26.030  28.326  1.00  0.00    -0.203 F 
ATOM     53  C   UNL A   1      51.133  25.967  26.504  1.00  0.00     0.198 A 
ATOM     54  C   UNL A   1      50.366  26.554  24.310  1.00  0.00     0.198 A 
ATOM     55  F   UNL A   1      48.128  27.211  23.985  1.00  0.00    -0.203 F 
ATOM     56  F   UNL A   1      52.124  25.597  27.327  1.00  0.00    -0.200 F 
ATOM     57  C   UNL A   1      51.389  26.149  25.153  1.00  0.00     0.200 A 
ATOM     58  F   UNL A   1      50.607  26.727  23.002  1.00  0.00    -0.200 F 
ATOM     59  F   UNL A   1      52.622  25.945  24.668  1.00  0.00    -0.200 F 
ENDBRANCH  25  49
BRANCH  37  60
ATOM     60  C   UNL A   1      45.860  32.413  28.725  1.00  0.00     0.064 A 
ATOM     61  C   UNL A   1      45.738  33.472  27.817  1.00  0.00     0.173 A 
ATOM     62  C   UNL A   1      46.462  32.670  29.967  1.00  0.00     0.173 A 
ATOM     63  F   UNL A   1      45.188  33.267  26.610  1.00  0.00    -0.203 F 
ATOM     64  C   UNL A   1      46.218  34.739  28.134  1.00  0.00     0.198 A 
ATOM     65  C   UNL A   1      46.906  33.947  30.294  1.00  0.00     0.198 A 
ATOM     66  F   UNL A   1      46.599  31.688  30.871  1.00  0.00    -0.203 F 
ATOM     67  F   UNL A   1      46.135  35.727  27.233  1.00  0.00    -0.200 F 
ATOM     68  C   UNL A   1      46.789  34.978  29.375  1.00  0.00     0.200 A 
ATOM     69  F   UNL A   1      47.440  34.179  31.501  1.00  0.00    -0.200 F 
ATOM     70  F   UNL A   1      47.233  36.204  29.684  1.00  0.00    -0.200 F 
ENDBRANCH  37  60
ENDBRANCH  11  12
ENDBRANCH   4   6
ENDBRANCH   3   4
ENDBRANCH   2   3
ENDBRANCH   1   2
BRANCH   1  71
ATOM     71  O   UNL A   1      37.300  22.115  24.649  1.00  0.00    -0.462 OA
BRANCH  71  72
ATOM     72  C   UNL A   1      36.815  23.255  25.188  1.00  0.00     0.310 C 
ATOM     73  O   UNL A   1      37.414  23.910  26.042  1.00  0.00    -0.252 OA
BRANCH  72  74
ATOM     74  C   UNL A   1      35.482  23.747  24.665  1.00  0.00     0.119 C 
ATOM     75  C   UNL A   1      34.343  23.467  25.661  1.00  0.00     0.100 C 
ATOM     76  C   UNL A   1      34.758  23.435  23.327  1.00  0.00     0.027 C 
ATOM     77  C   UNL A   1      33.064  23.559  24.782  1.00  0.00     0.025 C 
ATOM     78  C   UNL A   1      34.013  24.718  23.005  1.00  0.00    -0.027 C 
ATOM     79  C   UNL A   1      33.461  22.651  23.645  1.00  0.00     0.017 C 
ATOM     80  C   UNL A   1      33.037  24.826  23.927  1.00  0.00    -0.027 C 
BRANCH  75  81
ATOM     81  C   UNL A   1      34.497  22.175  26.508  1.00  0.00     0.224 C 
ATOM     82  O   UNL A   1      34.400  22.275  27.739  1.00  0.00    -0.275 OA
ATOM     83  N   UNL A   1      34.733  20.905  26.052  1.00  0.00    -0.352 N 
ATOM     84  H   UNL A   1      35.150  20.326  26.729  1.00  0.00     0.163 HD
BRANCH  83  85
ATOM     85  C   UNL A   1      34.503  20.217  24.784  1.00  0.00     0.153 C 
BRANCH  85  86
ATOM     86  C   UNL A   1      34.070  18.778  24.794  1.00  0.00    -0.010 A 
ATOM     87  C   UNL A   1      34.774  17.706  24.250  1.00  0.00     0.009 A 
ATOM     88  C   UNL A   1      32.814  18.490  25.346  1.00  0.00     0.116 A 
ATOM     89  C   UNL A   1      34.181  16.441  24.219  1.00  0.00     0.020 A 
ATOM     90  N   UNL A   1      32.210  17.284  25.313  1.00  0.00    -0.264 NA
ATOM     91  C   UNL A   1      32.906  16.282  24.743  1.00  0.00     0.111 A 
ENDBRANCH  85  86
ENDBRANCH  83  85
ENDBRANCH  75  81
ENDBRANCH  72  74
ENDBRANCH  71  72
ENDBRANCH   1  71
TORSDOF 14
ENDMDL
MODEL 3
REMARK VINA RESULT:     -12.0      1.158      7.536
REMARK SMILES O=C(OCCOC(=O)[C@@H]1[C@H](C(=O)NCc2cccnc2)[C@H]2C=C[C@@H]1C2)c1ccc(-c2c3nc(c(-c4c(F)c(F)c(F)c(F)c4F)c4ccc([nH]4)c(-c4c(F)c(F)c(F)c(F)c4F)c4nc(c(-c5c(F)c(F)c(F)c(F)c5F)c5ccc2[nH]5)C=C4)C=C3)cc1
REMARK SMILES IDX 5 1 4 2 3 3 2 4 1 5 26 6 27 7 88 8 28 9 87 10 29 11 30 12
REMARK SMILES IDX 31 13 81 14 32 15 86 16 80 17 82 18 33 19 85 20 79 21 78 22
REMARK SMILES IDX 34 24 66 25 46 26 65 27 47 28 50 29 64 30 83 31 48 32 49 33
REMARK SMILES IDX 63 35 84 36 51 37 35 38 36 39 44 40 37 41 38 42 42 43 45 44
REMARK SMILES IDX 39 45 40 46 43 47 41 48 67 49 68 50 76 51 69 52 70 53 74 54
REMARK SMILES IDX 77 55 71 56 72 57 75 58 73 59 52 60 53 61 61 62 54 63 55 64
REMARK SMILES IDX 59 65 62 66 56 67 57 68 60 69 58 70 6 71 7 72 8 73 9 74
REMARK SMILES IDX 10 75 24 76 21 77 23 78 25 79 22 80 11 81 12 82 13 83 14 85
REMARK SMILES IDX 15 86 16 87 20 88 17 89 19 90 18 91
REMARK H PARENT 82 23 50 34 13 84
REMARK Flexibility Score: inf
ROOT
ATOM      1  C   UNL A   1      32.902  31.164  26.958  1.00  0.00     0.274 C 
ENDROOT
BRANCH   1   2
ATOM      2  C   UNL A   1      31.918  32.291  27.251  1.00  0.00     0.275 C 
BRANCH   2   3
ATOM      3  O   UNL A   1      32.509  33.588  27.370  1.00  0.00    -0.458 OA
BRANCH   3   4
ATOM      4  C   UNL A   1      33.325  34.067  28.330  1.00  0.00     0.338 C 
ATOM      5  O   UNL A   1      33.073  35.178  28.801  1.00  0.00    -0.246 OA
BRANCH   4   6
ATOM      6  C   UNL A   1      34.548  33.359  28.841  1.00  0.00     0.060 A 
ATOM      7  C   UNL A   1      35.850  33.444  28.325  1.00  0.00     0.016 A 
ATOM      8  C   UNL A   1      34.347  32.541  29.965  1.00  0.00     0.016 A 
ATOM      9  C   UNL A   1      36.933  32.826  28.961  1.00  0.00     0.010 A 
ATOM     10  C   UNL A   1      35.416  31.891  30.584  1.00  0.00     0.010 A 
ATOM     11  C   UNL A   1      36.723  32.054  30.100  1.00  0.00    -0.014 A 
BRANCH  11  12
ATOM     12  C   UNL A   1      37.810  31.256  30.697  1.00  0.00     0.031 A 
ATOM     13  C   UNL A   1      38.286  31.679  32.044  1.00  0.00     0.074 A 
ATOM     14  C   UNL A   1      38.378  30.212  30.064  1.00  0.00     0.049 A 
ATOM     15  N   UNL A   1      39.252  31.185  32.766  1.00  0.00    -0.248 NA
ATOM     16  C   UNL A   1      37.539  32.776  32.685  1.00  0.00     0.031 C 
ATOM     17  C   UNL A   1      37.904  29.609  28.827  1.00  0.00     0.029 A 
ATOM     18  N   UNL A   1      39.516  29.500  30.353  1.00  0.00    -0.354 N 
ATOM     19  C   UNL A   1      39.175  31.854  33.974  1.00  0.00     0.074 A 
ATOM     20  C   UNL A   1      38.149  32.865  33.853  1.00  0.00     0.031 C 
ATOM     21  C   UNL A   1      38.810  28.721  28.381  1.00  0.00     0.029 A 
ATOM     22  C   UNL A   1      39.912  28.668  29.330  1.00  0.00     0.049 A 
ATOM     23  H   UNL A   1      40.000  29.576  31.207  1.00  0.00     0.167 HD
ATOM     24  C   UNL A   1      39.865  31.599  35.105  1.00  0.00     0.037 A 
ATOM     25  C   UNL A   1      41.046  27.957  29.180  1.00  0.00     0.037 A 
ATOM     26  C   UNL A   1      40.930  30.642  35.177  1.00  0.00     0.049 A 
ATOM     27  C   UNL A   1      41.975  27.880  30.360  1.00  0.00     0.074 A 
ATOM     28  C   UNL A   1      41.738  30.325  36.250  1.00  0.00     0.029 A 
ATOM     29  N   UNL A   1      41.358  29.869  34.104  1.00  0.00    -0.354 N 
ATOM     30  N   UNL A   1      41.861  28.462  31.531  1.00  0.00    -0.248 NA
ATOM     31  C   UNL A   1      43.139  26.996  30.237  1.00  0.00     0.031 C 
ATOM     32  C   UNL A   1      42.700  29.411  35.807  1.00  0.00     0.029 A 
ATOM     33  C   UNL A   1      42.450  29.107  34.477  1.00  0.00     0.049 A 
ATOM     34  H   UNL A   1      40.945  29.864  33.211  1.00  0.00     0.167 HD
ATOM     35  C   UNL A   1      42.885  27.949  32.311  1.00  0.00     0.074 A 
ATOM     36  C   UNL A   1      43.628  27.032  31.468  1.00  0.00     0.031 C 
ATOM     37  C   UNL A   1      43.161  28.191  33.616  1.00  0.00     0.037 A 
BRANCH  24  38
ATOM     38  C   UNL A   1      39.478  32.402  36.305  1.00  0.00     0.064 A 
ATOM     39  C   UNL A   1      38.424  31.995  37.143  1.00  0.00     0.173 A 
ATOM     40  C   UNL A   1      40.095  33.630  36.568  1.00  0.00     0.173 A 
ATOM     41  F   UNL A   1      37.776  30.844  36.906  1.00  0.00    -0.203 F 
ATOM     42  C   UNL A   1      37.977  32.813  38.176  1.00  0.00     0.198 A 
ATOM     43  C   UNL A   1      39.662  34.432  37.620  1.00  0.00     0.198 A 
ATOM     44  F   UNL A   1      41.090  34.068  35.784  1.00  0.00    -0.203 F 
ATOM     45  F   UNL A   1      36.920  32.444  38.912  1.00  0.00    -0.200 F 
ATOM     46  C   UNL A   1      38.597  34.031  38.414  1.00  0.00     0.200 A 
ATOM     47  F   UNL A   1      40.257  35.612  37.846  1.00  0.00    -0.200 F 
ATOM     48  F   UNL A   1      38.152  34.829  39.394  1.00  0.00    -0.200 F 
ENDBRANCH  24  38
BRANCH  25  49
ATOM     49  C   UNL A   1      41.342  27.234  27.914  1.00  0.00     0.064 A 
ATOM     50  C   UNL A   1      41.028  25.877  27.757  1.00  0.00     0.173 A 
ATOM     51  C   UNL A   1      41.993  27.874  26.848  1.00  0.00     0.173 A 
ATOM     52  F   UNL A   1      40.419  25.215  28.751  1.00  0.00    -0.203 F 
ATOM     53  C   UNL A   1      41.382  25.180  26.602  1.00  0.00     0.198 A 
ATOM     54  C   UNL A   1      42.330  27.181  25.684  1.00  0.00     0.198 A 
ATOM     55  F   UNL A   1      42.315  29.173  26.940  1.00  0.00    -0.203 F 
ATOM     56  F   UNL A   1      41.113  23.871  26.502  1.00  0.00    -0.200 F 
ATOM     57  C   UNL A   1      42.034  25.832  25.566  1.00  0.00     0.200 A 
ATOM     58  F   UNL A   1      42.956  27.817  24.683  1.00  0.00    -0.200 F 
ATOM     59  F   UNL A   1      42.385  25.158  24.462  1.00  0.00    -0.200 F 
ENDBRANCH  25  49
BRANCH  37  60
ATOM     60  C   UNL A   1      44.277  27.402  34.233  1.00  0.00     0.064 A 
ATOM     61  C   UNL A   1      44.069  26.131  34.784  1.00  0.00     0.173 A 
ATOM     62  C   UNL A   1      45.585  27.912  34.217  1.00  0.00     0.173 A 
ATOM     63  F   UNL A   1      42.833  25.613  34.840  1.00  0.00    -0.203 F 
ATOM     64  C   UNL A   1      45.130  25.404  35.315  1.00  0.00     0.198 A 
ATOM     65  C   UNL A   1      46.648  27.166  34.714  1.00  0.00     0.198 A 
ATOM     66  F   UNL A   1      45.834  29.124  33.697  1.00  0.00    -0.203 F 
ATOM     67  F   UNL A   1      44.903  24.211  35.881  1.00  0.00    -0.200 F 
ATOM     68  C   UNL A   1      46.419  25.917  35.268  1.00  0.00     0.200 A 
ATOM     69  F   UNL A   1      47.894  27.655  34.651  1.00  0.00    -0.200 F 
ATOM     70  F   UNL A   1      47.440  25.206  35.763  1.00  0.00    -0.200 F 
ENDBRANCH  37  60
ENDBRANCH  11  12
ENDBRANCH   4   6
ENDBRANCH   3   4
ENDBRANCH   2   3
ENDBRANCH   1   2
BRANCH   1  71
ATOM     71  O   UNL A   1      32.356  29.827  27.022  1.00  0.00    -0.462 OA
BRANCH  71  72
ATOM     72  C   UNL A   1      33.247  28.844  26.766  1.00  0.00     0.310 C 
ATOM     73  O   UNL A   1      34.456  28.951  26.979  1.00  0.00    -0.252 OA
BRANCH  72  74
ATOM     74  C   UNL A   1      32.695  27.543  26.225  1.00  0.00     0.119 C 
ATOM     75  C   UNL A   1      32.934  27.410  24.710  1.00  0.00     0.100 C 
ATOM     76  C   UNL A   1      31.266  26.945  26.329  1.00  0.00     0.027 C 
ATOM     77  C   UNL A   1      31.903  26.330  24.275  1.00  0.00     0.025 C 
ATOM     78  C   UNL A   1      31.498  25.445  26.386  1.00  0.00    -0.027 C 
ATOM     79  C   UNL A   1      30.654  26.891  24.908  1.00  0.00     0.017 C 
ATOM     80  C   UNL A   1      31.950  25.090  25.167  1.00  0.00    -0.027 C 
BRANCH  75  81
ATOM     81  C   UNL A   1      32.908  28.740  23.910  1.00  0.00     0.224 C 
ATOM     82  O   UNL A   1      33.866  28.985  23.164  1.00  0.00    -0.275 OA
ATOM     83  N   UNL A   1      31.932  29.701  23.926  1.00  0.00    -0.352 N 
ATOM     84  H   UNL A   1      32.263  30.588  23.657  1.00  0.00     0.163 HD
BRANCH  83  85
ATOM     85  C   UNL A   1      30.508  29.704  24.253  1.00  0.00     0.153 C 
BRANCH  85  86
ATOM     86  C   UNL A   1      29.540  30.380  23.324  1.00  0.00    -0.010 A 
ATOM     87  C   UNL A   1      29.275  30.014  22.007  1.00  0.00     0.009 A 
ATOM     88  C   UNL A   1      28.885  31.523  23.803  1.00  0.00     0.116 A 
ATOM     89  C   UNL A   1      28.445  30.821  21.224  1.00  0.00     0.020 A 
ATOM     90  N   UNL A   1      28.094  32.331  23.065  1.00  0.00    -0.264 NA
ATOM     91  C   UNL A   1      27.895  31.965  21.785  1.00  0.00     0.111 A 
ENDBRANCH  85  86
ENDBRANCH  83  85
ENDBRANCH  75  81
ENDBRANCH  72  74
ENDBRANCH  71  72
ENDBRANCH   1  71
TORSDOF 14
ENDMDL
