MODEL 1
REMARK VINA RESULT:     -11.4      0.000      0.000
REMARK SMILES O=C(OCCOC(=O)[C@@H]1C=C[C@H](NS(=O)(=O)c2ccc(Cl)cc2)C1)c1ccc(-c2c3nc(c(-c4c(F)c(F)c(F)c(F)c4F)c4ccc([nH]4)c(-c4c(F)c(F)c(F)c(F)c4F)c4nc(c(-c5c(F)c(F)c(F)c(F)c5F)c5ccc2[nH]5)C=C4)C=C3)cc1
REMARK SMILES IDX 5 1 4 2 3 3 2 4 1 5 25 6 26 7 87 8 27 9 86 10 28 11 29 12
REMARK SMILES IDX 30 13 80 14 31 15 85 16 79 17 81 18 32 19 84 20 78 21 77 22
REMARK SMILES IDX 33 24 65 25 45 26 64 27 46 28 49 29 63 30 82 31 47 32 48 33
REMARK SMILES IDX 62 35 83 36 50 37 34 38 35 39 43 40 36 41 37 42 41 43 44 44
REMARK SMILES IDX 38 45 39 46 42 47 40 48 66 49 67 50 75 51 68 52 69 53 73 54
REMARK SMILES IDX 76 55 70 56 71 57 74 58 72 59 51 60 52 61 60 62 53 63 54 64
REMARK SMILES IDX 58 65 61 66 55 67 56 68 59 69 57 70 6 71 7 72 8 73 9 74
REMARK SMILES IDX 10 75 24 76 11 77 12 78 13 79 14 81 15 82 16 83 17 84 18 85
REMARK SMILES IDX 23 86 19 87 22 88 20 89 21 90
REMARK H PARENT 81 23 49 34 13 80
REMARK Flexibility Score: inf
ROOT
ATOM      1  C   UNL A   1      34.718  34.194  29.225  1.00  0.00     0.274 C 
ENDROOT
BRANCH   1   2
ATOM      2  C   UNL A   1      34.380  33.308  28.026  1.00  0.00     0.275 C 
BRANCH   2   3
ATOM      3  O   UNL A   1      34.032  31.964  28.420  1.00  0.00    -0.458 OA
BRANCH   3   4
ATOM      4  C   UNL A   1      34.501  30.809  27.884  1.00  0.00     0.338 C 
ATOM      5  O   UNL A   1      33.758  30.095  27.214  1.00  0.00    -0.246 OA
BRANCH   4   6
ATOM      6  C   UNL A   1      35.809  30.235  28.313  1.00  0.00     0.060 A 
ATOM      7  C   UNL A   1      36.069  29.677  29.565  1.00  0.00     0.016 A 
ATOM      8  C   UNL A   1      36.866  30.314  27.386  1.00  0.00     0.016 A 
ATOM      9  C   UNL A   1      37.325  29.136  29.853  1.00  0.00     0.010 A 
ATOM     10  C   UNL A   1      38.118  29.752  27.660  1.00  0.00     0.010 A 
ATOM     11  C   UNL A   1      38.356  29.166  28.905  1.00  0.00    -0.014 A 
BRANCH  11  12
ATOM     12  C   UNL A   1      39.708  28.717  29.313  1.00  0.00     0.031 A 
ATOM     13  C   UNL A   1      40.415  29.472  30.399  1.00  0.00     0.074 A 
ATOM     14  C   UNL A   1      40.241  27.592  28.801  1.00  0.00     0.049 A 
ATOM     15  N   UNL A   1      41.488  29.145  31.071  1.00  0.00    -0.248 NA
ATOM     16  C   UNL A   1      39.826  30.763  30.794  1.00  0.00     0.031 C 
ATOM     17  C   UNL A   1      39.649  26.785  27.735  1.00  0.00     0.029 A 
ATOM     18  N   UNL A   1      41.392  26.921  29.129  1.00  0.00    -0.354 N 
ATOM     19  C   UNL A   1      41.670  30.161  31.998  1.00  0.00     0.074 A 
ATOM     20  C   UNL A   1      40.648  31.154  31.754  1.00  0.00     0.031 C 
ATOM     21  C   UNL A   1      40.434  25.716  27.507  1.00  0.00     0.029 A 
ATOM     22  C   UNL A   1      41.576  25.760  28.417  1.00  0.00     0.049 A 
ATOM     23  H   UNL A   1      42.025  27.241  29.811  1.00  0.00     0.167 HD
ATOM     24  C   UNL A   1      42.587  30.244  32.990  1.00  0.00     0.037 A 
ATOM     25  C   UNL A   1      42.547  24.830  28.511  1.00  0.00     0.037 A 
ATOM     26  C   UNL A   1      43.632  29.282  33.201  1.00  0.00     0.049 A 
ATOM     27  C   UNL A   1      43.596  24.978  29.585  1.00  0.00     0.074 A 
ATOM     28  C   UNL A   1      44.643  29.294  34.143  1.00  0.00     0.029 A 
ATOM     29  N   UNL A   1      43.803  28.136  32.439  1.00  0.00    -0.354 N 
ATOM     30  N   UNL A   1      43.717  25.907  30.502  1.00  0.00    -0.248 NA
ATOM     31  C   UNL A   1      44.630  23.935  29.650  1.00  0.00     0.031 C 
ATOM     32  C   UNL A   1      45.448  28.168  33.930  1.00  0.00     0.029 A 
ATOM     33  C   UNL A   1      44.914  27.437  32.880  1.00  0.00     0.049 A 
ATOM     34  H   UNL A   1      43.222  27.860  31.693  1.00  0.00     0.167 HD
ATOM     35  C   UNL A   1      44.821  25.550  31.266  1.00  0.00     0.074 A 
ATOM     36  C   UNL A   1      45.320  24.306  30.720  1.00  0.00     0.031 C 
ATOM     37  C   UNL A   1      45.380  26.194  32.321  1.00  0.00     0.037 A 
BRANCH  24  38
ATOM     38  C   UNL A   1      42.478  31.421  33.909  1.00  0.00     0.064 A 
ATOM     39  C   UNL A   1      41.695  31.356  35.073  1.00  0.00     0.173 A 
ATOM     40  C   UNL A   1      43.131  32.625  33.621  1.00  0.00     0.173 A 
ATOM     41  F   UNL A   1      41.031  30.230  35.379  1.00  0.00    -0.203 F 
ATOM     42  C   UNL A   1      41.548  32.467  35.900  1.00  0.00     0.198 A 
ATOM     43  C   UNL A   1      42.999  33.728  34.461  1.00  0.00     0.198 A 
ATOM     44  F   UNL A   1      43.885  32.738  32.518  1.00  0.00    -0.203 F 
ATOM     45  F   UNL A   1      40.753  32.398  36.976  1.00  0.00    -0.200 F 
ATOM     46  C   UNL A   1      42.201  33.650  35.594  1.00  0.00     0.200 A 
ATOM     47  F   UNL A   1      43.632  34.872  34.167  1.00  0.00    -0.200 F 
ATOM     48  F   UNL A   1      42.052  34.721  36.385  1.00  0.00    -0.200 F 
ENDBRANCH  24  38
BRANCH  25  49
ATOM     49  C   UNL A   1      42.564  23.661  27.591  1.00  0.00     0.064 A 
ATOM     50  C   UNL A   1      42.034  22.421  27.976  1.00  0.00     0.173 A 
ATOM     51  C   UNL A   1      43.152  23.749  26.321  1.00  0.00     0.173 A 
ATOM     52  F   UNL A   1      41.475  22.279  29.187  1.00  0.00    -0.203 F 
ATOM     53  C   UNL A   1      42.118  21.308  27.139  1.00  0.00     0.198 A 
ATOM     54  C   UNL A   1      43.213  22.644  25.474  1.00  0.00     0.198 A 
ATOM     55  F   UNL A   1      43.669  24.912  25.900  1.00  0.00    -0.203 F 
ATOM     56  F   UNL A   1      41.651  20.123  27.554  1.00  0.00    -0.200 F 
ATOM     57  C   UNL A   1      42.706  21.422  25.888  1.00  0.00     0.200 A 
ATOM     58  F   UNL A   1      43.769  22.762  24.261  1.00  0.00    -0.200 F 
ATOM     59  F   UNL A   1      42.793  20.351  25.087  1.00  0.00    -0.200 F 
ENDBRANCH  25  49
BRANCH  37  60
ATOM     60  C   UNL A   1      46.577  25.555  32.958  1.00  0.00     0.064 A 
ATOM     61  C   UNL A   1      46.440  24.598  33.974  1.00  0.00     0.173 A 
ATOM     62  C   UNL A   1      47.871  25.871  32.517  1.00  0.00     0.173 A 
ATOM     63  F   UNL A   1      45.223  24.274  34.437  1.00  0.00    -0.203 F 
ATOM     64  C   UNL A   1      47.559  23.996  34.543  1.00  0.00     0.198 A 
ATOM     65  C   UNL A   1      48.985  25.248  33.071  1.00  0.00     0.198 A 
ATOM     66  F   UNL A   1      48.052  26.775  31.544  1.00  0.00    -0.203 F 
ATOM     67  F   UNL A   1      47.409  23.117  35.543  1.00  0.00    -0.200 F 
ATOM     68  C   UNL A   1      48.829  24.317  34.087  1.00  0.00     0.200 A 
ATOM     69  F   UNL A   1      50.211  25.548  32.621  1.00  0.00    -0.200 F 
ATOM     70  F   UNL A   1      49.904  23.731  34.631  1.00  0.00    -0.200 F 
ENDBRANCH  37  60
ENDBRANCH  11  12
ENDBRANCH   4   6
ENDBRANCH   3   4
ENDBRANCH   2   3
ENDBRANCH   1   2
BRANCH   1  71
ATOM     71  O   UNL A   1      33.580  34.300  30.091  1.00  0.00    -0.462 OA
BRANCH  71  72
ATOM     72  C   UNL A   1      32.913  35.490  30.074  1.00  0.00     0.312 C 
ATOM     73  O   UNL A   1      32.547  36.093  29.073  1.00  0.00    -0.252 OA
BRANCH  72  74
ATOM     74  C   UNL A   1      32.644  35.938  31.499  1.00  0.00     0.123 C 
ATOM     75  C   UNL A   1      33.225  37.299  31.718  1.00  0.00    -0.015 C 
ATOM     76  C   UNL A   1      33.360  35.072  32.539  1.00  0.00     0.043 C 
ATOM     77  C   UNL A   1      34.269  37.265  32.549  1.00  0.00    -0.011 C 
ATOM     78  C   UNL A   1      34.583  35.885  32.997  1.00  0.00     0.093 C 
BRANCH  78  79
ATOM     79  N   UNL A   1      35.759  35.397  32.295  1.00  0.00    -0.204 NA
ATOM     80  H   UNL A   1      36.337  36.212  32.089  1.00  0.00     0.142 HD
BRANCH  79  81
ATOM     81  S   UNL A   1      36.757  34.266  33.024  1.00  0.00     0.241 S 
ATOM     82  O   UNL A   1      37.135  34.809  34.308  1.00  0.00    -0.207 OA
ATOM     83  O   UNL A   1      36.135  32.967  32.892  1.00  0.00    -0.207 OA
BRANCH  81  84
ATOM     84  C   UNL A   1      38.220  34.258  32.014  1.00  0.00     0.082 A 
ATOM     85  C   UNL A   1      39.487  34.455  32.575  1.00  0.00     0.023 A 
ATOM     86  C   UNL A   1      38.060  34.161  30.628  1.00  0.00     0.023 A 
ATOM     87  C   UNL A   1      40.596  34.580  31.735  1.00  0.00     0.022 A 
ATOM     88  C   UNL A   1      39.176  34.266  29.795  1.00  0.00     0.022 A 
ATOM     89  C   UNL A   1      40.436  34.486  30.352  1.00  0.00     0.041 A 
ATOM     90  Cl  UNL A   1      41.803  34.656  29.323  1.00  0.00    -0.084 Cl
ENDBRANCH  81  84
ENDBRANCH  79  81
ENDBRANCH  78  79
ENDBRANCH  72  74
ENDBRANCH  71  72
ENDBRANCH   1  71
TORSDOF 14
ENDMDL
MODEL 2
REMARK VINA RESULT:     -11.2      5.399     12.197
REMARK SMILES O=C(OCCOC(=O)[C@@H]1C=C[C@H](NS(=O)(=O)c2ccc(Cl)cc2)C1)c1ccc(-c2c3nc(c(-c4c(F)c(F)c(F)c(F)c4F)c4ccc([nH]4)c(-c4c(F)c(F)c(F)c(F)c4F)c4nc(c(-c5c(F)c(F)c(F)c(F)c5F)c5ccc2[nH]5)C=C4)C=C3)cc1
REMARK SMILES IDX 5 1 4 2 3 3 2 4 1 5 25 6 26 7 87 8 27 9 86 10 28 11 29 12
REMARK SMILES IDX 30 13 80 14 31 15 85 16 79 17 81 18 32 19 84 20 78 21 77 22
REMARK SMILES IDX 33 24 65 25 45 26 64 27 46 28 49 29 63 30 82 31 47 32 48 33
REMARK SMILES IDX 62 35 83 36 50 37 34 38 35 39 43 40 36 41 37 42 41 43 44 44
REMARK SMILES IDX 38 45 39 46 42 47 40 48 66 49 67 50 75 51 68 52 69 53 73 54
REMARK SMILES IDX 76 55 70 56 71 57 74 58 72 59 51 60 52 61 60 62 53 63 54 64
REMARK SMILES IDX 58 65 61 66 55 67 56 68 59 69 57 70 6 71 7 72 8 73 9 74
REMARK SMILES IDX 10 75 24 76 11 77 12 78 13 79 14 81 15 82 16 83 17 84 18 85
REMARK SMILES IDX 23 86 19 87 22 88 20 89 21 90
REMARK H PARENT 81 23 49 34 13 80
REMARK Flexibility Score: inf
ROOT
ATOM      1  C   UNL A   1      41.859  20.392  26.930  1.00  0.00     0.274 C 
ENDROOT
BRANCH   1   2
ATOM      2  C   UNL A   1      41.100  21.426  26.099  1.00  0.00     0.275 C 
BRANCH   2   3
ATOM      3  O   UNL A   1      39.816  21.752  26.671  1.00  0.00    -0.458 OA
BRANCH   3   4
ATOM      4  C   UNL A   1      39.046  22.833  26.389  1.00  0.00     0.338 C 
ATOM      5  O   UNL A   1      38.173  22.759  25.528  1.00  0.00    -0.246 OA
BRANCH   4   6
ATOM      6  C   UNL A   1      39.410  24.190  26.889  1.00  0.00     0.060 A 
ATOM      7  C   UNL A   1      40.031  25.185  26.133  1.00  0.00     0.016 A 
ATOM      8  C   UNL A   1      39.141  24.455  28.246  1.00  0.00     0.016 A 
ATOM      9  C   UNL A   1      40.299  26.438  26.692  1.00  0.00     0.010 A 
ATOM     10  C   UNL A   1      39.385  25.715  28.804  1.00  0.00     0.010 A 
ATOM     11  C   UNL A   1      39.976  26.714  28.027  1.00  0.00    -0.014 A 
BRANCH  11  12
ATOM     12  C   UNL A   1      40.417  28.002  28.612  1.00  0.00     0.031 A 
ATOM     13  C   UNL A   1      41.889  28.258  28.750  1.00  0.00     0.074 A 
ATOM     14  C   UNL A   1      39.523  28.963  28.907  1.00  0.00     0.049 A 
ATOM     15  N   UNL A   1      42.513  29.375  29.019  1.00  0.00    -0.248 NA
ATOM     16  C   UNL A   1      42.780  27.104  28.541  1.00  0.00     0.031 C 
ATOM     17  C   UNL A   1      38.071  28.822  28.823  1.00  0.00     0.029 A 
ATOM     18  N   UNL A   1      39.710  30.260  29.315  1.00  0.00    -0.354 N 
ATOM     19  C   UNL A   1      43.865  29.069  28.960  1.00  0.00     0.074 A 
ATOM     20  C   UNL A   1      43.974  27.650  28.709  1.00  0.00     0.031 C 
ATOM     21  C   UNL A   1      37.496  29.992  29.154  1.00  0.00     0.029 A 
ATOM     22  C   UNL A   1      38.541  30.966  29.463  1.00  0.00     0.049 A 
ATOM     23  H   UNL A   1      40.599  30.648  29.485  1.00  0.00     0.167 HD
ATOM     24  C   UNL A   1      44.924  29.903  29.070  1.00  0.00     0.037 A 
ATOM     25  C   UNL A   1      38.343  32.259  29.787  1.00  0.00     0.037 A 
ATOM     26  C   UNL A   1      44.817  31.304  29.368  1.00  0.00     0.049 A 
ATOM     27  C   UNL A   1      39.543  33.156  29.968  1.00  0.00     0.074 A 
ATOM     28  C   UNL A   1      45.826  32.231  29.551  1.00  0.00     0.029 A 
ATOM     29  N   UNL A   1      43.615  31.975  29.541  1.00  0.00    -0.354 N 
ATOM     30  N   UNL A   1      40.817  32.871  29.840  1.00  0.00    -0.248 NA
ATOM     31  C   UNL A   1      39.276  34.559  30.316  1.00  0.00     0.031 C 
ATOM     32  C   UNL A   1      45.234  33.460  29.868  1.00  0.00     0.029 A 
ATOM     33  C   UNL A   1      43.856  33.304  29.843  1.00  0.00     0.049 A 
ATOM     34  H   UNL A   1      42.723  31.567  29.462  1.00  0.00     0.167 HD
ATOM     35  C   UNL A   1      41.500  34.059  30.067  1.00  0.00     0.074 A 
ATOM     36  C   UNL A   1      40.498  35.074  30.316  1.00  0.00     0.031 C 
ATOM     37  C   UNL A   1      42.835  34.293  30.076  1.00  0.00     0.037 A 
BRANCH  24  38
ATOM     38  C   UNL A   1      46.279  29.301  28.861  1.00  0.00     0.064 A 
ATOM     39  C   UNL A   1      46.964  28.681  29.918  1.00  0.00     0.173 A 
ATOM     40  C   UNL A   1      46.912  29.363  27.613  1.00  0.00     0.173 A 
ATOM     41  F   UNL A   1      46.408  28.619  31.138  1.00  0.00    -0.203 F 
ATOM     42  C   UNL A   1      48.247  28.171  29.739  1.00  0.00     0.198 A 
ATOM     43  C   UNL A   1      48.186  28.833  27.431  1.00  0.00     0.198 A 
ATOM     44  F   UNL A   1      46.301  29.952  26.574  1.00  0.00    -0.203 F 
ATOM     45  F   UNL A   1      48.902  27.631  30.776  1.00  0.00    -0.200 F 
ATOM     46  C   UNL A   1      48.856  28.245  28.496  1.00  0.00     0.200 A 
ATOM     47  F   UNL A   1      48.775  28.903  26.229  1.00  0.00    -0.200 F 
ATOM     48  F   UNL A   1      50.094  27.762  28.327  1.00  0.00    -0.200 F 
ENDBRANCH  24  38
BRANCH  25  49
ATOM     49  C   UNL A   1      36.965  32.800  29.932  1.00  0.00     0.064 A 
ATOM     50  C   UNL A   1      36.278  33.351  28.842  1.00  0.00     0.173 A 
ATOM     51  C   UNL A   1      36.323  32.815  31.179  1.00  0.00     0.173 A 
ATOM     52  F   UNL A   1      36.855  33.376  27.631  1.00  0.00    -0.203 F 
ATOM     53  C   UNL A   1      35.015  33.923  28.998  1.00  0.00     0.198 A 
ATOM     54  C   UNL A   1      35.050  33.363  31.330  1.00  0.00     0.198 A 
ATOM     55  F   UNL A   1      36.932  32.296  32.255  1.00  0.00    -0.203 F 
ATOM     56  F   UNL A   1      34.405  34.490  27.949  1.00  0.00    -0.200 F 
ATOM     57  C   UNL A   1      34.403  33.927  30.242  1.00  0.00     0.200 A 
ATOM     58  F   UNL A   1      34.456  33.352  32.531  1.00  0.00    -0.200 F 
ATOM     59  F   UNL A   1      33.192  34.483  30.393  1.00  0.00    -0.200 F 
ENDBRANCH  25  49
BRANCH  37  60
ATOM     60  C   UNL A   1      43.283  35.698  30.346  1.00  0.00     0.064 A 
ATOM     61  C   UNL A   1      43.390  36.642  29.315  1.00  0.00     0.173 A 
ATOM     62  C   UNL A   1      43.565  36.116  31.656  1.00  0.00     0.173 A 
ATOM     63  F   UNL A   1      43.144  36.286  28.045  1.00  0.00    -0.203 F 
ATOM     64  C   UNL A   1      43.787  37.950  29.582  1.00  0.00     0.198 A 
ATOM     65  C   UNL A   1      43.936  37.431  31.922  1.00  0.00     0.198 A 
ATOM     66  F   UNL A   1      43.470  35.251  32.676  1.00  0.00    -0.203 F 
ATOM     67  F   UNL A   1      43.925  38.825  28.576  1.00  0.00    -0.200 F 
ATOM     68  C   UNL A   1      44.053  38.344  30.885  1.00  0.00     0.200 A 
ATOM     69  F   UNL A   1      44.180  37.813  33.182  1.00  0.00    -0.200 F 
ATOM     70  F   UNL A   1      44.427  39.605  31.140  1.00  0.00    -0.200 F 
ENDBRANCH  37  60
ENDBRANCH  11  12
ENDBRANCH   4   6
ENDBRANCH   3   4
ENDBRANCH   2   3
ENDBRANCH   1   2
BRANCH   1  71
ATOM     71  O   UNL A   1      43.113  20.089  26.305  1.00  0.00    -0.462 OA
BRANCH  71  72
ATOM     72  C   UNL A   1      43.190  18.897  25.644  1.00  0.00     0.312 C 
ATOM     73  O   UNL A   1      42.457  17.933  25.818  1.00  0.00    -0.252 OA
BRANCH  72  74
ATOM     74  C   UNL A   1      44.303  18.963  24.614  1.00  0.00     0.123 C 
ATOM     75  C   UNL A   1      45.577  18.456  25.216  1.00  0.00    -0.015 C 
ATOM     76  C   UNL A   1      44.648  20.396  24.203  1.00  0.00     0.043 C 
ATOM     77  C   UNL A   1      46.469  19.434  25.381  1.00  0.00    -0.011 C 
ATOM     78  C   UNL A   1      45.941  20.754  24.955  1.00  0.00     0.093 C 
BRANCH  78  79
ATOM     79  N   UNL A   1      45.598  21.546  26.125  1.00  0.00    -0.204 NA
ATOM     80  H   UNL A   1      46.278  21.312  26.848  1.00  0.00     0.142 HD
BRANCH  79  81
ATOM     81  S   UNL A   1      45.557  23.217  26.020  1.00  0.00     0.241 S 
ATOM     82  O   UNL A   1      46.904  23.650  25.730  1.00  0.00    -0.207 OA
ATOM     83  O   UNL A   1      44.435  23.587  25.184  1.00  0.00    -0.207 OA
BRANCH  81  84
ATOM     84  C   UNL A   1      45.184  23.751  27.674  1.00  0.00     0.082 A 
ATOM     85  C   UNL A   1      46.061  24.583  28.380  1.00  0.00     0.023 A 
ATOM     86  C   UNL A   1      44.045  23.226  28.292  1.00  0.00     0.023 A 
ATOM     87  C   UNL A   1      45.803  24.869  29.722  1.00  0.00     0.022 A 
ATOM     88  C   UNL A   1      43.781  23.533  29.628  1.00  0.00     0.022 A 
ATOM     89  C   UNL A   1      44.667  24.343  30.339  1.00  0.00     0.041 A 
ATOM     90  Cl  UNL A   1      44.363  24.685  31.998  1.00  0.00    -0.084 Cl
ENDBRANCH  81  84
ENDBRANCH  79  81
ENDBRANCH  78  79
ENDBRANCH  72  74
ENDBRANCH  71  72
ENDBRANCH   1  71
TORSDOF 14
ENDMDL
MODEL 3
REMARK VINA RESULT:     -11.0      4.456      7.347
REMARK SMILES O=C(OCCOC(=O)[C@@H]1C=C[C@H](NS(=O)(=O)c2ccc(Cl)cc2)C1)c1ccc(-c2c3nc(c(-c4c(F)c(F)c(F)c(F)c4F)c4ccc([nH]4)c(-c4c(F)c(F)c(F)c(F)c4F)c4nc(c(-c5c(F)c(F)c(F)c(F)c5F)c5ccc2[nH]5)C=C4)C=C3)cc1
REMARK SMILES IDX 5 1 4 2 3 3 2 4 1 5 25 6 26 7 87 8 27 9 86 10 28 11 29 12
REMARK SMILES IDX 30 13 80 14 31 15 85 16 79 17 81 18 32 19 84 20 78 21 77 22
REMARK SMILES IDX 33 24 65 25 45 26 64 27 46 28 49 29 63 30 82 31 47 32 48 33
REMARK SMILES IDX 62 35 83 36 50 37 34 38 35 39 43 40 36 41 37 42 41 43 44 44
REMARK SMILES IDX 38 45 39 46 42 47 40 48 66 49 67 50 75 51 68 52 69 53 73 54
REMARK SMILES IDX 76 55 70 56 71 57 74 58 72 59 51 60 52 61 60 62 53 63 54 64
REMARK SMILES IDX 58 65 61 66 55 67 56 68 59 69 57 70 6 71 7 72 8 73 9 74
REMARK SMILES IDX 10 75 24 76 11 77 12 78 13 79 14 81 15 82 16 83 17 84 18 85
REMARK SMILES IDX 23 86 19 87 22 88 20 89 21 90
REMARK H PARENT 81 23 49 34 13 80
REMARK Flexibility Score: inf
ROOT
ATOM      1  C   UNL A   1      31.398  31.971  26.818  1.00  0.00     0.274 C 
ENDROOT
BRANCH   1   2
ATOM      2  C   UNL A   1      32.564  32.925  27.077  1.00  0.00     0.275 C 
BRANCH   2   3
ATOM      3  O   UNL A   1      32.153  34.112  27.788  1.00  0.00    -0.458 OA
BRANCH   3   4
ATOM      4  C   UNL A   1      32.849  34.771  28.748  1.00  0.00     0.338 C 
ATOM      5  O   UNL A   1      32.549  35.926  29.043  1.00  0.00    -0.246 OA
BRANCH   4   6
ATOM      6  C   UNL A   1      34.144  34.241  29.263  1.00  0.00     0.060 A 
ATOM      7  C   UNL A   1      35.403  34.578  28.768  1.00  0.00     0.016 A 
ATOM      8  C   UNL A   1      34.069  33.291  30.301  1.00  0.00     0.016 A 
ATOM      9  C   UNL A   1      36.560  34.047  29.347  1.00  0.00     0.010 A 
ATOM     10  C   UNL A   1      35.223  32.775  30.901  1.00  0.00     0.010 A 
ATOM     11  C   UNL A   1      36.480  33.146  30.417  1.00  0.00    -0.014 A 
BRANCH  11  12
ATOM     12  C   UNL A   1      37.724  32.499  30.894  1.00  0.00     0.031 A 
ATOM     13  C   UNL A   1      38.243  32.864  32.254  1.00  0.00     0.074 A 
ATOM     14  C   UNL A   1      38.310  31.525  30.174  1.00  0.00     0.049 A 
ATOM     15  N   UNL A   1      39.169  32.280  32.969  1.00  0.00    -0.248 NA
ATOM     16  C   UNL A   1      37.627  34.033  32.901  1.00  0.00     0.031 C 
ATOM     17  C   UNL A   1      37.899  31.096  28.838  1.00  0.00     0.029 A 
ATOM     18  N   UNL A   1      39.365  30.702  30.480  1.00  0.00    -0.354 N 
ATOM     19  C   UNL A   1      39.208  32.979  34.168  1.00  0.00     0.074 A 
ATOM     20  C   UNL A   1      38.273  34.076  34.055  1.00  0.00     0.031 C 
ATOM     21  C   UNL A   1      38.684  30.077  28.444  1.00  0.00     0.029 A 
ATOM     22  C   UNL A   1      39.644  29.776  29.504  1.00  0.00     0.049 A 
ATOM     23  H   UNL A   1      39.874  30.768  31.320  1.00  0.00     0.167 HD
ATOM     24  C   UNL A   1      39.932  32.710  35.278  1.00  0.00     0.037 A 
ATOM     25  C   UNL A   1      40.557  28.785  29.483  1.00  0.00     0.037 A 
ATOM     26  C   UNL A   1      40.897  31.650  35.371  1.00  0.00     0.049 A 
ATOM     27  C   UNL A   1      41.399  28.546  30.712  1.00  0.00     0.074 A 
ATOM     28  C   UNL A   1      41.722  31.320  36.430  1.00  0.00     0.029 A 
ATOM     29  N   UNL A   1      41.172  30.753  34.349  1.00  0.00    -0.354 N 
ATOM     30  N   UNL A   1      41.378  29.169  31.865  1.00  0.00    -0.248 NA
ATOM     31  C   UNL A   1      42.376  27.450  30.642  1.00  0.00     0.031 C 
ATOM     32  C   UNL A   1      42.522  30.240  36.036  1.00  0.00     0.029 A 
ATOM     33  C   UNL A   1      42.166  29.876  34.747  1.00  0.00     0.049 A 
ATOM     34  H   UNL A   1      40.728  30.743  33.471  1.00  0.00     0.167 HD
ATOM     35  C   UNL A   1      42.316  28.529  32.664  1.00  0.00     0.074 A 
ATOM     36  C   UNL A   1      42.872  27.452  31.872  1.00  0.00     0.031 C 
ATOM     37  C   UNL A   1      42.692  28.807  33.937  1.00  0.00     0.037 A 
BRANCH  24  38
ATOM     38  C   UNL A   1      39.691  33.587  36.467  1.00  0.00     0.064 A 
ATOM     39  C   UNL A   1      38.796  33.201  37.478  1.00  0.00     0.173 A 
ATOM     40  C   UNL A   1      40.330  34.827  36.591  1.00  0.00     0.173 A 
ATOM     41  F   UNL A   1      38.142  32.032  37.390  1.00  0.00    -0.203 F 
ATOM     42  C   UNL A   1      38.527  34.040  38.556  1.00  0.00     0.198 A 
ATOM     43  C   UNL A   1      40.076  35.655  37.682  1.00  0.00     0.198 A 
ATOM     44  F   UNL A   1      41.188  35.242  35.648  1.00  0.00    -0.203 F 
ATOM     45  F   UNL A   1      37.630  33.674  39.480  1.00  0.00    -0.200 F 
ATOM     46  C   UNL A   1      39.169  35.265  38.658  1.00  0.00     0.200 A 
ATOM     47  F   UNL A   1      40.697  36.839  37.782  1.00  0.00    -0.200 F 
ATOM     48  F   UNL A   1      38.904  36.076  39.691  1.00  0.00    -0.200 F 
ENDBRANCH  24  38
BRANCH  25  49
ATOM     49  C   UNL A   1      40.708  27.922  28.281  1.00  0.00     0.064 A 
ATOM     50  C   UNL A   1      40.066  26.679  28.188  1.00  0.00     0.173 A 
ATOM     51  C   UNL A   1      41.537  28.306  27.216  1.00  0.00     0.173 A 
ATOM     52  F   UNL A   1      39.277  26.258  29.187  1.00  0.00    -0.203 F 
ATOM     53  C   UNL A   1      40.270  25.841  27.092  1.00  0.00     0.198 A 
ATOM     54  C   UNL A   1      41.719  27.480  26.108  1.00  0.00     0.198 A 
ATOM     55  F   UNL A   1      42.170  29.487  27.250  1.00  0.00    -0.203 F 
ATOM     56  F   UNL A   1      39.685  24.636  27.055  1.00  0.00    -0.200 F 
ATOM     57  C   UNL A   1      41.095  26.243  26.053  1.00  0.00     0.200 A 
ATOM     58  F   UNL A   1      42.505  27.879  25.099  1.00  0.00    -0.200 F 
ATOM     59  F   UNL A   1      41.295  25.435  25.003  1.00  0.00    -0.200 F 
ENDBRANCH  25  49
BRANCH  37  60
ATOM     60  C   UNL A   1      43.738  27.925  34.551  1.00  0.00     0.064 A 
ATOM     61  C   UNL A   1      45.097  28.264  34.507  1.00  0.00     0.173 A 
ATOM     62  C   UNL A   1      43.371  26.752  35.228  1.00  0.00     0.173 A 
ATOM     63  F   UNL A   1      45.497  29.369  33.859  1.00  0.00    -0.203 F 
ATOM     64  C   UNL A   1      46.057  27.448  35.099  1.00  0.00     0.198 A 
ATOM     65  C   UNL A   1      44.331  25.952  35.841  1.00  0.00     0.198 A 
ATOM     66  F   UNL A   1      42.083  26.389  35.303  1.00  0.00    -0.203 F 
ATOM     67  F   UNL A   1      47.355  27.768  35.008  1.00  0.00    -0.200 F 
ATOM     68  C   UNL A   1      45.672  26.297  35.771  1.00  0.00     0.200 A 
ATOM     69  F   UNL A   1      43.957  24.848  36.501  1.00  0.00    -0.200 F 
ATOM     70  F   UNL A   1      46.597  25.516  36.346  1.00  0.00    -0.200 F 
ENDBRANCH  37  60
ENDBRANCH  11  12
ENDBRANCH   4   6
ENDBRANCH   3   4
ENDBRANCH   2   3
ENDBRANCH   1   2
BRANCH   1  71
ATOM     71  O   UNL A   1      31.782  30.630  27.145  1.00  0.00    -0.462 OA
BRANCH  71  72
ATOM     72  C   UNL A   1      31.909  29.762  26.099  1.00  0.00     0.312 C 
ATOM     73  O   UNL A   1      31.955  30.069  24.914  1.00  0.00    -0.252 OA
BRANCH  72  74
ATOM     74  C   UNL A   1      32.037  28.346  26.631  1.00  0.00     0.123 C 
ATOM     75  C   UNL A   1      33.471  27.921  26.591  1.00  0.00    -0.015 C 
ATOM     76  C   UNL A   1      31.334  27.314  25.746  1.00  0.00     0.043 C 
ATOM     77  C   UNL A   1      33.681  26.970  25.679  1.00  0.00    -0.011 C 
ATOM     78  C   UNL A   1      32.444  26.624  24.936  1.00  0.00     0.093 C 
BRANCH  78  79
ATOM     79  N   UNL A   1      32.489  27.213  23.607  1.00  0.00    -0.204 NA
ATOM     80  H   UNL A   1      33.272  27.867  23.602  1.00  0.00     0.142 HD
BRANCH  79  81
ATOM     81  S   UNL A   1      32.670  26.230  22.263  1.00  0.00     0.241 S 
ATOM     82  O   UNL A   1      31.414  26.262  21.551  1.00  0.00    -0.207 OA
ATOM     83  O   UNL A   1      33.923  26.567  21.625  1.00  0.00    -0.207 OA
BRANCH  81  84
ATOM     84  C   UNL A   1      32.841  24.594  22.937  1.00  0.00     0.082 A 
ATOM     85  C   UNL A   1      34.103  24.035  23.167  1.00  0.00     0.023 A 
ATOM     86  C   UNL A   1      31.680  23.837  23.127  1.00  0.00     0.023 A 
ATOM     87  C   UNL A   1      34.199  22.700  23.566  1.00  0.00     0.022 A 
ATOM     88  C   UNL A   1      31.782  22.510  23.546  1.00  0.00     0.022 A 
ATOM     89  C   UNL A   1      33.041  21.945  23.753  1.00  0.00     0.041 A 
ATOM     90  Cl  UNL A   1      33.166  20.296  24.229  1.00  0.00    -0.084 Cl
ENDBRANCH  81  84
ENDBRANCH  79  81
ENDBRANCH  78  79
ENDBRANCH  72  74
ENDBRANCH  71  72
ENDBRANCH   1  71
TORSDOF 14
ENDMDL
