MODEL 1
REMARK VINA RESULT:     -10.4      0.000      0.000
REMARK SMILES CCc1ccc(Nc2nc(OCC(=O)OCCOC(=O)c3ccc(-c4c5nc(c(-c6c(F)c(F)c(F)c(F)c6F)c6ccc([nH]6)c(-c6c(F)c(F)c(F)c(F)c6F)c6nc(c(-c7c(F)c(F)c(F)c(F)c7F)c7ccc4[nH]7)C=C6)C=C5)cc3)cc(-c3cccnc3)n2)cc1
REMARK SMILES IDX 15 1 13 2 14 3 12 4 11 5 10 6 8 7 9 8 92 9 85 10 84 11 7 12
REMARK SMILES IDX 6 14 3 15 4 16 94 17 5 18 93 19 2 20 1 21 86 22 87 23 91 24
REMARK SMILES IDX 88 25 90 26 89 27 16 28 17 29 18 30 19 31 20 32 21 33 22 34
REMARK SMILES IDX 83 35 23 36 82 37 24 38 25 39 26 40 76 41 27 42 81 43 75 44
REMARK SMILES IDX 77 45 28 46 80 47 74 48 73 49 29 51 61 52 41 53 60 54 42 55
REMARK SMILES IDX 45 56 59 57 78 58 43 59 44 60 58 62 79 63 46 64 30 65 31 66
REMARK SMILES IDX 39 67 32 68 33 69 37 70 40 71 34 72 35 73 38 74 36 75 62 76
REMARK SMILES IDX 63 77 71 78 64 79 65 80 69 81 72 82 66 83 67 84 70 85 68 86
REMARK SMILES IDX 47 87 48 88 56 89 49 90 50 91 54 92 57 93 51 94 52 95 55 96
REMARK SMILES IDX 53 97
REMARK H PARENT 7 13 77 50 45 61
REMARK Flexibility Score: inf
ROOT
ATOM      1  O   UNL A   1      33.091  35.852  32.056  1.00  0.00    -0.460 OA
ENDROOT
BRANCH   1   2
ATOM      2  C   UNL A   1      33.978  35.985  33.077  1.00  0.00     0.344 C 
ATOM      3  O   UNL A   1      34.126  37.006  33.742  1.00  0.00    -0.248 OA
BRANCH   2   4
ATOM      4  C   UNL A   1      34.778  34.718  33.366  1.00  0.00     0.353 C 
BRANCH   4   5
ATOM      5  O   UNL A   1      35.839  34.789  34.291  1.00  0.00    -0.466 OA
BRANCH   5   6
ATOM      6  C   UNL A   1      36.437  33.647  34.727  1.00  0.00     0.219 A 
ATOM      7  C   UNL A   1      37.508  32.751  36.538  1.00  0.00     0.231 A 
ATOM      8  N   UNL A   1      36.756  33.729  36.028  1.00  0.00    -0.177 NA
ATOM      9  N   UNL A   1      37.852  31.649  35.866  1.00  0.00    -0.212 NA
ATOM     10  C   UNL A   1      37.508  31.572  34.576  1.00  0.00     0.081 A 
ATOM     11  C   UNL A   1      36.786  32.567  33.949  1.00  0.00     0.097 A 
BRANCH   7  12
ATOM     12  N   UNL A   1      38.098  32.995  37.775  1.00  0.00    -0.324 N 
ATOM     13  H   UNL A   1      38.933  33.517  37.782  1.00  0.00     0.170 HD
BRANCH  12  14
ATOM     14  C   UNL A   1      37.600  32.556  39.016  1.00  0.00     0.041 A 
ATOM     15  C   UNL A   1      36.539  31.738  41.510  1.00  0.00    -0.048 A 
ATOM     16  C   UNL A   1      37.854  32.197  41.415  1.00  0.00     0.006 A 
ATOM     17  C   UNL A   1      35.763  31.680  40.343  1.00  0.00     0.006 A 
ATOM     18  C   UNL A   1      38.375  32.589  40.184  1.00  0.00     0.026 A 
ATOM     19  C   UNL A   1      36.292  32.079  39.109  1.00  0.00     0.026 A 
BRANCH  15  20
ATOM     20  C   UNL A   1      35.976  31.378  42.861  1.00  0.00     0.032 C 
ATOM     21  C   UNL A   1      34.816  32.260  43.297  1.00  0.00     0.009 C 
ENDBRANCH  15  20
ENDBRANCH  12  14
ENDBRANCH   7  12
BRANCH  10  22
ATOM     22  C   UNL A   1      38.090  30.428  33.880  1.00  0.00     0.019 A 
ATOM     23  C   UNL A   1      37.359  29.706  32.930  1.00  0.00     0.013 A 
ATOM     24  C   UNL A   1      39.416  30.050  34.052  1.00  0.00     0.121 A 
ATOM     25  C   UNL A   1      37.930  28.626  32.264  1.00  0.00     0.021 A 
ATOM     26  N   UNL A   1      40.006  28.996  33.427  1.00  0.00    -0.264 NA
ATOM     27  C   UNL A   1      39.244  28.307  32.550  1.00  0.00     0.111 A 
ENDBRANCH  10  22
ENDBRANCH   5   6
ENDBRANCH   4   5
ENDBRANCH   2   4
ENDBRANCH   1   2
BRANCH   1  28
ATOM     28  C   UNL A   1      33.150  36.883  31.047  1.00  0.00     0.274 C 
BRANCH  28  29
ATOM     29  C   UNL A   1      32.954  36.331  29.635  1.00  0.00     0.275 C 
BRANCH  29  30
ATOM     30  O   UNL A   1      32.530  34.954  29.662  1.00  0.00    -0.458 OA
BRANCH  30  31
ATOM     31  C   UNL A   1      33.166  34.175  28.768  1.00  0.00     0.338 C 
ATOM     32  O   UNL A   1      32.727  33.812  27.678  1.00  0.00    -0.246 OA
BRANCH  31  33
ATOM     33  C   UNL A   1      34.517  33.799  29.202  1.00  0.00     0.060 A 
ATOM     34  C   UNL A   1      35.639  34.194  28.468  1.00  0.00     0.016 A 
ATOM     35  C   UNL A   1      34.648  32.879  30.246  1.00  0.00     0.016 A 
ATOM     36  C   UNL A   1      36.885  33.632  28.749  1.00  0.00     0.010 A 
ATOM     37  C   UNL A   1      35.905  32.362  30.563  1.00  0.00     0.010 A 
ATOM     38  C   UNL A   1      37.031  32.722  29.808  1.00  0.00    -0.014 A 
BRANCH  38  39
ATOM     39  C   UNL A   1      38.370  32.208  30.188  1.00  0.00     0.031 A 
ATOM     40  C   UNL A   1      38.909  30.926  29.626  1.00  0.00     0.074 A 
ATOM     41  C   UNL A   1      39.076  32.883  31.112  1.00  0.00     0.049 A 
ATOM     42  N   UNL A   1      39.979  30.250  29.964  1.00  0.00    -0.248 NA
ATOM     43  C   UNL A   1      38.139  30.318  28.538  1.00  0.00     0.031 C 
ATOM     44  C   UNL A   1      38.659  34.137  31.738  1.00  0.00     0.029 A 
ATOM     45  N   UNL A   1      40.277  32.592  31.704  1.00  0.00    -0.354 N 
ATOM     46  C   UNL A   1      39.990  29.124  29.150  1.00  0.00     0.074 A 
ATOM     47  C   UNL A   1      38.820  29.205  28.301  1.00  0.00     0.031 C 
ATOM     48  C   UNL A   1      39.579  34.501  32.643  1.00  0.00     0.029 A 
ATOM     49  C   UNL A   1      40.622  33.480  32.690  1.00  0.00     0.049 A 
ATOM     50  H   UNL A   1      40.836  31.823  31.447  1.00  0.00     0.167 HD
ATOM     51  C   UNL A   1      40.894  28.118  29.119  1.00  0.00     0.037 A 
ATOM     52  C   UNL A   1      41.640  33.454  33.568  1.00  0.00     0.037 A 
ATOM     53  C   UNL A   1      42.072  28.056  29.947  1.00  0.00     0.049 A 
ATOM     54  C   UNL A   1      42.627  32.328  33.520  1.00  0.00     0.074 A 
ATOM     55  C   UNL A   1      43.080  27.108  29.949  1.00  0.00     0.029 A 
ATOM     56  N   UNL A   1      42.397  28.989  30.919  1.00  0.00    -0.354 N 
ATOM     57  N   UNL A   1      42.639  31.275  32.740  1.00  0.00    -0.248 NA
ATOM     58  C   UNL A   1      43.743  32.385  34.474  1.00  0.00     0.031 C 
ATOM     59  C   UNL A   1      44.004  27.452  30.944  1.00  0.00     0.029 A 
ATOM     60  C   UNL A   1      43.582  28.629  31.540  1.00  0.00     0.049 A 
ATOM     61  H   UNL A   1      41.865  29.787  31.137  1.00  0.00     0.167 HD
ATOM     62  C   UNL A   1      43.760  30.548  33.103  1.00  0.00     0.074 A 
ATOM     63  C   UNL A   1      44.415  31.285  34.165  1.00  0.00     0.031 C 
ATOM     64  C   UNL A   1      44.209  29.373  32.600  1.00  0.00     0.037 A 
BRANCH  51  65
ATOM     65  C   UNL A   1      40.657  26.984  28.169  1.00  0.00     0.064 A 
ATOM     66  C   UNL A   1      41.388  26.860  26.980  1.00  0.00     0.173 A 
ATOM     67  C   UNL A   1      39.758  25.959  28.501  1.00  0.00     0.173 A 
ATOM     68  F   UNL A   1      42.260  27.814  26.620  1.00  0.00    -0.203 F 
ATOM     69  C   UNL A   1      41.230  25.747  26.156  1.00  0.00     0.198 A 
ATOM     70  C   UNL A   1      39.612  24.841  27.683  1.00  0.00     0.198 A 
ATOM     71  F   UNL A   1      39.044  26.028  29.635  1.00  0.00    -0.203 F 
ATOM     72  F   UNL A   1      41.938  25.647  25.023  1.00  0.00    -0.200 F 
ATOM     73  C   UNL A   1      40.348  24.736  26.513  1.00  0.00     0.200 A 
ATOM     74  F   UNL A   1      38.772  23.859  28.035  1.00  0.00    -0.200 F 
ATOM     75  F   UNL A   1      40.215  23.655  25.732  1.00  0.00    -0.200 F 
ENDBRANCH  51  65
BRANCH  52  76
ATOM     76  C   UNL A   1      41.738  34.528  34.583  1.00  0.00     0.064 A 
ATOM     77  C   UNL A   1      41.324  34.313  35.901  1.00  0.00     0.173 A 
ATOM     78  C   UNL A   1      42.308  35.769  34.262  1.00  0.00     0.173 A 
ATOM     79  F   UNL A   1      40.762  33.145  36.245  1.00  0.00    -0.203 F 
ATOM     80  C   UNL A   1      41.474  35.305  36.868  1.00  0.00     0.198 A 
ATOM     81  C   UNL A   1      42.477  36.751  35.233  1.00  0.00     0.198 A 
ATOM     82  F   UNL A   1      42.728  36.012  33.012  1.00  0.00    -0.203 F 
ATOM     83  F   UNL A   1      41.056  35.084  38.120  1.00  0.00    -0.200 F 
ATOM     84  C   UNL A   1      42.058  36.519  36.535  1.00  0.00     0.200 A 
ATOM     85  F   UNL A   1      43.055  37.916  34.912  1.00  0.00    -0.200 F 
ATOM     86  F   UNL A   1      42.219  37.465  37.470  1.00  0.00    -0.200 F 
ENDBRANCH  52  76
BRANCH  64  87
ATOM     87  C   UNL A   1      45.470  28.823  33.190  1.00  0.00     0.064 A 
ATOM     88  C   UNL A   1      46.725  29.176  32.677  1.00  0.00     0.173 A 
ATOM     89  C   UNL A   1      45.421  27.951  34.287  1.00  0.00     0.173 A 
ATOM     90  F   UNL A   1      46.814  29.994  31.617  1.00  0.00    -0.203 F 
ATOM     91  C   UNL A   1      47.892  28.658  33.231  1.00  0.00     0.198 A 
ATOM     92  C   UNL A   1      46.591  27.449  34.849  1.00  0.00     0.198 A 
ATOM     93  F   UNL A   1      44.240  27.589  34.810  1.00  0.00    -0.203 F 
ATOM     94  F   UNL A   1      49.081  28.978  32.704  1.00  0.00    -0.200 F 
ATOM     95  C   UNL A   1      47.823  27.798  34.318  1.00  0.00     0.200 A 
ATOM     96  F   UNL A   1      46.524  26.620  35.900  1.00  0.00    -0.200 F 
ATOM     97  F   UNL A   1      48.948  27.297  34.847  1.00  0.00    -0.200 F 
ENDBRANCH  64  87
ENDBRANCH  38  39
ENDBRANCH  31  33
ENDBRANCH  30  31
ENDBRANCH  29  30
ENDBRANCH  28  29
ENDBRANCH   1  28
TORSDOF 17
ENDMDL
MODEL 2
REMARK VINA RESULT:     -10.1      6.253     11.921
REMARK SMILES CCc1ccc(Nc2nc(OCC(=O)OCCOC(=O)c3ccc(-c4c5nc(c(-c6c(F)c(F)c(F)c(F)c6F)c6ccc([nH]6)c(-c6c(F)c(F)c(F)c(F)c6F)c6nc(c(-c7c(F)c(F)c(F)c(F)c7F)c7ccc4[nH]7)C=C6)C=C5)cc3)cc(-c3cccnc3)n2)cc1
REMARK SMILES IDX 15 1 13 2 14 3 12 4 11 5 10 6 8 7 9 8 92 9 85 10 84 11 7 12
REMARK SMILES IDX 6 14 3 15 4 16 94 17 5 18 93 19 2 20 1 21 86 22 87 23 91 24
REMARK SMILES IDX 88 25 90 26 89 27 16 28 17 29 18 30 19 31 20 32 21 33 22 34
REMARK SMILES IDX 83 35 23 36 82 37 24 38 25 39 26 40 76 41 27 42 81 43 75 44
REMARK SMILES IDX 77 45 28 46 80 47 74 48 73 49 29 51 61 52 41 53 60 54 42 55
REMARK SMILES IDX 45 56 59 57 78 58 43 59 44 60 58 62 79 63 46 64 30 65 31 66
REMARK SMILES IDX 39 67 32 68 33 69 37 70 40 71 34 72 35 73 38 74 36 75 62 76
REMARK SMILES IDX 63 77 71 78 64 79 65 80 69 81 72 82 66 83 67 84 70 85 68 86
REMARK SMILES IDX 47 87 48 88 56 89 49 90 50 91 54 92 57 93 51 94 52 95 55 96
REMARK SMILES IDX 53 97
REMARK H PARENT 7 13 77 50 45 61
REMARK Flexibility Score: inf
ROOT
ATOM      1  O   UNL A   1      35.241  22.409  24.440  1.00  0.00    -0.460 OA
ENDROOT
BRANCH   1   2
ATOM      2  C   UNL A   1      34.300  22.951  23.623  1.00  0.00     0.344 C 
ATOM      3  O   UNL A   1      34.514  23.346  22.481  1.00  0.00    -0.248 OA
BRANCH   2   4
ATOM      4  C   UNL A   1      32.905  23.000  24.240  1.00  0.00     0.353 C 
BRANCH   4   5
ATOM      5  O   UNL A   1      32.745  23.635  25.488  1.00  0.00    -0.466 OA
BRANCH   5   6
ATOM      6  C   UNL A   1      32.302  24.921  25.543  1.00  0.00     0.219 A 
ATOM      7  C   UNL A   1      30.821  26.361  24.564  1.00  0.00     0.231 A 
ATOM      8  N   UNL A   1      31.242  25.108  24.742  1.00  0.00    -0.177 NA
ATOM      9  N   UNL A   1      31.311  27.412  25.227  1.00  0.00    -0.212 NA
ATOM     10  C   UNL A   1      32.354  27.207  26.039  1.00  0.00     0.081 A 
ATOM     11  C   UNL A   1      32.896  25.953  26.233  1.00  0.00     0.097 A 
BRANCH   7  12
ATOM     12  N   UNL A   1      29.948  26.585  23.503  1.00  0.00    -0.324 N 
ATOM     13  H   UNL A   1      29.621  25.795  23.013  1.00  0.00     0.170 HD
BRANCH  12  14
ATOM     14  C   UNL A   1      29.494  27.845  23.073  1.00  0.00     0.041 A 
ATOM     15  C   UNL A   1      28.530  30.342  22.150  1.00  0.00    -0.048 A 
ATOM     16  C   UNL A   1      29.876  30.003  22.001  1.00  0.00     0.006 A 
ATOM     17  C   UNL A   1      27.674  29.426  22.777  1.00  0.00     0.006 A 
ATOM     18  C   UNL A   1      30.349  28.777  22.466  1.00  0.00     0.026 A 
ATOM     19  C   UNL A   1      28.154  28.194  23.239  1.00  0.00     0.026 A 
BRANCH  15  20
ATOM     20  C   UNL A   1      28.028  31.647  21.585  1.00  0.00     0.032 C 
ATOM     21  C   UNL A   1      28.554  32.873  22.315  1.00  0.00     0.009 C 
ENDBRANCH  15  20
ENDBRANCH  12  14
ENDBRANCH   7  12
BRANCH  10  22
ATOM     22  C   UNL A   1      32.938  28.436  26.566  1.00  0.00     0.019 A 
ATOM     23  C   UNL A   1      34.301  28.519  26.875  1.00  0.00     0.013 A 
ATOM     24  C   UNL A   1      32.204  29.608  26.706  1.00  0.00     0.121 A 
ATOM     25  C   UNL A   1      34.848  29.702  27.365  1.00  0.00     0.021 A 
ATOM     26  N   UNL A   1      32.702  30.778  27.188  1.00  0.00    -0.264 NA
ATOM     27  C   UNL A   1      34.013  30.793  27.510  1.00  0.00     0.111 A 
ENDBRANCH  10  22
ENDBRANCH   5   6
ENDBRANCH   4   5
ENDBRANCH   2   4
ENDBRANCH   1   2
BRANCH   1  28
ATOM     28  C   UNL A   1      36.541  22.213  23.842  1.00  0.00     0.274 C 
BRANCH  28  29
ATOM     29  C   UNL A   1      37.351  21.125  24.546  1.00  0.00     0.275 C 
BRANCH  29  30
ATOM     30  O   UNL A   1      37.665  21.497  25.902  1.00  0.00    -0.458 OA
BRANCH  30  31
ATOM     31  C   UNL A   1      38.977  21.424  26.193  1.00  0.00     0.338 C 
ATOM     32  O   UNL A   1      39.702  20.444  26.034  1.00  0.00    -0.246 OA
BRANCH  31  33
ATOM     33  C   UNL A   1      39.515  22.687  26.710  1.00  0.00     0.060 A 
ATOM     34  C   UNL A   1      39.121  23.910  26.159  1.00  0.00     0.016 A 
ATOM     35  C   UNL A   1      40.570  22.635  27.626  1.00  0.00     0.016 A 
ATOM     36  C   UNL A   1      39.815  25.075  26.489  1.00  0.00     0.010 A 
ATOM     37  C   UNL A   1      41.224  23.810  27.999  1.00  0.00     0.010 A 
ATOM     38  C   UNL A   1      40.863  25.038  27.423  1.00  0.00    -0.014 A 
BRANCH  38  39
ATOM     39  C   UNL A   1      41.529  26.286  27.868  1.00  0.00     0.031 A 
ATOM     40  C   UNL A   1      40.778  27.362  28.597  1.00  0.00     0.074 A 
ATOM     41  C   UNL A   1      42.821  26.474  27.543  1.00  0.00     0.049 A 
ATOM     42  N   UNL A   1      41.157  28.574  28.915  1.00  0.00    -0.248 NA
ATOM     43  C   UNL A   1      39.415  27.031  29.020  1.00  0.00     0.031 C 
ATOM     44  C   UNL A   1      43.657  25.508  26.832  1.00  0.00     0.029 A 
ATOM     45  N   UNL A   1      43.642  27.551  27.743  1.00  0.00    -0.354 N 
ATOM     46  C   UNL A   1      40.066  29.157  29.550  1.00  0.00     0.074 A 
ATOM     47  C   UNL A   1      39.010  28.168  29.570  1.00  0.00     0.031 C 
ATOM     48  C   UNL A   1      44.871  26.043  26.636  1.00  0.00     0.029 A 
ATOM     49  C   UNL A   1      44.877  27.403  27.166  1.00  0.00     0.049 A 
ATOM     50  H   UNL A   1      43.374  28.351  28.250  1.00  0.00     0.167 HD
ATOM     51  C   UNL A   1      39.960  30.405  30.064  1.00  0.00     0.037 A 
ATOM     52  C   UNL A   1      45.888  28.279  27.037  1.00  0.00     0.037 A 
ATOM     53  C   UNL A   1      41.024  31.377  30.066  1.00  0.00     0.049 A 
ATOM     54  C   UNL A   1      45.749  29.657  27.609  1.00  0.00     0.074 A 
ATOM     55  C   UNL A   1      41.034  32.648  30.614  1.00  0.00     0.029 A 
ATOM     56  N   UNL A   1      42.269  31.179  29.490  1.00  0.00    -0.354 N 
ATOM     57  N   UNL A   1      44.722  30.196  28.217  1.00  0.00    -0.248 NA
ATOM     58  C   UNL A   1      46.909  30.549  27.475  1.00  0.00     0.031 C 
ATOM     59  C   UNL A   1      42.280  33.231  30.347  1.00  0.00     0.029 A 
ATOM     60  C   UNL A   1      43.050  32.310  29.655  1.00  0.00     0.049 A 
ATOM     61  H   UNL A   1      42.555  30.356  29.031  1.00  0.00     0.167 HD
ATOM     62  C   UNL A   1      45.110  31.485  28.545  1.00  0.00     0.074 A 
ATOM     63  C   UNL A   1      46.473  31.645  28.079  1.00  0.00     0.031 C 
ATOM     64  C   UNL A   1      44.400  32.451  29.176  1.00  0.00     0.037 A 
BRANCH  51  65
ATOM     65  C   UNL A   1      38.650  30.812  30.666  1.00  0.00     0.064 A 
ATOM     66  C   UNL A   1      38.420  30.724  32.045  1.00  0.00     0.173 A 
ATOM     67  C   UNL A   1      37.653  31.388  29.864  1.00  0.00     0.173 A 
ATOM     68  F   UNL A   1      39.344  30.182  32.851  1.00  0.00    -0.203 F 
ATOM     69  C   UNL A   1      37.235  31.202  32.603  1.00  0.00     0.198 A 
ATOM     70  C   UNL A   1      36.476  31.878  30.427  1.00  0.00     0.198 A 
ATOM     71  F   UNL A   1      37.833  31.505  28.540  1.00  0.00    -0.203 F 
ATOM     72  F   UNL A   1      37.033  31.109  33.925  1.00  0.00    -0.200 F 
ATOM     73  C   UNL A   1      36.269  31.785  31.795  1.00  0.00     0.200 A 
ATOM     74  F   UNL A   1      35.551  32.454  29.648  1.00  0.00    -0.200 F 
ATOM     75  F   UNL A   1      35.141  32.266  32.337  1.00  0.00    -0.200 F 
ENDBRANCH  51  65
BRANCH  52  76
ATOM     76  C   UNL A   1      47.105  27.865  26.300  1.00  0.00     0.064 A 
ATOM     77  C   UNL A   1      48.229  27.384  26.979  1.00  0.00     0.173 A 
ATOM     78  C   UNL A   1      47.138  27.887  24.898  1.00  0.00     0.173 A 
ATOM     79  F   UNL A   1      48.243  27.360  28.320  1.00  0.00    -0.203 F 
ATOM     80  C   UNL A   1      49.349  26.938  26.280  1.00  0.00     0.198 A 
ATOM     81  C   UNL A   1      48.248  27.422  24.201  1.00  0.00     0.198 A 
ATOM     82  F   UNL A   1      46.076  28.332  24.209  1.00  0.00    -0.203 F 
ATOM     83  F   UNL A   1      50.420  26.496  26.950  1.00  0.00    -0.200 F 
ATOM     84  C   UNL A   1      49.354  26.949  24.893  1.00  0.00     0.200 A 
ATOM     85  F   UNL A   1      48.243  27.420  22.861  1.00  0.00    -0.200 F 
ATOM     86  F   UNL A   1      50.424  26.504  24.221  1.00  0.00    -0.200 F 
ENDBRANCH  52  76
BRANCH  64  87
ATOM     87  C   UNL A   1      45.092  33.758  29.404  1.00  0.00     0.064 A 
ATOM     88  C   UNL A   1      44.991  34.803  28.476  1.00  0.00     0.173 A 
ATOM     89  C   UNL A   1      45.846  33.970  30.566  1.00  0.00     0.173 A 
ATOM     90  F   UNL A   1      44.295  34.634  27.342  1.00  0.00    -0.203 F 
ATOM     91  C   UNL A   1      45.640  36.014  28.696  1.00  0.00     0.198 A 
ATOM     92  C   UNL A   1      46.479  35.189  30.790  1.00  0.00     0.198 A 
ATOM     93  F   UNL A   1      45.967  32.997  31.481  1.00  0.00    -0.203 F 
ATOM     94  F   UNL A   1      45.563  36.990  27.780  1.00  0.00    -0.200 F 
ATOM     95  C   UNL A   1      46.380  36.206  29.854  1.00  0.00     0.200 A 
ATOM     96  F   UNL A   1      47.192  35.375  31.910  1.00  0.00    -0.200 F 
ATOM     97  F   UNL A   1      47.009  37.372  30.062  1.00  0.00    -0.200 F 
ENDBRANCH  64  87
ENDBRANCH  38  39
ENDBRANCH  31  33
ENDBRANCH  30  31
ENDBRANCH  29  30
ENDBRANCH  28  29
ENDBRANCH   1  28
TORSDOF 17
ENDMDL
MODEL 3
REMARK VINA RESULT:     -10.1      7.266     12.937
REMARK SMILES CCc1ccc(Nc2nc(OCC(=O)OCCOC(=O)c3ccc(-c4c5nc(c(-c6c(F)c(F)c(F)c(F)c6F)c6ccc([nH]6)c(-c6c(F)c(F)c(F)c(F)c6F)c6nc(c(-c7c(F)c(F)c(F)c(F)c7F)c7ccc4[nH]7)C=C6)C=C5)cc3)cc(-c3cccnc3)n2)cc1
REMARK SMILES IDX 15 1 13 2 14 3 12 4 11 5 10 6 8 7 9 8 92 9 85 10 84 11 7 12
REMARK SMILES IDX 6 14 3 15 4 16 94 17 5 18 93 19 2 20 1 21 86 22 87 23 91 24
REMARK SMILES IDX 88 25 90 26 89 27 16 28 17 29 18 30 19 31 20 32 21 33 22 34
REMARK SMILES IDX 83 35 23 36 82 37 24 38 25 39 26 40 76 41 27 42 81 43 75 44
REMARK SMILES IDX 77 45 28 46 80 47 74 48 73 49 29 51 61 52 41 53 60 54 42 55
REMARK SMILES IDX 45 56 59 57 78 58 43 59 44 60 58 62 79 63 46 64 30 65 31 66
REMARK SMILES IDX 39 67 32 68 33 69 37 70 40 71 34 72 35 73 38 74 36 75 62 76
REMARK SMILES IDX 63 77 71 78 64 79 65 80 69 81 72 82 66 83 67 84 70 85 68 86
REMARK SMILES IDX 47 87 48 88 56 89 49 90 50 91 54 92 57 93 51 94 52 95 55 96
REMARK SMILES IDX 53 97
REMARK H PARENT 7 13 77 50 45 61
REMARK Flexibility Score: inf
ROOT
ATOM      1  O   UNL A   1      39.339  22.202  26.130  1.00  0.00    -0.460 OA
ENDROOT
BRANCH   1   2
ATOM      2  C   UNL A   1      38.240  23.003  26.126  1.00  0.00     0.344 C 
ATOM      3  O   UNL A   1      38.156  24.072  26.724  1.00  0.00    -0.248 OA
BRANCH   2   4
ATOM      4  C   UNL A   1      37.096  22.472  25.268  1.00  0.00     0.353 C 
BRANCH   4   5
ATOM      5  O   UNL A   1      35.778  22.840  25.604  1.00  0.00    -0.466 OA
BRANCH   5   6
ATOM      6  C   UNL A   1      34.739  22.028  25.266  1.00  0.00     0.219 A 
ATOM      7  C   UNL A   1      32.460  21.997  25.082  1.00  0.00     0.231 A 
ATOM      8  N   UNL A   1      33.582  22.706  25.223  1.00  0.00    -0.177 NA
ATOM      9  N   UNL A   1      32.435  20.680  24.859  1.00  0.00    -0.212 NA
ATOM     10  C   UNL A   1      33.598  20.021  24.883  1.00  0.00     0.081 A 
ATOM     11  C   UNL A   1      34.801  20.665  25.088  1.00  0.00     0.097 A 
BRANCH   7  12
ATOM     12  N   UNL A   1      31.264  22.654  25.358  1.00  0.00    -0.324 N 
ATOM     13  H   UNL A   1      30.570  22.146  25.838  1.00  0.00     0.170 HD
BRANCH  12  14
ATOM     14  C   UNL A   1      30.966  23.984  25.008  1.00  0.00     0.041 A 
ATOM     15  C   UNL A   1      30.437  26.662  24.257  1.00  0.00    -0.048 A 
ATOM     16  C   UNL A   1      30.655  26.331  25.596  1.00  0.00     0.006 A 
ATOM     17  C   UNL A   1      30.474  25.639  23.299  1.00  0.00     0.006 A 
ATOM     18  C   UNL A   1      30.904  25.010  25.963  1.00  0.00     0.026 A 
ATOM     19  C   UNL A   1      30.729  24.314  23.673  1.00  0.00     0.026 A 
BRANCH  15  20
ATOM     20  C   UNL A   1      30.231  28.106  23.876  1.00  0.00     0.032 C 
ATOM     21  C   UNL A   1      31.168  29.068  24.590  1.00  0.00     0.009 C 
ENDBRANCH  15  20
ENDBRANCH  12  14
ENDBRANCH   7  12
BRANCH  10  22
ATOM     22  C   UNL A   1      33.452  18.570  24.823  1.00  0.00     0.019 A 
ATOM     23  C   UNL A   1      34.148  17.807  23.878  1.00  0.00     0.013 A 
ATOM     24  C   UNL A   1      32.693  17.860  25.746  1.00  0.00     0.121 A 
ATOM     25  C   UNL A   1      34.010  16.423  23.841  1.00  0.00     0.021 A 
ATOM     26  N   UNL A   1      32.528  16.511  25.736  1.00  0.00    -0.264 NA
ATOM     27  C   UNL A   1      33.189  15.826  24.778  1.00  0.00     0.111 A 
ENDBRANCH  10  22
ENDBRANCH   5   6
ENDBRANCH   4   5
ENDBRANCH   2   4
ENDBRANCH   1   2
BRANCH   1  28
ATOM     28  C   UNL A   1      39.176  20.926  25.475  1.00  0.00     0.274 C 
BRANCH  28  29
ATOM     29  C   UNL A   1      39.901  19.796  26.205  1.00  0.00     0.275 C 
BRANCH  29  30
ATOM     30  O   UNL A   1      40.920  19.203  25.376  1.00  0.00    -0.458 OA
BRANCH  30  31
ATOM     31  C   UNL A   1      42.125  19.128  25.970  1.00  0.00     0.338 C 
ATOM     32  O   UNL A   1      42.781  18.105  26.157  1.00  0.00    -0.246 OA
BRANCH  31  33
ATOM     33  C   UNL A   1      42.642  20.442  26.370  1.00  0.00     0.060 A 
ATOM     34  C   UNL A   1      42.599  20.849  27.707  1.00  0.00     0.016 A 
ATOM     35  C   UNL A   1      42.996  21.350  25.369  1.00  0.00     0.016 A 
ATOM     36  C   UNL A   1      42.865  22.179  28.035  1.00  0.00     0.010 A 
ATOM     37  C   UNL A   1      43.318  22.666  25.706  1.00  0.00     0.010 A 
ATOM     38  C   UNL A   1      43.240  23.095  27.040  1.00  0.00    -0.014 A 
BRANCH  38  39
ATOM     39  C   UNL A   1      43.637  24.481  27.394  1.00  0.00     0.031 A 
ATOM     40  C   UNL A   1      42.642  25.474  27.917  1.00  0.00     0.074 A 
ATOM     41  C   UNL A   1      44.907  24.860  27.170  1.00  0.00     0.049 A 
ATOM     42  N   UNL A   1      42.776  26.761  28.123  1.00  0.00    -0.248 NA
ATOM     43  C   UNL A   1      41.314  24.952  28.249  1.00  0.00     0.031 C 
ATOM     44  C   UNL A   1      45.967  23.990  26.659  1.00  0.00     0.029 A 
ATOM     45  N   UNL A   1      45.512  26.081  27.315  1.00  0.00    -0.354 N 
ATOM     46  C   UNL A   1      41.540  27.203  28.580  1.00  0.00     0.074 A 
ATOM     47  C   UNL A   1      40.667  26.049  28.620  1.00  0.00     0.031 C 
ATOM     48  C   UNL A   1      47.089  24.709  26.514  1.00  0.00     0.029 A 
ATOM     49  C   UNL A   1      46.811  26.096  26.877  1.00  0.00     0.049 A 
ATOM     50  H   UNL A   1      45.060  26.868  27.697  1.00  0.00     0.167 HD
ATOM     51  C   UNL A   1      41.173  28.458  28.931  1.00  0.00     0.037 A 
ATOM     52  C   UNL A   1      47.671  27.119  26.738  1.00  0.00     0.037 A 
ATOM     53  C   UNL A   1      42.054  29.597  28.916  1.00  0.00     0.049 A 
ATOM     54  C   UNL A   1      47.243  28.502  27.127  1.00  0.00     0.074 A 
ATOM     55  C   UNL A   1      41.792  30.899  29.308  1.00  0.00     0.029 A 
ATOM     56  N   UNL A   1      43.371  29.565  28.485  1.00  0.00    -0.354 N 
ATOM     57  N   UNL A   1      46.079  28.909  27.570  1.00  0.00    -0.248 NA
ATOM     58  C   UNL A   1      48.246  29.566  26.997  1.00  0.00     0.031 C 
ATOM     59  C   UNL A   1      42.946  31.663  29.089  1.00  0.00     0.029 A 
ATOM     60  C   UNL A   1      43.931  30.828  28.586  1.00  0.00     0.049 A 
ATOM     61  H   UNL A   1      43.838  28.765  28.155  1.00  0.00     0.167 HD
ATOM     62  C   UNL A   1      46.209  30.273  27.776  1.00  0.00     0.074 A 
ATOM     63  C   UNL A   1      47.570  30.623  27.424  1.00  0.00     0.031 C 
ATOM     64  C   UNL A   1      45.283  31.156  28.220  1.00  0.00     0.037 A 
BRANCH  51  65
ATOM     65  C   UNL A   1      39.754  28.685  29.356  1.00  0.00     0.064 A 
ATOM     66  C   UNL A   1      39.358  28.534  30.692  1.00  0.00     0.173 A 
ATOM     67  C   UNL A   1      38.807  29.155  28.435  1.00  0.00     0.173 A 
ATOM     68  F   UNL A   1      40.229  28.088  31.609  1.00  0.00    -0.203 F 
ATOM     69  C   UNL A   1      38.060  28.848  31.091  1.00  0.00     0.198 A 
ATOM     70  C   UNL A   1      37.514  29.482  28.840  1.00  0.00     0.198 A 
ATOM     71  F   UNL A   1      39.143  29.328  27.147  1.00  0.00    -0.203 F 
ATOM     72  F   UNL A   1      37.699  28.696  32.374  1.00  0.00    -0.200 F 
ATOM     73  C   UNL A   1      37.143  29.329  30.167  1.00  0.00     0.200 A 
ATOM     74  F   UNL A   1      36.635  29.960  27.950  1.00  0.00    -0.200 F 
ATOM     75  F   UNL A   1      35.903  29.653  30.558  1.00  0.00    -0.200 F 
ENDBRANCH  51  65
BRANCH  52  76
ATOM     76  C   UNL A   1      49.014  26.855  26.171  1.00  0.00     0.064 A 
ATOM     77  C   UNL A   1      50.051  26.368  26.974  1.00  0.00     0.173 A 
ATOM     78  C   UNL A   1      49.262  27.027  24.802  1.00  0.00     0.173 A 
ATOM     79  F   UNL A   1      49.858  26.202  28.291  1.00  0.00    -0.203 F 
ATOM     80  C   UNL A   1      51.294  26.062  26.426  1.00  0.00     0.198 A 
ATOM     81  C   UNL A   1      50.498  26.702  24.252  1.00  0.00     0.198 A 
ATOM     82  F   UNL A   1      48.291  27.482  23.996  1.00  0.00    -0.203 F 
ATOM     83  F   UNL A   1      52.279  25.613  27.214  1.00  0.00    -0.200 F 
ATOM     84  C   UNL A   1      51.514  26.221  25.065  1.00  0.00     0.200 A 
ATOM     85  F   UNL A   1      50.701  26.842  22.935  1.00  0.00    -0.200 F 
ATOM     86  F   UNL A   1      52.705  25.910  24.536  1.00  0.00    -0.200 F 
ENDBRANCH  52  76
BRANCH  64  87
ATOM     87  C   UNL A   1      45.719  32.581  28.354  1.00  0.00     0.064 A 
ATOM     88  C   UNL A   1      46.303  33.053  29.538  1.00  0.00     0.173 A 
ATOM     89  C   UNL A   1      45.567  33.475  27.285  1.00  0.00     0.173 A 
ATOM     90  F   UNL A   1      46.450  32.234  30.590  1.00  0.00    -0.203 F 
ATOM     91  C   UNL A   1      46.703  34.381  29.653  1.00  0.00     0.198 A 
ATOM     92  C   UNL A   1      45.984  34.798  27.400  1.00  0.00     0.198 A 
ATOM     93  F   UNL A   1      45.014  33.065  26.135  1.00  0.00    -0.203 F 
ATOM     94  F   UNL A   1      47.226  34.823  30.806  1.00  0.00    -0.200 F 
ATOM     95  C   UNL A   1      46.546  35.250  28.583  1.00  0.00     0.200 A 
ATOM     96  F   UNL A   1      45.834  35.637  26.365  1.00  0.00    -0.200 F 
ATOM     97  F   UNL A   1      46.928  36.530  28.699  1.00  0.00    -0.200 F 
ENDBRANCH  64  87
ENDBRANCH  38  39
ENDBRANCH  31  33
ENDBRANCH  30  31
ENDBRANCH  29  30
ENDBRANCH  28  29
ENDBRANCH   1  28
TORSDOF 17
ENDMDL
